#       Name:                AV-unprocessed.smi:21
#       Creating user name   scv26
#       Creation time:       Thu Mar 26 15:37:01 2020


#       File generated by GOLD software.
#

@<TRIPOS>MOLECULE
AV-unprocessed.smi:21
    71    74     1
SMALL
NO_CHARGES


@<TRIPOS>ATOM
      1 ****        -2.9016  -5.1348   3.0475 C.3            1 S1                 0.0000
      2 ****        -2.8532  -4.0007   2.1963 O.3            1 S1                 0.0000
      3 ****        -2.2605  -4.2582   0.9298 C.3            1 S1                 0.0000
      4 ****        -1.8886  -2.9303   0.2840 C.3            1 S1                 0.0000
      5 ****        -3.2095  -2.4311  -0.3133 C.3            1 S1                 0.0000
      6 ****        -3.0428  -1.3792  -1.4377 C.3            1 S1                 0.0000
      7 ****        -2.4126  -0.1452  -0.9626 N.pl3          1 S1                 0.0000
      8 ****        -3.2083   0.7685  -0.1525 C.3            1 S1                 0.0000
      9 ****        -1.0544  -0.0374  -0.9655 C.ar           1 S1                 0.0000
     10 ****        -0.3704  -0.6162  -1.9879 N.ar           1 S1                 0.0000
     11 ****         0.9617  -0.5464  -2.0464 C.ar           1 S1                 0.0000
     12 ****         1.8022   0.0406  -1.1949 N.ar           1 S1                 0.0000
     13 ****         1.1313   0.6209  -0.1603 C.ar           1 S1                 0.0000
     14 ****        -0.2814   0.6323   0.0326 C.ar           1 S1                 0.0000
     15 ****        -0.5795   1.3087   1.2118 N.2            1 S1                 0.0000
     16 ****         0.5800   1.6806   1.6790 C.2            1 S1                 0.0000
     17 ****         1.6614   1.3152   0.9131 N.pl3          1 S1                 0.0000
     18 ****         3.0578   1.5959   1.2000 C.3            1 S1                 0.0000
     19 ****         3.4204   3.0959   1.0716 C.3            1 S1                 0.0000
     20 ****         4.8957   3.3297   1.4730 C.3            1 S1                 0.0000
     21 ****         5.0736   3.1206   2.8586 O.3            1 S1                 0.0000
     22 ****         3.0579   3.6803  -0.3228 C.3            1 S1                 0.0000
     23 ****         3.1417   5.2027  -0.4443 C.3            1 S1                 0.0000
     24 ****         3.8916   5.4349  -1.7572 C.3            1 S1                 0.0000
     25 ****         3.7603   4.2103  -2.4613 O.3            1 S1                 0.0000
     26 ****         3.8961   3.1751  -1.5029 C.3            1 S1                 0.0000
     27 ****        -3.9713  -3.6611  -0.6775 N.4            1 S1                 1.0000
     28 ****        -4.2827  -3.8741  -2.1111 C.3            1 S1                 0.0000
     29 ****        -3.2903  -4.8230  -0.0557 C.3            1 S1                 0.0000
     30 ****        -1.3839  -4.8998   1.0353 H              1 S1                 0.0000
     31 ****        -3.7837  -1.9753   0.4947 H              1 S1                 0.0000
     32 ****        -3.3736  -4.8603   3.9909 H              1 S1                 0.0000
     33 ****        -1.8987  -5.5006   3.2706 H              1 S1                 0.0000
     34 ****        -3.4800  -5.9482   2.6093 H              1 S1                 0.0000
     35 ****        -1.4458  -2.2261   0.9896 H              1 S1                 0.0000
     36 ****        -1.1625  -3.1048  -0.5115 H              1 S1                 0.0000
     37 ****        -2.5020  -1.8026  -2.2835 H              1 S1                 0.0000
     38 ****        -4.0238  -1.1045  -1.8260 H              1 S1                 0.0000
     39 ****        -2.8612   1.7960  -0.2675 H              1 S1                 0.0000
     40 ****        -3.1573   0.4946   0.9016 H              1 S1                 0.0000
     41 ****        -4.2548   0.7399  -0.4565 H              1 S1                 0.0000
     42 ****         1.4195  -1.0295  -2.8971 H              1 S1                 0.0000
     43 ****         0.6800   2.2375   2.5996 H              1 S1                 0.0000
     44 ****         3.2629   1.2390   2.2098 H              1 S1                 0.0000
     45 ****         3.6815   1.0000   0.5329 H              1 S1                 0.0000
     46 ****         2.8040   3.6378   1.7910 H              1 S1                 0.0000
     47 ****         5.5622   2.6588   0.9309 H              1 S1                 0.0000
     48 ****         5.2184   4.3456   1.2500 H              1 S1                 0.0000
     49 ****         5.9824   3.2701   3.0712 H              1 S1                 0.0000
     50 ****         2.0200   3.4326  -0.5473 H              1 S1                 0.0000
     51 ****         2.1377   5.6257  -0.4976 H              1 S1                 0.0000
     52 ****         3.6477   5.6868   0.3905 H              1 S1                 0.0000
     53 ****         3.4901   6.2716  -2.3293 H              1 S1                 0.0000
     54 ****         4.9486   5.6273  -1.5667 H              1 S1                 0.0000
     55 ****         4.9507   3.0682  -1.2492 H              1 S1                 0.0000
     56 ****         3.5418   2.2215  -1.8938 H              1 S1                 0.0000
     57 ****        -3.3737  -3.9371  -2.7107 H              1 S1                 0.0000
     58 ****        -4.9095  -3.0740  -2.5043 H              1 S1                 0.0000
     59 ****        -4.8340  -4.8062  -2.2389 H              1 S1                 0.0000
     60 ****        -2.7595  -5.3887  -0.8234 H              1 S1                 0.0000
     61 ****        -4.0085  -5.5010   0.4048 H              1 S1                 0.0000
     62 ****        -4.8624  -3.5708  -0.2104 H              1 S1                 0.0000
     63 ****        -2.3231  -3.2862   2.6529 LP             1 S1                 0.0000
     64 ****        -3.7880  -3.6783   2.0471 LP             1 S1                 0.0000
     65 ****        -0.8713  -1.1004  -2.7053 LP             1 S1                 0.0000
     66 ****         2.7965   0.0536  -1.3014 LP             1 S1                 0.0000
     67 ****        -1.4812   1.4729   1.6115 LP             1 S1                 0.0000
     68 ****         4.8228   2.1813   3.0926 LP             1 S1                 0.0000
     69 ****         4.4982   3.7571   3.3721 LP             1 S1                 0.0000
     70 ****         4.4756   4.1334  -3.1559 LP             1 S1                 0.0000
     71 ****         2.8631   4.1590  -2.8998 LP             1 S1                 0.0000
@<TRIPOS>BOND
    1    1    2 1     
    2    1   32 1     
    3    1   33 1     
    4    1   34 1     
    5    2    3 1     
    6    3   30 1     
    7    3   29 1     
    8    3    4 1     
    9    4    5 1     
   10    4   35 1     
   11    4   36 1     
   12    5   31 1     
   13    5    6 1     
   14    5   27 1     
   15    6    7 1     
   16    6   37 1     
   17    6   38 1     
   18    7    8 1     
   19    7    9 1     
   20    8   39 1     
   21    8   40 1     
   22    8   41 1     
   23    9   14 ar    
   24    9   10 ar    
   25   10   11 ar    
   26   11   12 ar    
   27   11   42 1     
   28   12   13 ar    
   29   13   17 1     
   30   13   14 ar    
   31   14   15 1     
   32   15   16 2     
   33   16   17 1     
   34   16   43 1     
   35   17   18 1     
   36   18   19 1     
   37   18   44 1     
   38   18   45 1     
   39   19   20 1     
   40   19   22 1     
   41   19   46 1     
   42   20   21 1     
   43   20   47 1     
   44   20   48 1     
   45   21   49 1     
   46   22   26 1     
   47   22   23 1     
   48   22   50 1     
   49   23   24 1     
   50   23   51 1     
   51   23   52 1     
   52   24   25 1     
   53   24   53 1     
   54   24   54 1     
   55   25   26 1     
   56   26   55 1     
   57   26   56 1     
   58   27   28 1     
   59   27   29 1     
   60   27   62 1     
   61   28   57 1     
   62   28   58 1     
   63   28   59 1     
   64   29   60 1     
   65   29   61 1     
   66    2   63 1     
   67    2   64 1     
   68   10   65 1     
   69   12   66 1     
   70   15   67 1     
   71   21   68 1     
   72   21   69 1     
   73   25   70 1     
   74   25   71 1     
@<TRIPOS>SUBSTRUCTURE
      1 S1             1
@<TRIPOS>SET
LONE_PAIRS      STATIC     ATOMS    <user>   **** ""
9 63 64 65 66 67 68 69 70 71
DONOR_HYDROGENS      STATIC     ATOMS    <user>   **** ""
2 49 62
ATOM$BLUE        STATIC     ATOMS    COLORGROUP SYSTEM
9 63 64 65 66 67 68 69 70 71
ATOM$RED        STATIC     ATOMS    COLORGROUP SYSTEM
2 49 62
