AV-unprocessed.smi:2473|AV-procd|sdf|9748|dock9
  -GOLD-   2272013393D 1   1.00000     0.00000
 Structure written by MMmdl.
 47 48  0  0  0  0  0  0  0  0  1 V2000
  153.6539  141.1456  160.7439 C   0  0  0  0  0  0  0  0  0  0  0  0
  153.0139  142.0461  159.6774 C   0  0  1  0  0  0  0  0  0  0  0  0
  151.8253  141.3465  158.9934 C   0  0  0  0  0  0  0  0  0  0  0  0
  151.1919  142.2456  157.9144 C   0  0  1  0  0  0  0  0  0  0  0  0
  150.0005  141.5531  157.2404 C   0  0  0  0  0  0  0  0  0  0  0  0
  149.7129  140.3915  157.5302 O   0  0  0  0  0  0  0  0  0  0  0  0
  149.2952  142.2936  156.3701 N   0  0  0  0  0  0  0  0  0  0  0  0
  148.0368  141.8976  155.7428 C   0  0  0  0  0  0  0  0  0  0  0  0
  148.2485  141.3536  154.3161 C   0  0  0  0  0  0  0  0  0  0  0  0
  149.1797  140.1781  154.2438 C   0  0  0  0  0  0  0  0  0  0  0  0
  150.4887  140.2676  154.4583 N   0  0  0  0  0  0  0  0  0  0  0  0
  150.9599  138.9655  154.3335 C   0  0  0  0  0  0  0  0  0  0  0  0
  149.9115  138.1272  154.0418 C   0  0  0  0  0  0  0  0  0  0  0  0
  148.7719  138.9186  153.9862 N   0  0  0  0  0  0  0  0  0  0  0  0
  147.4275  138.4494  153.7086 C   0  0  0  0  0  0  0  0  0  0  0  0
  150.7535  143.5933  158.5307 C   0  0  0  0  0  0  0  0  0  0  0  0
  151.8983  144.3458  159.2511 C   0  0  0  0  0  0  0  0  0  0  0  0
  152.9272  144.8893  158.2356 C   0  0  0  0  0  0  0  0  0  0  0  0
  151.3009  145.5514  160.0029 C   0  0  0  0  0  0  0  0  0  0  0  0
  152.5725  143.3988  160.2759 C   0  0  0  0  0  0  0  0  0  0  0  0
  152.9456  140.9027  161.5364 H   0  0  0  0  0  0  0  0  0  0  0  0
  154.5147  141.6324  161.2033 H   0  0  0  0  0  0  0  0  0  0  0  0
  154.0010  140.2080  160.3088 H   0  0  0  0  0  0  0  0  0  0  0  0
  153.7773  142.2329  158.9220 H   0  0  0  0  0  0  0  0  0  0  0  0
  152.1595  140.4098  158.5449 H   0  0  0  0  0  0  0  0  0  0  0  0
  151.0800  141.0794  159.7447 H   0  0  0  0  0  0  0  0  0  0  0  0
  151.9422  142.4368  157.1465 H   0  0  0  0  0  0  0  0  0  0  0  0
  149.6161  143.2328  156.1851 H   0  0  0  0  0  0  0  0  0  0  0  0
  147.5720  141.1300  156.3617 H   0  0  0  0  0  0  0  0  0  0  0  0
  147.3357  142.7334  155.7201 H   0  0  0  0  0  0  0  0  0  0  0  0
  147.2872  141.0863  153.8774 H   0  0  0  0  0  0  0  0  0  0  0  0
  148.6507  142.1464  153.6846 H   0  0  0  0  0  0  0  0  0  0  0  0
  152.0069  138.7342  154.4623 H   0  0  0  0  0  0  0  0  0  0  0  0
  149.8834  137.0603  153.8761 H   0  0  0  0  0  0  0  0  0  0  0  0
  147.4185  137.3622  153.6270 H   0  0  0  0  0  0  0  0  0  0  0  0
  147.0741  138.8767  152.7701 H   0  0  0  0  0  0  0  0  0  0  0  0
  146.7547  138.7429  154.5144 H   0  0  0  0  0  0  0  0  0  0  0  0
  150.3242  144.2331  157.7587 H   0  0  0  0  0  0  0  0  0  0  0  0
  149.9477  143.4109  159.2441 H   0  0  0  0  0  0  0  0  0  0  0  0
  153.7202  145.4442  158.7382 H   0  0  0  0  0  0  0  0  0  0  0  0
  152.4561  145.5679  157.5237 H   0  0  0  0  0  0  0  0  0  0  0  0
  153.4061  144.1008  157.6573 H   0  0  0  0  0  0  0  0  0  0  0  0
  152.0722  146.1118  160.5325 H   0  0  0  0  0  0  0  0  0  0  0  0
  150.5613  145.2379  160.7408 H   0  0  0  0  0  0  0  0  0  0  0  0
  150.8055  146.2405  159.3179 H   0  0  0  0  0  0  0  0  0  0  0  0
  151.8756  143.2023  161.0923 H   0  0  0  0  0  0  0  0  0  0  0  0
  153.4294  143.8974  160.7306 H   0  0  0  0  0  0  0  0  0  0  0  0
  1  2  1  0  0  0  0
  1 21  1  0  0  0  0
  1 22  1  0  0  0  0
  1 23  1  0  0  0  0
  2 20  1  0  0  0  0
  2  3  1  0  0  0  0
  2 24  1  0  0  0  0
  3  4  1  0  0  0  0
  3 25  1  0  0  0  0
  3 26  1  0  0  0  0
  4  5  1  0  0  0  0
  4 16  1  0  0  0  0
  4 27  1  0  0  0  0
  5  6  2  0  0  0  0
  5  7  1  0  0  0  0
  7  8  1  0  0  0  0
  7 28  1  0  0  0  0
  8  9  1  0  0  0  0
  8 29  1  0  0  0  0
  8 30  1  0  0  0  0
  9 10  1  0  0  0  0
  9 31  1  0  0  0  0
  9 32  1  0  0  0  0
 10 14  1  0  0  0  0
 10 11  2  0  0  0  0
 11 12  1  0  0  0  0
 12 13  2  0  0  0  0
 12 33  1  0  0  0  0
 13 14  1  0  0  0  0
 13 34  1  0  0  0  0
 14 15  1  0  0  0  0
 15 35  1  0  0  0  0
 15 36  1  0  0  0  0
 15 37  1  0  0  0  0
 16 17  1  0  0  0  0
 16 38  1  0  0  0  0
 16 39  1  0  0  0  0
 17 18  1  0  0  0  0
 17 19  1  0  0  0  0
 17 20  1  0  0  0  0
 18 40  1  0  0  0  0
 18 41  1  0  0  0  0
 18 42  1  0  0  0  0
 19 43  1  0  0  0  0
 19 44  1  0  0  0  0
 19 45  1  0  0  0  0
 20 46  1  0  0  0  0
 20 47  1  0  0  0  0
M  END
> <s_m_source_file>
AV-unprocessed.smi

> <i_m_source_file_index>
2473

> <i_lp_mmshare_version>
43012

> <i_f3d_flags>
0

> <s_epik_input>
W0NIM11bQ0BASF0oW0NIMl0xKVtDSDJdW0NASF0oW0NIMl1DMShbQ0gzXSlbQ0gzXSlDKD1PKVtOSF1bQ0gyXVtDSDJdYzJuW2NIXVtjSF1uMltDSDNd

> <s_epik_cmdline>
J2VwaWtfcHl0aG9uJywgJy1waCcsICc3LjAnLCAnLXRuJywgJzgnLCAnLW1hJywgJzIwMCcsICctbWV0YWxfYmluZGluZycsICctaW1hZScsICc8aW5maWxlLm1hZT4nLCAnLW9tYWUnLCAnPG91dGZpbGUubWFlPic=

> <r_lp_tautomer_probability>
1

> <r_epik_Ionization_Penalty>
1.22858

> <r_epik_Ionization_Penalty_Charging>
1.22858

> <r_epik_Ionization_Penalty_Neutral>
2.12671e-08

> <r_epik_State_Penalty>
1.2965

> <r_epik_Charging_Adjusted_Penalty>
2.52508

> <i_epik_Tot_Q>
0

> <i_epik_Tot_abs_Q>
0

> <r_epik_Metal_State_Penalty>
0.411461

> <b_epik_Metal_Only>
0

> <s_lp_Force_Field>
OPLS_2005

> <r_lp_Energy>
12.6142

> <b_lp_Chiralities_Consistent>
1

> <s_lp_Variant>
AV-unprocessed.smi:2473-6

> <Gold.Version>
5.8.1

> <Gold.Id.Protein>
6NUR|6NUR_protein|mol2

> <Gold.PLP.Fitness>
52.4270

> <Gold.PLP.PLP>
-45.9120

> <Gold.PLP.part.hbond>
-2.0000

> <Gold.PLP.part.metal>
0.0000

> <Gold.PLP.part.buried>
-3.5070

> <Gold.PLP.part.nonpolar>
-40.7170

> <Gold.PLP.part.repulsive>
0.1302

> <Gold.PLP.ligand.clash>
0.0000

> <Gold.PLP.ligand.torsion>
0.3504

> <Gold.PLP.Chemscore.Hbond>
1.7840

> <Gold.PLP.Chemscore.CHOScore>
0.6140

> <Gold.PLP.Chemscore.Metal>
0.0000

> <Gold.Chemscore.Hbonds>
donor molecule, donor type, donor heavy atom, donor atom, acceptor molecule, acceptor atom, score
      L1  H     7    28       P1  8028  0.72
      P1  H  7989  7998       L1    11  0.70
      L1  C    13    34       P1  7948  0.79

> <Gold.PLP.Chemscore.Internal.Correction>
0.0218

> <Gold.Rescore>
     Score         DG    S(hbond)    S(metal)    S(lipo)     H(rot)  DE(clash)    DE(int)     intcor
     21.45     -22.11       1.85        0.00     122.46       1.51       0.12       0.54       ----

> <Gold.Chemscore.Fitness>
21.4471

> <Gold.Chemscore.DG>
-22.1112

> <Gold.Chemscore.ZeroCoef>
-5.4800

> <Gold.Chemscore.Hbond>
1.8476

> <Gold.Chemscore.Metal>
0.0000

> <Gold.Chemscore.Lipo>
122.4643

> <Gold.Chemscore.Internal_Hbond>
0.0000

> <Gold.Chemscore.DEClash>
0.1232

> <Gold.Chemscore.DEInternal>
0.5409

> <Gold.Chemscore.Rot>
1.5109

> <Gold.Chemscore.Internal.Correction>
   9.000000E+99

> <Gold.Chemscore.Hbonds>
donor molecule, donor type, donor heavy atom, donor atom, acceptor molecule, acceptor atom, score
      L1  H     7    28       P1  8028  0.72
      P1  H  7989  7998       L1    11  0.07

> <Gold.Chemscore.Hbond.Weighted>
-6.1708

> <Gold.Chemscore.Metal.Weighted>
-0.0000

> <Gold.Chemscore.Lipo.Weighted>
-14.3283

> <Gold.Chemscore.Internal_Hbond.Weighted>
0.0000

> <Gold.Chemscore.DEClash.Weighted>
0.1232

> <Gold.Chemscore.DEInternal.Weighted>
0.5409

> <Gold.Chemscore.Rot.Weighted>
3.8680

> <Gold.Chemscore.Internal.Correction.Weighted>
   9.000000E+99

> <Gold.Protein.RotatedTorsions>
[ 6907 6896 6895 6894 ] final   97.55 input  -60.11 | X-H torsion
[ 7974 7965 7964 7962 ] final  -40.74 input  175.53 | X-H torsion
[ 8008 7997 7996 7995 ] final -139.45 input   59.86 | X-H torsion
[ 10167 10162 10161 10158 ] final  -24.96 input  -65.29 | X-H torsion
[ 10718 10713 10712 10709 ] final  -19.97 input   66.30 | X-H torsion
[ 10763 10752 10751 10750 ] final   19.99 input  -60.55 | X-H torsion
[ 11005 11000 10999 10996 ] final   95.65 input  -57.11 | X-H torsion

> <Gold.Protein.ActiveResidues>
 VAL166  LYS551  ARG553  GLY616  TRP617  ASP618  TYR619  PRO620  LYS621  CYS622 
 ASP623  PHE694  ASN695  SER759  ASP760  ASP761  ALA762  ILE779  LEU786  VAL792 
 PHE793  MET794  SER795  GLU796  ALA797  LYS798  CYS799  TRP800  GLU811  SER814 

> <Gold.Protein.RotatedAtoms>
  152.5422  134.0716  159.8196 H   0  0  0  0  0  0  0  0  0  0  0  0  # atno 6907 bound_to 6896
  151.0830  133.5368  159.2627 H   0  0  0  0  0  0  0  0  0  0  0  0  # atno 6908 bound_to 6896
  151.2188  135.0519  159.8995 H   0  0  0  0  0  0  0  0  0  0  0  0  # atno 6909 bound_to 6896
  146.0276  140.6772  142.9148 H   0  0  0  0  0  0  0  0  0  0  0  0  # atno 7974 bound_to 7965
  155.4450  140.0534  157.3007 H   0  0  0  0  0  0  0  0  0  0  0  0  # atno 8008 bound_to 7997
  154.4802  140.2078  155.9739 H   0  0  0  0  0  0  0  0  0  0  0  0  # atno 8009 bound_to 7997
  156.1193  140.3191  155.8190 H   0  0  0  0  0  0  0  0  0  0  0  0  # atno 8010 bound_to 7997
  140.7287  143.4307  151.0807 H   0  0  0  0  0  0  0  0  0  0  0  0  # atno 10167 bound_to 10162
  156.5383  130.4672  149.6511 H   0  0  0  0  0  0  0  0  0  0  0  0  # atno 10718 bound_to 10713
  153.1115  135.6698  153.9492 H   0  0  0  0  0  0  0  0  0  0  0  0  # atno 10763 bound_to 10752
  153.9034  135.3033  155.3450 H   0  0  0  0  0  0  0  0  0  0  0  0  # atno 10764 bound_to 10752
  154.7534  135.5023  153.9408 H   0  0  0  0  0  0  0  0  0  0  0  0  # atno 10765 bound_to 10752
  139.8787  134.8910  156.4043 H   0  0  0  0  0  0  0  0  0  0  0  0  # atno 11005 bound_to 11000
  144.7016  140.3678  143.7151 LP  0  0  0  0  0  0  0  0  0  0  0  0  # atno 17320 bound_to 7965
  145.7093  139.1680  143.2548 LP  0  0  0  0  0  0  0  0  0  0  0  0  # atno 17321 bound_to 7965
  139.7963  143.8147  152.3158 LP  0  0  0  0  0  0  0  0  0  0  0  0  # atno 17342 bound_to 10162
  139.8148  144.7321  150.9650 LP  0  0  0  0  0  0  0  0  0  0  0  0  # atno 17343 bound_to 10162
  156.2995  130.7169  151.2037 LP  0  0  0  0  0  0  0  0  0  0  0  0  # atno 17370 bound_to 10713
  157.7410  131.0510  150.5130 LP  0  0  0  0  0  0  0  0  0  0  0  0  # atno 17371 bound_to 10713
  140.9245  133.7622  155.9948 LP  0  0  0  0  0  0  0  0  0  0  0  0  # atno 17394 bound_to 11000
  140.8401  134.3076  157.5316 LP  0  0  0  0  0  0  0  0  0  0  0  0  # atno 17395 bound_to 11000

$$$$
