AV-unprocessed.smi:2784|AV-procd|sdf|10743|dock10
  -GOLD-   2272015183D 1   1.00000     0.00000
 Structure written by MMmdl.
 30 31  0  0  0  0  0  0  0  0  2 V2000
  153.8366  141.5219  160.3615 C   0  0  0  0  0  0  0  0  0  0  0  0
  153.4805  142.8706  160.1060 O   0  0  0  0  0  0  0  0  0  0  0  0
  152.0860  143.1312  160.2395 C   0  0  1  0  0  0  0  0  0  0  0  0
  151.8924  144.6143  160.5731 C   0  0  0  0  0  0  0  0  0  0  0  0
  151.9865  145.3146  159.2204 C   0  0  0  0  0  0  0  0  0  0  0  0
  151.3151  144.3538  158.2353 C   0  0  0  0  0  0  0  0  0  0  0  0
  151.3771  142.9535  158.8770 C   0  0  1  0  0  0  0  0  0  0  0  0
  152.0477  141.9959  157.9988 N   0  0  0  0  0  0  0  0  0  0  0  0
  151.5210  140.8495  157.5447 C   0  0  0  0  0  0  0  0  0  0  0  0
  150.3733  140.5317  157.8653 O   0  0  0  0  0  0  0  0  0  0  0  0
  152.3575  140.1415  156.7526 N   0  5  0  0  0  0  0  0  0  0  0  0
  151.8612  139.2209  155.9106 C   0  0  0  0  0  0  0  0  0  0  0  0
  151.7533  139.3370  154.5858 N   0  0  0  0  0  0  0  0  0  0  0  0
  151.1981  138.1457  154.1451 C   0  0  0  0  0  0  0  0  0  0  0  0
  150.9981  137.3463  155.2371 C   0  0  0  0  0  0  0  0  0  0  0  0
  151.4154  138.0121  156.3562 O   0  0  0  0  0  0  0  0  0  0  0  0
  154.9148  141.4040  160.2561 H   0  0  0  0  0  0  0  0  0  0  0  0
  153.3564  140.8495  159.6494 H   0  0  0  0  0  0  0  0  0  0  0  0
  153.5621  141.2161  161.3710 H   0  0  0  0  0  0  0  0  0  0  0  0
  151.6392  142.4765  160.9902 H   0  0  0  0  0  0  0  0  0  0  0  0
  150.8968  144.7664  160.9920 H   0  0  0  0  0  0  0  0  0  0  0  0
  152.6140  144.9975  161.2944 H   0  0  0  0  0  0  0  0  0  0  0  0
  151.5233  146.3014  159.2254 H   0  0  0  0  0  0  0  0  0  0  0  0
  153.0355  145.4417  158.9495 H   0  0  0  0  0  0  0  0  0  0  0  0
  150.2733  144.6407  158.0875 H   0  0  0  0  0  0  0  0  0  0  0  0
  151.7986  144.3960  157.2581 H   0  0  0  0  0  0  0  0  0  0  0  0
  150.3522  142.6196  159.0497 H   0  0  0  0  0  0  0  0  0  0  0  0
  152.9924  142.2156  157.7196 H   0  0  0  0  0  0  0  0  0  0  0  0
  150.9936  137.9627  153.1007 H   0  0  0  0  0  0  0  0  0  0  0  0
  150.6006  136.3528  155.3806 H   0  0  0  0  0  0  0  0  0  0  0  0
  1  2  1  0  0  0  0
  1 17  1  0  0  0  0
  1 18  1  0  0  0  0
  1 19  1  0  0  0  0
  2  3  1  0  0  0  0
  3  7  1  0  0  0  0
  3  4  1  0  0  0  0
  3 20  1  0  0  0  0
  4  5  1  0  0  0  0
  4 21  1  0  0  0  0
  4 22  1  0  0  0  0
  5  6  1  0  0  0  0
  5 23  1  0  0  0  0
  5 24  1  0  0  0  0
  6  7  1  0  0  0  0
  6 25  1  0  0  0  0
  6 26  1  0  0  0  0
  7  8  1  0  0  0  0
  7 27  1  0  0  0  0
  8 28  1  0  0  0  0
  8  9  1  0  0  0  0
  9 11  1  0  0  0  0
  9 10  2  0  0  0  0
 11 12  1  0  0  0  0
 12 16  1  0  0  0  0
 12 13  2  0  0  0  0
 13 14  1  0  0  0  0
 14 29  1  0  0  0  0
 14 15  2  0  0  0  0
 15 30  1  0  0  0  0
 15 16  1  0  0  0  0
M  CHG  1  11  -1
M  END
> <s_m_source_file>
AV-unprocessed.smi

> <i_m_source_file_index>
2784

> <i_lp_mmshare_version>
43012

> <i_f3d_flags>
0

> <s_epik_input>
W0NIM11PW0NAQEhdMVtDSDJdW0NIMl1bQ0gyXVtDQEhdMVtOSF1DKD1PKVtOSF1jMm5bY0hdW2NIXW8y

> <s_epik_cmdline>
J2VwaWtfcHl0aG9uJywgJy1waCcsICc3LjAnLCAnLXRuJywgJzgnLCAnLW1hJywgJzIwMCcsICctbWV0YWxfYmluZGluZycsICctaW1hZScsICc8aW5maWxlLm1hZT4nLCAnLW9tYWUnLCAnPG91dGZpbGUubWFlPic=

> <r_lp_tautomer_probability>
0.107061

> <r_epik_Ionization_Penalty>
10.8857

> <r_epik_Ionization_Penalty_Charging>
7.67908

> <r_epik_Ionization_Penalty_Neutral>
3.20665

> <r_epik_State_Penalty>
5.80296

> <r_epik_Charging_Adjusted_Penalty>
13.482

> <i_epik_Tot_Q>
-1

> <i_epik_Tot_abs_Q>
1

> <r_epik_Metal_State_Penalty>
1.73217

> <b_epik_Metal_Only>
1

> <s_lp_Force_Field>
OPLS_2005

> <r_lp_Energy>
16.6072

> <b_lp_Chiralities_Consistent>
1

> <s_lp_Variant>
AV-unprocessed.smi:2784-18

> <Gold.Version>
5.8.1

> <Gold.Id.Protein>
6NUR|6NUR_protein|mol2

> <Gold.PLP.Fitness>
43.3567

> <Gold.PLP.PLP>
-33.4757

> <Gold.PLP.part.hbond>
-2.0000

> <Gold.PLP.part.metal>
0.0000

> <Gold.PLP.part.buried>
-3.5492

> <Gold.PLP.part.nonpolar>
-28.1851

> <Gold.PLP.part.repulsive>
0.1503

> <Gold.PLP.ligand.clash>
0.0000

> <Gold.PLP.ligand.torsion>
1.1433

> <Gold.PLP.Chemscore.Hbond>
3.0000

> <Gold.PLP.Chemscore.CHOScore>
1.0512

> <Gold.PLP.Chemscore.Metal>
0.0000

> <Gold.Chemscore.Hbonds>
donor molecule, donor type, donor heavy atom, donor atom, acceptor molecule, acceptor atom, score
      P1  H  7989  7998       L1    13  1.00
      P1  H  7997  8008       L1    11  2.00
      L1  C    14    29       P1  7948  0.03
      L1  C    14    29       P1  7949  0.96

> <Gold.PLP.Chemscore.Internal.Correction>
0.0140

> <Gold.Rescore>
     Score         DG    S(hbond)    S(metal)    S(lipo)     H(rot)  DE(clash)    DE(int)     intcor
     16.40     -17.76       1.73        0.00      84.35       1.31       0.08       1.29       ----

> <Gold.Chemscore.Fitness>
16.3950

> <Gold.Chemscore.DG>
-17.7638

> <Gold.Chemscore.ZeroCoef>
-5.4800

> <Gold.Chemscore.Hbond>
1.7277

> <Gold.Chemscore.Metal>
0.0000

> <Gold.Chemscore.Lipo>
84.3453

> <Gold.Chemscore.Internal_Hbond>
0.0000

> <Gold.Chemscore.DEClash>
0.0831

> <Gold.Chemscore.DEInternal>
1.2857

> <Gold.Chemscore.Rot>
1.3106

> <Gold.Chemscore.Internal.Correction>
   9.000000E+99

> <Gold.Chemscore.Hbonds>
donor molecule, donor type, donor heavy atom, donor atom, acceptor molecule, acceptor atom, score
      P1  H  7989  7998       L1    13  0.93
      P1  H  7997  8008       L1    11  0.42

> <Gold.Chemscore.Hbond.Weighted>
-5.7704

> <Gold.Chemscore.Metal.Weighted>
-0.0000

> <Gold.Chemscore.Lipo.Weighted>
-9.8684

> <Gold.Chemscore.Internal_Hbond.Weighted>
0.0000

> <Gold.Chemscore.DEClash.Weighted>
0.0831

> <Gold.Chemscore.DEInternal.Weighted>
1.2857

> <Gold.Chemscore.Rot.Weighted>
3.3550

> <Gold.Chemscore.Internal.Correction.Weighted>
   9.000000E+99

> <Gold.Protein.RotatedTorsions>
[ 6907 6896 6895 6894 ] final  174.15 input  -60.11 | X-H torsion
[ 7974 7965 7964 7962 ] final   87.89 input  175.53 | X-H torsion
[ 8008 7997 7996 7995 ] final  -44.46 input   59.86 | X-H torsion
[ 10167 10162 10161 10158 ] final   96.68 input  -65.29 | X-H torsion
[ 10718 10713 10712 10709 ] final  -26.24 input   66.30 | X-H torsion
[ 10763 10752 10751 10750 ] final -110.12 input  -60.55 | X-H torsion
[ 11005 11000 10999 10996 ] final  134.76 input  -57.11 | X-H torsion

> <Gold.Protein.ActiveResidues>
 VAL166  LYS551  ARG553  GLY616  TRP617  ASP618  TYR619  PRO620  LYS621  CYS622 
 ASP623  PHE694  ASN695  SER759  ASP760  ASP761  ALA762  ILE779  LEU786  VAL792 
 PHE793  MET794  SER795  GLU796  ALA797  LYS798  CYS799  TRP800  GLU811  SER814 

> <Gold.Protein.RotatedAtoms>
  151.7569  133.3331  159.3406 H   0  0  0  0  0  0  0  0  0  0  0  0  # atno 6907 bound_to 6896
  150.7513  134.6141  159.6111 H   0  0  0  0  0  0  0  0  0  0  0  0  # atno 6908 bound_to 6896
  152.3431  134.7109  160.0309 H   0  0  0  0  0  0  0  0  0  0  0  0  # atno 6909 bound_to 6896
  145.5529  139.2297  143.2502 H   0  0  0  0  0  0  0  0  0  0  0  0  # atno 7974 bound_to 7965
  154.3997  140.1421  156.3687 H   0  0  0  0  0  0  0  0  0  0  0  0  # atno 8008 bound_to 7997
  155.8113  140.3472  155.5439 H   0  0  0  0  0  0  0  0  0  0  0  0  # atno 8009 bound_to 7997
  155.8383  140.0923  157.1740 H   0  0  0  0  0  0  0  0  0  0  0  0  # atno 8010 bound_to 7997
  139.7872  144.6866  150.9942 H   0  0  0  0  0  0  0  0  0  0  0  0  # atno 10167 bound_to 10162
  156.4538  130.4489  149.6973 H   0  0  0  0  0  0  0  0  0  0  0  0  # atno 10718 bound_to 10713
  154.8231  135.4576  154.0837 H   0  0  0  0  0  0  0  0  0  0  0  0  # atno 10763 bound_to 10752
  153.2174  135.6889  153.8047 H   0  0  0  0  0  0  0  0  0  0  0  0  # atno 10764 bound_to 10752
  153.7477  135.3303  155.3292 H   0  0  0  0  0  0  0  0  0  0  0  0  # atno 10765 bound_to 10752
  139.9935  134.9506  156.9911 H   0  0  0  0  0  0  0  0  0  0  0  0  # atno 11005 bound_to 11000
  146.1904  140.6352  142.9148 LP  0  0  0  0  0  0  0  0  0  0  0  0  # atno 17320 bound_to 7965
  144.7520  140.5215  143.6795 LP  0  0  0  0  0  0  0  0  0  0  0  0  # atno 17321 bound_to 7965
  140.7820  143.4420  151.0538 LP  0  0  0  0  0  0  0  0  0  0  0  0  # atno 17342 bound_to 10162
  139.8098  143.7967  152.3170 LP  0  0  0  0  0  0  0  0  0  0  0  0  # atno 17343 bound_to 10162
  156.3788  130.7568  151.2559 LP  0  0  0  0  0  0  0  0  0  0  0  0  # atno 17370 bound_to 10713
  157.7501  131.0301  150.4124 LP  0  0  0  0  0  0  0  0  0  0  0  0  # atno 17371 bound_to 10713
  140.4862  134.1239  155.7225 LP  0  0  0  0  0  0  0  0  0  0  0  0  # atno 17394 bound_to 11000
  141.1586  133.8836  157.1911 LP  0  0  0  0  0  0  0  0  0  0  0  0  # atno 17395 bound_to 11000

$$$$
