#       Name:                AV-unprocessed.smi:34
#       Creating user name   scv26
#       Creation time:       Thu Mar 26 15:58:50 2020


#       File generated by GOLD software.
#

@<TRIPOS>MOLECULE
AV-unprocessed.smi:34
    66    70     1
SMALL
NO_CHARGES


@<TRIPOS>ATOM
      1 ****        -4.7327  -2.4121   1.9091 O.2            1 S1                 0.0000
      2 ****        -5.0808  -1.7394   0.9363 C.2            1 S1                 0.0000
      3 ****        -4.3714  -0.7818   0.2873 N.pl3          1 S1                -1.0000
      4 ****        -3.1135  -0.5096   0.6665 C.ar           1 S1                 0.0000
      5 ****        -2.8617   0.5046   1.5331 N.ar           1 S1                 0.0000
      6 ****        -1.6066   0.7777   1.9079 C.ar           1 S1                 0.0000
      7 ****        -0.4707   0.1770   1.5405 N.ar           1 S1                 0.0000
      8 ****        -0.7091  -0.8382   0.6601 C.ar           1 S1                 0.0000
      9 ****        -1.9912  -1.2336   0.1786 C.ar           1 S1                 0.0000
     10 ****        -1.8781  -2.2943  -0.7082 N.2            1 S1                 0.0000
     11 ****        -0.5618  -2.4922  -0.7240 C.2            1 S1                 0.0000
     12 ****         0.1966  -1.6909   0.0500 N.pl3          1 S1                 0.0000
     13 ****         1.6814  -1.7178   0.2034 C.3            1 S1                 0.0000
     14 ****         2.1483  -0.4104   0.0912 O.3            1 S1                 0.0000
     15 ****         3.2788  -0.2670   0.9363 C.3            1 S1                 0.0000
     16 ****         3.5686   1.2117   1.2210 C.3            1 S1                 0.0000
     17 ****         4.1572   1.8026   0.0738 O.3            1 S1                 0.0000
     18 ****         4.4393   3.1201   0.0643 C.2            1 S1                 0.0000
     19 ****         4.2203   3.8717   1.0167 O.2            1 S1                 0.0000
     20 ****         5.0457   3.5751  -1.2204 C.ar           1 S1                 0.0000
     21 ****         5.3955   4.9368  -1.3773 C.ar           1 S1                 0.0000
     22 ****         5.9700   5.3963  -2.5784 C.ar           1 S1                 0.0000
     23 ****         6.2018   4.4998  -3.6377 C.ar           1 S1                 0.0000
     24 ****         5.8581   3.1428  -3.4944 C.ar           1 S1                 0.0000
     25 ****         5.2834   2.6813  -2.2938 C.ar           1 S1                 0.0000
     26 ****         2.8934  -1.0842   2.1709 C.3            1 S1                 0.0000
     27 ****         2.1224  -0.3705   2.9932 F              1 S1                 0.0000
     28 ****         2.0865  -2.2414   1.5936 C.3            1 S1                 0.0000
     29 ****         2.9003  -3.3934   1.5055 O.3            1 S1                 0.0000
     30 ****        -6.4756  -1.9111   0.3980 C.ar           1 S1                 0.0000
     31 ****        -7.5438  -2.1642   1.2887 C.ar           1 S1                 0.0000
     32 ****        -8.8524  -2.3512   0.8026 C.ar           1 S1                 0.0000
     33 ****        -9.1051  -2.2980  -0.5810 C.ar           1 S1                 0.0000
     34 ****        -8.0472  -2.0614  -1.4786 C.ar           1 S1                 0.0000
     35 ****        -6.7384  -1.8727  -0.9932 C.ar           1 S1                 0.0000
     36 ****        -1.4965   1.5977   2.6020 H              1 S1                 0.0000
     37 ****        -0.1233  -3.2691  -1.3328 H              1 S1                 0.0000
     38 ****         2.0469  -2.3301  -0.6228 H              1 S1                 0.0000
     39 ****         4.1395  -0.7360   0.4554 H              1 S1                 0.0000
     40 ****         2.6517   1.7346   1.4977 H              1 S1                 0.0000
     41 ****         4.2643   1.2986   2.0568 H              1 S1                 0.0000
     42 ****         5.2270   5.6441  -0.5781 H              1 S1                 0.0000
     43 ****         6.2329   6.4383  -2.6866 H              1 S1                 0.0000
     44 ****         6.6423   4.8524  -4.5586 H              1 S1                 0.0000
     45 ****         6.0355   2.4535  -4.3069 H              1 S1                 0.0000
     46 ****         5.0316   1.6336  -2.2170 H              1 S1                 0.0000
     47 ****         3.7590  -1.4003   2.7543 H              1 S1                 0.0000
     48 ****         1.2114  -2.4681   2.2050 H              1 S1                 0.0000
     49 ****         2.3857  -4.0954   1.1372 H              1 S1                 0.0000
     50 ****        -7.3658  -2.2097   2.3534 H              1 S1                 0.0000
     51 ****        -9.6622  -2.5365   1.4926 H              1 S1                 0.0000
     52 ****       -10.1083  -2.4425  -0.9536 H              1 S1                 0.0000
     53 ****        -8.2380  -2.0264  -2.5410 H              1 S1                 0.0000
     54 ****        -5.9387  -1.7017  -1.6993 H              1 S1                 0.0000
     55 ****        -3.8269  -2.2784   2.3111 LP             1 S1                 0.0000
     56 ****        -5.3562  -3.0914   2.2961 LP             1 S1                 0.0000
     57 ****        -4.7854  -0.2799  -0.4721 LP             1 S1                 0.0000
     58 ****        -3.6183   1.0505   1.8932 LP             1 S1                 0.0000
     59 ****         0.4372   0.4379   1.8685 LP             1 S1                 0.0000
     60 ****        -2.5963  -2.7818  -1.2048 LP             1 S1                 0.0000
     61 ****         1.4328   0.2294   0.3720 LP             1 S1                 0.0000
     62 ****         2.4086  -0.2244  -0.8562 LP             1 S1                 0.0000
     63 ****         3.8115   3.5107   1.8549 LP             1 S1                 0.0000
     64 ****         4.4514   4.8424   0.9510 LP             1 S1                 0.0000
     65 ****         3.2198  -3.6515   2.4172 LP             1 S1                 0.0000
     66 ****         3.6869  -3.2068   0.9170 LP             1 S1                 0.0000
@<TRIPOS>BOND
    1    1    2 2     
    2    2    3 1     
    3    2   30 1     
    4    3    4 1     
    5    4    9 ar    
    6    4    5 ar    
    7    5    6 ar    
    8    6    7 ar    
    9    6   36 1     
   10    7    8 ar    
   11    8   12 1     
   12    8    9 ar    
   13    9   10 1     
   14   10   11 2     
   15   11   12 1     
   16   11   37 1     
   17   12   13 1     
   18   13   28 1     
   19   13   14 1     
   20   13   38 1     
   21   14   15 1     
   22   15   16 1     
   23   15   26 1     
   24   15   39 1     
   25   16   17 1     
   26   16   40 1     
   27   16   41 1     
   28   17   18 1     
   29   18   19 2     
   30   18   20 1     
   31   20   25 ar    
   32   20   21 ar    
   33   21   22 ar    
   34   21   42 1     
   35   22   23 ar    
   36   22   43 1     
   37   23   24 ar    
   38   23   44 1     
   39   24   25 ar    
   40   24   45 1     
   41   25   46 1     
   42   26   27 1     
   43   26   28 1     
   44   26   47 1     
   45   28   29 1     
   46   28   48 1     
   47   29   49 1     
   48   30   35 ar    
   49   30   31 ar    
   50   31   32 ar    
   51   31   50 1     
   52   32   33 ar    
   53   32   51 1     
   54   33   34 ar    
   55   33   52 1     
   56   34   35 ar    
   57   34   53 1     
   58   35   54 1     
   59    1   55 1     
   60    1   56 1     
   61    3   57 1     
   62    5   58 1     
   63    7   59 1     
   64   10   60 1     
   65   14   61 1     
   66   14   62 1     
   67   19   63 1     
   68   19   64 1     
   69   29   65 1     
   70   29   66 1     
@<TRIPOS>SUBSTRUCTURE
      1 S1             1
@<TRIPOS>SET
LONE_PAIRS      STATIC     ATOMS    <user>   **** ""
12 55 56 57 58 59 60 61 62 63 64 65 66
DONOR_HYDROGENS      STATIC     ATOMS    <user>   **** ""
1 49
ATOM$BLUE        STATIC     ATOMS    COLORGROUP SYSTEM
12 55 56 57 58 59 60 61 62 63 64 65 66
ATOM$RED        STATIC     ATOMS    COLORGROUP SYSTEM
1 49
