AV-unprocessed.smi:1782|AV-procd|sdf|7191|dock3
  -GOLD-   22720 8433D 1   1.00000     0.00000
 Structure written by MMmdl.
 42 44  0  0  0  0  0  0  0  0  2 V2000
  150.2720  139.6805  157.3735 O   0  0  0  0  0  0  0  0  0  0  0  0
  150.7951  140.3709  156.4980 C   0  0  0  0  0  0  0  0  0  0  0  0
  151.2816  141.7933  156.8091 C   0  0  0  0  0  0  0  0  0  0  0  0
  151.8238  141.9271  158.1723 N   0  0  0  0  0  0  0  0  0  0  0  0
  151.3845  143.0277  158.9299 C   0  0  0  0  0  0  0  0  0  0  0  0
  151.8225  143.2450  160.1771 C   0  0  0  0  0  0  0  0  0  0  0  0
  152.7719  142.3153  160.7389 C   0  0  0  0  0  0  0  0  0  0  0  0
  153.2126  141.2469  160.0349 C   0  0  0  0  0  0  0  0  0  0  0  0
  154.2265  140.2602  160.6096 C   0  0  0  0  0  0  0  0  0  0  0  0
  153.7484  139.0165  160.5565 F   0  0  0  0  0  0  0  0  0  0  0  0
  155.3658  140.2983  159.9172 F   0  0  0  0  0  0  0  0  0  0  0  0
  154.5154  140.5324  161.8831 F   0  0  0  0  0  0  0  0  0  0  0  0
  152.7201  141.0146  158.6617 C   0  0  0  0  0  0  0  0  0  0  0  0
  153.0891  140.0553  157.9814 O   0  0  0  0  0  0  0  0  0  0  0  0
  150.9871  139.9393  155.2426 N   0  0  0  0  0  0  0  0  0  0  0  0
  150.5714  138.6331  154.7441 C   0  0  1  0  0  0  0  0  0  0  0  0
  151.1991  137.4468  155.4829 C   0  0  0  0  0  0  0  0  0  0  0  0
  150.1414  136.3332  155.4003 C   0  0  0  0  0  0  0  0  0  0  0  0
  148.9265  136.9394  154.8077 N   0  3  1  0  0  0  0  0  0  0  0  0
  147.6567  136.4090  155.3470 C   0  0  0  0  0  0  0  0  0  0  0  0
  147.3229  135.0231  154.8490 C   0  0  0  0  0  0  0  0  0  0  0  0
  146.5854  136.2249  154.2991 C   0  0  0  0  0  0  0  0  0  0  0  0
  149.0771  138.3986  154.9425 C   0  0  0  0  0  0  0  0  0  0  0  0
  152.0316  142.0640  156.0647 H   0  0  0  0  0  0  0  0  0  0  0  0
  150.4657  142.5039  156.6628 H   0  0  0  0  0  0  0  0  0  0  0  0
  150.6800  143.6801  158.4344 H   0  0  0  0  0  0  0  0  0  0  0  0
  151.4777  144.0965  160.7450 H   0  0  0  0  0  0  0  0  0  0  0  0
  153.1311  142.4928  161.7414 H   0  0  0  0  0  0  0  0  0  0  0  0
  151.4318  140.5657  154.5867 H   0  0  0  0  0  0  0  0  0  0  0  0
  150.7981  138.5575  153.6784 H   0  0  0  0  0  0  0  0  0  0  0  0
  152.1529  137.1487  155.0464 H   0  0  0  0  0  0  0  0  0  0  0  0
  151.3801  137.7001  156.5288 H   0  0  0  0  0  0  0  0  0  0  0  0
  150.4758  135.5050  154.7749 H   0  0  0  0  0  0  0  0  0  0  0  0
  149.9383  135.9360  156.3962 H   0  0  0  0  0  0  0  0  0  0  0  0
  147.3946  136.7093  156.3601 H   0  0  0  0  0  0  0  0  0  0  0  0
  148.0351  134.5259  154.1926 H   0  0  0  0  0  0  0  0  0  0  0  0
  146.7743  134.3664  155.5213 H   0  0  0  0  0  0  0  0  0  0  0  0
  145.5510  136.3591  154.6096 H   0  0  0  0  0  0  0  0  0  0  0  0
  146.8067  136.5262  153.2766 H   0  0  0  0  0  0  0  0  0  0  0  0
  148.7685  138.7101  155.9427 H   0  0  0  0  0  0  0  0  0  0  0  0
  148.4675  138.9340  154.2137 H   0  0  0  0  0  0  0  0  0  0  0  0
  148.9546  136.7366  153.8186 H   0  0  0  0  0  0  0  0  0  0  0  0
  1  2  2  0  0  0  0
  2  3  1  0  0  0  0
  2 15  1  0  0  0  0
  3  4  1  0  0  0  0
  3 24  1  0  0  0  0
  3 25  1  0  0  0  0
  4 13  1  0  0  0  0
  4  5  1  0  0  0  0
  5  6  2  0  0  0  0
  5 26  1  0  0  0  0
  6  7  1  0  0  0  0
  6 27  1  0  0  0  0
  7  8  2  0  0  0  0
  7 28  1  0  0  0  0
  8  9  1  0  0  0  0
  8 13  1  0  0  0  0
  9 10  1  0  0  0  0
  9 11  1  0  0  0  0
  9 12  1  0  0  0  0
 13 14  2  0  0  0  0
 15 16  1  0  0  0  0
 15 29  1  0  0  0  0
 16 23  1  0  0  0  0
 16 17  1  0  0  0  0
 16 30  1  0  0  0  0
 17 18  1  0  0  0  0
 17 31  1  0  0  0  0
 17 32  1  0  0  0  0
 18 19  1  0  0  0  0
 18 33  1  0  0  0  0
 18 34  1  0  0  0  0
 19 20  1  0  0  0  0
 19 23  1  0  0  0  0
 19 42  1  0  0  0  0
 20 22  1  0  0  0  0
 20 21  1  0  0  0  0
 20 35  1  0  0  0  0
 21 22  1  0  0  0  0
 21 36  1  0  0  0  0
 21 37  1  0  0  0  0
 22 38  1  0  0  0  0
 22 39  1  0  0  0  0
 23 40  1  0  0  0  0
 23 41  1  0  0  0  0
M  CHG  1  19   1
M  END
> <s_m_source_file>
AV-unprocessed.smi

> <i_m_source_file_index>
1782

> <i_lp_mmshare_version>
43012

> <i_f3d_flags>
0

> <s_epik_input>
W0NIMl0xW0NIMl1bQ0hdMU4oW0NIMl0yKVtDSDJdW0NIMl1bQ0BIXTJbTkhdQyg9TylbQ0gyXW4zW2NIXVtjSF1bY0hdYyhDKEYpKEYpRiljMz1P

> <s_epik_cmdline>
J2VwaWtfcHl0aG9uJywgJy1waCcsICc3LjAnLCAnLXRuJywgJzgnLCAnLW1hJywgJzIwMCcsICctbWV0YWxfYmluZGluZycsICctaW1hZScsICc8aW5maWxlLm1hZT4nLCAnLW9tYWUnLCAnPG91dGZpbGUubWFlPic=

> <r_lp_tautomer_probability>
1

> <r_epik_Ionization_Penalty>
0.00106789

> <r_epik_Ionization_Penalty_Charging>
0.00106781

> <r_epik_Ionization_Penalty_Neutral>
8.2288e-08

> <r_epik_State_Penalty>
0.000699156

> <r_epik_Charging_Adjusted_Penalty>
0.00176697

> <i_epik_Tot_Q>
1

> <i_epik_Tot_abs_Q>
1

> <r_epik_Metal_State_Penalty>
-0

> <b_epik_Metal_Only>
0

> <s_lp_Force_Field>
OPLS_2005

> <r_lp_Energy>
45.6714

> <b_lp_Chiralities_Consistent>
1

> <s_lp_Variant>
AV-unprocessed.smi:1782-4

> <Gold.Version>
5.8.1

> <Gold.Id.Protein>
6NUR|6NUR_protein|mol2

> <Gold.PLP.Fitness>
45.2435

> <Gold.PLP.PLP>
-37.2664

> <Gold.PLP.part.hbond>
-2.0000

> <Gold.PLP.part.metal>
0.0000

> <Gold.PLP.part.buried>
-4.1434

> <Gold.PLP.part.nonpolar>
-31.2260

> <Gold.PLP.part.repulsive>
1.0979

> <Gold.PLP.ligand.clash>
0.2288

> <Gold.PLP.ligand.torsion>
1.2085

> <Gold.PLP.Chemscore.Hbond>
3.0000

> <Gold.PLP.Chemscore.CHOScore>
0.0000

> <Gold.PLP.Chemscore.Metal>
0.0000

> <Gold.Chemscore.Hbonds>
donor molecule, donor type, donor heavy atom, donor atom, acceptor molecule, acceptor atom, score
      L1  H    19    42       P1  7948  2.00
      P1  H  7997  8009       L1    14  1.00

> <Gold.PLP.Chemscore.Internal.Correction>
1.6229

> <Gold.Rescore>
     Score         DG    S(hbond)    S(metal)    S(lipo)     H(rot)  DE(clash)    DE(int)     intcor
     10.43     -16.79       1.97        0.00      79.96       1.81       0.08       6.27       ----

> <Gold.Chemscore.Fitness>
10.4344

> <Gold.Chemscore.DG>
-16.7918

> <Gold.Chemscore.ZeroCoef>
-5.4800

> <Gold.Chemscore.Hbond>
1.9732

> <Gold.Chemscore.Metal>
0.0000

> <Gold.Chemscore.Lipo>
79.9579

> <Gold.Chemscore.Internal_Hbond>
0.0000

> <Gold.Chemscore.DEClash>
0.0835

> <Gold.Chemscore.DEInternal>
6.2739

> <Gold.Chemscore.Rot>
1.8101

> <Gold.Chemscore.Internal.Correction>
   9.000000E+99

> <Gold.Chemscore.Hbonds>
donor molecule, donor type, donor heavy atom, donor atom, acceptor molecule, acceptor atom, score
      L1  H    19    42       P1  7948  0.95
      P1  H  7997  8009       L1    14  0.94

> <Gold.Chemscore.Hbond.Weighted>
-6.5905

> <Gold.Chemscore.Metal.Weighted>
-0.0000

> <Gold.Chemscore.Lipo.Weighted>
-9.3551

> <Gold.Chemscore.Internal_Hbond.Weighted>
0.0000

> <Gold.Chemscore.DEClash.Weighted>
0.0835

> <Gold.Chemscore.DEInternal.Weighted>
6.2739

> <Gold.Chemscore.Rot.Weighted>
4.6338

> <Gold.Chemscore.Internal.Correction.Weighted>
   9.000000E+99

> <Gold.Protein.RotatedTorsions>
[ 6907 6896 6895 6894 ] final  -59.05 input  -60.11 | X-H torsion
[ 7974 7965 7964 7962 ] final   -6.96 input  175.53 | X-H torsion
[ 8008 7997 7996 7995 ] final  169.56 input   59.86 | X-H torsion
[ 10167 10162 10161 10158 ] final  -14.06 input  -65.29 | X-H torsion
[ 10718 10713 10712 10709 ] final   28.78 input   66.30 | X-H torsion
[ 10763 10752 10751 10750 ] final   15.33 input  -60.55 | X-H torsion
[ 11005 11000 10999 10996 ] final   17.58 input  -57.11 | X-H torsion

> <Gold.Protein.ActiveResidues>
 VAL166  LYS551  ARG553  GLY616  TRP617  ASP618  TYR619  PRO620  LYS621  CYS622 
 ASP623  PHE694  ASN695  SER759  ASP760  ASP761  ALA762  ILE779  LEU786  VAL792 
 PHE793  MET794  SER795  GLU796  ALA797  LYS798  CYS799  TRP800  GLU811  SER814 

> <Gold.Protein.RotatedAtoms>
  150.7960  134.7019  159.6554 H   0  0  0  0  0  0  0  0  0  0  0  0  # atno 6907 bound_to 6896
  152.4072  134.6183  160.0054 H   0  0  0  0  0  0  0  0  0  0  0  0  # atno 6908 bound_to 6896
  151.6437  133.3287  159.3172 H   0  0  0  0  0  0  0  0  0  0  0  0  # atno 6909 bound_to 6896
  146.2318  140.2248  142.8338 H   0  0  0  0  0  0  0  0  0  0  0  0  # atno 7974 bound_to 7965
  156.1446  140.1561  156.8867 H   0  0  0  0  0  0  0  0  0  0  0  0  # atno 8008 bound_to 7997
  154.5017  140.0823  156.7849 H   0  0  0  0  0  0  0  0  0  0  0  0  # atno 8009 bound_to 7997
  155.4013  140.3414  155.4259 H   0  0  0  0  0  0  0  0  0  0  0  0  # atno 8010 bound_to 7997
  140.7194  143.5361  150.9464 H   0  0  0  0  0  0  0  0  0  0  0  0  # atno 10167 bound_to 10162
  157.2379  130.7055  149.6344 H   0  0  0  0  0  0  0  0  0  0  0  0  # atno 10718 bound_to 10713
  153.1535  135.6783  153.8846 H   0  0  0  0  0  0  0  0  0  0  0  0  # atno 10763 bound_to 10752
  153.8265  135.3123  155.3416 H   0  0  0  0  0  0  0  0  0  0  0  0  # atno 10764 bound_to 10752
  154.7880  135.4851  154.0076 H   0  0  0  0  0  0  0  0  0  0  0  0  # atno 10765 bound_to 10752
  140.4343  134.1387  155.7683 H   0  0  0  0  0  0  0  0  0  0  0  0  # atno 11005 bound_to 11000
  144.9604  140.8269  143.5517 LP  0  0  0  0  0  0  0  0  0  0  0  0  # atno 17320 bound_to 7965
  145.2218  139.2155  143.5089 LP  0  0  0  0  0  0  0  0  0  0  0  0  # atno 17321 bound_to 7965
  139.9082  143.6752  152.3120 LP  0  0  0  0  0  0  0  0  0  0  0  0  # atno 17342 bound_to 10162
  139.7126  144.7617  151.1087 LP  0  0  0  0  0  0  0  0  0  0  0  0  # atno 17343 bound_to 10162
  155.9671  130.4467  150.5553 LP  0  0  0  0  0  0  0  0  0  0  0  0  # atno 17370 bound_to 10713
  157.3410  131.0716  151.1788 LP  0  0  0  0  0  0  0  0  0  0  0  0  # atno 17371 bound_to 10713
  141.1732  133.8566  157.1504 LP  0  0  0  0  0  0  0  0  0  0  0  0  # atno 17394 bound_to 11000
  140.0113  134.9987  157.0400 LP  0  0  0  0  0  0  0  0  0  0  0  0  # atno 17395 bound_to 11000

$$$$
