AV-unprocessed.smi:1634|AV-procd|sdf|6536|dock5
  -GOLD-   22720 7223D 1   1.00000     0.00000
 Structure written by MMmdl.
 38 38  0  0  0  0  0  0  0  0  1 V2000
  152.1774  138.3628  154.6885 C   0  0  0  0  0  0  0  0  0  0  0  0
  150.9743  139.2953  154.8925 C   0  0  0  0  0  0  0  0  0  0  0  0
  151.2959  140.3811  155.9316 C   0  0  0  0  0  0  0  0  0  0  0  0
  149.7183  138.4988  155.2806 C   0  0  0  0  0  0  0  0  0  0  0  0
  149.9796  137.7630  156.4715 O   0  0  0  0  0  0  0  0  0  0  0  0
  148.9788  137.8537  157.4819 C   0  0  2  0  0  0  0  0  0  0  0  0
  149.1884  139.1812  158.2254 C   0  0  0  0  0  0  0  0  0  0  0  0
  149.0777  136.6550  158.4394 C   0  0  0  0  0  0  0  0  0  0  0  0
  149.9384  135.7970  158.2456 O   0  0  0  0  0  0  0  0  0  0  0  0
  148.1585  136.6288  159.4249 N   0  0  0  0  0  0  0  0  0  0  0  0
  147.9605  135.6840  160.4460 C   0  0  0  0  0  0  0  0  0  0  0  0
  148.1279  134.3419  160.3135 C   0  0  0  0  0  0  0  0  0  0  0  0
  147.9104  133.4240  161.4192 C   0  0  0  0  0  0  0  0  0  0  0  0
  148.0207  131.9182  161.2372 C   0  0  0  0  0  0  0  0  0  0  0  0
  148.3337  131.6047  159.9793 F   0  0  0  0  0  0  0  0  0  0  0  0
  148.9527  131.4057  162.0408 F   0  0  0  0  0  0  0  0  0  0  0  0
  146.8570  131.3403  161.5316 F   0  0  0  0  0  0  0  0  0  0  0  0
  147.5240  133.9711  162.5863 C   0  0  0  0  0  0  0  0  0  0  0  0
  147.3710  135.3511  162.7373 N   0  0  0  0  0  0  0  0  0  0  0  0
  147.5631  136.2498  161.7460 C   0  0  0  0  0  0  0  0  0  0  0  0
  147.4049  137.4515  161.9584 O   0  0  0  0  0  0  0  0  0  0  0  0
  147.0953  135.6853  163.6493 H   0  0  0  0  0  0  0  0  0  0  0  0
  152.4293  137.8328  155.6077 H   0  0  0  0  0  0  0  0  0  0  0  0
  153.0592  138.9221  154.3744 H   0  0  0  0  0  0  0  0  0  0  0  0
  151.9715  137.6170  153.9200 H   0  0  0  0  0  0  0  0  0  0  0  0
  150.7766  139.7887  153.9400 H   0  0  0  0  0  0  0  0  0  0  0  0
  151.4952  139.9458  156.9114 H   0  0  0  0  0  0  0  0  0  0  0  0
  150.4674  141.0814  156.0417 H   0  0  0  0  0  0  0  0  0  0  0  0
  152.1736  140.9578  155.6386 H   0  0  0  0  0  0  0  0  0  0  0  0
  148.8845  139.1802  155.4568 H   0  0  0  0  0  0  0  0  0  0  0  0
  149.4310  137.8412  154.4593 H   0  0  0  0  0  0  0  0  0  0  0  0
  147.9930  137.8769  157.0134 H   0  0  0  0  0  0  0  0  0  0  0  0
  148.4643  139.3019  159.0319 H   0  0  0  0  0  0  0  0  0  0  0  0
  149.0691  140.0265  157.5473 H   0  0  0  0  0  0  0  0  0  0  0  0
  150.1873  139.2468  158.6584 H   0  0  0  0  0  0  0  0  0  0  0  0
  147.4817  137.3787  159.4155 H   0  0  0  0  0  0  0  0  0  0  0  0
  148.4471  133.9086  159.3806 H   0  0  0  0  0  0  0  0  0  0  0  0
  147.2999  133.4055  163.4786 H   0  0  0  0  0  0  0  0  0  0  0  0
  1  2  1  0  0  0  0
  1 23  1  0  0  0  0
  1 24  1  0  0  0  0
  1 25  1  0  0  0  0
  2  3  1  0  0  0  0
  2  4  1  0  0  0  0
  2 26  1  0  0  0  0
  3 27  1  0  0  0  0
  3 28  1  0  0  0  0
  3 29  1  0  0  0  0
  4  5  1  0  0  0  0
  4 30  1  0  0  0  0
  4 31  1  0  0  0  0
  5  6  1  0  0  0  0
  6  7  1  0  0  0  0
  6  8  1  0  0  0  0
  6 32  1  0  0  0  0
  7 33  1  0  0  0  0
  7 34  1  0  0  0  0
  7 35  1  0  0  0  0
  8  9  2  0  0  0  0
  8 10  1  0  0  0  0
 10 11  1  0  0  0  0
 10 36  1  0  0  0  0
 11 20  1  0  0  0  0
 11 12  2  0  0  0  0
 12 13  1  0  0  0  0
 12 37  1  0  0  0  0
 13 14  1  0  0  0  0
 13 18  2  0  0  0  0
 14 15  1  0  0  0  0
 14 16  1  0  0  0  0
 14 17  1  0  0  0  0
 18 19  1  0  0  0  0
 18 38  1  0  0  0  0
 19 22  1  0  0  0  0
 19 20  1  0  0  0  0
 20 21  2  0  0  0  0
M  END
> <s_m_source_file>
AV-unprocessed.smi

> <i_m_source_file_index>
1634

> <i_lp_mmshare_version>
43012

> <i_f3d_flags>
0

> <s_epik_input>
W0NIM11bQ0hdKFtDSDNdKVtDSDJdT1tDQEhdKFtDSDNdKUMoPU8pW05IXWMxW2NIXWMoQyhGKShGKUYpW2NIXVtuSF1jMT1P

> <s_epik_cmdline>
J2VwaWtfcHl0aG9uJywgJy1waCcsICc3LjAnLCAnLXRuJywgJzgnLCAnLW1hJywgJzIwMCcsICctbWV0YWxfYmluZGluZycsICctaW1hZScsICc8aW5maWxlLm1hZT4nLCAnLW9tYWUnLCAnPG91dGZpbGUubWFlPic=

> <r_lp_tautomer_probability>
0.999

> <r_epik_Ionization_Penalty>
0.00884964

> <r_epik_Ionization_Penalty_Charging>
0.00884955

> <r_epik_Ionization_Penalty_Neutral>
9.33956e-08

> <r_epik_State_Penalty>
0.00669049

> <r_epik_Charging_Adjusted_Penalty>
0.01554

> <i_epik_Tot_Q>
0

> <i_epik_Tot_abs_Q>
0

> <r_epik_Metal_State_Penalty>
0.320763

> <b_epik_Metal_Only>
0

> <s_lp_Force_Field>
OPLS_2005

> <r_lp_Energy>
19.4514

> <b_lp_Chiralities_Consistent>
1

> <s_lp_Variant>
AV-unprocessed.smi:1634-1

> <Gold.Version>
5.8.1

> <Gold.Id.Protein>
6NUR|6NUR_protein|mol2

> <Gold.PLP.Fitness>
41.2614

> <Gold.PLP.PLP>
-35.2232

> <Gold.PLP.part.hbond>
-3.0000

> <Gold.PLP.part.metal>
0.0000

> <Gold.PLP.part.buried>
-3.8397

> <Gold.PLP.part.nonpolar>
-28.6994

> <Gold.PLP.part.repulsive>
0.2880

> <Gold.PLP.ligand.clash>
0.0000

> <Gold.PLP.ligand.torsion>
0.8458

> <Gold.PLP.Chemscore.Hbond>
2.5520

> <Gold.PLP.Chemscore.CHOScore>
0.0000

> <Gold.PLP.Chemscore.Metal>
0.0000

> <Gold.Chemscore.Hbonds>
donor molecule, donor type, donor heavy atom, donor atom, acceptor molecule, acceptor atom, score
      P1  H  6896  6909       L1     9  0.99
      P1  H  6931  6943       L1    21  0.77
      P1  H  6934  6947       L1    21  0.66

> <Gold.PLP.Chemscore.Internal.Correction>
0.0738

> <Gold.Rescore>
     Score         DG    S(hbond)    S(metal)    S(lipo)     H(rot)  DE(clash)    DE(int)     intcor
     15.55     -16.42       2.52        0.00      60.69       1.79       0.00       0.87       ----

> <Gold.Chemscore.Fitness>
15.5548

> <Gold.Chemscore.DG>
-16.4217

> <Gold.Chemscore.ZeroCoef>
-5.4800

> <Gold.Chemscore.Hbond>
2.5199

> <Gold.Chemscore.Metal>
0.0000

> <Gold.Chemscore.Lipo>
60.6906

> <Gold.Chemscore.Internal_Hbond>
0.0000

> <Gold.Chemscore.DEClash>
0.0000

> <Gold.Chemscore.DEInternal>
0.8670

> <Gold.Chemscore.Rot>
1.7873

> <Gold.Chemscore.Internal.Correction>
   9.000000E+99

> <Gold.Chemscore.Hbonds>
donor molecule, donor type, donor heavy atom, donor atom, acceptor molecule, acceptor atom, score
      P1  H  6896  6909       L1     9  0.94
      P1  H  6931  6943       L1    21  0.54
      P1  H  6934  6947       L1    21  0.66

> <Gold.Chemscore.Hbond.Weighted>
-8.4164

> <Gold.Chemscore.Metal.Weighted>
-0.0000

> <Gold.Chemscore.Lipo.Weighted>
-7.1008

> <Gold.Chemscore.Internal_Hbond.Weighted>
0.0000

> <Gold.Chemscore.DEClash.Weighted>
0.0000

> <Gold.Chemscore.DEInternal.Weighted>
0.8670

> <Gold.Chemscore.Rot.Weighted>
4.5755

> <Gold.Chemscore.Internal.Correction.Weighted>
   9.000000E+99

> <Gold.Protein.RotatedTorsions>
[ 6907 6896 6895 6894 ] final   51.91 input  -60.11 | X-H torsion
[ 7974 7965 7964 7962 ] final  -56.14 input  175.53 | X-H torsion
[ 8008 7997 7996 7995 ] final -123.24 input   59.86 | X-H torsion
[ 10167 10162 10161 10158 ] final  171.14 input  -65.29 | X-H torsion
[ 10718 10713 10712 10709 ] final -126.07 input   66.30 | X-H torsion
[ 10763 10752 10751 10750 ] final  -78.59 input  -60.55 | X-H torsion
[ 11005 11000 10999 10996 ] final    6.46 input  -57.11 | X-H torsion

> <Gold.Protein.ActiveResidues>
 VAL166  LYS551  ARG553  GLY616  TRP617  ASP618  TYR619  PRO620  LYS621  CYS622 
 ASP623  PHE694  ASN695  SER759  ASP760  ASP761  ALA762  ILE779  LEU786  VAL792 
 PHE793  MET794  SER795  GLU796  ALA797  LYS798  CYS799  TRP800  GLU811  SER814 

> <Gold.Protein.RotatedAtoms>
  152.3177  134.7419  160.0321 H   0  0  0  0  0  0  0  0  0  0  0  0  # atno 6907 bound_to 6896
  151.7878  133.3351  159.3498 H   0  0  0  0  0  0  0  0  0  0  0  0  # atno 6908 bound_to 6896
  150.7353  134.5802  159.5979 H   0  0  0  0  0  0  0  0  0  0  0  0  # atno 6909 bound_to 6896
  145.8660  140.8250  142.9912 H   0  0  0  0  0  0  0  0  0  0  0  0  # atno 7974 bound_to 7965
  155.1774  140.0409  157.2875 H   0  0  0  0  0  0  0  0  0  0  0  0  # atno 8008 bound_to 7997
  154.6227  140.2505  155.7502 H   0  0  0  0  0  0  0  0  0  0  0  0  # atno 8009 bound_to 7997
  156.2442  140.2891  156.0543 H   0  0  0  0  0  0  0  0  0  0  0  0  # atno 8010 bound_to 7997
  139.5038  144.3518  151.9914 H   0  0  0  0  0  0  0  0  0  0  0  0  # atno 10167 bound_to 10162
  156.1732  130.6682  151.0208 H   0  0  0  0  0  0  0  0  0  0  0  0  # atno 10718 bound_to 10713
  154.5278  135.5724  153.6734 H   0  0  0  0  0  0  0  0  0  0  0  0  # atno 10763 bound_to 10752
  152.9932  135.6197  154.2668 H   0  0  0  0  0  0  0  0  0  0  0  0  # atno 10764 bound_to 10752
  154.2593  135.2856  155.2764 H   0  0  0  0  0  0  0  0  0  0  0  0  # atno 10765 bound_to 10752
  140.5593  134.0208  155.7965 H   0  0  0  0  0  0  0  0  0  0  0  0  # atno 11005 bound_to 11000
  144.6726  140.1168  143.7452 LP  0  0  0  0  0  0  0  0  0  0  0  0  # atno 17320 bound_to 7965
  145.9192  139.2535  143.1391 LP  0  0  0  0  0  0  0  0  0  0  0  0  # atno 17321 bound_to 7965
  140.2955  144.3706  150.6075 LP  0  0  0  0  0  0  0  0  0  0  0  0  # atno 17342 bound_to 10162
  140.5914  143.2168  151.7246 LP  0  0  0  0  0  0  0  0  0  0  0  0  # atno 17343 bound_to 10162
  157.6817  131.0836  150.7351 LP  0  0  0  0  0  0  0  0  0  0  0  0  # atno 17370 bound_to 10713
  156.7409  130.4739  149.5477 LP  0  0  0  0  0  0  0  0  0  0  0  0  # atno 17371 bound_to 10713
  141.1124  133.9594  157.2885 LP  0  0  0  0  0  0  0  0  0  0  0  0  # atno 17394 bound_to 11000
  139.9416  135.0190  156.8725 LP  0  0  0  0  0  0  0  0  0  0  0  0  # atno 17395 bound_to 11000

$$$$
