#       Name:                AV-unprocessed.smi:3162
#       Creating user name   scv26
#       Creation time:       Fri Mar 27 17:49:19 2020


#       File generated by GOLD software.
#

@<TRIPOS>MOLECULE
AV-unprocessed.smi:3162
    40    40     1
SMALL
NO_CHARGES


@<TRIPOS>ATOM
      1 ****        -4.0337   1.8409  -1.5557 C.3            1 S1                 0.0000
      2 ****        -3.3950   0.4603  -1.3355 C.3            1 S1                 0.0000
      3 ****        -2.1692   0.4586  -0.3955 C.3            1 S1                 0.0000
      4 ****        -1.5403  -0.8841  -0.4239 N.4            1 S1                 1.0000
      5 ****        -0.0582  -0.9256  -0.4376 C.3            1 S1                 0.0000
      6 ****         0.3984  -2.3322  -0.8602 C.3            1 S1                 0.0000
      7 ****         0.5385  -0.4869   0.9202 C.3            1 S1                 0.0000
      8 ****         1.9876  -0.5690   0.9554 N.pl3          1 S1                 0.0000
      9 ****         2.9070   0.3031   0.4123 C.2            1 S1                 0.0000
     10 ****         4.1520  -0.1813   0.6980 C.2            1 S1                 0.0000
     11 ****         5.4897   0.3949   0.3320 C.3            1 S1                 0.0000
     12 ****         3.8832  -1.3721   1.4315 C.2            1 S1                 0.0000
     13 ****         2.5890  -1.6000   1.5856 N.2            1 S1                 0.0000
     14 ****        -2.5650   0.8396   1.0399 C.2            1 S1                 0.0000
     15 ****        -2.4048   2.1155   1.4009 N.am           1 S1                 0.0000
     16 ****        -3.0114  -0.0067   1.8122 O.2            1 S1                 0.0000
     17 ****        -4.8375   1.7804  -2.2898 H              1 S1                 0.0000
     18 ****        -3.3021   2.5594  -1.9258 H              1 S1                 0.0000
     19 ****        -4.4637   2.2397  -0.6370 H              1 S1                 0.0000
     20 ****        -4.1526  -0.2326  -0.9657 H              1 S1                 0.0000
     21 ****        -3.0903   0.0748  -2.3095 H              1 S1                 0.0000
     22 ****        -1.4542   1.1906  -0.7756 H              1 S1                 0.0000
     23 ****        -1.8904  -1.4272   0.3531 H              1 S1                 0.0000
     24 ****         0.2867  -0.2357  -1.2092 H              1 S1                 0.0000
     25 ****         1.4786  -2.3806  -0.9994 H              1 S1                 0.0000
     26 ****        -0.0586  -2.6255  -1.8057 H              1 S1                 0.0000
     27 ****         0.1252  -3.0782  -0.1130 H              1 S1                 0.0000
     28 ****         0.2678   0.5447   1.1444 H              1 S1                 0.0000
     29 ****         0.1307  -1.0981   1.7275 H              1 S1                 0.0000
     30 ****         2.6023   1.1875  -0.1280 H              1 S1                 0.0000
     31 ****         6.2943  -0.0408   0.9247 H              1 S1                 0.0000
     32 ****         5.5222   1.4727   0.4922 H              1 S1                 0.0000
     33 ****         5.7306   0.2174  -0.7162 H              1 S1                 0.0000
     34 ****         4.5873  -2.0730   1.8552 H              1 S1                 0.0000
     35 ****        -2.6425   2.4136   2.3361 H              1 S1                 0.0000
     36 ****        -2.0362   2.7808   0.7360 H              1 S1                 0.0000
     37 ****        -1.8454  -1.3263  -1.2789 H              1 S1                 0.0000
     38 ****         2.1542  -2.3643   2.0619 LP             1 S1                 0.0000
     39 ****        -3.1199  -0.9532   1.5084 LP             1 S1                 0.0000
     40 ****        -3.2660   0.2516   2.7441 LP             1 S1                 0.0000
@<TRIPOS>BOND
    1    1    2 1     
    2    1   17 1     
    3    1   18 1     
    4    1   19 1     
    5    2    3 1     
    6    2   20 1     
    7    2   21 1     
    8    3    4 1     
    9    3   14 1     
   10    3   22 1     
   11    4    5 1     
   12    4   23 1     
   13    4   37 1     
   14    5    6 1     
   15    5    7 1     
   16    5   24 1     
   17    6   25 1     
   18    6   26 1     
   19    6   27 1     
   20    7    8 1     
   21    7   28 1     
   22    7   29 1     
   23    8   13 1     
   24    8    9 1     
   25    9   10 2     
   26    9   30 1     
   27   10   11 1     
   28   10   12 1     
   29   11   31 1     
   30   11   32 1     
   31   11   33 1     
   32   12   13 2     
   33   12   34 1     
   34   14   15 am    
   35   14   16 2     
   36   15   35 1     
   37   15   36 1     
   38   13   38 1     
   39   16   39 1     
   40   16   40 1     
@<TRIPOS>SUBSTRUCTURE
      1 S1             1
@<TRIPOS>SET
LONE_PAIRS      STATIC     ATOMS    <user>   **** ""
3 38 39 40
DONOR_HYDROGENS      STATIC     ATOMS    <user>   **** ""
4 23 37 35 36
ATOM$BLUE        STATIC     ATOMS    COLORGROUP SYSTEM
3 38 39 40
ATOM$RED        STATIC     ATOMS    COLORGROUP SYSTEM
4 23 37 35 36
