AV-unprocessed.smi:1556|AV-procd|sdf|6269|dock1
  -GOLD-   22720 6463D 1   1.00000     0.00000
 Structure written by MMmdl.
 37 38  0  0  0  0  0  0  0  0  1 V2000
  144.0458  131.8978  150.4929 C   0  0  0  0  0  0  0  0  0  0  0  0
  144.6649  133.1512  150.8668 N   0  0  0  0  0  0  0  0  0  0  0  0
  144.0830  134.3940  150.9926 C   0  0  0  0  0  0  0  0  0  0  0  0
  145.0548  135.2618  151.4047 C   0  0  0  0  0  0  0  0  0  0  0  0
  144.9269  136.7269  151.7336 C   0  0  0  0  0  0  0  0  0  0  0  0
  145.3973  137.0554  153.1649 C   0  0  0  0  0  0  0  0  0  0  0  0
  146.8469  137.2002  153.2528 N   0  0  0  0  0  0  0  0  0  0  0  0
  147.5162  137.6596  154.3224 C   0  0  0  0  0  0  0  0  0  0  0  0
  146.9651  138.1231  155.3188 O   0  0  0  0  0  0  0  0  0  0  0  0
  148.8547  137.5629  154.2302 N   0  0  0  0  0  0  0  0  0  0  0  0
  149.8616  137.9691  155.2133 C   0  0  1  0  0  0  0  0  0  0  0  0
  150.6522  136.7487  155.7213 C   0  0  0  0  0  0  0  0  0  0  0  0
  151.9099  137.2413  156.4465 C   0  0  0  0  0  0  0  0  0  0  0  0
  152.4093  138.7868  155.5988 S   0  0  0  0  0  0  0  0  0  0  0  0
  152.4991  139.8695  156.5900 O   0  0  0  0  0  0  0  0  0  0  0  0
  153.5222  138.5077  154.6787 O   0  0  0  0  0  0  0  0  0  0  0  0
  150.8699  138.9740  154.6266 C   0  0  0  0  0  0  0  0  0  0  0  0
  146.2178  134.4436  151.4808 C   0  0  0  0  0  0  0  0  0  0  0  0
  145.9802  133.1814  151.1635 N   0  0  0  0  0  0  0  0  0  0  0  0
  143.0345  132.0754  150.1262 H   0  0  0  0  0  0  0  0  0  0  0  0
  143.9970  131.2404  151.3616 H   0  0  0  0  0  0  0  0  0  0  0  0
  144.6277  131.4141  149.7077 H   0  0  0  0  0  0  0  0  0  0  0  0
  143.0318  134.5535  150.8028 H   0  0  0  0  0  0  0  0  0  0  0  0
  145.4939  137.3312  151.0254 H   0  0  0  0  0  0  0  0  0  0  0  0
  143.8905  137.0483  151.6230 H   0  0  0  0  0  0  0  0  0  0  0  0
  144.9605  138.0037  153.4791 H   0  0  0  0  0  0  0  0  0  0  0  0
  145.0414  136.3032  153.8705 H   0  0  0  0  0  0  0  0  0  0  0  0
  147.3845  136.8518  152.4725 H   0  0  0  0  0  0  0  0  0  0  0  0
  149.2164  137.2027  153.3587 H   0  0  0  0  0  0  0  0  0  0  0  0
  149.3696  138.4251  156.0744 H   0  0  0  0  0  0  0  0  0  0  0  0
  150.0446  136.1104  156.3638 H   0  0  0  0  0  0  0  0  0  0  0  0
  150.9605  136.1408  154.8692 H   0  0  0  0  0  0  0  0  0  0  0  0
  151.6850  137.4855  157.4849 H   0  0  0  0  0  0  0  0  0  0  0  0
  152.7256  136.5185  156.4269 H   0  0  0  0  0  0  0  0  0  0  0  0
  151.1044  138.7418  153.5873 H   0  0  0  0  0  0  0  0  0  0  0  0
  150.5247  140.0061  154.6833 H   0  0  0  0  0  0  0  0  0  0  0  0
  147.2189  134.7261  151.7717 H   0  0  0  0  0  0  0  0  0  0  0  0
  1  2  1  0  0  0  0
  1 20  1  0  0  0  0
  1 21  1  0  0  0  0
  1 22  1  0  0  0  0
  2 19  1  0  0  0  0
  2  3  1  0  0  0  0
  3  4  2  0  0  0  0
  3 23  1  0  0  0  0
  4  5  1  0  0  0  0
  4 18  1  0  0  0  0
  5  6  1  0  0  0  0
  5 24  1  0  0  0  0
  5 25  1  0  0  0  0
  6  7  1  0  0  0  0
  6 26  1  0  0  0  0
  6 27  1  0  0  0  0
  7  8  1  0  0  0  0
  7 28  1  0  0  0  0
  8  9  2  0  0  0  0
  8 10  1  0  0  0  0
 10 11  1  0  0  0  0
 10 29  1  0  0  0  0
 11 17  1  0  0  0  0
 11 12  1  0  0  0  0
 11 30  1  0  0  0  0
 12 13  1  0  0  0  0
 12 31  1  0  0  0  0
 12 32  1  0  0  0  0
 13 14  1  0  0  0  0
 13 33  1  0  0  0  0
 13 34  1  0  0  0  0
 14 15  2  0  0  0  0
 14 16  2  0  0  0  0
 14 17  1  0  0  0  0
 17 35  1  0  0  0  0
 17 36  1  0  0  0  0
 18 19  2  0  0  0  0
 18 37  1  0  0  0  0
M  END
> <s_m_source_file>
AV-unprocessed.smi

> <i_m_source_file_index>
1556

> <i_lp_mmshare_version>
43012

> <i_f3d_flags>
0

> <s_epik_input>
W0NIM11uMVtjSF1jKFtjSF1uMSlbQ0gyXVtDSDJdW05IXUMoPU8pW05IXVtDQEBIXShbQ0gyXTIpW0NIMl1bQ0gyXVMyKD1PKT1P

> <s_epik_cmdline>
J2VwaWtfcHl0aG9uJywgJy1waCcsICc3LjAnLCAnLXRuJywgJzgnLCAnLW1hJywgJzIwMCcsICctbWV0YWxfYmluZGluZycsICctaW1hZScsICc8aW5maWxlLm1hZT4nLCAnLW9tYWUnLCAnPG91dGZpbGUubWFlPic=

> <r_lp_tautomer_probability>
1

> <r_epik_Ionization_Penalty>
0.000530192

> <r_epik_Ionization_Penalty_Charging>
0

> <r_epik_Ionization_Penalty_Neutral>
0.000530192

> <r_epik_State_Penalty>
-0

> <r_epik_Charging_Adjusted_Penalty>
0

> <i_epik_Tot_Q>
0

> <i_epik_Tot_abs_Q>
0

> <r_epik_Metal_State_Penalty>
-0

> <b_epik_Metal_Only>
0

> <s_lp_Force_Field>
OPLS_2005

> <r_lp_Energy>
7.70197

> <b_lp_Chiralities_Consistent>
1

> <s_lp_Variant>
AV-unprocessed.smi:1556-2

> <Gold.Version>
5.8.1

> <Gold.Id.Protein>
6NUR|6NUR_protein|mol2

> <Gold.PLP.Fitness>
43.1226

> <Gold.PLP.PLP>
-28.4488

> <Gold.PLP.part.hbond>
-3.6899

> <Gold.PLP.part.metal>
0.0000

> <Gold.PLP.part.buried>
-3.7187

> <Gold.PLP.part.nonpolar>
-21.2904

> <Gold.PLP.part.repulsive>
0.2057

> <Gold.PLP.ligand.clash>
0.0000

> <Gold.PLP.ligand.torsion>
0.1811

> <Gold.PLP.Chemscore.Hbond>
3.0000

> <Gold.PLP.Chemscore.CHOScore>
2.0000

> <Gold.PLP.Chemscore.Metal>
0.0000

> <Gold.Chemscore.Hbonds>
donor molecule, donor type, donor heavy atom, donor atom, acceptor molecule, acceptor atom, score
      L1  H     7    28       P1  7948  0.98
      L1  H    10    29       P1  7948  1.00
      P1  H  7997  8008       L1    15  0.99
      L1  C     3    23       P1 10186  1.00
      L1  C    18    37       P1  7948  1.00

> <Gold.PLP.Chemscore.Internal.Correction>
0.0360

> <Gold.Rescore>
     Score         DG    S(hbond)    S(metal)    S(lipo)     H(rot)  DE(clash)    DE(int)     intcor
     16.23     -16.47       2.83        0.00      53.01       1.82       0.04       0.20       ----

> <Gold.Chemscore.Fitness>
16.2250

> <Gold.Chemscore.DG>
-16.4697

> <Gold.Chemscore.ZeroCoef>
-5.4800

> <Gold.Chemscore.Hbond>
2.8298

> <Gold.Chemscore.Metal>
0.0000

> <Gold.Chemscore.Lipo>
53.0128

> <Gold.Chemscore.Internal_Hbond>
0.0000

> <Gold.Chemscore.DEClash>
0.0429

> <Gold.Chemscore.DEInternal>
0.2017

> <Gold.Chemscore.Rot>
1.8220

> <Gold.Chemscore.Internal.Correction>
   9.000000E+99

> <Gold.Chemscore.Hbonds>
donor molecule, donor type, donor heavy atom, donor atom, acceptor molecule, acceptor atom, score
      L1  H     7    28       P1  7948  0.93
      L1  H    10    29       P1  7948  0.93
      P1  H  7997  8008       L1    15  0.28

> <Gold.Chemscore.Hbond.Weighted>
-9.4514

> <Gold.Chemscore.Metal.Weighted>
-0.0000

> <Gold.Chemscore.Lipo.Weighted>
-6.2025

> <Gold.Chemscore.Internal_Hbond.Weighted>
0.0000

> <Gold.Chemscore.DEClash.Weighted>
0.0429

> <Gold.Chemscore.DEInternal.Weighted>
0.2017

> <Gold.Chemscore.Rot.Weighted>
4.6642

> <Gold.Chemscore.Internal.Correction.Weighted>
   9.000000E+99

> <Gold.Protein.RotatedTorsions>
[ 6907 6896 6895 6894 ] final   31.18 input  -60.11 | X-H torsion
[ 7974 7965 7964 7962 ] final   81.24 input  175.53 | X-H torsion
[ 8008 7997 7996 7995 ] final  -67.41 input   59.86 | X-H torsion
[ 10167 10162 10161 10158 ] final  159.36 input  -65.29 | X-H torsion
[ 10718 10713 10712 10709 ] final  122.43 input   66.30 | X-H torsion
[ 10763 10752 10751 10750 ] final -136.16 input  -60.55 | X-H torsion
[ 11005 11000 10999 10996 ] final  -71.23 input  -57.11 | X-H torsion

> <Gold.Protein.ActiveResidues>
 VAL166  LYS551  ARG553  GLY616  TRP617  ASP618  TYR619  PRO620  LYS621  CYS622 
 ASP623  PHE694  ASN695  SER759  ASP760  ASP761  ALA762  ILE779  LEU786  VAL792 
 PHE793  MET794  SER795  GLU796  ALA797  LYS798  CYS799  TRP800  GLU811  SER814 

> <Gold.Protein.RotatedAtoms>
  152.0566  134.9621  160.0574 H   0  0  0  0  0  0  0  0  0  0  0  0  # atno 6907 bound_to 6896
  152.1001  133.4240  159.4591 H   0  0  0  0  0  0  0  0  0  0  0  0  # atno 6908 bound_to 6896
  150.6839  134.2690  159.4624 H   0  0  0  0  0  0  0  0  0  0  0  0  # atno 6909 bound_to 6896
  145.6408  139.2425  143.2032 H   0  0  0  0  0  0  0  0  0  0  0  0  # atno 7974 bound_to 7965
  154.4798  140.0893  156.7349 H   0  0  0  0  0  0  0  0  0  0  0  0  # atno 8008 bound_to 7997
  155.4501  140.3457  155.4281 H   0  0  0  0  0  0  0  0  0  0  0  0  # atno 8009 bound_to 7997
  156.1173  140.1464  156.9242 H   0  0  0  0  0  0  0  0  0  0  0  0  # atno 8010 bound_to 7997
  139.4832  144.4737  151.8540 H   0  0  0  0  0  0  0  0  0  0  0  0  # atno 10167 bound_to 10162
  157.5742  131.1080  150.8310 H   0  0  0  0  0  0  0  0  0  0  0  0  # atno 10718 bound_to 10713
  154.8689  135.3681  154.5015 H   0  0  0  0  0  0  0  0  0  0  0  0  # atno 10763 bound_to 10752
  153.5655  135.7022  153.5533 H   0  0  0  0  0  0  0  0  0  0  0  0  # atno 10764 bound_to 10752
  153.3589  135.4052  155.1666 H   0  0  0  0  0  0  0  0  0  0  0  0  # atno 10765 bound_to 10752
  141.1588  133.6812  156.6874 H   0  0  0  0  0  0  0  0  0  0  0  0  # atno 11005 bound_to 11000
  146.1282  140.7220  142.9425 LP  0  0  0  0  0  0  0  0  0  0  0  0  # atno 17320 bound_to 7965
  144.7158  140.4204  143.7045 LP  0  0  0  0  0  0  0  0  0  0  0  0  # atno 17321 bound_to 7965
  140.4208  144.2246  150.5887 LP  0  0  0  0  0  0  0  0  0  0  0  0  # atno 17342 bound_to 10162
  140.4875  143.2358  151.8866 LP  0  0  0  0  0  0  0  0  0  0  0  0  # atno 17343 bound_to 10162
  156.8773  130.5167  149.5293 LP  0  0  0  0  0  0  0  0  0  0  0  0  # atno 17370 bound_to 10713
  156.0787  130.5803  150.9523 LP  0  0  0  0  0  0  0  0  0  0  0  0  # atno 17371 bound_to 10713
  140.3056  134.8128  157.4134 LP  0  0  0  0  0  0  0  0  0  0  0  0  # atno 17394 bound_to 11000
  140.1223  134.5203  155.8173 LP  0  0  0  0  0  0  0  0  0  0  0  0  # atno 17395 bound_to 11000

$$$$
