AV-unprocessed.smi:516|AV-procd|sdf|2785|dock3
  -GOLD-   2262023263D 1   1.00000     0.00000
 Structure written by MMmdl.
 45 47  0  0  0  0  0  0  0  0  2 V2000
  154.1475  136.5387  159.8125 C   0  0  0  0  0  0  0  0  0  0  0  0
  152.7728  136.8246  159.9966 O   0  0  0  0  0  0  0  0  0  0  0  0
  152.5329  138.1915  160.2879 C   0  0  0  0  0  0  0  0  0  0  0  0
  153.1154  139.0718  159.1725 C   0  0  0  0  0  0  0  0  0  0  0  0
  152.5582  140.4206  159.1905 N   0  0  0  0  0  0  0  0  0  0  0  0
  151.8003  141.0190  158.2329 C   0  0  0  0  0  0  0  0  0  0  0  0
  151.4010  140.3505  156.9476 C   0  0  0  0  0  0  0  0  0  0  0  0
  150.1656  141.0557  156.5214 N   0  3  0  0  0  0  0  0  0  0  0  0
  149.6451  140.5456  155.2312 C   0  0  0  0  0  0  0  0  0  0  0  0
  148.4047  141.3445  154.7964 C   0  0  0  0  0  0  0  0  0  0  0  0
  147.4144  141.2785  155.8147 O   0  0  0  0  0  0  0  0  0  0  0  0
  147.8694  141.8472  157.0359 C   0  0  0  0  0  0  0  0  0  0  0  0
  149.0912  141.0655  157.5469 C   0  0  0  0  0  0  0  0  0  0  0  0
  151.4387  142.2734  158.5248 N   0  0  0  0  0  0  0  0  0  0  0  0
  152.0169  142.4897  159.7661 C   0  0  0  0  0  0  0  0  0  0  0  0
  152.6918  141.3907  160.1845 C   0  0  0  0  0  0  0  0  0  0  0  0
  153.4075  141.3492  161.4671 C   0  0  0  0  0  0  0  0  0  0  0  0
  154.0319  140.3687  161.8655 O   0  0  0  0  0  0  0  0  0  0  0  0
  153.3077  142.5052  162.1674 N   0  0  0  0  0  0  0  0  0  0  0  0
  152.6437  143.6451  161.8041 C   0  0  0  0  0  0  0  0  0  0  0  0
  152.6464  144.6181  162.5571 O   0  0  0  0  0  0  0  0  0  0  0  0
  151.9953  143.6457  160.5937 N   0  0  0  0  0  0  0  0  0  0  0  0
  151.2667  144.8181  160.1048 C   0  0  0  0  0  0  0  0  0  0  0  0
  153.7793  142.5293  163.0598 H   0  0  0  0  0  0  0  0  0  0  0  0
  154.2741  135.4801  159.5858 H   0  0  0  0  0  0  0  0  0  0  0  0
  154.7205  136.7609  160.7136 H   0  0  0  0  0  0  0  0  0  0  0  0
  154.5620  137.1127  158.9827 H   0  0  0  0  0  0  0  0  0  0  0  0
  151.4600  138.3665  160.3806 H   0  0  0  0  0  0  0  0  0  0  0  0
  152.9895  138.4562  161.2427 H   0  0  0  0  0  0  0  0  0  0  0  0
  154.1996  139.1280  159.2633 H   0  0  0  0  0  0  0  0  0  0  0  0
  152.9370  138.6175  158.1996 H   0  0  0  0  0  0  0  0  0  0  0  0
  152.2020  140.4978  156.2222 H   0  0  0  0  0  0  0  0  0  0  0  0
  151.2445  139.2776  157.0531 H   0  0  0  0  0  0  0  0  0  0  0  0
  150.4170  140.6223  154.4646 H   0  0  0  0  0  0  0  0  0  0  0  0
  149.3938  139.4883  155.3302 H   0  0  0  0  0  0  0  0  0  0  0  0
  148.6629  142.3841  154.5890 H   0  0  0  0  0  0  0  0  0  0  0  0
  147.9937  140.9292  153.8763 H   0  0  0  0  0  0  0  0  0  0  0  0
  148.1133  142.9013  156.8935 H   0  0  0  0  0  0  0  0  0  0  0  0
  147.0626  141.8031  157.7677 H   0  0  0  0  0  0  0  0  0  0  0  0
  148.8043  140.0406  157.7863 H   0  0  0  0  0  0  0  0  0  0  0  0
  149.4464  141.5223  158.4705 H   0  0  0  0  0  0  0  0  0  0  0  0
  151.3114  145.6799  160.7714 H   0  0  0  0  0  0  0  0  0  0  0  0
  150.2147  144.5693  159.9618 H   0  0  0  0  0  0  0  0  0  0  0  0
  151.6711  145.1321  159.1420 H   0  0  0  0  0  0  0  0  0  0  0  0
  150.4301  142.0177  156.3604 H   0  0  0  0  0  0  0  0  0  0  0  0
  1  2  1  0  0  0  0
  1 25  1  0  0  0  0
  1 26  1  0  0  0  0
  1 27  1  0  0  0  0
  2  3  1  0  0  0  0
  3  4  1  0  0  0  0
  3 28  1  0  0  0  0
  3 29  1  0  0  0  0
  4  5  1  0  0  0  0
  4 30  1  0  0  0  0
  4 31  1  0  0  0  0
  5 16  1  0  0  0  0
  5  6  1  0  0  0  0
  6  7  1  0  0  0  0
  6 14  2  0  0  0  0
  7  8  1  0  0  0  0
  7 32  1  0  0  0  0
  7 33  1  0  0  0  0
  8 13  1  0  0  0  0
  8  9  1  0  0  0  0
  8 45  1  0  0  0  0
  9 10  1  0  0  0  0
  9 34  1  0  0  0  0
  9 35  1  0  0  0  0
 10 11  1  0  0  0  0
 10 36  1  0  0  0  0
 10 37  1  0  0  0  0
 11 12  1  0  0  0  0
 12 13  1  0  0  0  0
 12 38  1  0  0  0  0
 12 39  1  0  0  0  0
 13 40  1  0  0  0  0
 13 41  1  0  0  0  0
 14 15  1  0  0  0  0
 15 22  1  0  0  0  0
 15 16  2  0  0  0  0
 16 17  1  0  0  0  0
 17 18  2  0  0  0  0
 17 19  1  0  0  0  0
 19 24  1  0  0  0  0
 19 20  1  0  0  0  0
 20 21  2  0  0  0  0
 20 22  1  0  0  0  0
 22 23  1  0  0  0  0
 23 42  1  0  0  0  0
 23 43  1  0  0  0  0
 23 44  1  0  0  0  0
M  CHG  1   8   1
M  END
> <s_m_source_file>
AV-unprocessed.smi

> <i_m_source_file_index>
516

> <i_lp_mmshare_version>
43012

> <i_f3d_flags>
0

> <s_epik_input>
W0NIM11uMWMoPU8pW25IXWMoPU8pYyhjMTIpbihbQ0gyXVtDSDJdT1tDSDNdKWMobjIpW0NIMl1OM1tDSDJdW0NIMl1PW0NIMl1bQ0gyXTM=

> <s_epik_cmdline>
J2VwaWtfcHl0aG9uJywgJy1waCcsICc3LjAnLCAnLXRuJywgJzgnLCAnLW1hJywgJzIwMCcsICctbWV0YWxfYmluZGluZycsICctaW1hZScsICc8aW5maWxlLm1hZT4nLCAnLW9tYWUnLCAnPG91dGZpbGUubWFlPic=

> <r_epik_Ionization_Penalty>
1.12077

> <r_epik_Ionization_Penalty_Charging>
1.12077

> <r_epik_Ionization_Penalty_Neutral>
4.43299e-09

> <r_epik_State_Penalty>
1.17893

> <r_epik_Charging_Adjusted_Penalty>
2.29969

> <i_epik_Tot_Q>
1

> <i_epik_Tot_abs_Q>
1

> <r_epik_Metal_State_Penalty>
1.32838

> <b_epik_Metal_Only>
0

> <s_lp_Force_Field>
OPLS_2005

> <r_lp_Energy>
36.1073

> <b_lp_Chiralities_Consistent>
1

> <s_lp_Variant>
AV-unprocessed.smi:516-2

> <Gold.Version>
5.8.1

> <Gold.Id.Protein>
6NUR|6NUR_protein|mol2

> <Gold.PLP.Fitness>
40.8845

> <Gold.PLP.PLP>
-38.7225

> <Gold.PLP.part.hbond>
-1.0000

> <Gold.PLP.part.metal>
0.0000

> <Gold.PLP.part.buried>
-4.5343

> <Gold.PLP.part.nonpolar>
-32.7191

> <Gold.PLP.part.repulsive>
0.3899

> <Gold.PLP.ligand.clash>
0.0000

> <Gold.PLP.ligand.torsion>
0.4484

> <Gold.PLP.Chemscore.Hbond>
1.0000

> <Gold.PLP.Chemscore.CHOScore>
0.0000

> <Gold.PLP.Chemscore.Metal>
0.0000

> <Gold.Chemscore.Hbonds>
donor molecule, donor type, donor heavy atom, donor atom, acceptor molecule, acceptor atom, score
      P1  H  6896  6907       L1     2  0.95

> <Gold.PLP.Chemscore.Internal.Correction>
0.0588

> <Gold.Rescore>
     Score         DG    S(hbond)    S(metal)    S(lipo)     H(rot)  DE(clash)    DE(int)     intcor
      8.90      -9.83       0.96        0.00      55.99       2.11       0.47       0.46       ----

> <Gold.Chemscore.Fitness>
8.9029

> <Gold.Chemscore.DG>
-9.8290

> <Gold.Chemscore.ZeroCoef>
-5.4800

> <Gold.Chemscore.Hbond>
0.9557

> <Gold.Chemscore.Metal>
0.0000

> <Gold.Chemscore.Lipo>
55.9865

> <Gold.Chemscore.Internal_Hbond>
0.0000

> <Gold.Chemscore.DEClash>
0.4689

> <Gold.Chemscore.DEInternal>
0.4572

> <Gold.Chemscore.Rot>
2.1069

> <Gold.Chemscore.Internal.Correction>
   9.000000E+99

> <Gold.Chemscore.Hbonds>
donor molecule, donor type, donor heavy atom, donor atom, acceptor molecule, acceptor atom, score
      P1  H  6896  6907       L1     2  0.21

> <Gold.Chemscore.Hbond.Weighted>
-3.1921

> <Gold.Chemscore.Metal.Weighted>
-0.0000

> <Gold.Chemscore.Lipo.Weighted>
-6.5504

> <Gold.Chemscore.Internal_Hbond.Weighted>
0.0000

> <Gold.Chemscore.DEClash.Weighted>
0.4689

> <Gold.Chemscore.DEInternal.Weighted>
0.4572

> <Gold.Chemscore.Rot.Weighted>
5.3936

> <Gold.Chemscore.Internal.Correction.Weighted>
   9.000000E+99

> <Gold.Protein.RotatedTorsions>
[ 6907 6896 6895 6894 ] final   31.73 input  -60.11 | X-H torsion
[ 7974 7965 7964 7962 ] final  160.91 input  175.53 | X-H torsion
[ 8008 7997 7996 7995 ] final  -52.35 input   59.86 | X-H torsion
[ 10167 10162 10161 10158 ] final -133.56 input  -65.29 | X-H torsion
[ 10718 10713 10712 10709 ] final  178.32 input   66.30 | X-H torsion
[ 10763 10752 10751 10750 ] final  -65.81 input  -60.55 | X-H torsion
[ 11005 11000 10999 10996 ] final -101.56 input  -57.11 | X-H torsion

> <Gold.Protein.ActiveResidues>
 VAL166  LYS551  ARG553  GLY616  TRP617  ASP618  TYR619  PRO620  LYS621  CYS622 
 ASP623  PHE694  ASN695  SER759  ASP760  ASP761  ALA762  ILE779  LEU786  VAL792 
 PHE793  MET794  SER795  GLU796  ALA797  LYS798  CYS799  TRP800  GLU811  SER814 

> <Gold.Protein.RotatedAtoms>
  152.0645  134.9573  160.0574 H   0  0  0  0  0  0  0  0  0  0  0  0  # atno 6907 bound_to 6896
  152.0924  133.4202  159.4558 H   0  0  0  0  0  0  0  0  0  0  0  0  # atno 6908 bound_to 6896
  150.6837  134.2776  159.4657 H   0  0  0  0  0  0  0  0  0  0  0  0  # atno 6909 bound_to 6896
  144.7712  139.7823  143.6296 H   0  0  0  0  0  0  0  0  0  0  0  0  # atno 7974 bound_to 7965
  154.4104  140.1226  156.4978 H   0  0  0  0  0  0  0  0  0  0  0  0  # atno 8008 bound_to 7997
  155.6926  140.3495  155.4880 H   0  0  0  0  0  0  0  0  0  0  0  0  # atno 8009 bound_to 7997
  155.9456  140.1095  157.1010 H   0  0  0  0  0  0  0  0  0  0  0  0  # atno 8010 bound_to 7997
  139.8970  143.6653  152.2602 H   0  0  0  0  0  0  0  0  0  0  0  0  # atno 10167 bound_to 10162
  156.8923  130.9851  151.3047 H   0  0  0  0  0  0  0  0  0  0  0  0  # atno 10718 bound_to 10713
  154.3506  135.6137  153.5641 H   0  0  0  0  0  0  0  0  0  0  0  0  # atno 10763 bound_to 10752
  152.9798  135.5791  154.4748 H   0  0  0  0  0  0  0  0  0  0  0  0  # atno 10764 bound_to 10752
  154.4468  135.2851  155.1786 H   0  0  0  0  0  0  0  0  0  0  0  0  # atno 10765 bound_to 10752
  141.1226  133.8488  157.1248 H   0  0  0  0  0  0  0  0  0  0  0  0  # atno 11005 bound_to 11000
  146.1861  139.5076  142.9835 LP  0  0  0  0  0  0  0  0  0  0  0  0  # atno 17320 bound_to 7965
  145.6317  141.0303  143.1859 LP  0  0  0  0  0  0  0  0  0  0  0  0  # atno 17321 bound_to 7965
  139.7058  144.7628  151.1195 LP  0  0  0  0  0  0  0  0  0  0  0  0  # atno 17342 bound_to 10162
  140.7715  143.5396  150.9328 LP  0  0  0  0  0  0  0  0  0  0  0  0  # atno 17343 bound_to 10162
  157.6076  130.8559  149.8900 LP  0  0  0  0  0  0  0  0  0  0  0  0  # atno 17370 bound_to 10713
  156.0623  130.3698  150.0955 LP  0  0  0  0  0  0  0  0  0  0  0  0  # atno 17371 bound_to 10713
  140.0195  134.9952  157.0563 LP  0  0  0  0  0  0  0  0  0  0  0  0  # atno 17394 bound_to 11000
  140.4463  134.1629  155.7178 LP  0  0  0  0  0  0  0  0  0  0  0  0  # atno 17395 bound_to 11000

$$$$
