AV-unprocessed.smi:276|AV-procd|sdf|2077|dock6
  -GOLD-   2262021343D 1   1.00000     0.00000
 Structure written by MMmdl.
 57 61  0  0  0  0  0  0  0  0  1 V2000
  151.3239  141.4147  158.5496 C   0  0  0  0  0  0  0  0  0  0  0  0
  151.1758  140.5210  157.4607 O   0  0  0  0  0  0  0  0  0  0  0  0
  149.9246  140.6627  156.8068 C   0  0  1  0  0  0  0  0  0  0  0  0
  149.9171  141.6850  155.6637 C   0  0  0  0  0  0  0  0  0  0  0  0
  149.0578  140.7005  154.8458 C   0  0  2  0  0  0  0  0  0  0  0  0
  147.6222  140.9682  155.0152 N   0  0  0  0  0  0  0  0  0  0  0  0
  147.0986  142.1349  154.3109 C   0  0  0  0  0  0  0  0  0  0  0  0
  146.7940  139.9146  154.8385 C   0  0  0  0  0  0  0  0  0  0  0  0
  146.0613  139.5237  155.9109 N   0  0  0  0  0  0  0  0  0  0  0  0
  145.2287  138.4834  155.8092 C   0  0  0  0  0  0  0  0  0  0  0  0
  144.9797  137.7139  154.7475 N   0  0  0  0  0  0  0  0  0  0  0  0
  145.7033  138.1150  153.6633 C   0  0  0  0  0  0  0  0  0  0  0  0
  146.6235  139.2000  153.6174 C   0  0  0  0  0  0  0  0  0  0  0  0
  147.1631  139.3070  152.3406 N   0  0  0  0  0  0  0  0  0  0  0  0
  146.6045  138.3339  151.6745 C   0  0  0  0  0  0  0  0  0  0  0  0
  145.7168  137.5668  152.3932 N   0  0  0  0  0  0  0  0  0  0  0  0
  144.9650  136.4251  151.9030 C   0  0  0  0  0  0  0  0  0  0  0  0
  145.8811  135.2886  151.4094 C   0  0  1  0  0  0  0  0  0  0  0  0
  146.5715  134.7322  152.5122 O   0  0  0  0  0  0  0  0  0  0  0  0
  145.0924  134.1713  150.7027 C   0  0  2  0  0  0  0  0  0  0  0  0
  143.8418  133.7050  151.4502 C   0  0  0  0  0  0  0  0  0  0  0  0
  143.6348  132.2841  150.9504 C   0  0  0  0  0  0  0  0  0  0  0  0
  144.9737  131.9176  150.3043 C   0  0  0  0  0  0  0  0  0  0  0  0
  145.8560  132.9761  150.6495 O   0  0  0  0  0  0  0  0  0  0  0  0
  149.6458  139.5808  155.7479 C   0  0  0  0  0  0  0  0  0  0  0  0
  150.8012  138.7130  155.2156 C   0  0  0  0  0  0  0  0  0  0  0  0
  150.3218  137.5977  156.1488 C   0  0  0  0  0  0  0  0  0  0  0  0
  148.9433  138.2625  156.1262 C   0  0  0  0  0  0  0  0  0  0  0  0
  152.2973  141.2647  159.0160 H   0  0  0  0  0  0  0  0  0  0  0  0
  150.5575  141.2421  159.3063 H   0  0  0  0  0  0  0  0  0  0  0  0
  151.2646  142.4535  158.2223 H   0  0  0  0  0  0  0  0  0  0  0  0
  149.0835  140.7850  157.4926 H   0  0  0  0  0  0  0  0  0  0  0  0
  149.4590  142.6393  155.9215 H   0  0  0  0  0  0  0  0  0  0  0  0
  150.9067  141.8318  155.2275 H   0  0  0  0  0  0  0  0  0  0  0  0
  149.3809  140.6423  153.8065 H   0  0  0  0  0  0  0  0  0  0  0  0
  146.0125  142.1042  154.2058 H   0  0  0  0  0  0  0  0  0  0  0  0
  147.5313  142.2065  153.3122 H   0  0  0  0  0  0  0  0  0  0  0  0
  147.3427  143.0471  154.8545 H   0  0  0  0  0  0  0  0  0  0  0  0
  144.6854  138.2310  156.7077 H   0  0  0  0  0  0  0  0  0  0  0  0
  146.8280  138.1456  150.6343 H   0  0  0  0  0  0  0  0  0  0  0  0
  144.3046  136.0702  152.6954 H   0  0  0  0  0  0  0  0  0  0  0  0
  144.3201  136.7691  151.0935 H   0  0  0  0  0  0  0  0  0  0  0  0
  146.6222  135.6977  150.7211 H   0  0  0  0  0  0  0  0  0  0  0  0
  147.3618  135.2309  152.6542 H   0  0  0  0  0  0  0  0  0  0  0  0
  144.8303  134.4698  149.6855 H   0  0  0  0  0  0  0  0  0  0  0  0
  144.0289  133.6889  152.5249 H   0  0  0  0  0  0  0  0  0  0  0  0
  142.9798  134.3480  151.2699 H   0  0  0  0  0  0  0  0  0  0  0  0
  143.3836  131.6136  151.7729 H   0  0  0  0  0  0  0  0  0  0  0  0
  142.8293  132.2333  150.2169 H   0  0  0  0  0  0  0  0  0  0  0  0
  145.3586  130.9588  150.6526 H   0  0  0  0  0  0  0  0  0  0  0  0
  144.8752  131.8708  149.2188 H   0  0  0  0  0  0  0  0  0  0  0  0
  150.6807  138.4559  154.1618 H   0  0  0  0  0  0  0  0  0  0  0  0
  151.8053  139.0848  155.4211 H   0  0  0  0  0  0  0  0  0  0  0  0
  150.3546  136.5959  155.7198 H   0  0  0  0  0  0  0  0  0  0  0  0
  150.7942  137.6356  157.1318 H   0  0  0  0  0  0  0  0  0  0  0  0
  148.4251  138.2749  157.0854 H   0  0  0  0  0  0  0  0  0  0  0  0
  148.3192  137.8455  155.3365 H   0  0  0  0  0  0  0  0  0  0  0  0
  1  2  1  0  0  0  0
  1 29  1  0  0  0  0
  1 30  1  0  0  0  0
  1 31  1  0  0  0  0
  2  3  1  0  0  0  0
  3 25  1  0  0  0  0
  3  4  1  0  0  0  0
  3 32  1  0  0  0  0
  4  5  1  0  0  0  0
  4 33  1  0  0  0  0
  4 34  1  0  0  0  0
  5  6  1  0  0  0  0
  5 25  1  0  0  0  0
  5 35  1  0  0  0  0
  6  7  1  0  0  0  0
  6  8  1  0  0  0  0
  7 36  1  0  0  0  0
  7 37  1  0  0  0  0
  7 38  1  0  0  0  0
  8 13  1  0  0  0  0
  8  9  2  0  0  0  0
  9 10  1  0  0  0  0
 10 11  2  0  0  0  0
 10 39  1  0  0  0  0
 11 12  1  0  0  0  0
 12 16  1  0  0  0  0
 12 13  2  0  0  0  0
 13 14  1  0  0  0  0
 14 15  2  0  0  0  0
 15 16  1  0  0  0  0
 15 40  1  0  0  0  0
 16 17  1  0  0  0  0
 17 18  1  0  0  0  0
 17 41  1  0  0  0  0
 17 42  1  0  0  0  0
 18 19  1  0  0  0  0
 18 20  1  0  0  0  0
 18 43  1  0  0  0  0
 19 44  1  0  0  0  0
 20 24  1  0  0  0  0
 20 21  1  0  0  0  0
 20 45  1  0  0  0  0
 21 22  1  0  0  0  0
 21 46  1  0  0  0  0
 21 47  1  0  0  0  0
 22 23  1  0  0  0  0
 22 48  1  0  0  0  0
 22 49  1  0  0  0  0
 23 24  1  0  0  0  0
 23 50  1  0  0  0  0
 23 51  1  0  0  0  0
 25 28  1  0  0  0  0
 25 26  1  0  0  0  0
 26 27  1  0  0  0  0
 26 52  1  0  0  0  0
 26 53  1  0  0  0  0
 27 28  1  0  0  0  0
 27 54  1  0  0  0  0
 27 55  1  0  0  0  0
 28 56  1  0  0  0  0
 28 57  1  0  0  0  0
M  END
> <s_m_source_file>
AV-unprocessed.smi

> <i_m_source_file_index>
276

> <i_lp_mmshare_version>
43012

> <i_f3d_flags>
0

> <s_epik_input>
W0NIMl0xW0NIMl1bQ0gyXUMxMltDQEhdKE9bQ0gzXSlbQ0gyXVtDQEhdMk4oW0NIM10pYyhuW2NIXW4zKWMoYzM0KW5bY0hdbjRbQ0gyXVtDQEhdKFtPSF0pW0NAQEhdNVtDSDJdW0NIMl1bQ0gyXU81

> <s_epik_cmdline>
J2VwaWtfcHl0aG9uJywgJy1waCcsICc3LjAnLCAnLXRuJywgJzgnLCAnLW1hJywgJzIwMCcsICctbWV0YWxfYmluZGluZycsICctaW1hZScsICc8aW5maWxlLm1hZT4nLCAnLW9tYWUnLCAnPG91dGZpbGUubWFlPic=

> <r_lp_tautomer_probability>
1

> <r_epik_Ionization_Penalty>
0.00204117

> <r_epik_Ionization_Penalty_Charging>
0

> <r_epik_Ionization_Penalty_Neutral>
0.00204117

> <r_epik_State_Penalty>
0.00127401

> <r_epik_Charging_Adjusted_Penalty>
0.00127401

> <i_epik_Tot_Q>
0

> <i_epik_Tot_abs_Q>
0

> <r_epik_Metal_State_Penalty>
-0

> <b_epik_Metal_Only>
0

> <s_lp_Force_Field>
OPLS_2005

> <r_lp_Energy>
57.0409

> <b_lp_Chiralities_Consistent>
1

> <s_lp_Variant>
AV-unprocessed.smi:276-8

> <Gold.Version>
5.8.1

> <Gold.Id.Protein>
6NUR|6NUR_protein|mol2

> <Gold.PLP.Fitness>
45.8439

> <Gold.PLP.PLP>
-42.2964

> <Gold.PLP.part.hbond>
-1.0000

> <Gold.PLP.part.metal>
0.0000

> <Gold.PLP.part.buried>
-5.7361

> <Gold.PLP.part.nonpolar>
-37.5083

> <Gold.PLP.part.repulsive>
1.8075

> <Gold.PLP.ligand.clash>
0.0000

> <Gold.PLP.ligand.torsion>
0.8577

> <Gold.PLP.Chemscore.Hbond>
1.0000

> <Gold.PLP.Chemscore.CHOScore>
0.5229

> <Gold.PLP.Chemscore.Metal>
0.0000

> <Gold.Chemscore.Hbonds>
donor molecule, donor type, donor heavy atom, donor atom, acceptor molecule, acceptor atom, score
      L1  H    19    44       P1  7948  0.94

> <Gold.PLP.Chemscore.Internal.Correction>
0.6941

> <Gold.Rescore>
     Score         DG    S(hbond)    S(metal)    S(lipo)     H(rot)  DE(clash)    DE(int)     intcor
     12.19     -13.14       0.99        0.00      96.69       2.72       0.33       0.62       ----

> <Gold.Chemscore.Fitness>
12.1927

> <Gold.Chemscore.DG>
-13.1379

> <Gold.Chemscore.ZeroCoef>
-5.4800

> <Gold.Chemscore.Hbond>
0.9882

> <Gold.Chemscore.Metal>
0.0000

> <Gold.Chemscore.Lipo>
96.6936

> <Gold.Chemscore.Internal_Hbond>
0.0000

> <Gold.Chemscore.DEClash>
0.3272

> <Gold.Chemscore.DEInternal>
0.6179

> <Gold.Chemscore.Rot>
2.7172

> <Gold.Chemscore.Internal.Correction>
   9.000000E+99

> <Gold.Chemscore.Hbonds>
donor molecule, donor type, donor heavy atom, donor atom, acceptor molecule, acceptor atom, score
      L1  H    19    44       P1  7948  0.86

> <Gold.Chemscore.Hbond.Weighted>
-3.3007

> <Gold.Chemscore.Metal.Weighted>
-0.0000

> <Gold.Chemscore.Lipo.Weighted>
-11.3132

> <Gold.Chemscore.Internal_Hbond.Weighted>
0.0000

> <Gold.Chemscore.DEClash.Weighted>
0.3272

> <Gold.Chemscore.DEInternal.Weighted>
0.6179

> <Gold.Chemscore.Rot.Weighted>
6.9560

> <Gold.Chemscore.Internal.Correction.Weighted>
   9.000000E+99

> <Gold.Protein.RotatedTorsions>
[ 6907 6896 6895 6894 ] final  -90.14 input  -60.11 | X-H torsion
[ 7974 7965 7964 7962 ] final   64.29 input  175.53 | X-H torsion
[ 8008 7997 7996 7995 ] final   64.04 input   59.86 | X-H torsion
[ 10167 10162 10161 10158 ] final  -42.18 input  -65.29 | X-H torsion
[ 10718 10713 10712 10709 ] final  -58.16 input   66.30 | X-H torsion
[ 10763 10752 10751 10750 ] final -103.66 input  -60.55 | X-H torsion
[ 11005 11000 10999 10996 ] final  -70.55 input  -57.11 | X-H torsion

> <Gold.Protein.ActiveResidues>
 VAL166  LYS551  ARG553  GLY616  TRP617  ASP618  TYR619  PRO620  LYS621  CYS622 
 ASP623  PHE694  ASN695  SER759  ASP760  ASP761  ALA762  ILE779  LEU786  VAL792 
 PHE793  MET794  SER795  GLU796  ALA797  LYS798  CYS799  TRP800  GLU811  SER814 

> <Gold.Protein.RotatedAtoms>
  150.6879  134.2479  159.4498 H   0  0  0  0  0  0  0  0  0  0  0  0  # atno 6907 bound_to 6896
  152.0418  134.9704  160.0583 H   0  0  0  0  0  0  0  0  0  0  0  0  # atno 6908 bound_to 6896
  152.1203  133.4315  159.4709 H   0  0  0  0  0  0  0  0  0  0  0  0  # atno 6909 bound_to 6896
  145.8519  139.3259  143.0870 H   0  0  0  0  0  0  0  0  0  0  0  0  # atno 7974 bound_to 7965
  155.6397  140.3496  155.4710 H   0  0  0  0  0  0  0  0  0  0  0  0  # atno 8008 bound_to 7997
  155.9936  140.1199  157.0638 H   0  0  0  0  0  0  0  0  0  0  0  0  # atno 8009 bound_to 7997
  154.4226  140.1114  156.5586 H   0  0  0  0  0  0  0  0  0  0  0  0  # atno 8010 bound_to 7997
  140.6978  143.3052  151.3172 H   0  0  0  0  0  0  0  0  0  0  0  0  # atno 10167 bound_to 10162
  156.1156  130.4171  150.0539 H   0  0  0  0  0  0  0  0  0  0  0  0  # atno 10718 bound_to 10713
  154.7823  135.4815  153.9872 H   0  0  0  0  0  0  0  0  0  0  0  0  # atno 10763 bound_to 10752
  153.1512  135.6791  153.8887 H   0  0  0  0  0  0  0  0  0  0  0  0  # atno 10764 bound_to 10752
  153.8531  135.3164  155.3412 H   0  0  0  0  0  0  0  0  0  0  0  0  # atno 10765 bound_to 10752
  141.1576  133.6793  156.6770 H   0  0  0  0  0  0  0  0  0  0  0  0  # atno 11005 bound_to 11000
  145.9348  140.9023  143.0338 LP  0  0  0  0  0  0  0  0  0  0  0  0  # atno 17320 bound_to 7965
  144.6729  140.1467  143.7433 LP  0  0  0  0  0  0  0  0  0  0  0  0  # atno 17321 bound_to 7965
  139.6455  144.0459  152.2587 LP  0  0  0  0  0  0  0  0  0  0  0  0  # atno 17342 bound_to 10162
  139.9978  144.6315  150.7756 LP  0  0  0  0  0  0  0  0  0  0  0  0  # atno 17343 bound_to 10162
  156.8491  130.9452  151.3627 LP  0  0  0  0  0  0  0  0  0  0  0  0  # atno 17370 bound_to 10713
  157.6339  130.8751  149.9324 LP  0  0  0  0  0  0  0  0  0  0  0  0  # atno 17371 bound_to 10713
  140.3131  134.8070  157.4192 LP  0  0  0  0  0  0  0  0  0  0  0  0  # atno 17394 bound_to 11000
  140.1161  134.5281  155.8223 LP  0  0  0  0  0  0  0  0  0  0  0  0  # atno 17395 bound_to 11000

$$$$
