AV-unprocessed.smi:232|AV-procd|sdf|1777|dock8
  -GOLD-   2262020323D 1   1.00000     0.00000
 Structure written by MMmdl.
 52 55  0  0  0  0  0  0  0  0  1 V2000
  151.4435  144.8721  158.6258 C   0  0  0  0  0  0  0  0  0  0  0  0
  152.3384  143.6918  158.2288 C   0  0  0  0  0  0  0  0  0  0  0  0
  152.1641  142.4650  159.1480 C   0  0  2  0  0  0  0  0  0  0  0  0
  152.8374  142.6124  160.5206 C   0  0  0  0  0  0  0  0  0  0  0  0
  153.2813  141.1933  160.8963 C   0  0  0  0  0  0  0  0  0  0  0  0
  152.8373  140.3239  159.7146 C   0  0  2  0  0  0  0  0  0  0  0  0
  153.7719  139.1339  159.4416 C   0  0  0  0  0  0  0  0  0  0  0  0
  152.7433  141.2479  158.5912 N   0  0  0  0  0  0  0  0  0  0  0  0
  152.1307  140.7578  157.4885 C   0  0  0  0  0  0  0  0  0  0  0  0
  152.7873  139.9125  156.6500 N   0  0  0  0  0  0  0  0  0  0  0  0
  152.1706  139.4414  155.5615 C   0  0  0  0  0  0  0  0  0  0  0  0
  150.9285  139.6825  155.1346 N   0  0  0  0  0  0  0  0  0  0  0  0
  150.2704  140.5289  155.9784 C   0  0  0  0  0  0  0  0  0  0  0  0
  150.7939  141.1072  157.1676 C   0  0  0  0  0  0  0  0  0  0  0  0
  149.8379  141.9157  157.7688 N   0  0  0  0  0  0  0  0  0  0  0  0
  148.8027  141.8191  156.9791 C   0  0  0  0  0  0  0  0  0  0  0  0
  148.9758  141.0070  155.8811 N   0  0  0  0  0  0  0  0  0  0  0  0
  147.9925  140.7218  154.8516 C   0  0  0  0  0  0  0  0  0  0  0  0
  147.4137  142.0025  154.2183 C   0  0  2  0  0  0  0  0  0  0  0  0
  148.4546  142.9418  154.0272 O   0  0  0  0  0  0  0  0  0  0  0  0
  146.3186  142.6407  155.0929 C   0  0  1  0  0  0  0  0  0  0  0  0
  145.4660  143.6893  154.3748 C   0  0  0  0  0  0  0  0  0  0  0  0
  144.1933  143.6614  155.1891 C   0  0  0  0  0  0  0  0  0  0  0  0
  144.0558  142.1744  155.4978 C   0  0  0  0  0  0  0  0  0  0  0  0
  145.3816  141.6517  155.5159 O   0  0  0  0  0  0  0  0  0  0  0  0
  151.5660  145.7014  157.9289 H   0  0  0  0  0  0  0  0  0  0  0  0
  151.6863  145.2402  159.6229 H   0  0  0  0  0  0  0  0  0  0  0  0
  150.3914  144.5863  158.6204 H   0  0  0  0  0  0  0  0  0  0  0  0
  152.1031  143.4178  157.1999 H   0  0  0  0  0  0  0  0  0  0  0  0
  153.3821  144.0086  158.2263 H   0  0  0  0  0  0  0  0  0  0  0  0
  151.0979  142.2946  159.3087 H   0  0  0  0  0  0  0  0  0  0  0  0
  153.7121  143.2614  160.4591 H   0  0  0  0  0  0  0  0  0  0  0  0
  152.1574  143.0421  161.2567 H   0  0  0  0  0  0  0  0  0  0  0  0
  154.3656  141.1690  161.0145 H   0  0  0  0  0  0  0  0  0  0  0  0
  152.8374  140.8532  161.8323 H   0  0  0  0  0  0  0  0  0  0  0  0
  151.8394  139.9407  159.9353 H   0  0  0  0  0  0  0  0  0  0  0  0
  153.8581  138.4978  160.3224 H   0  0  0  0  0  0  0  0  0  0  0  0
  154.7737  139.4709  159.1732 H   0  0  0  0  0  0  0  0  0  0  0  0
  153.3993  138.5142  158.6256 H   0  0  0  0  0  0  0  0  0  0  0  0
  152.7561  138.7763  154.9443 H   0  0  0  0  0  0  0  0  0  0  0  0
  147.8768  142.3395  157.1777 H   0  0  0  0  0  0  0  0  0  0  0  0
  148.4725  140.1063  154.0899 H   0  0  0  0  0  0  0  0  0  0  0  0
  147.1971  140.1138  155.2846 H   0  0  0  0  0  0  0  0  0  0  0  0
  146.9961  141.7620  153.2396 H   0  0  0  0  0  0  0  0  0  0  0  0
  148.4248  143.5703  154.7324 H   0  0  0  0  0  0  0  0  0  0  0  0
  146.7570  143.0866  155.9875 H   0  0  0  0  0  0  0  0  0  0  0  0
  145.9337  144.6739  154.3490 H   0  0  0  0  0  0  0  0  0  0  0  0
  145.2581  143.3823  153.3486 H   0  0  0  0  0  0  0  0  0  0  0  0
  144.3268  144.2272  156.1122 H   0  0  0  0  0  0  0  0  0  0  0  0
  143.3329  144.0688  154.6577 H   0  0  0  0  0  0  0  0  0  0  0  0
  143.5441  141.9930  156.4432 H   0  0  0  0  0  0  0  0  0  0  0  0
  143.4972  141.6708  154.7081 H   0  0  0  0  0  0  0  0  0  0  0  0
  1  2  1  0  0  0  0
  1 26  1  0  0  0  0
  1 27  1  0  0  0  0
  1 28  1  0  0  0  0
  2  3  1  0  0  0  0
  2 29  1  0  0  0  0
  2 30  1  0  0  0  0
  3  8  1  0  0  0  0
  3  4  1  0  0  0  0
  3 31  1  0  0  0  0
  4  5  1  0  0  0  0
  4 32  1  0  0  0  0
  4 33  1  0  0  0  0
  5  6  1  0  0  0  0
  5 34  1  0  0  0  0
  5 35  1  0  0  0  0
  6  7  1  0  0  0  0
  6  8  1  0  0  0  0
  6 36  1  0  0  0  0
  7 37  1  0  0  0  0
  7 38  1  0  0  0  0
  7 39  1  0  0  0  0
  8  9  1  0  0  0  0
  9 14  1  0  0  0  0
  9 10  2  0  0  0  0
 10 11  1  0  0  0  0
 11 12  2  0  0  0  0
 11 40  1  0  0  0  0
 12 13  1  0  0  0  0
 13 17  1  0  0  0  0
 13 14  2  0  0  0  0
 14 15  1  0  0  0  0
 15 16  2  0  0  0  0
 16 17  1  0  0  0  0
 16 41  1  0  0  0  0
 17 18  1  0  0  0  0
 18 19  1  0  0  0  0
 18 42  1  0  0  0  0
 18 43  1  0  0  0  0
 19 20  1  0  0  0  0
 19 21  1  0  0  0  0
 19 44  1  0  0  0  0
 20 45  1  0  0  0  0
 21 25  1  0  0  0  0
 21 22  1  0  0  0  0
 21 46  1  0  0  0  0
 22 23  1  0  0  0  0
 22 47  1  0  0  0  0
 22 48  1  0  0  0  0
 23 24  1  0  0  0  0
 23 49  1  0  0  0  0
 23 50  1  0  0  0  0
 24 25  1  0  0  0  0
 24 51  1  0  0  0  0
 24 52  1  0  0  0  0
M  END
> <s_m_source_file>
AV-unprocessed.smi

> <i_m_source_file_index>
232

> <i_lp_mmshare_version>
43012

> <i_f3d_flags>
0

> <s_epik_input>
W0NIM11bQ0gyXVtDQEBIXTFbQ0gyXVtDSDJdW0NAQEhdKFtDSDNdKU4xYyhuW2NIXW4yKWMoYzIzKW5bY0hdbjNbQ0gyXVtDQEhdKFtPSF0pW0NAQEhdNFtDSDJdW0NIMl1bQ0gyXU80

> <s_epik_cmdline>
J2VwaWtfcHl0aG9uJywgJy1waCcsICc3LjAnLCAnLXRuJywgJzgnLCAnLW1hJywgJzIwMCcsICctbWV0YWxfYmluZGluZycsICctaW1hZScsICc8aW5maWxlLm1hZT4nLCAnLW9tYWUnLCAnPG91dGZpbGUubWFlPic=

> <r_lp_tautomer_probability>
1

> <r_epik_Ionization_Penalty>
0.00258048

> <r_epik_Ionization_Penalty_Charging>
0

> <r_epik_Ionization_Penalty_Neutral>
0.00258048

> <r_epik_State_Penalty>
0.00168551

> <r_epik_Charging_Adjusted_Penalty>
0.00168551

> <i_epik_Tot_Q>
0

> <i_epik_Tot_abs_Q>
0

> <r_epik_Metal_State_Penalty>
-0

> <b_epik_Metal_Only>
0

> <s_lp_Force_Field>
OPLS_2005

> <r_lp_Energy>
51.1515

> <b_lp_Chiralities_Consistent>
1

> <s_lp_Variant>
AV-unprocessed.smi:232-11

> <Gold.Version>
5.8.1

> <Gold.Id.Protein>
6NUR|6NUR_protein|mol2

> <Gold.PLP.Fitness>
51.9960

> <Gold.PLP.PLP>
-46.7558

> <Gold.PLP.part.hbond>
-4.3010

> <Gold.PLP.part.metal>
0.0000

> <Gold.PLP.part.buried>
-3.1936

> <Gold.PLP.part.nonpolar>
-38.3997

> <Gold.PLP.part.repulsive>
0.2358

> <Gold.PLP.ligand.clash>
0.0000

> <Gold.PLP.ligand.torsion>
1.0239

> <Gold.PLP.Chemscore.Hbond>
2.4022

> <Gold.PLP.Chemscore.CHOScore>
0.0000

> <Gold.PLP.Chemscore.Metal>
0.0000

> <Gold.Chemscore.Hbonds>
donor molecule, donor type, donor heavy atom, donor atom, acceptor molecule, acceptor atom, score
      L1  H    20    45       P1  8028  0.94
      P1  H  7989  7998       L1    12  0.44
      P1  H  7997  8010       L1    10  1.00

> <Gold.PLP.Chemscore.Internal.Correction>
0.0815

> <Gold.Rescore>
     Score         DG    S(hbond)    S(metal)    S(lipo)     H(rot)  DE(clash)    DE(int)     intcor
     14.89     -17.62       1.92        0.00     102.14       2.43       0.29       2.44       ----

> <Gold.Chemscore.Fitness>
14.8948

> <Gold.Chemscore.DG>
-17.6181

> <Gold.Chemscore.ZeroCoef>
-5.4800

> <Gold.Chemscore.Hbond>
1.9157

> <Gold.Chemscore.Metal>
0.0000

> <Gold.Chemscore.Lipo>
102.1392

> <Gold.Chemscore.Internal_Hbond>
0.0000

> <Gold.Chemscore.DEClash>
0.2862

> <Gold.Chemscore.DEInternal>
2.4372

> <Gold.Chemscore.Rot>
2.4260

> <Gold.Chemscore.Internal.Correction>
   9.000000E+99

> <Gold.Chemscore.Hbonds>
donor molecule, donor type, donor heavy atom, donor atom, acceptor molecule, acceptor atom, score
      L1  H    20    45       P1  8028  0.89
      P1  H  7989  7998       L1    12  0.02
      P1  H  7997  8010       L1    10  0.57
      P1  H  8011  8017       L1    20  0.01

> <Gold.Chemscore.Hbond.Weighted>
-6.3985

> <Gold.Chemscore.Metal.Weighted>
-0.0000

> <Gold.Chemscore.Lipo.Weighted>
-11.9503

> <Gold.Chemscore.Internal_Hbond.Weighted>
0.0000

> <Gold.Chemscore.DEClash.Weighted>
0.2862

> <Gold.Chemscore.DEInternal.Weighted>
2.4372

> <Gold.Chemscore.Rot.Weighted>
6.2107

> <Gold.Chemscore.Internal.Correction.Weighted>
   9.000000E+99

> <Gold.Protein.RotatedTorsions>
[ 6907 6896 6895 6894 ] final  -75.55 input  -60.11 | X-H torsion
[ 7974 7965 7964 7962 ] final   66.37 input  175.53 | X-H torsion
[ 8008 7997 7996 7995 ] final   83.23 input   59.86 | X-H torsion
[ 10167 10162 10161 10158 ] final -145.78 input  -65.29 | X-H torsion
[ 10718 10713 10712 10709 ] final   44.85 input   66.30 | X-H torsion
[ 10763 10752 10751 10750 ] final   99.98 input  -60.55 | X-H torsion
[ 11005 11000 10999 10996 ] final  -31.66 input  -57.11 | X-H torsion

> <Gold.Protein.ActiveResidues>
 VAL166  LYS551  ARG553  GLY616  TRP617  ASP618  TYR619  PRO620  LYS621  CYS622 
 ASP623  PHE694  ASN695  SER759  ASP760  ASP761  ALA762  ILE779  LEU786  VAL792 
 PHE793  MET794  SER795  GLU796  ALA797  LYS798  CYS799  TRP800  GLU811  SER814 

> <Gold.Protein.RotatedAtoms>
  150.7055  134.4704  159.5422 H   0  0  0  0  0  0  0  0  0  0  0  0  # atno 6907 bound_to 6896
  152.2361  134.8272  160.0476 H   0  0  0  0  0  0  0  0  0  0  0  0  # atno 6908 bound_to 6896
  151.9070  133.3517  159.3887 H   0  0  0  0  0  0  0  0  0  0  0  0  # atno 6909 bound_to 6896
  145.8275  139.3119  143.1007 H   0  0  0  0  0  0  0  0  0  0  0  0  # atno 7974 bound_to 7965
  155.9212  140.3421  155.6174 H   0  0  0  0  0  0  0  0  0  0  0  0  # atno 8008 bound_to 7997
  155.7271  140.0791  157.2324 H   0  0  0  0  0  0  0  0  0  0  0  0  # atno 8009 bound_to 7997
  154.4070  140.1595  156.2454 H   0  0  0  0  0  0  0  0  0  0  0  0  # atno 8010 bound_to 7997
  139.7774  143.8151  152.2634 H   0  0  0  0  0  0  0  0  0  0  0  0  # atno 10167 bound_to 10162
  157.4313  130.8026  149.7606 H   0  0  0  0  0  0  0  0  0  0  0  0  # atno 10718 bound_to 10713
  153.3082  135.4094  155.1313 H   0  0  0  0  0  0  0  0  0  0  0  0  # atno 10763 bound_to 10752
  154.8569  135.3558  154.5759 H   0  0  0  0  0  0  0  0  0  0  0  0  # atno 10764 bound_to 10752
  153.6186  135.7065  153.5377 H   0  0  0  0  0  0  0  0  0  0  0  0  # atno 10765 bound_to 10752
  140.9486  133.7234  156.1186 H   0  0  0  0  0  0  0  0  0  0  0  0  # atno 11005 bound_to 11000
  145.9608  140.8837  143.0212 LP  0  0  0  0  0  0  0  0  0  0  0  0  # atno 17320 bound_to 7965
  144.6742  140.1809  143.7406 LP  0  0  0  0  0  0  0  0  0  0  0  0  # atno 17321 bound_to 7965
  139.8203  144.7298  150.9581 LP  0  0  0  0  0  0  0  0  0  0  0  0  # atno 17342 bound_to 10162
  140.7817  143.4165  151.0908 LP  0  0  0  0  0  0  0  0  0  0  0  0  # atno 17343 bound_to 10162
  155.9914  130.3938  150.2986 LP  0  0  0  0  0  0  0  0  0  0  0  0  # atno 17370 bound_to 10713
  157.1143  131.0229  151.3035 LP  0  0  0  0  0  0  0  0  0  0  0  0  # atno 17371 bound_to 10713
  140.7634  134.3914  157.5521 LP  0  0  0  0  0  0  0  0  0  0  0  0  # atno 17394 bound_to 11000
  139.8841  134.8976  156.2726 LP  0  0  0  0  0  0  0  0  0  0  0  0  # atno 17395 bound_to 11000

$$$$
