#       Name:                AV-unprocessed.smi:1978
#       Creating user name   scv26
#       Creation time:       Fri Mar 27 10:17:56 2020


#       File generated by GOLD software.
#

@<TRIPOS>MOLECULE
AV-unprocessed.smi:1978
    50    51     1
SMALL
NO_CHARGES


@<TRIPOS>ATOM
      1 ****        -4.6743   6.6085   1.7830 C.3            1 S1                 0.0000
      2 ****        -4.0117   5.2909   1.5677 C.2            1 S1                 0.0000
      3 ****        -3.4882   4.6834   0.4611 C.2            1 S1                 0.0000
      4 ****        -3.0186   3.4431   0.9692 C.2            1 S1                 0.0000
      5 ****        -2.3893   2.4983   0.1187 N.am           1 S1                 0.0000
      6 ****        -1.9102   1.2884   0.4544 C.2            1 S1                 0.0000
      7 ****        -1.9554   0.7953   1.5818 O.2            1 S1                 0.0000
      8 ****        -1.3613   0.6687  -0.6015 N.am           1 S1                 0.0000
      9 ****        -0.7720  -0.6684  -0.5844 C.3            1 S1                 0.0000
     10 ****         0.7720  -0.6405  -0.4593 C.3            1 S1                 0.0000
     11 ****         1.2772   0.0777   0.8117 C.3            1 S1                 0.0000
     12 ****         1.3522  -2.0156  -0.6101 N.4            1 S1                 1.0000
     13 ****         1.0707  -2.9161   0.5477 C.3            1 S1                 0.0000
     14 ****         1.4318  -4.3732   0.2275 C.3            1 S1                 0.0000
     15 ****         2.9065  -4.4845  -0.1639 C.3            1 S1                 0.0000
     16 ****         3.2030  -3.5341  -1.3282 C.3            1 S1                 0.0000
     17 ****         2.7999  -2.0776  -1.0062 C.3            1 S1                 0.0000
     18 ****         3.1555  -1.1867  -2.2144 C.3            1 S1                 0.0000
     19 ****        -3.2358   3.3056   2.2681 N.2            1 S1                 0.0000
     20 ****        -3.8742   4.4887   2.6581 O.3            1 S1                 0.0000
     21 ****        -4.3062   7.3485   1.0722 H              1 S1                 0.0000
     22 ****        -4.4814   6.9825   2.7888 H              1 S1                 0.0000
     23 ****        -5.7534   6.5231   1.6550 H              1 S1                 0.0000
     24 ****        -3.4491   5.0676  -0.5473 H              1 S1                 0.0000
     25 ****        -2.2917   2.7759  -0.8467 H              1 S1                 0.0000
     26 ****        -1.3675   1.1511  -1.4886 H              1 S1                 0.0000
     27 ****        -1.2326  -1.2553   0.2096 H              1 S1                 0.0000
     28 ****        -1.0509  -1.1580  -1.5180 H              1 S1                 0.0000
     29 ****         1.0874  -0.0388  -1.3079 H              1 S1                 0.0000
     30 ****         0.9893   1.1287   0.8120 H              1 S1                 0.0000
     31 ****         2.3641   0.0547   0.8847 H              1 S1                 0.0000
     32 ****         0.8696  -0.3691   1.7188 H              1 S1                 0.0000
     33 ****         1.6365  -2.5870   1.4203 H              1 S1                 0.0000
     34 ****         0.0203  -2.8839   0.8289 H              1 S1                 0.0000
     35 ****         1.2277  -5.0069   1.0911 H              1 S1                 0.0000
     36 ****         0.8019  -4.7410  -0.5839 H              1 S1                 0.0000
     37 ****         3.5375  -4.2340   0.6898 H              1 S1                 0.0000
     38 ****         3.1480  -5.5108  -0.4422 H              1 S1                 0.0000
     39 ****         4.2659  -3.5849  -1.5683 H              1 S1                 0.0000
     40 ****         2.6713  -3.8751  -2.2180 H              1 S1                 0.0000
     41 ****         3.4009  -1.7446  -0.1589 H              1 S1                 0.0000
     42 ****         4.1675  -1.3922  -2.5644 H              1 S1                 0.0000
     43 ****         3.1352  -0.1260  -1.9653 H              1 S1                 0.0000
     44 ****         2.4787  -1.3586  -3.0518 H              1 S1                 0.0000
     45 ****         0.8546  -2.4162  -1.3924 H              1 S1                 0.0000
     46 ****        -2.3739   1.3045   2.3339 LP             1 S1                 0.0000
     47 ****        -1.5736  -0.1144   1.7454 LP             1 S1                 0.0000
     48 ****        -2.9957   2.5253   2.8456 LP             1 S1                 0.0000
     49 ****        -4.7757   4.2760   3.0351 LP             1 S1                 0.0000
     50 ****        -3.3246   4.9547   3.3514 LP             1 S1                 0.0000
@<TRIPOS>BOND
    1    1    2 1     
    2    1   21 1     
    3    1   22 1     
    4    1   23 1     
    5    2   20 1     
    6    2    3 2     
    7    3    4 1     
    8    3   24 1     
    9    4    5 1     
   10    4   19 2     
   11    5    6 am    
   12    5   25 1     
   13    6    7 2     
   14    6    8 am    
   15    8    9 1     
   16    8   26 1     
   17    9   10 1     
   18    9   27 1     
   19    9   28 1     
   20   10   11 1     
   21   10   12 1     
   22   10   29 1     
   23   11   30 1     
   24   11   31 1     
   25   11   32 1     
   26   12   17 1     
   27   12   13 1     
   28   12   45 1     
   29   13   14 1     
   30   13   33 1     
   31   13   34 1     
   32   14   15 1     
   33   14   35 1     
   34   14   36 1     
   35   15   16 1     
   36   15   37 1     
   37   15   38 1     
   38   16   17 1     
   39   16   39 1     
   40   16   40 1     
   41   17   18 1     
   42   17   41 1     
   43   18   42 1     
   44   18   43 1     
   45   18   44 1     
   46   19   20 1     
   47    7   46 1     
   48    7   47 1     
   49   19   48 1     
   50   20   49 1     
   51   20   50 1     
@<TRIPOS>SUBSTRUCTURE
      1 S1             1
@<TRIPOS>SET
LONE_PAIRS      STATIC     ATOMS    <user>   **** ""
5 46 47 48 49 50
DONOR_HYDROGENS      STATIC     ATOMS    <user>   **** ""
3 25 26 45
ATOM$BLUE        STATIC     ATOMS    COLORGROUP SYSTEM
5 46 47 48 49 50
ATOM$RED        STATIC     ATOMS    COLORGROUP SYSTEM
3 25 26 45
