AV-unprocessed.smi:1176|AV-procd|sdf|4952|dock1
  -GOLD-   22720 3543D 1   1.00000     0.00000
 Structure written by MMmdl.
 50 51  0  0  0  0  0  0  0  0  2 V2000
  146.2794  134.3453  152.6063 C   0  0  0  0  0  0  0  0  0  0  0  0
  147.4484  133.3736  152.8268 C   0  0  0  0  0  0  0  0  0  0  0  0
  146.9691  131.9186  152.6920 C   0  0  0  0  0  0  0  0  0  0  0  0
  148.1189  133.6347  154.1933 C   0  0  0  0  0  0  0  0  0  0  0  0
  148.6883  135.0022  154.3141 N   0  3  2  0  0  0  0  0  0  0  0  0
  150.0182  134.9984  154.9773 C   0  0  0  0  0  0  0  0  0  0  0  0
  150.6504  136.4002  154.9728 C   0  0  0  0  0  0  0  0  0  0  0  0
  149.7194  137.4301  155.6374 C   0  0  1  0  0  0  0  0  0  0  0  0
  150.2802  138.7753  155.5563 N   0  0  0  0  0  0  0  0  0  0  0  0
  150.5836  139.5488  156.6098 C   0  0  0  0  0  0  0  0  0  0  0  0
  150.4445  139.1813  157.7772 O   0  0  0  0  0  0  0  0  0  0  0  0
  151.1485  140.9387  156.2858 C   0  0  0  0  0  0  0  0  0  0  0  0
  151.3580  141.7657  157.4812 N   0  0  0  0  0  0  0  0  0  0  0  0
  150.7413  142.9999  157.5775 C   0  0  0  0  0  0  0  0  0  0  0  0
  150.8983  143.8309  158.6309 C   0  0  0  0  0  0  0  0  0  0  0  0
  151.7468  143.4599  159.7569 C   0  0  0  0  0  0  0  0  0  0  0  0
  151.9370  144.1959  160.7259 O   0  0  0  0  0  0  0  0  0  0  0  0
  152.3507  142.1850  159.6421 N   0  0  0  0  0  0  0  0  0  0  0  0
  153.2285  141.7466  160.7074 C   0  0  0  0  0  0  0  0  0  0  0  0
  152.1977  141.3284  158.5284 C   0  0  0  0  0  0  0  0  0  0  0  0
  152.7762  140.2414  158.4546 O   0  0  0  0  0  0  0  0  0  0  0  0
  148.3460  137.3927  154.9498 C   0  0  0  0  0  0  0  0  0  0  0  0
  147.7607  135.9706  154.9585 C   0  0  0  0  0  0  0  0  0  0  0  0
  145.5042  134.2130  153.3620 H   0  0  0  0  0  0  0  0  0  0  0  0
  145.8201  134.1936  151.6290 H   0  0  0  0  0  0  0  0  0  0  0  0
  146.6144  135.3819  152.6518 H   0  0  0  0  0  0  0  0  0  0  0  0
  148.1668  133.5643  152.0301 H   0  0  0  0  0  0  0  0  0  0  0  0
  146.2411  131.6672  153.4641 H   0  0  0  0  0  0  0  0  0  0  0  0
  147.7977  131.2147  152.7729 H   0  0  0  0  0  0  0  0  0  0  0  0
  146.4956  131.7505  151.7241 H   0  0  0  0  0  0  0  0  0  0  0  0
  147.4122  133.4691  155.0082 H   0  0  0  0  0  0  0  0  0  0  0  0
  148.9109  132.8963  154.3278 H   0  0  0  0  0  0  0  0  0  0  0  0
  149.9147  134.6348  156.0010 H   0  0  0  0  0  0  0  0  0  0  0  0
  150.6856  134.3073  154.4610 H   0  0  0  0  0  0  0  0  0  0  0  0
  151.6104  136.3681  155.4896 H   0  0  0  0  0  0  0  0  0  0  0  0
  150.8630  136.6996  153.9453 H   0  0  0  0  0  0  0  0  0  0  0  0
  149.5838  137.1648  156.6880 H   0  0  0  0  0  0  0  0  0  0  0  0
  150.4313  139.1544  154.6325 H   0  0  0  0  0  0  0  0  0  0  0  0
  152.0916  140.8072  155.7537 H   0  0  0  0  0  0  0  0  0  0  0  0
  150.4861  141.4540  155.5876 H   0  0  0  0  0  0  0  0  0  0  0  0
  150.1060  143.3235  156.7659 H   0  0  0  0  0  0  0  0  0  0  0  0
  150.3927  144.7854  158.6392 H   0  0  0  0  0  0  0  0  0  0  0  0
  153.1315  140.6667  160.8296 H   0  0  0  0  0  0  0  0  0  0  0  0
  152.9385  142.2174  161.6474 H   0  0  0  0  0  0  0  0  0  0  0  0
  154.2420  142.0271  160.4177 H   0  0  0  0  0  0  0  0  0  0  0  0
  147.6583  138.0760  155.4498 H   0  0  0  0  0  0  0  0  0  0  0  0
  148.4348  137.7413  153.9195 H   0  0  0  0  0  0  0  0  0  0  0  0
  146.8031  135.9838  154.4400 H   0  0  0  0  0  0  0  0  0  0  0  0
  147.5589  135.6563  155.9839 H   0  0  0  0  0  0  0  0  0  0  0  0
  148.8477  135.3272  153.3711 H   0  0  0  0  0  0  0  0  0  0  0  0
  1  2  1  0  0  0  0
  1 24  1  0  0  0  0
  1 25  1  0  0  0  0
  1 26  1  0  0  0  0
  2  3  1  0  0  0  0
  2  4  1  0  0  0  0
  2 27  1  0  0  0  0
  3 28  1  0  0  0  0
  3 29  1  0  0  0  0
  3 30  1  0  0  0  0
  4  5  1  0  0  0  0
  4 31  1  0  0  0  0
  4 32  1  0  0  0  0
  5 23  1  0  0  0  0
  5  6  1  0  0  0  0
  5 50  1  0  0  0  0
  6  7  1  0  0  0  0
  6 33  1  0  0  0  0
  6 34  1  0  0  0  0
  7  8  1  0  0  0  0
  7 35  1  0  0  0  0
  7 36  1  0  0  0  0
  8  9  1  0  0  0  0
  8 22  1  0  0  0  0
  8 37  1  0  0  0  0
  9 10  1  0  0  0  0
  9 38  1  0  0  0  0
 10 11  2  0  0  0  0
 10 12  1  0  0  0  0
 12 13  1  0  0  0  0
 12 39  1  0  0  0  0
 12 40  1  0  0  0  0
 13 20  1  0  0  0  0
 13 14  1  0  0  0  0
 14 15  2  0  0  0  0
 14 41  1  0  0  0  0
 15 16  1  0  0  0  0
 15 42  1  0  0  0  0
 16 17  2  0  0  0  0
 16 18  1  0  0  0  0
 18 19  1  0  0  0  0
 18 20  1  0  0  0  0
 19 43  1  0  0  0  0
 19 44  1  0  0  0  0
 19 45  1  0  0  0  0
 20 21  2  0  0  0  0
 22 23  1  0  0  0  0
 22 46  1  0  0  0  0
 22 47  1  0  0  0  0
 23 48  1  0  0  0  0
 23 49  1  0  0  0  0
M  CHG  1   5   1
M  END
> <s_m_source_file>
AV-unprocessed.smi

> <i_m_source_file_index>
1176

> <i_lp_mmshare_version>
43012

> <i_f3d_flags>
0

> <s_epik_input>
W0NIM11bQ0hdKFtDSDNdKVtDSDJdTjFbQ0gyXVtDSDJdW0NIXShbQ0gyXVtDSDJdMSlbTkhdQyg9TylbQ0gyXW4yW2NIXVtjSF1jKD1PKW4oW0NIM10pYzI9Tw==

> <s_epik_cmdline>
J2VwaWtfcHl0aG9uJywgJy1waCcsICc3LjAnLCAnLXRuJywgJzgnLCAnLW1hJywgJzIwMCcsICctbWV0YWxfYmluZGluZycsICctaW1hZScsICc8aW5maWxlLm1hZT4nLCAnLW9tYWUnLCAnPG91dGZpbGUubWFlPic=

> <r_lp_tautomer_probability>
1

> <r_epik_Ionization_Penalty>
0.00401429

> <r_epik_Ionization_Penalty_Charging>
0.00401425

> <r_epik_Ionization_Penalty_Neutral>
4.29561e-08

> <r_epik_State_Penalty>
0.00287487

> <r_epik_Charging_Adjusted_Penalty>
0.00688912

> <i_epik_Tot_Q>
1

> <i_epik_Tot_abs_Q>
1

> <r_epik_Metal_State_Penalty>
-0

> <b_epik_Metal_Only>
0

> <s_lp_Force_Field>
OPLS_2005

> <r_lp_Energy>
26.9025

> <b_lp_Chiralities_Consistent>
1

> <s_lp_Variant>
AV-unprocessed.smi:1176-1

> <Gold.Version>
5.8.1

> <Gold.Id.Protein>
6NUR|6NUR_protein|mol2

> <Gold.PLP.Fitness>
48.6426

> <Gold.PLP.PLP>
-37.6131

> <Gold.PLP.part.hbond>
-2.0000

> <Gold.PLP.part.metal>
0.0000

> <Gold.PLP.part.buried>
-4.5035

> <Gold.PLP.part.nonpolar>
-31.2089

> <Gold.PLP.part.repulsive>
0.1249

> <Gold.PLP.ligand.clash>
0.0000

> <Gold.PLP.ligand.torsion>
0.5677

> <Gold.PLP.Chemscore.Hbond>
3.0000

> <Gold.PLP.Chemscore.CHOScore>
1.0000

> <Gold.PLP.Chemscore.Metal>
0.0000

> <Gold.Chemscore.Hbonds>
donor molecule, donor type, donor heavy atom, donor atom, acceptor molecule, acceptor atom, score
      L1  H     5    50       P1  7948  2.00
      P1  H  7997  8010       L1    21  0.26
      L1  C    14    41       P1  8028  1.00

> <Gold.PLP.Chemscore.Internal.Correction>
0.1649

> <Gold.Rescore>
     Score         DG    S(hbond)    S(metal)    S(lipo)     H(rot)  DE(clash)    DE(int)     intcor
     10.70     -15.00       1.75        0.00      73.43       1.92       0.15       4.15       ----

> <Gold.Chemscore.Fitness>
10.6988

> <Gold.Chemscore.DG>
-14.9999

> <Gold.Chemscore.ZeroCoef>
-5.4800

> <Gold.Chemscore.Hbond>
1.7495

> <Gold.Chemscore.Metal>
0.0000

> <Gold.Chemscore.Lipo>
73.4297

> <Gold.Chemscore.Internal_Hbond>
0.0000

> <Gold.Chemscore.DEClash>
0.1542

> <Gold.Chemscore.DEInternal>
4.1469

> <Gold.Chemscore.Rot>
1.9198

> <Gold.Chemscore.Internal.Correction>
   9.000000E+99

> <Gold.Chemscore.Hbonds>
donor molecule, donor type, donor heavy atom, donor atom, acceptor molecule, acceptor atom, score
      L1  H     5    50       P1  7948  0.70
      P1  H  7997  8010       L1    21  0.26

> <Gold.Chemscore.Hbond.Weighted>
-5.8433

> <Gold.Chemscore.Metal.Weighted>
-0.0000

> <Gold.Chemscore.Lipo.Weighted>
-8.5913

> <Gold.Chemscore.Internal_Hbond.Weighted>
0.0000

> <Gold.Chemscore.DEClash.Weighted>
0.1542

> <Gold.Chemscore.DEInternal.Weighted>
4.1469

> <Gold.Chemscore.Rot.Weighted>
4.9147

> <Gold.Chemscore.Internal.Correction.Weighted>
   9.000000E+99

> <Gold.Protein.RotatedTorsions>
[ 6907 6896 6895 6894 ] final -105.49 input  -60.11 | X-H torsion
[ 7974 7965 7964 7962 ] final    2.04 input  175.53 | X-H torsion
[ 8008 7997 7996 7995 ] final   31.23 input   59.86 | X-H torsion
[ 10167 10162 10161 10158 ] final   90.87 input  -65.29 | X-H torsion
[ 10718 10713 10712 10709 ] final -165.65 input   66.30 | X-H torsion
[ 10763 10752 10751 10750 ] final  -44.39 input  -60.55 | X-H torsion
[ 11005 11000 10999 10996 ] final  174.86 input  -57.11 | X-H torsion

> <Gold.Protein.ActiveResidues>
 VAL166  LYS551  ARG553  GLY616  TRP617  ASP618  TYR619  PRO620  LYS621  CYS622 
 ASP623  PHE694  ASN695  SER759  ASP760  ASP761  ALA762  ILE779  LEU786  VAL792 
 PHE793  MET794  SER795  GLU796  ALA797  LYS798  CYS799  TRP800  GLU811  SER814 

> <Gold.Protein.RotatedAtoms>
  150.7339  134.0119  159.3672 H   0  0  0  0  0  0  0  0  0  0  0  0  # atno 6907 bound_to 6896
  151.8079  135.0687  160.0418 H   0  0  0  0  0  0  0  0  0  0  0  0  # atno 6908 bound_to 6896
  152.3093  133.5700  159.5707 H   0  0  0  0  0  0  0  0  0  0  0  0  # atno 6909 bound_to 6896
  146.2442  140.0896  142.8353 H   0  0  0  0  0  0  0  0  0  0  0  0  # atno 7974 bound_to 7965
  155.1030  140.3231  155.4542 H   0  0  0  0  0  0  0  0  0  0  0  0  # atno 8008 bound_to 7997
  156.2712  140.2057  156.6103 H   0  0  0  0  0  0  0  0  0  0  0  0  # atno 8009 bound_to 7997
  154.6814  140.0526  157.0257 H   0  0  0  0  0  0  0  0  0  0  0  0  # atno 8010 bound_to 7997
  139.8430  144.6632  150.9260 H   0  0  0  0  0  0  0  0  0  0  0  0  # atno 10167 bound_to 10162
  156.6565  130.9028  151.3022 H   0  0  0  0  0  0  0  0  0  0  0  0  # atno 10718 bound_to 10713
  154.0112  135.6681  153.4765 H   0  0  0  0  0  0  0  0  0  0  0  0  # atno 10763 bound_to 10752
  153.0620  135.5022  154.8110 H   0  0  0  0  0  0  0  0  0  0  0  0  # atno 10764 bound_to 10752
  154.6994  135.3076  154.9327 H   0  0  0  0  0  0  0  0  0  0  0  0  # atno 10765 bound_to 10752
  140.3559  134.7154  157.4299 H   0  0  0  0  0  0  0  0  0  0  0  0  # atno 11005 bound_to 11000
  145.0662  140.9123  143.4909 LP  0  0  0  0  0  0  0  0  0  0  0  0  # atno 17320 bound_to 7965
  145.1021  139.2815  143.5681 LP  0  0  0  0  0  0  0  0  0  0  0  0  # atno 17321 bound_to 7965
  140.7796  143.3895  151.1334 LP  0  0  0  0  0  0  0  0  0  0  0  0  # atno 17342 bound_to 10162
  139.7540  143.8735  152.3084 LP  0  0  0  0  0  0  0  0  0  0  0  0  # atno 17343 bound_to 10162
  157.7124  130.9456  150.1135 LP  0  0  0  0  0  0  0  0  0  0  0  0  # atno 17370 bound_to 10713
  156.2044  130.3662  149.8748 LP  0  0  0  0  0  0  0  0  0  0  0  0  # atno 17371 bound_to 10713
  140.0665  134.5922  155.8689 LP  0  0  0  0  0  0  0  0  0  0  0  0  # atno 17394 bound_to 11000
  141.1998  133.6609  156.5865 LP  0  0  0  0  0  0  0  0  0  0  0  0  # atno 17395 bound_to 11000

$$$$
