#       Name:                AV-unprocessed.smi:1517
#       Creating user name   scv26
#       Creation time:       Fri Mar 27 06:25:45 2020


#       File generated by GOLD software.
#

@<TRIPOS>MOLECULE
AV-unprocessed.smi:1517
    46    48     1
SMALL
NO_CHARGES


@<TRIPOS>ATOM
      1 ****        -3.8806  -0.1626  -2.9289 O.3            1 S1                 0.0000
      2 ****        -2.8090  -0.8650  -2.3390 C.3            1 S1                 0.0000
      3 ****        -2.4611  -0.2400  -0.9808 C.3            1 S1                 0.0000
      4 ****        -1.4882   0.8307  -1.1006 N.pl3          1 S1                 0.0000
      5 ****        -0.1093   0.8172  -1.2755 C.2            1 S1                 0.0000
      6 ****         0.6355   1.9177  -1.3623 N.2            1 S1                 0.0000
      7 ****         1.9067   1.4005  -1.5251 C.ar           1 S1                 0.0000
      8 ****         3.1512   2.0533  -1.6743 C.ar           1 S1                 0.0000
      9 ****         4.3365   1.3045  -1.8275 C.ar           1 S1                 0.0000
     10 ****         4.2951  -0.1048  -1.8344 C.ar           1 S1                 0.0000
     11 ****         3.0660  -0.7759  -1.6869 C.ar           1 S1                 0.0000
     12 ****         1.8857  -0.0244  -1.5336 C.ar           1 S1                 0.0000
     13 ****         0.5473  -0.3648  -1.3627 N.pl3          1 S1                 0.0000
     14 ****         0.0072  -1.7165  -1.2877 C.3            1 S1                 0.0000
     15 ****         0.2607  -2.3674   0.0864 C.3            1 S1                 0.0000
     16 ****        -0.1276  -3.7241   0.0076 O.3            1 S1                 0.0000
     17 ****        -0.4394  -1.6269   1.2211 C.ar           1 S1                 0.0000
     18 ****        -1.8121  -1.8440   1.4766 C.ar           1 S1                 0.0000
     19 ****        -2.4592  -1.1585   2.5226 C.ar           1 S1                 0.0000
     20 ****        -1.7410  -0.2444   3.3160 C.ar           1 S1                 0.0000
     21 ****        -2.3638   0.4173   4.3197 F              1 S1                 0.0000
     22 ****        -0.3765  -0.0136   3.0601 C.ar           1 S1                 0.0000
     23 ****         0.2740  -0.7015   2.0174 C.ar           1 S1                 0.0000
     24 ****         1.5867  -0.4623   1.7825 F              1 S1                 0.0000
     25 ****        -3.6038   0.7275  -3.0840 H              1 S1                 0.0000
     26 ****        -3.1372  -1.8945  -2.1942 H              1 S1                 0.0000
     27 ****        -1.9505  -0.8944  -3.0115 H              1 S1                 0.0000
     28 ****        -3.3543   0.1184  -0.4679 H              1 S1                 0.0000
     29 ****        -2.0202  -1.0036  -0.3391 H              1 S1                 0.0000
     30 ****        -1.8938   1.7532  -1.0379 H              1 S1                 0.0000
     31 ****         3.1939   3.1324  -1.6701 H              1 S1                 0.0000
     32 ****         5.2822   1.8139  -1.9405 H              1 S1                 0.0000
     33 ****         5.2078  -0.6707  -1.9523 H              1 S1                 0.0000
     34 ****         3.0308  -1.8553  -1.6900 H              1 S1                 0.0000
     35 ****        -1.0572  -1.7089  -1.5247 H              1 S1                 0.0000
     36 ****         0.4862  -2.3051  -2.0714 H              1 S1                 0.0000
     37 ****         1.3335  -2.3769   0.2813 H              1 S1                 0.0000
     38 ****         0.1381  -4.1586   0.8039 H              1 S1                 0.0000
     39 ****        -2.3760  -2.5381   0.8706 H              1 S1                 0.0000
     40 ****        -3.5080  -1.3314   2.7140 H              1 S1                 0.0000
     41 ****         0.1734   0.6925   3.6647 H              1 S1                 0.0000
     42 ****        -4.6685  -0.1690  -2.3131 LP             1 S1                 0.0000
     43 ****        -4.1312  -0.5943  -3.7954 LP             1 S1                 0.0000
     44 ****         0.3482   2.8746  -1.3203 LP             1 S1                 0.0000
     45 ****         0.3160  -4.1570  -0.7771 LP             1 S1                 0.0000
     46 ****        -1.1204  -3.7855  -0.0951 LP             1 S1                 0.0000
@<TRIPOS>BOND
    1    1    2 1     
    2    1   25 1     
    3    2    3 1     
    4    2   26 1     
    5    2   27 1     
    6    3    4 1     
    7    3   28 1     
    8    3   29 1     
    9    4    5 1     
   10    4   30 1     
   11    5   13 1     
   12    5    6 2     
   13    6    7 1     
   14    7   12 ar    
   15    7    8 ar    
   16    8    9 ar    
   17    8   31 1     
   18    9   10 ar    
   19    9   32 1     
   20   10   11 ar    
   21   10   33 1     
   22   11   12 ar    
   23   11   34 1     
   24   12   13 1     
   25   13   14 1     
   26   14   15 1     
   27   14   35 1     
   28   14   36 1     
   29   15   16 1     
   30   15   17 1     
   31   15   37 1     
   32   16   38 1     
   33   17   23 ar    
   34   17   18 ar    
   35   18   19 ar    
   36   18   39 1     
   37   19   20 ar    
   38   19   40 1     
   39   20   21 1     
   40   20   22 ar    
   41   22   23 ar    
   42   22   41 1     
   43   23   24 1     
   44    1   42 1     
   45    1   43 1     
   46    6   44 1     
   47   16   45 1     
   48   16   46 1     
@<TRIPOS>SUBSTRUCTURE
      1 S1             1
@<TRIPOS>SET
LONE_PAIRS      STATIC     ATOMS    <user>   **** ""
5 42 43 44 45 46
DONOR_HYDROGENS      STATIC     ATOMS    <user>   **** ""
3 25 30 38
ATOM$BLUE        STATIC     ATOMS    COLORGROUP SYSTEM
5 42 43 44 45 46
ATOM$RED        STATIC     ATOMS    COLORGROUP SYSTEM
3 25 30 38
