AV-unprocessed.smi:22|AV-procd|sdf|171|dock5
  -GOLD-   2262015423D 1   1.00000     0.00000
 Structure written by MMmdl.
 56 59  0  0  0  0  0  0  0  0  2 V2000
  145.3535  130.1153  151.7191 C   0  0  0  0  0  0  0  0  0  0  0  0
  145.3400  131.5933  151.8830 N   0  3  2  0  0  0  0  0  0  0  0  0
  144.8085  132.2876  150.6710 C   0  0  0  0  0  0  0  0  0  0  0  0
  143.2912  132.1196  150.4621 C   0  0  0  0  0  0  0  0  0  0  0  0
  142.9836  132.1091  149.0838 O   0  0  0  0  0  0  0  0  0  0  0  0
  146.6575  132.0983  152.3934 C   0  0  0  0  0  0  0  0  0  0  0  0
  147.1743  131.1920  153.5365 C   0  0  0  0  0  0  0  0  0  0  0  0
  148.5376  131.6606  154.0680 C   0  0  0  0  0  0  0  0  0  0  0  0
  148.4795  133.0585  154.4910 N   0  0  0  0  0  0  0  0  0  0  0  0
  149.5037  133.5290  155.2475 C   0  0  0  0  0  0  0  0  0  0  0  0
  150.4179  132.6657  155.7659 N   0  0  0  0  0  0  0  0  0  0  0  0
  151.4375  133.1222  156.4990 C   0  0  0  0  0  0  0  0  0  0  0  0
  151.7262  134.3808  156.8340 N   0  0  0  0  0  0  0  0  0  0  0  0
  150.8071  135.2515  156.3270 C   0  0  0  0  0  0  0  0  0  0  0  0
  149.6777  134.9135  155.5288 C   0  0  0  0  0  0  0  0  0  0  0  0
  148.9684  136.0632  155.2020 N   0  0  0  0  0  0  0  0  0  0  0  0
  149.6445  137.0259  155.7673 C   0  0  0  0  0  0  0  0  0  0  0  0
  150.7591  136.6274  156.4707 N   0  0  0  0  0  0  0  0  0  0  0  0
  151.6869  137.4859  157.1923 C   0  0  0  0  0  0  0  0  0  0  0  0
  151.8218  138.9023  156.5852 C   0  0  2  0  0  0  0  0  0  0  0  0
  152.9573  139.5377  157.1480 O   0  0  0  0  0  0  0  0  0  0  0  0
  150.6039  139.7791  156.8490 C   0  0  0  0  0  0  0  0  0  0  0  0
  150.6088  140.7273  155.6576 C   0  0  0  0  0  0  0  0  0  0  0  0
  150.9875  139.8843  154.5827 O   0  0  0  0  0  0  0  0  0  0  0  0
  151.9504  138.9427  155.0480 C   0  0  0  0  0  0  0  0  0  0  0  0
  148.0143  133.9849  153.4626 C   0  0  0  0  0  0  0  0  0  0  0  0
  146.6419  133.5584  152.9163 C   0  0  0  0  0  0  0  0  0  0  0  0
  145.9094  129.8286  150.8254 H   0  0  0  0  0  0  0  0  0  0  0  0
  144.3442  129.7137  151.6409 H   0  0  0  0  0  0  0  0  0  0  0  0
  145.8115  129.6080  152.5663 H   0  0  0  0  0  0  0  0  0  0  0  0
  144.9876  133.3601  150.7355 H   0  0  0  0  0  0  0  0  0  0  0  0
  145.3433  131.9285  149.7905 H   0  0  0  0  0  0  0  0  0  0  0  0
  142.9677  131.1688  150.8864 H   0  0  0  0  0  0  0  0  0  0  0  0
  142.7110  132.8885  150.9706 H   0  0  0  0  0  0  0  0  0  0  0  0
  142.4826  132.8842  148.8786 H   0  0  0  0  0  0  0  0  0  0  0  0
  147.3692  132.0648  151.5664 H   0  0  0  0  0  0  0  0  0  0  0  0
  146.4516  131.1884  154.3539 H   0  0  0  0  0  0  0  0  0  0  0  0
  147.2721  130.1564  153.2148 H   0  0  0  0  0  0  0  0  0  0  0  0
  148.8342  131.0296  154.9075 H   0  0  0  0  0  0  0  0  0  0  0  0
  149.2977  131.5467  153.2937 H   0  0  0  0  0  0  0  0  0  0  0  0
  152.1205  132.3717  156.8688 H   0  0  0  0  0  0  0  0  0  0  0  0
  149.3437  138.0608  155.6914 H   0  0  0  0  0  0  0  0  0  0  0  0
  151.3538  137.5525  158.2287 H   0  0  0  0  0  0  0  0  0  0  0  0
  152.6593  136.9920  157.2168 H   0  0  0  0  0  0  0  0  0  0  0  0
  152.6621  140.1506  157.8038 H   0  0  0  0  0  0  0  0  0  0  0  0
  149.6923  139.1803  156.8210 H   0  0  0  0  0  0  0  0  0  0  0  0
  150.6327  140.2951  157.8097 H   0  0  0  0  0  0  0  0  0  0  0  0
  149.6391  141.1929  155.4817 H   0  0  0  0  0  0  0  0  0  0  0  0
  151.3531  141.5148  155.7859 H   0  0  0  0  0  0  0  0  0  0  0  0
  152.9504  139.2342  154.7234 H   0  0  0  0  0  0  0  0  0  0  0  0
  151.7265  137.9814  154.5876 H   0  0  0  0  0  0  0  0  0  0  0  0
  147.9470  135.0025  153.8465 H   0  0  0  0  0  0  0  0  0  0  0  0
  148.7455  134.0058  152.6534 H   0  0  0  0  0  0  0  0  0  0  0  0
  146.3738  134.2551  152.1219 H   0  0  0  0  0  0  0  0  0  0  0  0
  145.8952  133.6670  153.7045 H   0  0  0  0  0  0  0  0  0  0  0  0
  144.6729  131.7936  152.6148 H   0  0  0  0  0  0  0  0  0  0  0  0
  1  2  1  0  0  0  0
  1 28  1  0  0  0  0
  1 29  1  0  0  0  0
  1 30  1  0  0  0  0
  2  3  1  0  0  0  0
  2  6  1  0  0  0  0
  2 56  1  0  0  0  0
  3  4  1  0  0  0  0
  3 31  1  0  0  0  0
  3 32  1  0  0  0  0
  4  5  1  0  0  0  0
  4 33  1  0  0  0  0
  4 34  1  0  0  0  0
  5 35  1  0  0  0  0
  6 27  1  0  0  0  0
  6  7  1  0  0  0  0
  6 36  1  0  0  0  0
  7  8  1  0  0  0  0
  7 37  1  0  0  0  0
  7 38  1  0  0  0  0
  8  9  1  0  0  0  0
  8 39  1  0  0  0  0
  8 40  1  0  0  0  0
  9 10  1  0  0  0  0
  9 26  1  0  0  0  0
 10 15  1  0  0  0  0
 10 11  2  0  0  0  0
 11 12  1  0  0  0  0
 12 13  2  0  0  0  0
 12 41  1  0  0  0  0
 13 14  1  0  0  0  0
 14 18  1  0  0  0  0
 14 15  2  0  0  0  0
 15 16  1  0  0  0  0
 16 17  2  0  0  0  0
 17 18  1  0  0  0  0
 17 42  1  0  0  0  0
 18 19  1  0  0  0  0
 19 20  1  0  0  0  0
 19 43  1  0  0  0  0
 19 44  1  0  0  0  0
 20 25  1  0  0  0  0
 20 21  1  0  0  0  0
 20 22  1  0  0  0  0
 21 45  1  0  0  0  0
 22 23  1  0  0  0  0
 22 46  1  0  0  0  0
 22 47  1  0  0  0  0
 23 24  1  0  0  0  0
 23 48  1  0  0  0  0
 23 49  1  0  0  0  0
 24 25  1  0  0  0  0
 25 50  1  0  0  0  0
 25 51  1  0  0  0  0
 26 27  1  0  0  0  0
 26 52  1  0  0  0  0
 26 53  1  0  0  0  0
 27 54  1  0  0  0  0
 27 55  1  0  0  0  0
M  CHG  1   2   1
M  END
> <s_m_source_file>
AV-unprocessed.smi

> <i_m_source_file_index>
22

> <i_lp_mmshare_version>
43012

> <i_f3d_flags>
0

> <s_epik_input>
W09IXVtDSDJdW0NIMl1OKFtDSDNdKVtDSF0xW0NIMl1bQ0gyXU4oW0NIMl1bQ0gyXTEpYyhuW2NIXW4yKWMoYzIzKW5bY0hdbjNbQ0gyXVtDQEBdNChbT0hdKVtDSDJdW0NIMl1PW0NIMl00

> <s_epik_cmdline>
J2VwaWtfcHl0aG9uJywgJy1waCcsICc3LjAnLCAnLXRuJywgJzgnLCAnLW1hJywgJzIwMCcsICctbWV0YWxfYmluZGluZycsICctaW1hZScsICc8aW5maWxlLm1hZT4nLCAnLW9tYWUnLCAnPG91dGZpbGUubWFlPic=

> <r_lp_tautomer_probability>
1

> <r_epik_Ionization_Penalty>
0.00317524

> <r_epik_Ionization_Penalty_Charging>
0.00191487

> <r_epik_Ionization_Penalty_Neutral>
0.00126037

> <r_epik_State_Penalty>
-0

> <r_epik_Charging_Adjusted_Penalty>
0.00191487

> <i_epik_Tot_Q>
1

> <i_epik_Tot_abs_Q>
1

> <r_epik_Metal_State_Penalty>
-0

> <b_epik_Metal_Only>
0

> <s_lp_Force_Field>
OPLS_2005

> <r_lp_Energy>
48.0385

> <b_lp_Chiralities_Consistent>
1

> <s_lp_Variant>
AV-unprocessed.smi:22-3

> <Gold.Version>
5.8.1

> <Gold.Id.Protein>
6NUR|6NUR_protein|mol2

> <Gold.PLP.Fitness>
49.1622

> <Gold.PLP.PLP>
-40.3988

> <Gold.PLP.part.hbond>
-5.9265

> <Gold.PLP.part.metal>
0.0000

> <Gold.PLP.part.buried>
-5.1653

> <Gold.PLP.part.nonpolar>
-29.9979

> <Gold.PLP.part.repulsive>
0.2954

> <Gold.PLP.ligand.clash>
0.0000

> <Gold.PLP.ligand.torsion>
1.4765

> <Gold.PLP.Chemscore.Hbond>
3.7551

> <Gold.PLP.Chemscore.CHOScore>
0.0000

> <Gold.PLP.Chemscore.Metal>
0.0000

> <Gold.Chemscore.Hbonds>
donor molecule, donor type, donor heavy atom, donor atom, acceptor molecule, acceptor atom, score
      L1  H     5    35       P1 10186  0.51
      P1  H  7989  7998       L1    24  1.00
      P1  H  7997  8009       L1    21  1.00
      P1  H 10785 10796       L1     5  0.95

> <Gold.PLP.Chemscore.Internal.Correction>
0.4510

> <Gold.Rescore>
     Score         DG    S(hbond)    S(metal)    S(lipo)     H(rot)  DE(clash)    DE(int)     intcor
     10.50     -14.70       2.68        0.00      84.51       3.76       0.98       3.22       ----

> <Gold.Chemscore.Fitness>
10.4973

> <Gold.Chemscore.DG>
-14.7003

> <Gold.Chemscore.ZeroCoef>
-5.4800

> <Gold.Chemscore.Hbond>
2.6809

> <Gold.Chemscore.Metal>
0.0000

> <Gold.Chemscore.Lipo>
84.5065

> <Gold.Chemscore.Internal_Hbond>
0.0000

> <Gold.Chemscore.DEClash>
0.9846

> <Gold.Chemscore.DEInternal>
3.2184

> <Gold.Chemscore.Rot>
3.7583

> <Gold.Chemscore.Internal.Correction>
   9.000000E+99

> <Gold.Chemscore.Hbonds>
donor molecule, donor type, donor heavy atom, donor atom, acceptor molecule, acceptor atom, score
      L1  H     5    35       P1 10186  0.49
      P1  H  7989  7998       L1    24  0.39
      P1  H  7997  8009       L1    21  0.65
      P1  H 10785 10796       L1     5  0.20

> <Gold.Chemscore.Hbond.Weighted>
-8.9543

> <Gold.Chemscore.Metal.Weighted>
-0.0000

> <Gold.Chemscore.Lipo.Weighted>
-9.8873

> <Gold.Chemscore.Internal_Hbond.Weighted>
0.0000

> <Gold.Chemscore.DEClash.Weighted>
0.9846

> <Gold.Chemscore.DEInternal.Weighted>
3.2184

> <Gold.Chemscore.Rot.Weighted>
9.6213

> <Gold.Chemscore.Internal.Correction.Weighted>
   9.000000E+99

> <Gold.Protein.RotatedTorsions>
[ 6907 6896 6895 6894 ] final   61.25 input  -60.11 | X-H torsion
[ 7974 7965 7964 7962 ] final   79.37 input  175.53 | X-H torsion
[ 8008 7997 7996 7995 ] final -173.64 input   59.86 | X-H torsion
[ 10167 10162 10161 10158 ] final  163.53 input  -65.29 | X-H torsion
[ 10718 10713 10712 10709 ] final  -95.25 input   66.30 | X-H torsion
[ 10763 10752 10751 10750 ] final   -9.12 input  -60.55 | X-H torsion
[ 11005 11000 10999 10996 ] final  127.72 input  -57.11 | X-H torsion

> <Gold.Protein.ActiveResidues>
 VAL166  LYS551  ARG553  GLY616  TRP617  ASP618  TYR619  PRO620  LYS621  CYS622 
 ASP623  PHE694  ASN695  SER759  ASP760  ASP761  ALA762  ILE779  LEU786  VAL792 
 PHE793  MET794  SER795  GLU796  ALA797  LYS798  CYS799  TRP800  GLU811  SER814 

> <Gold.Protein.RotatedAtoms>
  152.4072  134.6186  160.0044 H   0  0  0  0  0  0  0  0  0  0  0  0  # atno 6907 bound_to 6896
  151.6374  133.3322  159.3130 H   0  0  0  0  0  0  0  0  0  0  0  0  # atno 6908 bound_to 6896
  150.7966  134.7071  159.6628 H   0  0  0  0  0  0  0  0  0  0  0  0  # atno 6909 bound_to 6896
  145.6651  139.2482  143.1900 H   0  0  0  0  0  0  0  0  0  0  0  0  # atno 7974 bound_to 7965
  155.9600  140.1142  157.0904 H   0  0  0  0  0  0  0  0  0  0  0  0  # atno 8008 bound_to 7997
  154.4129  140.1184  156.5233 H   0  0  0  0  0  0  0  0  0  0  0  0  # atno 8009 bound_to 7997
  155.6733  140.3473  155.4829 H   0  0  0  0  0  0  0  0  0  0  0  0  # atno 8010 bound_to 7997
  139.4875  144.4327  151.9050 H   0  0  0  0  0  0  0  0  0  0  0  0  # atno 10167 bound_to 10162
  156.0040  130.5101  150.6048 H   0  0  0  0  0  0  0  0  0  0  0  0  # atno 10718 bound_to 10713
  153.4502  135.7015  153.6114 H   0  0  0  0  0  0  0  0  0  0  0  0  # atno 10763 bound_to 10752
  153.4452  135.3771  155.2251 H   0  0  0  0  0  0  0  0  0  0  0  0  # atno 10764 bound_to 10752
  154.8728  135.3983  154.3913 H   0  0  0  0  0  0  0  0  0  0  0  0  # atno 10765 bound_to 10752
  139.9522  134.9620  156.8896 H   0  0  0  0  0  0  0  0  0  0  0  0  # atno 11005 bound_to 11000
  146.1092  140.7449  142.9511 LP  0  0  0  0  0  0  0  0  0  0  0  0  # atno 17320 bound_to 7965
  144.7075  140.3912  143.7106 LP  0  0  0  0  0  0  0  0  0  0  0  0  # atno 17321 bound_to 7965
  140.3775  144.2777  150.5912 LP  0  0  0  0  0  0  0  0  0  0  0  0  # atno 17342 bound_to 10162
  140.5263  143.2253  151.8310 LP  0  0  0  0  0  0  0  0  0  0  0  0  # atno 17343 bound_to 10162
  157.3891  131.0793  151.1410 LP  0  0  0  0  0  0  0  0  0  0  0  0  # atno 17370 bound_to 10713
  157.2107  130.6437  149.5773 LP  0  0  0  0  0  0  0  0  0  0  0  0  # atno 17371 bound_to 10713
  140.5692  134.0460  155.7424 LP  0  0  0  0  0  0  0  0  0  0  0  0  # atno 17394 bound_to 11000
  141.1187  133.9497  157.2771 LP  0  0  0  0  0  0  0  0  0  0  0  0  # atno 17395 bound_to 11000

$$$$
