AV-unprocessed.smi:1284|AV-procd|sdf|5366|dock5
  -GOLD-   22720 4503D 1   1.00000     0.00000
 Structure written by MMmdl.
 40 42  0  0  0  0  0  0  0  0  2 V2000
  151.5797  137.4554  157.1668 N   0  0  0  0  0  0  0  0  0  0  0  0
  151.5181  136.7641  156.0259 C   0  0  0  0  0  0  0  0  0  0  0  0
  151.3223  135.5502  156.0083 O   0  0  0  0  0  0  0  0  0  0  0  0
  151.7085  137.5513  154.7255 C   0  0  0  0  0  0  0  0  0  0  0  0
  150.5948  138.5308  154.5131 C   0  0  0  0  0  0  0  0  0  0  0  0
  149.5628  138.3841  153.6340 N   0  3  0  0  0  0  0  0  0  0  0  0
  148.7166  139.4905  153.7081 C   0  0  0  0  0  0  0  0  0  0  0  0
  147.5472  139.7887  153.0154 C   0  0  0  0  0  0  0  0  0  0  0  0
  146.9173  141.0097  153.3329 C   0  0  0  0  0  0  0  0  0  0  0  0
  147.4529  141.8806  154.3035 C   0  0  0  0  0  0  0  0  0  0  0  0
  148.6410  141.5689  154.9959 C   0  0  0  0  0  0  0  0  0  0  0  0
  149.2574  140.3579  154.6792 C   0  0  0  0  0  0  0  0  0  0  0  0
  150.4126  139.7226  155.1537 N   0  0  0  0  0  0  0  0  0  0  0  0
  151.2226  140.3679  156.2006 C   0  0  0  0  0  0  0  0  0  0  0  0
  150.3679  140.9180  157.3607 C   0  0  1  0  0  0  0  0  0  0  0  0
  149.5981  139.8543  157.8818 O   0  0  0  0  0  0  0  0  0  0  0  0
  151.2054  141.6048  158.4306 C   0  0  0  0  0  0  0  0  0  0  0  0
  152.1782  140.8854  159.1600 C   0  0  0  0  0  0  0  0  0  0  0  0
  152.9658  141.5383  160.1280 C   0  0  0  0  0  0  0  0  0  0  0  0
  152.7858  142.9132  160.3729 C   0  0  0  0  0  0  0  0  0  0  0  0
  151.8174  143.6351  159.6497 C   0  0  0  0  0  0  0  0  0  0  0  0
  151.0289  142.9826  158.6823 C   0  0  0  0  0  0  0  0  0  0  0  0
  151.4669  136.9751  158.0482 H   0  0  0  0  0  0  0  0  0  0  0  0
  151.7453  138.4514  157.1493 H   0  0  0  0  0  0  0  0  0  0  0  0
  152.6571  138.0899  154.7424 H   0  0  0  0  0  0  0  0  0  0  0  0
  151.7541  136.8536  153.8895 H   0  0  0  0  0  0  0  0  0  0  0  0
  147.1348  139.1230  152.2716 H   0  0  0  0  0  0  0  0  0  0  0  0
  146.0057  141.2838  152.8222 H   0  0  0  0  0  0  0  0  0  0  0  0
  146.9429  142.8073  154.5227 H   0  0  0  0  0  0  0  0  0  0  0  0
  149.0369  142.2447  155.7389 H   0  0  0  0  0  0  0  0  0  0  0  0
  151.9118  139.6103  156.5758 H   0  0  0  0  0  0  0  0  0  0  0  0
  151.8460  141.1449  155.7579 H   0  0  0  0  0  0  0  0  0  0  0  0
  149.6561  141.6431  156.9646 H   0  0  0  0  0  0  0  0  0  0  0  0
  148.7448  139.8745  157.4760 H   0  0  0  0  0  0  0  0  0  0  0  0
  152.3305  139.8324  158.9729 H   0  0  0  0  0  0  0  0  0  0  0  0
  153.7098  140.9845  160.6816 H   0  0  0  0  0  0  0  0  0  0  0  0
  153.3901  143.4139  161.1149 H   0  0  0  0  0  0  0  0  0  0  0  0
  151.6798  144.6900  159.8361 H   0  0  0  0  0  0  0  0  0  0  0  0
  150.2937  143.5460  158.1265 H   0  0  0  0  0  0  0  0  0  0  0  0
  149.4496  137.5841  153.0250 H   0  0  0  0  0  0  0  0  0  0  0  0
  1  2  1  0  0  0  0
  1 23  1  0  0  0  0
  1 24  1  0  0  0  0
  2  3  2  0  0  0  0
  2  4  1  0  0  0  0
  4  5  1  0  0  0  0
  4 25  1  0  0  0  0
  4 26  1  0  0  0  0
  5 13  1  0  0  0  0
  5  6  2  0  0  0  0
  6  7  1  0  0  0  0
  6 40  1  0  0  0  0
  7 12  2  0  0  0  0
  7  8  1  0  0  0  0
  8  9  2  0  0  0  0
  8 27  1  0  0  0  0
  9 10  1  0  0  0  0
  9 28  1  0  0  0  0
 10 11  2  0  0  0  0
 10 29  1  0  0  0  0
 11 12  1  0  0  0  0
 11 30  1  0  0  0  0
 12 13  1  0  0  0  0
 13 14  1  0  0  0  0
 14 15  1  0  0  0  0
 14 31  1  0  0  0  0
 14 32  1  0  0  0  0
 15 16  1  0  0  0  0
 15 17  1  0  0  0  0
 15 33  1  0  0  0  0
 16 34  1  0  0  0  0
 17 22  1  0  0  0  0
 17 18  2  0  0  0  0
 18 19  1  0  0  0  0
 18 35  1  0  0  0  0
 19 20  2  0  0  0  0
 19 36  1  0  0  0  0
 20 21  1  0  0  0  0
 20 37  1  0  0  0  0
 21 22  2  0  0  0  0
 21 38  1  0  0  0  0
 22 39  1  0  0  0  0
M  CHG  1   6   1
M  END
> <s_m_source_file>
AV-unprocessed.smi

> <i_m_source_file_index>
1284

> <i_lp_mmshare_version>
43012

> <i_f3d_flags>
0

> <s_epik_input>
W2NIXTFbY0hdW2NIXVtjSF1jKGMxMiluKGMobjIpW0NIMl1DKD1PKVtOSDJdKVtDSDJdW0NASF0oW09IXSljM1tjSF1bY0hdW2NIXVtjSF1bY0hdMw==

> <s_epik_cmdline>
J2VwaWtfcHl0aG9uJywgJy1waCcsICc3LjAnLCAnLXRuJywgJzgnLCAnLW1hJywgJzIwMCcsICctbWV0YWxfYmluZGluZycsICctaW1hZScsICc8aW5maWxlLm1hZT4nLCAnLW9tYWUnLCAnPG91dGZpbGUubWFlPic=

> <r_epik_Ionization_Penalty>
1.66646

> <r_epik_Ionization_Penalty_Charging>
1.66645

> <r_epik_Ionization_Penalty_Neutral>
1.67657e-06

> <r_epik_State_Penalty>
1.76975

> <r_epik_Charging_Adjusted_Penalty>
3.43621

> <i_epik_Tot_Q>
1

> <i_epik_Tot_abs_Q>
1

> <r_epik_Metal_State_Penalty>
1.80493

> <b_epik_Metal_Only>
0

> <s_lp_Force_Field>
OPLS_2005

> <r_lp_Energy>
14.9388

> <b_lp_Chiralities_Consistent>
1

> <s_lp_Variant>
AV-unprocessed.smi:1284-4

> <Gold.Version>
5.8.1

> <Gold.Id.Protein>
6NUR|6NUR_protein|mol2

> <Gold.PLP.Fitness>
55.4683

> <Gold.PLP.PLP>
-47.2575

> <Gold.PLP.part.hbond>
-3.0000

> <Gold.PLP.part.metal>
0.0000

> <Gold.PLP.part.buried>
3.1757

> <Gold.PLP.part.nonpolar>
-47.5587

> <Gold.PLP.part.repulsive>
0.1671

> <Gold.PLP.ligand.clash>
0.0111

> <Gold.PLP.ligand.torsion>
0.4062

> <Gold.PLP.Chemscore.Hbond>
3.0000

> <Gold.PLP.Chemscore.CHOScore>
0.0000

> <Gold.PLP.Chemscore.Metal>
0.0000

> <Gold.Chemscore.Hbonds>
donor molecule, donor type, donor heavy atom, donor atom, acceptor molecule, acceptor atom, score
      L1  H     6    40       P1  7948  2.00
      P1  H 10752 10764       L1     3  0.25

> <Gold.PLP.Chemscore.Internal.Correction>
0.0343

> <Gold.Rescore>
     Score         DG    S(hbond)    S(metal)    S(lipo)     H(rot)  DE(clash)    DE(int)     intcor
     16.55     -18.09       1.83        0.00     119.43       2.92       0.82       0.72       ----

> <Gold.Chemscore.Fitness>
16.5490

> <Gold.Chemscore.DG>
-18.0927

> <Gold.Chemscore.ZeroCoef>
-5.4800

> <Gold.Chemscore.Hbond>
1.8326

> <Gold.Chemscore.Metal>
0.0000

> <Gold.Chemscore.Lipo>
119.4267

> <Gold.Chemscore.Internal_Hbond>
0.0000

> <Gold.Chemscore.DEClash>
0.8199

> <Gold.Chemscore.DEInternal>
0.7238

> <Gold.Chemscore.Rot>
2.9223

> <Gold.Chemscore.Internal.Correction>
   9.000000E+99

> <Gold.Chemscore.Hbonds>
donor molecule, donor type, donor heavy atom, donor atom, acceptor molecule, acceptor atom, score
      L1  H     6    40       P1  7948  0.88

> <Gold.Chemscore.Hbond.Weighted>
-6.1210

> <Gold.Chemscore.Metal.Weighted>
-0.0000

> <Gold.Chemscore.Lipo.Weighted>
-13.9729

> <Gold.Chemscore.Internal_Hbond.Weighted>
0.0000

> <Gold.Chemscore.DEClash.Weighted>
0.8199

> <Gold.Chemscore.DEInternal.Weighted>
0.7238

> <Gold.Chemscore.Rot.Weighted>
7.4812

> <Gold.Chemscore.Internal.Correction.Weighted>
   9.000000E+99

> <Gold.Protein.RotatedTorsions>
[ 6907 6896 6895 6894 ] final  131.35 input  -60.11 | X-H torsion
[ 7974 7965 7964 7962 ] final   57.33 input  175.53 | X-H torsion
[ 8008 7997 7996 7995 ] final    6.80 input   59.86 | X-H torsion
[ 10167 10162 10161 10158 ] final  -83.10 input  -65.29 | X-H torsion
[ 10718 10713 10712 10709 ] final  163.68 input   66.30 | X-H torsion
[ 10763 10752 10751 10750 ] final  -19.92 input  -60.55 | X-H torsion
[ 11005 11000 10999 10996 ] final   94.28 input  -57.11 | X-H torsion

> <Gold.Protein.ActiveResidues>
 VAL166  LYS551  ARG553  GLY616  TRP617  ASP618  TYR619  PRO620  LYS621  CYS622 
 ASP623  PHE694  ASN695  SER759  ASP760  ASP761  ALA762  ILE779  LEU786  VAL792 
 PHE793  MET794  SER795  GLU796  ALA797  LYS798  CYS799  TRP800  GLU811  SER814 

> <Gold.Protein.RotatedAtoms>
  152.3435  133.6095  159.5893 H   0  0  0  0  0  0  0  0  0  0  0  0  # atno 6907 bound_to 6896
  150.7493  133.9685  159.3547 H   0  0  0  0  0  0  0  0  0  0  0  0  # atno 6908 bound_to 6896
  151.7546  135.0825  160.0387 H   0  0  0  0  0  0  0  0  0  0  0  0  # atno 6909 bound_to 6896
  145.9303  139.3802  143.0425 H   0  0  0  0  0  0  0  0  0  0  0  0  # atno 7974 bound_to 7965
  154.7456  140.2757  155.6336 H   0  0  0  0  0  0  0  0  0  0  0  0  # atno 8008 bound_to 7997
  156.2884  140.2688  156.2122 H   0  0  0  0  0  0  0  0  0  0  0  0  # atno 8009 bound_to 7997
  155.0202  140.0371  157.2424 H   0  0  0  0  0  0  0  0  0  0  0  0  # atno 8010 bound_to 7997
  140.4258  143.2567  151.8828 H   0  0  0  0  0  0  0  0  0  0  0  0  # atno 10167 bound_to 10162
  157.1051  131.0453  151.2481 H   0  0  0  0  0  0  0  0  0  0  0  0  # atno 10718 bound_to 10713
  153.6124  135.6995  153.5342 H   0  0  0  0  0  0  0  0  0  0  0  0  # atno 10763 bound_to 10752
  153.3006  135.4130  155.1248 H   0  0  0  0  0  0  0  0  0  0  0  0  # atno 10764 bound_to 10752
  154.8560  135.3648  154.5663 H   0  0  0  0  0  0  0  0  0  0  0  0  # atno 10765 bound_to 10752
  139.8800  134.8836  156.3841 H   0  0  0  0  0  0  0  0  0  0  0  0  # atno 11005 bound_to 11000
  145.8435  140.9568  143.0787 LP  0  0  0  0  0  0  0  0  0  0  0  0  # atno 17320 bound_to 7965
  144.6764  140.0315  143.7482 LP  0  0  0  0  0  0  0  0  0  0  0  0  # atno 17321 bound_to 7965
  139.4783  144.5388  151.8558 LP  0  0  0  0  0  0  0  0  0  0  0  0  # atno 17342 bound_to 10162
  140.4483  144.1891  150.5895 LP  0  0  0  0  0  0  0  0  0  0  0  0  # atno 17343 bound_to 10162
  157.4608  130.7652  149.7234 LP  0  0  0  0  0  0  0  0  0  0  0  0  # atno 17370 bound_to 10713
  155.9864  130.3975  150.3214 LP  0  0  0  0  0  0  0  0  0  0  0  0  # atno 17371 bound_to 10713
  140.9379  133.7535  156.0108 LP  0  0  0  0  0  0  0  0  0  0  0  0  # atno 17394 bound_to 11000
  140.8254  134.3240  157.5367 LP  0  0  0  0  0  0  0  0  0  0  0  0  # atno 17395 bound_to 11000

$$$$
