#       Name:                AV-unprocessed.smi:672
#       Creating user name   scv26
#       Creation time:       Fri Mar 27 00:25:06 2020


#       File generated by GOLD software.
#

@<TRIPOS>MOLECULE
AV-unprocessed.smi:672
    40    41     1
SMALL
NO_CHARGES


@<TRIPOS>ATOM
      1 ****        -6.8623   2.5408  -0.5526 C.3            1 S1                 0.0000
      2 ****        -6.3531   2.1645   0.8428 C.3            1 S1                 0.0000
      3 ****        -5.0430   1.4510   0.8021 C.2            1 S1                 0.0000
      4 ****        -4.9466   0.1224   0.6677 N.2            1 S1                 0.0000
      5 ****        -3.6280  -0.3082   0.6269 N.2            1 S1                 0.0000
      6 ****        -2.7655   0.7135   0.7168 C.2            1 S1                 0.0000
      7 ****        -1.3542   0.5590   0.6981 N.am           1 S1                 0.0000
      8 ****        -0.6412  -0.5752   0.5825 C.2            1 S1                 0.0000
      9 ****        -1.1142  -1.7061   0.4655 O.2            1 S1                 0.0000
     10 ****         0.6756  -0.3244   0.6066 N.am           1 S1                 0.0000
     11 ****         1.7247  -1.3356   0.5031 C.3            1 S1                 0.0000
     12 ****         1.9896  -1.7279  -0.9642 C.3            1 S1                 0.0000
     13 ****         3.3546  -1.1380  -1.3182 C.3            1 S1                 0.0000
     14 ****         4.1212  -1.1543   0.0030 C.3            1 S1                 0.0000
     15 ****         5.5344  -0.0136   0.0258 S.3            1 S1                 0.0000
     16 ****         6.6566  -0.8663  -1.1136 C.3            1 S1                 0.0000
     17 ****         3.0608  -0.7964   1.0484 C.3            1 S1                 0.0000
     18 ****        -3.5025   2.3000   0.8600 S.3            1 S1                 0.0000
     19 ****        -7.8178   3.0617  -0.4899 H              1 S1                 0.0000
     20 ****        -7.0060   1.6543  -1.1711 H              1 S1                 0.0000
     21 ****        -6.1577   3.1967  -1.0647 H              1 S1                 0.0000
     22 ****        -6.2435   3.0619   1.4523 H              1 S1                 0.0000
     23 ****        -7.0845   1.5326   1.3480 H              1 S1                 0.0000
     24 ****        -0.8245   1.4141   0.7820 H              1 S1                 0.0000
     25 ****         0.9771   0.6341   0.7036 H              1 S1                 0.0000
     26 ****         1.4350  -2.2229   1.0694 H              1 S1                 0.0000
     27 ****         2.0378  -2.8150  -1.0401 H              1 S1                 0.0000
     28 ****         1.2115  -1.3952  -1.6526 H              1 S1                 0.0000
     29 ****         3.8568  -1.6999  -2.1059 H              1 S1                 0.0000
     30 ****         3.2298  -0.1117  -1.6665 H              1 S1                 0.0000
     31 ****         4.4800  -2.1659   0.1985 H              1 S1                 0.0000
     32 ****         7.5976  -0.3215  -1.1897 H              1 S1                 0.0000
     33 ****         6.2171  -0.9325  -2.1087 H              1 S1                 0.0000
     34 ****         6.8688  -1.8743  -0.7572 H              1 S1                 0.0000
     35 ****         3.0140   0.2881   1.1626 H              1 S1                 0.0000
     36 ****         3.3007  -1.2105   2.0283 H              1 S1                 0.0000
     37 ****        -5.7348  -0.4897   0.6040 LP             1 S1                 0.0000
     38 ****        -3.3542  -1.2661   0.5408 LP             1 S1                 0.0000
     39 ****        -2.1058  -1.8342   0.4509 LP             1 S1                 0.0000
     40 ****        -0.5066  -2.4963   0.3851 LP             1 S1                 0.0000
@<TRIPOS>BOND
    1    1    2 1     
    2    1   19 1     
    3    1   20 1     
    4    1   21 1     
    5    2    3 1     
    6    2   22 1     
    7    2   23 1     
    8    3   18 1     
    9    3    4 2     
   10    4    5 1     
   11    5    6 2     
   12    6    7 1     
   13    6   18 1     
   14    7    8 am    
   15    7   24 1     
   16    8    9 2     
   17    8   10 am    
   18   10   11 1     
   19   10   25 1     
   20   11   17 1     
   21   11   12 1     
   22   11   26 1     
   23   12   13 1     
   24   12   27 1     
   25   12   28 1     
   26   13   14 1     
   27   13   29 1     
   28   13   30 1     
   29   14   15 1     
   30   14   17 1     
   31   14   31 1     
   32   15   16 1     
   33   16   32 1     
   34   16   33 1     
   35   16   34 1     
   36   17   35 1     
   37   17   36 1     
   38    4   37 1     
   39    5   38 1     
   40    9   39 1     
   41    9   40 1     
@<TRIPOS>SUBSTRUCTURE
      1 S1             1
@<TRIPOS>SET
LONE_PAIRS      STATIC     ATOMS    <user>   **** ""
4 37 38 39 40
DONOR_HYDROGENS      STATIC     ATOMS    <user>   **** ""
2 24 25
ATOM$BLUE        STATIC     ATOMS    COLORGROUP SYSTEM
4 37 38 39 40
ATOM$RED        STATIC     ATOMS    COLORGROUP SYSTEM
2 24 25
