AV-unprocessed.smi:569|AV-procd|sdf|2960|dock6
  -GOLD-   2262023463D 1   1.00000     0.00000
 Structure written by MMmdl.
 37 38  0  0  0  0  0  0  0  0  1 V2000
  154.0000  141.8427  161.3606 C   0  0  0  0  0  0  0  0  0  0  0  0
  153.1805  142.7887  160.5518 C   0  0  0  0  0  0  0  0  0  0  0  0
  152.8909  142.5969  159.2625 N   0  0  0  0  0  0  0  0  0  0  0  0
  152.1076  143.6241  158.7261 C   0  0  0  0  0  0  0  0  0  0  0  0
  151.6709  143.5635  157.2899 C   0  0  0  0  0  0  0  0  0  0  0  0
  150.9878  142.2244  157.0086 C   0  0  0  0  0  0  0  0  0  0  0  0
  151.5893  141.1685  157.2039 O   0  0  0  0  0  0  0  0  0  0  0  0
  149.7229  142.2868  156.5653 N   0  0  0  0  0  0  0  0  0  0  0  0
  148.8364  141.1479  156.3409 C   0  0  2  0  0  0  0  0  0  0  0  0
  148.6734  140.8999  154.8295 C   0  0  0  0  0  0  0  0  0  0  0  0
  147.8802  142.0248  154.1385 C   0  0  0  0  0  0  0  0  0  0  0  0
  146.5076  142.2483  154.8028 C   0  0  2  0  0  0  0  0  0  0  0  0
  145.7349  143.3865  154.1214 C   0  0  0  0  0  0  0  0  0  0  0  0
  146.6702  142.5064  156.3134 C   0  0  0  0  0  0  0  0  0  0  0  0
  147.4596  141.3773  157.0001 C   0  0  0  0  0  0  0  0  0  0  0  0
  151.8175  144.6115  159.6363 C   0  0  0  0  0  0  0  0  0  0  0  0
  152.5014  144.2753  161.2024 S   0  0  0  0  0  0  0  0  0  0  0  0
  153.9937  140.8499  160.9098 H   0  0  0  0  0  0  0  0  0  0  0  0
  153.5984  141.7683  162.3713 H   0  0  0  0  0  0  0  0  0  0  0  0
  155.0294  142.1964  161.4168 H   0  0  0  0  0  0  0  0  0  0  0  0
  150.9789  144.3751  157.0624 H   0  0  0  0  0  0  0  0  0  0  0  0
  152.5217  143.6856  156.6177 H   0  0  0  0  0  0  0  0  0  0  0  0
  149.3205  143.2023  156.4277 H   0  0  0  0  0  0  0  0  0  0  0  0
  149.2977  140.2631  156.7835 H   0  0  0  0  0  0  0  0  0  0  0  0
  149.6507  140.7885  154.3581 H   0  0  0  0  0  0  0  0  0  0  0  0
  148.1544  139.9528  154.6767 H   0  0  0  0  0  0  0  0  0  0  0  0
  148.4571  142.9503  154.1643 H   0  0  0  0  0  0  0  0  0  0  0  0
  147.7471  141.7793  153.0844 H   0  0  0  0  0  0  0  0  0  0  0  0
  145.9237  141.3350  154.6801 H   0  0  0  0  0  0  0  0  0  0  0  0
  146.2668  144.3345  154.2089 H   0  0  0  0  0  0  0  0  0  0  0  0
  144.7494  143.5150  154.5699 H   0  0  0  0  0  0  0  0  0  0  0  0
  145.5895  143.1825  153.0602 H   0  0  0  0  0  0  0  0  0  0  0  0
  147.1766  143.4593  156.4746 H   0  0  0  0  0  0  0  0  0  0  0  0
  145.6901  142.5996  156.7821 H   0  0  0  0  0  0  0  0  0  0  0  0
  146.8802  140.4549  156.9468 H   0  0  0  0  0  0  0  0  0  0  0  0
  147.5749  141.5974  158.0621 H   0  0  0  0  0  0  0  0  0  0  0  0
  151.2344  145.5075  159.4836 H   0  0  0  0  0  0  0  0  0  0  0  0
  1  2  1  0  0  0  0
  1 18  1  0  0  0  0
  1 19  1  0  0  0  0
  1 20  1  0  0  0  0
  2 17  1  0  0  0  0
  2  3  2  0  0  0  0
  3  4  1  0  0  0  0
  4  5  1  0  0  0  0
  4 16  2  0  0  0  0
  5  6  1  0  0  0  0
  5 21  1  0  0  0  0
  5 22  1  0  0  0  0
  6  7  2  0  0  0  0
  6  8  1  0  0  0  0
  8  9  1  0  0  0  0
  8 23  1  0  0  0  0
  9 15  1  0  0  0  0
  9 10  1  0  0  0  0
  9 24  1  0  0  0  0
 10 11  1  0  0  0  0
 10 25  1  0  0  0  0
 10 26  1  0  0  0  0
 11 12  1  0  0  0  0
 11 27  1  0  0  0  0
 11 28  1  0  0  0  0
 12 13  1  0  0  0  0
 12 14  1  0  0  0  0
 12 29  1  0  0  0  0
 13 30  1  0  0  0  0
 13 31  1  0  0  0  0
 13 32  1  0  0  0  0
 14 15  1  0  0  0  0
 14 33  1  0  0  0  0
 14 34  1  0  0  0  0
 15 35  1  0  0  0  0
 15 36  1  0  0  0  0
 16 17  1  0  0  0  0
 16 37  1  0  0  0  0
M  END
> <s_m_source_file>
AV-unprocessed.smi

> <i_m_source_file_index>
569

> <i_lp_mmshare_version>
43012

> <i_f3d_flags>
0

> <s_epik_input>
W0NIM11jMW5jKFtjSF1zMSlbQ0gyXUMoPU8pW05IXVtDQEBIXTJbQ0gyXVtDSDJdW0NAQEhdKFtDSDNdKVtDSDJdW0NIMl0y

> <s_epik_cmdline>
J2VwaWtfcHl0aG9uJywgJy1waCcsICc3LjAnLCAnLXRuJywgJzgnLCAnLW1hJywgJzIwMCcsICctbWV0YWxfYmluZGluZycsICctaW1hZScsICc8aW5maWxlLm1hZT4nLCAnLW9tYWUnLCAnPG91dGZpbGUubWFlPic=

> <r_lp_tautomer_probability>
1

> <r_epik_Ionization_Penalty>
6.63234e-05

> <r_epik_Ionization_Penalty_Charging>
0

> <r_epik_Ionization_Penalty_Neutral>
6.63234e-05

> <r_epik_State_Penalty>
-0

> <r_epik_Charging_Adjusted_Penalty>
0

> <i_epik_Tot_Q>
0

> <i_epik_Tot_abs_Q>
0

> <r_epik_Metal_State_Penalty>
-0

> <b_epik_Metal_Only>
0

> <s_lp_Force_Field>
OPLS_2005

> <r_lp_Energy>
5.61603

> <b_lp_Chiralities_Consistent>
1

> <s_lp_Variant>
AV-unprocessed.smi:569-2

> <Gold.Version>
5.8.1

> <Gold.Id.Protein>
6NUR|6NUR_protein|mol2

> <Gold.PLP.Fitness>
44.3747

> <Gold.PLP.PLP>
-41.7434

> <Gold.PLP.part.hbond>
-1.0000

> <Gold.PLP.part.metal>
0.0000

> <Gold.PLP.part.buried>
-5.0882

> <Gold.PLP.part.nonpolar>
-34.6175

> <Gold.PLP.part.repulsive>
0.0534

> <Gold.PLP.ligand.clash>
0.0000

> <Gold.PLP.ligand.torsion>
0.1863

> <Gold.PLP.Chemscore.Hbond>
1.0000

> <Gold.PLP.Chemscore.CHOScore>
0.0000

> <Gold.PLP.Chemscore.Metal>
0.0000

> <Gold.Chemscore.Hbonds>
donor molecule, donor type, donor heavy atom, donor atom, acceptor molecule, acceptor atom, score
      L1  H     8    23       P1  8028  1.00

> <Gold.PLP.Chemscore.Internal.Correction>
0.0039

> <Gold.Rescore>
     Score         DG    S(hbond)    S(metal)    S(lipo)     H(rot)  DE(clash)    DE(int)     intcor
     16.05     -17.48       1.00        0.00     101.81       1.26       0.00       1.43       ----

> <Gold.Chemscore.Fitness>
16.0511

> <Gold.Chemscore.DG>
-17.4849

> <Gold.Chemscore.ZeroCoef>
-5.4800

> <Gold.Chemscore.Hbond>
0.9953

> <Gold.Chemscore.Metal>
0.0000

> <Gold.Chemscore.Lipo>
101.8054

> <Gold.Chemscore.Internal_Hbond>
0.0000

> <Gold.Chemscore.DEClash>
0.0000

> <Gold.Chemscore.DEInternal>
1.4338

> <Gold.Chemscore.Rot>
1.2620

> <Gold.Chemscore.Internal.Correction>
   9.000000E+99

> <Gold.Chemscore.Hbonds>
donor molecule, donor type, donor heavy atom, donor atom, acceptor molecule, acceptor atom, score
      L1  H     8    23       P1  8028  1.00

> <Gold.Chemscore.Hbond.Weighted>
-3.3242

> <Gold.Chemscore.Metal.Weighted>
-0.0000

> <Gold.Chemscore.Lipo.Weighted>
-11.9112

> <Gold.Chemscore.Internal_Hbond.Weighted>
0.0000

> <Gold.Chemscore.DEClash.Weighted>
0.0000

> <Gold.Chemscore.DEInternal.Weighted>
1.4338

> <Gold.Chemscore.Rot.Weighted>
3.2306

> <Gold.Chemscore.Internal.Correction.Weighted>
   9.000000E+99

> <Gold.Protein.RotatedTorsions>
[ 6907 6896 6895 6894 ] final    0.70 input  -60.11 | X-H torsion
[ 7974 7965 7964 7962 ] final  106.88 input  175.53 | X-H torsion
[ 8008 7997 7996 7995 ] final   49.63 input   59.86 | X-H torsion
[ 10167 10162 10161 10158 ] final -115.41 input  -65.29 | X-H torsion
[ 10718 10713 10712 10709 ] final  171.39 input   66.30 | X-H torsion
[ 10763 10752 10751 10750 ] final   20.71 input  -60.55 | X-H torsion
[ 11005 11000 10999 10996 ] final  101.27 input  -57.11 | X-H torsion

> <Gold.Protein.ActiveResidues>
 VAL166  LYS551  ARG553  GLY616  TRP617  ASP618  TYR619  PRO620  LYS621  CYS622 
 ASP623  PHE694  ASN695  SER759  ASP760  ASP761  ALA762  ILE779  LEU786  VAL792 
 PHE793  MET794  SER795  GLU796  ALA797  LYS798  CYS799  TRP800  GLU811  SER814 

> <Gold.Protein.RotatedAtoms>
  151.5807  135.1058  160.0016 H   0  0  0  0  0  0  0  0  0  0  0  0  # atno 6907 bound_to 6896
  152.4355  133.7349  159.6619 H   0  0  0  0  0  0  0  0  0  0  0  0  # atno 6908 bound_to 6896
  150.8252  133.8113  159.3144 H   0  0  0  0  0  0  0  0  0  0  0  0  # atno 6909 bound_to 6896
  145.3009  139.2570  143.3814 H   0  0  0  0  0  0  0  0  0  0  0  0  # atno 7974 bound_to 7965
  155.4054  140.3440  155.4260 H   0  0  0  0  0  0  0  0  0  0  0  0  # atno 8008 bound_to 7997
  156.1480  140.1562  156.8848 H   0  0  0  0  0  0  0  0  0  0  0  0  # atno 8009 bound_to 7997
  154.5027  140.0810  156.7812 H   0  0  0  0  0  0  0  0  0  0  0  0  # atno 8010 bound_to 7997
  140.0904  143.4705  152.1873 H   0  0  0  0  0  0  0  0  0  0  0  0  # atno 10167 bound_to 10162
  156.9942  131.0157  151.2848 H   0  0  0  0  0  0  0  0  0  0  0  0  # atno 10718 bound_to 10713
  153.1055  135.6683  153.9595 H   0  0  0  0  0  0  0  0  0  0  0  0  # atno 10763 bound_to 10752
  153.9154  135.3020  155.3449 H   0  0  0  0  0  0  0  0  0  0  0  0  # atno 10764 bound_to 10752
  154.7476  135.5050  153.9307 H   0  0  0  0  0  0  0  0  0  0  0  0  # atno 10765 bound_to 10752
  139.8773  134.9176  156.4881 H   0  0  0  0  0  0  0  0  0  0  0  0  # atno 11005 bound_to 11000
  146.3152  140.3522  142.8657 LP  0  0  0  0  0  0  0  0  0  0  0  0  # atno 17320 bound_to 7965
  144.9095  140.7740  143.5816 LP  0  0  0  0  0  0  0  0  0  0  0  0  # atno 17321 bound_to 7965
  139.5728  144.7472  151.3845 LP  0  0  0  0  0  0  0  0  0  0  0  0  # atno 17342 bound_to 10162
  140.7031  143.7581  150.7437 LP  0  0  0  0  0  0  0  0  0  0  0  0  # atno 17343 bound_to 10162
  157.5437  130.8136  149.8059 LP  0  0  0  0  0  0  0  0  0  0  0  0  # atno 17370 bound_to 10713
  156.0195  130.3800  150.2005 LP  0  0  0  0  0  0  0  0  0  0  0  0  # atno 17371 bound_to 10713
  140.8678  133.8011  155.9332 LP  0  0  0  0  0  0  0  0  0  0  0  0  # atno 17394 bound_to 11000
  140.8983  134.2409  157.5056 LP  0  0  0  0  0  0  0  0  0  0  0  0  # atno 17395 bound_to 11000

$$$$
