#       Name:                AV-unprocessed.smi:2923
#       Creating user name   scv26
#       Creation time:       Fri Mar 27 16:09:50 2020


#       File generated by GOLD software.
#

@<TRIPOS>MOLECULE
AV-unprocessed.smi:2923
    51    53     1
SMALL
NO_CHARGES


@<TRIPOS>ATOM
      1 ****        -6.6157   0.7652  -0.7678 C.3            1 S1                 0.0000
      2 ****        -5.9660  -0.4770  -0.3652 N.pl3          1 S1                 0.0000
      3 ****        -6.7613  -1.6650  -0.0836 C.3            1 S1                 0.0000
      4 ****        -4.5674  -0.5071  -0.1753 C.ar           1 S1                 0.0000
      5 ****        -3.8690  -1.6567   0.2677 C.ar           1 S1                 0.0000
      6 ****        -2.4702  -1.6057   0.4363 C.ar           1 S1                 0.0000
      7 ****        -1.7716  -0.4099   0.1692 C.ar           1 S1                 0.0000
      8 ****        -0.3615  -0.4172   0.3527 N.am           1 S1                 0.0000
      9 ****         0.4948   0.6189   0.3710 C.2            1 S1                 0.0000
     10 ****         0.1880   1.8026   0.2341 O.2            1 S1                 0.0000
     11 ****         1.7528   0.2021   0.5654 N.am           1 S1                 0.0000
     12 ****         2.9221   1.0810   0.6245 C.3            1 S1                 0.0000
     13 ****         4.1341   0.4251   1.3235 C.3            1 S1                 0.0000
     14 ****         4.0408  -0.8761   2.0833 C.3            1 S1                 0.0000
     15 ****         4.5162  -1.9047   1.0532 C.3            1 S1                 0.0000
     16 ****         4.3334  -1.2672  -0.2091 O.3            1 S1                 0.0000
     17 ****         4.6819   0.1072  -0.0581 C.3            1 S1                 0.0000
     18 ****         3.7246   1.1302  -0.7040 C.3            1 S1                 0.0000
     19 ****         3.0422   0.6884  -2.0061 C.3            1 S1                 0.0000
     20 ****         4.3657   2.4899  -0.9964 C.3            1 S1                 0.0000
     21 ****        -2.5129   0.7083  -0.2823 C.ar           1 S1                 0.0000
     22 ****        -3.8520   0.6152  -0.4306 N.pl3          1 S1                 1.0000
     23 ****        -6.2560   1.0854  -1.7462 H              1 S1                 0.0000
     24 ****        -6.4111   1.5570  -0.0465 H              1 S1                 0.0000
     25 ****        -7.6972   0.6453  -0.8322 H              1 S1                 0.0000
     26 ****        -6.6613  -1.9533   0.9631 H              1 S1                 0.0000
     27 ****        -6.4402  -2.4986  -0.7087 H              1 S1                 0.0000
     28 ****        -7.8190  -1.4904  -0.2818 H              1 S1                 0.0000
     29 ****        -4.3834  -2.5810   0.4832 H              1 S1                 0.0000
     30 ****        -1.9397  -2.4841   0.7741 H              1 S1                 0.0000
     31 ****         0.0461  -1.3248   0.5239 H              1 S1                 0.0000
     32 ****         1.9236  -0.7880   0.6638 H              1 S1                 0.0000
     33 ****         2.7059   2.0704   1.0324 H              1 S1                 0.0000
     34 ****         4.7468   1.1787   1.8207 H              1 S1                 0.0000
     35 ****         4.6790  -0.8840   2.9673 H              1 S1                 0.0000
     36 ****         3.0250  -1.0877   2.4161 H              1 S1                 0.0000
     37 ****         5.5767  -2.1208   1.1900 H              1 S1                 0.0000
     38 ****         3.9656  -2.8440   1.1105 H              1 S1                 0.0000
     39 ****         5.7488   0.3045  -0.1723 H              1 S1                 0.0000
     40 ****         3.7488   0.6565  -2.8360 H              1 S1                 0.0000
     41 ****         2.2374   1.3689  -2.2858 H              1 S1                 0.0000
     42 ****         2.6087  -0.3086  -1.9271 H              1 S1                 0.0000
     43 ****         5.1004   2.4233  -1.7995 H              1 S1                 0.0000
     44 ****         4.8818   2.8886  -0.1225 H              1 S1                 0.0000
     45 ****         3.6187   3.2274  -1.2920 H              1 S1                 0.0000
     46 ****        -2.1008   1.6716  -0.5401 H              1 S1                 0.0000
     47 ****        -4.3543   1.4412  -0.7561 H              1 S1                 0.0000
     48 ****        -0.7687   2.0583   0.0952 LP             1 S1                 0.0000
     49 ****         0.8954   2.5089   0.2617 LP             1 S1                 0.0000
     50 ****         3.3785  -1.3465  -0.4951 LP             1 S1                 0.0000
     51 ****         4.9232  -1.6944  -0.8945 LP             1 S1                 0.0000
@<TRIPOS>BOND
    1    1    2 1     
    2    1   23 1     
    3    1   24 1     
    4    1   25 1     
    5    2    3 1     
    6    2    4 1     
    7    3   26 1     
    8    3   27 1     
    9    3   28 1     
   10    4   22 ar    
   11    4    5 ar    
   12    5    6 ar    
   13    5   29 1     
   14    6    7 ar    
   15    6   30 1     
   16    7    8 1     
   17    7   21 ar    
   18    8    9 am    
   19    8   31 1     
   20    9   10 2     
   21    9   11 am    
   22   11   12 1     
   23   11   32 1     
   24   12   18 1     
   25   12   13 1     
   26   12   33 1     
   27   13   17 1     
   28   13   14 1     
   29   13   34 1     
   30   14   15 1     
   31   14   35 1     
   32   14   36 1     
   33   15   16 1     
   34   15   37 1     
   35   15   38 1     
   36   16   17 1     
   37   17   18 1     
   38   17   39 1     
   39   18   19 1     
   40   18   20 1     
   41   19   40 1     
   42   19   41 1     
   43   19   42 1     
   44   20   43 1     
   45   20   44 1     
   46   20   45 1     
   47   21   22 ar    
   48   21   46 1     
   49   22   47 1     
   50   10   48 1     
   51   10   49 1     
   52   16   50 1     
   53   16   51 1     
@<TRIPOS>SUBSTRUCTURE
      1 S1             1
@<TRIPOS>SET
LONE_PAIRS      STATIC     ATOMS    <user>   **** ""
4 48 49 50 51
DONOR_HYDROGENS      STATIC     ATOMS    <user>   **** ""
3 31 32 47
ATOM$BLUE        STATIC     ATOMS    COLORGROUP SYSTEM
4 48 49 50 51
ATOM$RED        STATIC     ATOMS    COLORGROUP SYSTEM
3 31 32 47
