AV-unprocessed.smi:3305|AV-procd|sdf|12700|dock2
  -GOLD-   2272019 33D 1   1.00000     0.00000
 Structure written by MMmdl.
 32 33  0  0  0  0  0  0  0  0  1 V2000
  152.7439  143.3214  162.2152 C   0  0  0  0  0  0  0  0  0  0  0  0
  152.2492  143.5425  160.8202 C   0  0  0  0  0  0  0  0  0  0  0  0
  152.2575  144.7224  160.1187 C   0  0  0  0  0  0  0  0  0  0  0  0
  151.5898  144.5332  158.5210 S   0  0  0  0  0  0  0  0  0  0  0  0
  151.3105  142.8304  158.8735 C   0  0  0  0  0  0  0  0  0  0  0  0
  150.7268  141.8706  157.8868 C   0  0  0  0  0  0  0  0  0  0  0  0
  151.0685  142.1975  156.4198 C   0  0  0  0  0  0  0  0  0  0  0  0
  149.8986  142.1860  155.5468 N   0  0  0  0  0  0  0  0  0  0  0  0
  149.5730  141.1917  154.7071 C   0  0  0  0  0  0  0  0  0  0  0  0
  150.2571  140.1770  154.5683 O   0  0  0  0  0  0  0  0  0  0  0  0
  148.2683  141.3685  153.9141 C   0  0  1  0  0  0  0  0  0  0  0  0
  147.8346  140.0780  153.2102 C   0  0  0  0  0  0  0  0  0  0  0  0
  146.5417  139.6615  153.9171 C   0  0  0  0  0  0  0  0  0  0  0  0
  146.5455  140.3884  155.1345 O   0  0  0  0  0  0  0  0  0  0  0  0
  147.0834  141.6669  154.8422 C   0  0  0  0  0  0  0  0  0  0  0  0
  151.7130  142.4737  160.0962 N   0  0  0  0  0  0  0  0  0  0  0  0
  152.9639  144.2651  162.7148 H   0  0  0  0  0  0  0  0  0  0  0  0
  153.6574  142.7261  162.2183 H   0  0  0  0  0  0  0  0  0  0  0  0
  152.0034  142.7955  162.8186 H   0  0  0  0  0  0  0  0  0  0  0  0
  152.6162  145.6883  160.4426 H   0  0  0  0  0  0  0  0  0  0  0  0
  151.0727  140.8654  158.1297 H   0  0  0  0  0  0  0  0  0  0  0  0
  149.6445  141.8588  158.0210 H   0  0  0  0  0  0  0  0  0  0  0  0
  151.5067  143.1943  156.3653 H   0  0  0  0  0  0  0  0  0  0  0  0
  151.8261  141.5082  156.0441 H   0  0  0  0  0  0  0  0  0  0  0  0
  149.2817  142.9837  155.6007 H   0  0  0  0  0  0  0  0  0  0  0  0
  148.3898  142.1799  153.1945 H   0  0  0  0  0  0  0  0  0  0  0  0
  147.6603  140.2395  152.1458 H   0  0  0  0  0  0  0  0  0  0  0  0
  148.5839  139.2890  153.2939 H   0  0  0  0  0  0  0  0  0  0  0  0
  145.6710  139.9542  153.3282 H   0  0  0  0  0  0  0  0  0  0  0  0
  146.4868  138.5874  154.0954 H   0  0  0  0  0  0  0  0  0  0  0  0
  147.3646  142.1913  155.7567 H   0  0  0  0  0  0  0  0  0  0  0  0
  146.3345  142.2720  154.3287 H   0  0  0  0  0  0  0  0  0  0  0  0
  1  2  1  0  0  0  0
  1 17  1  0  0  0  0
  1 18  1  0  0  0  0
  1 19  1  0  0  0  0
  2 16  1  0  0  0  0
  2  3  2  0  0  0  0
  3  4  1  0  0  0  0
  3 20  1  0  0  0  0
  4  5  1  0  0  0  0
  5  6  1  0  0  0  0
  5 16  2  0  0  0  0
  6  7  1  0  0  0  0
  6 21  1  0  0  0  0
  6 22  1  0  0  0  0
  7  8  1  0  0  0  0
  7 23  1  0  0  0  0
  7 24  1  0  0  0  0
  8  9  1  0  0  0  0
  8 25  1  0  0  0  0
  9 10  2  0  0  0  0
  9 11  1  0  0  0  0
 11 15  1  0  0  0  0
 11 12  1  0  0  0  0
 11 26  1  0  0  0  0
 12 13  1  0  0  0  0
 12 27  1  0  0  0  0
 12 28  1  0  0  0  0
 13 14  1  0  0  0  0
 13 29  1  0  0  0  0
 13 30  1  0  0  0  0
 14 15  1  0  0  0  0
 15 31  1  0  0  0  0
 15 32  1  0  0  0  0
M  END
> <s_m_source_file>
AV-unprocessed.smi

> <i_m_source_file_index>
3305

> <i_lp_mmshare_version>
43012

> <i_f3d_flags>
0

> <s_epik_input>
W0NIM11jMVtjSF1zYyhuMSlbQ0gyXVtDSDJdW05IXUMoPU8pW0NAQEhdMltDSDJdW0NIMl1PW0NIMl0y

> <s_epik_cmdline>
J2VwaWtfcHl0aG9uJywgJy1waCcsICc3LjAnLCAnLXRuJywgJzgnLCAnLW1hJywgJzIwMCcsICctbWV0YWxfYmluZGluZycsICctaW1hZScsICc8aW5maWxlLm1hZT4nLCAnLW9tYWUnLCAnPG91dGZpbGUubWFlPic=

> <r_epik_Ionization_Penalty>
0.00102754

> <r_epik_Ionization_Penalty_Charging>
0

> <r_epik_Ionization_Penalty_Neutral>
0.00102754

> <r_epik_State_Penalty>
0.000671034

> <r_epik_Charging_Adjusted_Penalty>
0.000671034

> <i_epik_Tot_Q>
0

> <i_epik_Tot_abs_Q>
0

> <r_epik_Metal_State_Penalty>
-0

> <b_epik_Metal_Only>
0

> <s_lp_Force_Field>
OPLS_2005

> <r_lp_Energy>
8.47293

> <b_lp_Chiralities_Consistent>
1

> <s_lp_Variant>
AV-unprocessed.smi:3305-2

> <Gold.Version>
5.8.1

> <Gold.Id.Protein>
6NUR|6NUR_protein|mol2

> <Gold.PLP.Fitness>
41.1493

> <Gold.PLP.PLP>
-37.0919

> <Gold.PLP.part.hbond>
-2.5238

> <Gold.PLP.part.metal>
0.0000

> <Gold.PLP.part.buried>
-2.3352

> <Gold.PLP.part.nonpolar>
-30.7174

> <Gold.PLP.part.repulsive>
0.3374

> <Gold.PLP.ligand.clash>
0.0000

> <Gold.PLP.ligand.torsion>
0.9916

> <Gold.PLP.Chemscore.Hbond>
1.9920

> <Gold.PLP.Chemscore.CHOScore>
0.0000

> <Gold.PLP.Chemscore.Metal>
0.0000

> <Gold.Chemscore.Hbonds>
donor molecule, donor type, donor heavy atom, donor atom, acceptor molecule, acceptor atom, score
      L1  H     8    25       P1  8028  1.00
      P1  H  7989  7998       L1    10  0.95

> <Gold.PLP.Chemscore.Internal.Correction>
0.0646

> <Gold.Rescore>
     Score         DG    S(hbond)    S(metal)    S(lipo)     H(rot)  DE(clash)    DE(int)     intcor
     16.95     -18.79       1.68        0.00      99.05       1.52       0.64       1.19       ----

> <Gold.Chemscore.Fitness>
16.9519

> <Gold.Chemscore.DG>
-18.7863

> <Gold.Chemscore.ZeroCoef>
-5.4800

> <Gold.Chemscore.Hbond>
1.6760

> <Gold.Chemscore.Metal>
0.0000

> <Gold.Chemscore.Lipo>
99.0521

> <Gold.Chemscore.Internal_Hbond>
0.0000

> <Gold.Chemscore.DEClash>
0.6414

> <Gold.Chemscore.DEInternal>
1.1930

> <Gold.Chemscore.Rot>
1.5159

> <Gold.Chemscore.Internal.Correction>
   9.000000E+99

> <Gold.Chemscore.Hbonds>
donor molecule, donor type, donor heavy atom, donor atom, acceptor molecule, acceptor atom, score
      L1  H     8    25       P1  8028  0.98
      P1  H  7989  7998       L1    10  0.21

> <Gold.Chemscore.Hbond.Weighted>
-5.5978

> <Gold.Chemscore.Metal.Weighted>
-0.0000

> <Gold.Chemscore.Lipo.Weighted>
-11.5891

> <Gold.Chemscore.Internal_Hbond.Weighted>
0.0000

> <Gold.Chemscore.DEClash.Weighted>
0.6414

> <Gold.Chemscore.DEInternal.Weighted>
1.1930

> <Gold.Chemscore.Rot.Weighted>
3.8807

> <Gold.Chemscore.Internal.Correction.Weighted>
   9.000000E+99

> <Gold.Protein.RotatedTorsions>
[ 6907 6896 6895 6894 ] final   53.24 input  -60.11 | X-H torsion
[ 7974 7965 7964 7962 ] final  -80.84 input  175.53 | X-H torsion
[ 8008 7997 7996 7995 ] final    2.80 input   59.86 | X-H torsion
[ 10167 10162 10161 10158 ] final -139.30 input  -65.29 | X-H torsion
[ 10718 10713 10712 10709 ] final   84.31 input   66.30 | X-H torsion
[ 10763 10752 10751 10750 ] final  -55.73 input  -60.55 | X-H torsion
[ 11005 11000 10999 10996 ] final  108.55 input  -57.11 | X-H torsion

> <Gold.Protein.ActiveResidues>
 VAL166  LYS551  ARG553  GLY616  TRP617  ASP618  TYR619  PRO620  LYS621  CYS622 
 ASP623  PHE694  ASN695  SER759  ASP760  ASP761  ALA762  ILE779  LEU786  VAL792 
 PHE793  MET794  SER795  GLU796  ALA797  LYS798  CYS799  TRP800  GLU811  SER814 

> <Gold.Protein.RotatedAtoms>
  152.3316  134.7251  160.0287 H   0  0  0  0  0  0  0  0  0  0  0  0  # atno 6907 bound_to 6896
  151.7666  133.3332  159.3441 H   0  0  0  0  0  0  0  0  0  0  0  0  # atno 6908 bound_to 6896
  150.7426  134.5989  159.6070 H   0  0  0  0  0  0  0  0  0  0  0  0  # atno 6909 bound_to 6896
  145.5546  140.9491  143.1480 H   0  0  0  0  0  0  0  0  0  0  0  0  # atno 7974 bound_to 7965
  154.6959  140.2663  155.6767 H   0  0  0  0  0  0  0  0  0  0  0  0  # atno 8008 bound_to 7997
  156.2748  140.2782  156.1477 H   0  0  0  0  0  0  0  0  0  0  0  0  # atno 8009 bound_to 7997
  155.0832  140.0373  157.2635 H   0  0  0  0  0  0  0  0  0  0  0  0  # atno 8010 bound_to 7997
  139.8393  143.7343  152.2664 H   0  0  0  0  0  0  0  0  0  0  0  0  # atno 10167 bound_to 10162
  157.6895  131.0128  150.2653 H   0  0  0  0  0  0  0  0  0  0  0  0  # atno 10718 bound_to 10713
  154.1955  135.6420  153.5072 H   0  0  0  0  0  0  0  0  0  0  0  0  # atno 10763 bound_to 10752
  153.0024  135.5439  154.6370 H   0  0  0  0  0  0  0  0  0  0  0  0  # atno 10764 bound_to 10752
  154.5770  135.2922  155.0744 H   0  0  0  0  0  0  0  0  0  0  0  0  # atno 10765 bound_to 10752
  139.8846  134.9434  156.5990 H   0  0  0  0  0  0  0  0  0  0  0  0  # atno 11005 bound_to 11000
  144.7512  139.7188  143.7272 LP  0  0  0  0  0  0  0  0  0  0  0  0  # atno 17320 bound_to 7965
  146.1893  139.5125  142.9815 LP  0  0  0  0  0  0  0  0  0  0  0  0  # atno 17321 bound_to 7965
  139.7575  144.7516  151.0413 LP  0  0  0  0  0  0  0  0  0  0  0  0  # atno 17342 bound_to 10162
  140.7799  143.4789  151.0045 LP  0  0  0  0  0  0  0  0  0  0  0  0  # atno 17343 bound_to 10162
  156.3226  130.3788  149.7562 LP  0  0  0  0  0  0  0  0  0  0  0  0  # atno 17370 bound_to 10713
  156.5127  130.8179  151.3175 LP  0  0  0  0  0  0  0  0  0  0  0  0  # atno 17371 bound_to 10713
  140.7898  133.8592  155.8636 LP  0  0  0  0  0  0  0  0  0  0  0  0  # atno 17394 bound_to 11000
  140.9687  134.1559  157.4594 LP  0  0  0  0  0  0  0  0  0  0  0  0  # atno 17395 bound_to 11000

$$$$
