AV-unprocessed.smi:2510|AV-procd|sdf|9881|dock3
  -GOLD-   2272013513D 1   1.00000     0.00000
 Structure written by MMmdl.
 48 49  0  0  0  0  0  0  0  0  1 V2000
  150.4529  140.9315  155.6361 C   0  0  0  0  0  0  0  0  0  0  0  0
  149.9394  139.5618  156.1105 C   0  0  0  0  0  0  0  0  0  0  0  0
  149.6894  138.5299  154.9831 C   0  0  0  0  0  0  0  0  0  0  0  0
  151.0276  138.2294  154.2634 C   0  0  0  0  0  0  0  0  0  0  0  0
  152.2155  137.9374  155.1931 C   0  0  0  0  0  0  0  0  0  0  0  0
  148.8144  137.3228  155.4408 C   0  0  2  0  0  0  0  0  0  0  0  0
  149.0851  136.0852  154.7096 N   0  0  0  0  0  0  0  0  0  0  0  0
  149.4273  134.9199  155.2794 C   0  0  0  0  0  0  0  0  0  0  0  0
  149.4690  134.7454  156.4968 O   0  0  0  0  0  0  0  0  0  0  0  0
  149.8097  133.7864  154.3276 C   0  0  0  0  0  0  0  0  0  0  0  0
  148.5943  133.2368  153.6508 C   0  0  0  0  0  0  0  0  0  0  0  0
  148.0203  131.9970  153.6948 C   0  0  0  0  0  0  0  0  0  0  0  0
  146.8684  132.1121  152.8630 C   0  0  0  0  0  0  0  0  0  0  0  0
  145.8474  131.0601  152.5450 C   0  0  0  0  0  0  0  0  0  0  0  0
  146.7415  133.3220  152.3390 N   0  0  0  0  0  0  0  0  0  0  0  0
  147.7992  133.9978  152.8238 N   0  0  0  0  0  0  0  0  0  0  0  0
  147.5623  138.0430  154.9077 C   0  0  2  0  0  0  0  0  0  0  0  0
  146.4238  137.2517  154.2685 C   0  0  0  0  0  0  0  0  0  0  0  0
  148.5163  138.8632  154.0279 C   0  0  1  0  0  0  0  0  0  0  0  0
  148.2350  140.2538  153.9649 O   0  0  0  0  0  0  0  0  0  0  0  0
  147.2017  140.5718  153.0497 C   0  0  0  0  0  0  0  0  0  0  0  0
  147.9589  134.9681  152.5928 H   0  0  0  0  0  0  0  0  0  0  0  0
  150.7168  141.5559  156.4897 H   0  0  0  0  0  0  0  0  0  0  0  0
  149.6983  141.4721  155.0657 H   0  0  0  0  0  0  0  0  0  0  0  0
  151.3418  140.8358  155.0128 H   0  0  0  0  0  0  0  0  0  0  0  0
  150.6751  139.1680  156.8119 H   0  0  0  0  0  0  0  0  0  0  0  0
  149.0435  139.7055  156.7137 H   0  0  0  0  0  0  0  0  0  0  0  0
  150.9126  137.4152  153.5483 H   0  0  0  0  0  0  0  0  0  0  0  0
  151.3237  139.0872  153.6601 H   0  0  0  0  0  0  0  0  0  0  0  0
  153.1399  137.8695  154.6193 H   0  0  0  0  0  0  0  0  0  0  0  0
  152.0974  136.9923  155.7220 H   0  0  0  0  0  0  0  0  0  0  0  0
  152.3446  138.7277  155.9328 H   0  0  0  0  0  0  0  0  0  0  0  0
  148.7721  137.1869  156.5226 H   0  0  0  0  0  0  0  0  0  0  0  0
  149.0753  136.1373  153.7014 H   0  0  0  0  0  0  0  0  0  0  0  0
  150.5209  134.1521  153.5857 H   0  0  0  0  0  0  0  0  0  0  0  0
  150.3167  133.0012  154.8896 H   0  0  0  0  0  0  0  0  0  0  0  0
  148.3659  131.1366  154.2484 H   0  0  0  0  0  0  0  0  0  0  0  0
  145.9444  130.2036  153.2123 H   0  0  0  0  0  0  0  0  0  0  0  0
  145.9629  130.6998  151.5227 H   0  0  0  0  0  0  0  0  0  0  0  0
  144.8339  131.4480  152.6509 H   0  0  0  0  0  0  0  0  0  0  0  0
  147.1710  138.6798  155.7030 H   0  0  0  0  0  0  0  0  0  0  0  0
  146.7446  136.7456  153.3577 H   0  0  0  0  0  0  0  0  0  0  0  0
  145.5902  137.9014  154.0033 H   0  0  0  0  0  0  0  0  0  0  0  0
  146.0410  136.4935  154.9515 H   0  0  0  0  0  0  0  0  0  0  0  0
  148.6596  138.4174  153.0409 H   0  0  0  0  0  0  0  0  0  0  0  0
  147.0656  141.6526  153.0157 H   0  0  0  0  0  0  0  0  0  0  0  0
  146.2536  140.1259  153.3495 H   0  0  0  0  0  0  0  0  0  0  0  0
  147.4472  140.2324  152.0426 H   0  0  0  0  0  0  0  0  0  0  0  0
  1  2  1  0  0  0  0
  1 23  1  0  0  0  0
  1 24  1  0  0  0  0
  1 25  1  0  0  0  0
  2  3  1  0  0  0  0
  2 26  1  0  0  0  0
  2 27  1  0  0  0  0
  3 19  1  0  0  0  0
  3  4  1  0  0  0  0
  3  6  1  0  0  0  0
  4  5  1  0  0  0  0
  4 28  1  0  0  0  0
  4 29  1  0  0  0  0
  5 30  1  0  0  0  0
  5 31  1  0  0  0  0
  5 32  1  0  0  0  0
  6  7  1  0  0  0  0
  6 17  1  0  0  0  0
  6 33  1  0  0  0  0
  7  8  1  0  0  0  0
  7 34  1  0  0  0  0
  8  9  2  0  0  0  0
  8 10  1  0  0  0  0
 10 35  1  0  0  0  0
 10 36  1  0  0  0  0
 10 11  1  0  0  0  0
 11 16  1  0  0  0  0
 11 12  2  0  0  0  0
 12 13  1  0  0  0  0
 12 37  1  0  0  0  0
 13 14  1  0  0  0  0
 13 15  2  0  0  0  0
 14 38  1  0  0  0  0
 14 39  1  0  0  0  0
 14 40  1  0  0  0  0
 15 16  1  0  0  0  0
 16 22  1  0  0  0  0
 17 18  1  0  0  0  0
 17 19  1  0  0  0  0
 17 41  1  0  0  0  0
 18 42  1  0  0  0  0
 18 43  1  0  0  0  0
 18 44  1  0  0  0  0
 19 20  1  0  0  0  0
 19 45  1  0  0  0  0
 20 21  1  0  0  0  0
 21 46  1  0  0  0  0
 21 47  1  0  0  0  0
 21 48  1  0  0  0  0
M  END
> <s_m_source_file>
AV-unprocessed.smi

> <i_m_source_file_index>
2510

> <i_lp_mmshare_version>
43012

> <i_f3d_flags>
0

> <s_epik_input>
W0NIM11PW0NAQEhdMVtDQEhdKFtDSDNdKVtDQEBIXShDMShbQ0gyXVtDSDNdKVtDSDJdW0NIM10pW05IXUMoPU8pW0NIMl1jMltjSF1jKFtDSDNdKVtuSF1uMg==

> <s_epik_cmdline>
J2VwaWtfcHl0aG9uJywgJy1waCcsICc3LjAnLCAnLXRuJywgJzgnLCAnLW1hJywgJzIwMCcsICctbWV0YWxfYmluZGluZycsICctaW1hZScsICc8aW5maWxlLm1hZT4nLCAnLW9tYWUnLCAnPG91dGZpbGUubWFlPic=

> <r_lp_tautomer_probability>
0.5

> <r_epik_Ionization_Penalty>
0.000134763

> <r_epik_Ionization_Penalty_Charging>
0

> <r_epik_Ionization_Penalty_Neutral>
0.000134763

> <r_epik_State_Penalty>
0.41068

> <r_epik_Charging_Adjusted_Penalty>
0.41068

> <i_epik_Tot_Q>
0

> <i_epik_Tot_abs_Q>
0

> <r_epik_Metal_State_Penalty>
0.410661

> <b_epik_Metal_Only>
0

> <s_lp_Force_Field>
OPLS_2005

> <r_lp_Energy>
24.0531

> <b_lp_Chiralities_Consistent>
1

> <s_lp_Variant>
AV-unprocessed.smi:2510-12

> <Gold.Version>
5.8.1

> <Gold.Id.Protein>
6NUR|6NUR_protein|mol2

> <Gold.PLP.Fitness>
36.1527

> <Gold.PLP.PLP>
-30.8423

> <Gold.PLP.part.hbond>
-2.0000

> <Gold.PLP.part.metal>
0.0000

> <Gold.PLP.part.buried>
-3.7357

> <Gold.PLP.part.nonpolar>
-24.9306

> <Gold.PLP.part.repulsive>
0.2877

> <Gold.PLP.ligand.clash>
0.0000

> <Gold.PLP.ligand.torsion>
0.6189

> <Gold.PLP.Chemscore.Hbond>
1.9920

> <Gold.PLP.Chemscore.CHOScore>
0.0000

> <Gold.PLP.Chemscore.Metal>
0.0000

> <Gold.Chemscore.Hbonds>
donor molecule, donor type, donor heavy atom, donor atom, acceptor molecule, acceptor atom, score
      L1  H     7    34       P1  7948  1.00
      L1  H    16    22       P1  7948  0.98

> <Gold.PLP.Chemscore.Internal.Correction>
0.5723

> <Gold.Rescore>
     Score         DG    S(hbond)    S(metal)    S(lipo)     H(rot)  DE(clash)    DE(int)     intcor
     15.35     -16.04       1.82        0.00      77.77       1.81       0.01       0.67       ----

> <Gold.Chemscore.Fitness>
15.3530

> <Gold.Chemscore.DG>
-16.0358

> <Gold.Chemscore.ZeroCoef>
-5.4800

> <Gold.Chemscore.Hbond>
1.8237

> <Gold.Chemscore.Metal>
0.0000

> <Gold.Chemscore.Lipo>
77.7668

> <Gold.Chemscore.Internal_Hbond>
0.0000

> <Gold.Chemscore.DEClash>
0.0106

> <Gold.Chemscore.DEInternal>
0.6722

> <Gold.Chemscore.Rot>
1.8102

> <Gold.Chemscore.Internal.Correction>
   9.000000E+99

> <Gold.Chemscore.Hbonds>
donor molecule, donor type, donor heavy atom, donor atom, acceptor molecule, acceptor atom, score
      L1  H     7    34       P1  7948  0.96
      L1  H    16    22       P1  7948  0.85

> <Gold.Chemscore.Hbond.Weighted>
-6.0912

> <Gold.Chemscore.Metal.Weighted>
-0.0000

> <Gold.Chemscore.Lipo.Weighted>
-9.0987

> <Gold.Chemscore.Internal_Hbond.Weighted>
0.0000

> <Gold.Chemscore.DEClash.Weighted>
0.0106

> <Gold.Chemscore.DEInternal.Weighted>
0.6722

> <Gold.Chemscore.Rot.Weighted>
4.6341

> <Gold.Chemscore.Internal.Correction.Weighted>
   9.000000E+99

> <Gold.Protein.RotatedTorsions>
[ 6907 6896 6895 6894 ] final  -75.08 input  -60.11 | X-H torsion
[ 7974 7965 7964 7962 ] final -167.20 input  175.53 | X-H torsion
[ 8008 7997 7996 7995 ] final  -70.83 input   59.86 | X-H torsion
[ 10167 10162 10161 10158 ] final    0.79 input  -65.29 | X-H torsion
[ 10718 10713 10712 10709 ] final -101.58 input   66.30 | X-H torsion
[ 10763 10752 10751 10750 ] final  161.56 input  -60.55 | X-H torsion
[ 11005 11000 10999 10996 ] final   86.26 input  -57.11 | X-H torsion

> <Gold.Protein.ActiveResidues>
 VAL166  LYS551  ARG553  GLY616  TRP617  ASP618  TYR619  PRO620  LYS621  CYS622 
 ASP623  PHE694  ASN695  SER759  ASP760  ASP761  ALA762  ILE779  LEU786  VAL792 
 PHE793  MET794  SER795  GLU796  ALA797  LYS798  CYS799  TRP800  GLU811  SER814 

> <Gold.Protein.RotatedAtoms>
  150.7071  134.4774  159.5453 H   0  0  0  0  0  0  0  0  0  0  0  0  # atno 6907 bound_to 6896
  152.2418  134.8218  160.0468 H   0  0  0  0  0  0  0  0  0  0  0  0  # atno 6908 bound_to 6896
  151.8997  133.3500  159.3863 H   0  0  0  0  0  0  0  0  0  0  0  0  # atno 6909 bound_to 6896
  144.7228  140.2553  143.6272 H   0  0  0  0  0  0  0  0  0  0  0  0  # atno 7974 bound_to 7965
  154.5041  140.0827  156.7858 H   0  0  0  0  0  0  0  0  0  0  0  0  # atno 8008 bound_to 7997
  155.3934  140.3433  155.4234 H   0  0  0  0  0  0  0  0  0  0  0  0  # atno 8009 bound_to 7997
  156.1494  140.1553  156.8782 H   0  0  0  0  0  0  0  0  0  0  0  0  # atno 8010 bound_to 7997
  140.6713  143.7042  150.7928 H   0  0  0  0  0  0  0  0  0  0  0  0  # atno 10167 bound_to 10162
  156.0199  130.5380  150.6983 H   0  0  0  0  0  0  0  0  0  0  0  0  # atno 10718 bound_to 10713
  154.2648  135.2767  155.2763 H   0  0  0  0  0  0  0  0  0  0  0  0  # atno 10763 bound_to 10752
  154.5352  135.5718  153.6796 H   0  0  0  0  0  0  0  0  0  0  0  0  # atno 10764 bound_to 10752
  152.9955  135.6237  154.2800 H   0  0  0  0  0  0  0  0  0  0  0  0  # atno 10765 bound_to 10752
  139.8949  134.8343  156.2696 H   0  0  0  0  0  0  0  0  0  0  0  0  # atno 11005 bound_to 11000
  145.8188  139.2035  143.1950 LP  0  0  0  0  0  0  0  0  0  0  0  0  # atno 17320 bound_to 7965
  146.0532  140.8048  142.9771 LP  0  0  0  0  0  0  0  0  0  0  0  0  # atno 17321 bound_to 7965
  140.0727  143.5045  152.2571 LP  0  0  0  0  0  0  0  0  0  0  0  0  # atno 17342 bound_to 10162
  139.5982  144.7574  151.3235 LP  0  0  0  0  0  0  0  0  0  0  0  0  # atno 17343 bound_to 10162
  157.4649  131.0887  151.0705 LP  0  0  0  0  0  0  0  0  0  0  0  0  # atno 17370 bound_to 10713
  157.1182  130.6050  149.5498 LP  0  0  0  0  0  0  0  0  0  0  0  0  # atno 17371 bound_to 10713
  141.0109  133.7096  156.1111 LP  0  0  0  0  0  0  0  0  0  0  0  0  # atno 17394 bound_to 11000
  140.7368  134.4194  157.5559 LP  0  0  0  0  0  0  0  0  0  0  0  0  # atno 17395 bound_to 11000

$$$$
