AV-unprocessed.smi:1901|AV-procd|sdf|7719|dock1
  -GOLD-   22720 9463D 1   1.00000     0.00000
 Structure written by MMmdl.
 27 28  0  0  0  0  0  0  0  0  2 V2000
  149.4549  136.0526  158.8015 O   0  0  0  0  0  0  0  0  0  0  0  0
  148.8128  137.0919  158.9709 C   0  0  0  0  0  0  0  0  0  0  0  0
  149.1558  138.2025  158.3049 N   0  0  0  0  0  0  0  0  0  0  0  0
  150.2618  138.3061  157.3611 C   0  0  0  0  0  0  0  0  0  0  0  0
  149.7940  138.9033  156.0239 C   0  0  1  0  0  0  0  0  0  0  0  0
  149.2519  140.3129  156.1376 C   0  0  0  0  0  0  0  0  0  0  0  0
  149.3205  140.7913  154.6910 C   0  0  0  0  0  0  0  0  0  0  0  0
  150.4524  140.1395  154.1226 O   0  0  0  0  0  0  0  0  0  0  0  0
  150.8996  139.0948  154.9834 C   0  0  0  0  0  0  0  0  0  0  0  0
  147.7503  137.2541  159.7923 N   0  5  0  0  0  0  0  0  0  0  0  0
  147.4472  136.3046  160.6926 C   0  0  0  0  0  0  0  0  0  0  0  0
  147.3608  136.5440  162.0062 N   0  0  0  0  0  0  0  0  0  0  0  0
  147.0391  135.4118  162.7570 C   0  0  0  0  0  0  0  0  0  0  0  0
  146.8873  134.2815  161.9985 C   0  0  0  0  0  0  0  0  0  0  0  0
  147.1438  134.6080  160.3082 S   0  0  0  0  0  0  0  0  0  0  0  0
  148.6079  139.0343  158.4689 H   0  0  0  0  0  0  0  0  0  0  0  0
  151.0433  138.9342  157.7911 H   0  0  0  0  0  0  0  0  0  0  0  0
  150.6953  137.3169  157.2046 H   0  0  0  0  0  0  0  0  0  0  0  0
  149.0157  138.2688  155.5958 H   0  0  0  0  0  0  0  0  0  0  0  0
  148.2435  140.3525  156.5504 H   0  0  0  0  0  0  0  0  0  0  0  0
  149.9034  140.9234  156.7648 H   0  0  0  0  0  0  0  0  0  0  0  0
  148.4294  140.4784  154.1453 H   0  0  0  0  0  0  0  0  0  0  0  0
  149.4024  141.8757  154.6130 H   0  0  0  0  0  0  0  0  0  0  0  0
  151.8277  139.4166  155.4581 H   0  0  0  0  0  0  0  0  0  0  0  0
  151.1068  138.1821  154.4243 H   0  0  0  0  0  0  0  0  0  0  0  0
  146.9400  135.5017  163.8285 H   0  0  0  0  0  0  0  0  0  0  0  0
  146.6426  133.2831  162.3278 H   0  0  0  0  0  0  0  0  0  0  0  0
  1  2  2  0  0  0  0
  2  3  1  0  0  0  0
  2 10  1  0  0  0  0
  3  4  1  0  0  0  0
  3 16  1  0  0  0  0
  4  5  1  0  0  0  0
  4 17  1  0  0  0  0
  4 18  1  0  0  0  0
  5  9  1  0  0  0  0
  5  6  1  0  0  0  0
  5 19  1  0  0  0  0
  6  7  1  0  0  0  0
  6 20  1  0  0  0  0
  6 21  1  0  0  0  0
  7  8  1  0  0  0  0
  7 22  1  0  0  0  0
  7 23  1  0  0  0  0
  8  9  1  0  0  0  0
  9 24  1  0  0  0  0
  9 25  1  0  0  0  0
 10 11  1  0  0  0  0
 11 15  1  0  0  0  0
 11 12  2  0  0  0  0
 12 13  1  0  0  0  0
 13 14  2  0  0  0  0
 13 26  1  0  0  0  0
 14 15  1  0  0  0  0
 14 27  1  0  0  0  0
M  CHG  1  10  -1
M  END
> <s_m_source_file>
AV-unprocessed.smi

> <i_m_source_file_index>
1901

> <i_lp_mmshare_version>
43012

> <i_f3d_flags>
0

> <s_epik_input>
czFbY0hdW2NIXW5jMVtOSF1DKD1PKVtOSF1bQ0gyXVtDQEBIXTJbQ0gyXVtDSDJdT1tDSDJdMg==

> <s_epik_cmdline>
J2VwaWtfcHl0aG9uJywgJy1waCcsICc3LjAnLCAnLXRuJywgJzgnLCAnLW1hJywgJzIwMCcsICctbWV0YWxfYmluZGluZycsICctaW1hZScsICc8aW5maWxlLm1hZT4nLCAnLW9tYWUnLCAnPG91dGZpbGUubWFlPic=

> <r_lp_tautomer_probability>
0.999

> <r_epik_Ionization_Penalty>
8.4411

> <r_epik_Ionization_Penalty_Charging>
6.72681

> <r_epik_Ionization_Penalty_Neutral>
1.71429

> <r_epik_State_Penalty>
6.72698

> <r_epik_Charging_Adjusted_Penalty>
13.4538

> <i_epik_Tot_Q>
-1

> <i_epik_Tot_abs_Q>
1

> <r_epik_Metal_State_Penalty>
2.64812

> <b_epik_Metal_Only>
1

> <s_lp_Force_Field>
OPLS_2005

> <r_lp_Energy>
14.3262

> <b_lp_Chiralities_Consistent>
1

> <s_lp_Variant>
AV-unprocessed.smi:1901-4

> <Gold.Version>
5.8.1

> <Gold.Id.Protein>
6NUR|6NUR_protein|mol2

> <Gold.PLP.Fitness>
37.6183

> <Gold.PLP.PLP>
-27.6261

> <Gold.PLP.part.hbond>
-4.8662

> <Gold.PLP.part.metal>
0.0000

> <Gold.PLP.part.buried>
-4.2133

> <Gold.PLP.part.nonpolar>
-19.8161

> <Gold.PLP.part.repulsive>
0.7940

> <Gold.PLP.ligand.clash>
0.0000

> <Gold.PLP.ligand.torsion>
0.5861

> <Gold.PLP.Chemscore.Hbond>
3.6964

> <Gold.PLP.Chemscore.CHOScore>
0.0000

> <Gold.PLP.Chemscore.Metal>
0.0000

> <Gold.Chemscore.Hbonds>
donor molecule, donor type, donor heavy atom, donor atom, acceptor molecule, acceptor atom, score
      P1  H  6896  6909       L1     1  1.00
      P1  H  6931  6943       L1    12  0.07
      P1  H  6934  6947       L1    10  1.04
      P1  H  7989  7998       L1     8  0.96

> <Gold.PLP.Chemscore.Internal.Correction>
0.0752

> <Gold.Rescore>
     Score         DG    S(hbond)    S(metal)    S(lipo)     H(rot)  DE(clash)    DE(int)     intcor
     15.88     -16.38       2.65        0.00      45.83       1.30       0.00       0.50       ----

> <Gold.Chemscore.Fitness>
15.8760

> <Gold.Chemscore.DG>
-16.3760

> <Gold.Chemscore.ZeroCoef>
-5.4800

> <Gold.Chemscore.Hbond>
2.6532

> <Gold.Chemscore.Metal>
0.0000

> <Gold.Chemscore.Lipo>
45.8309

> <Gold.Chemscore.Internal_Hbond>
0.0000

> <Gold.Chemscore.DEClash>
0.0000

> <Gold.Chemscore.DEInternal>
0.5000

> <Gold.Chemscore.Rot>
1.3000

> <Gold.Chemscore.Internal.Correction>
   9.000000E+99

> <Gold.Chemscore.Hbonds>
donor molecule, donor type, donor heavy atom, donor atom, acceptor molecule, acceptor atom, score
      P1  H  6896  6909       L1     1  0.94
      P1  H  6931  6943       L1    12  0.01
      P1  H  6934  6947       L1    10  0.13
      P1  H  7989  7998       L1     8  0.73

> <Gold.Chemscore.Hbond.Weighted>
-8.8618

> <Gold.Chemscore.Metal.Weighted>
-0.0000

> <Gold.Chemscore.Lipo.Weighted>
-5.3622

> <Gold.Chemscore.Internal_Hbond.Weighted>
0.0000

> <Gold.Chemscore.DEClash.Weighted>
0.0000

> <Gold.Chemscore.DEInternal.Weighted>
0.5000

> <Gold.Chemscore.Rot.Weighted>
3.3280

> <Gold.Chemscore.Internal.Correction.Weighted>
   9.000000E+99

> <Gold.Protein.RotatedTorsions>
[ 6907 6896 6895 6894 ] final   61.44 input  -60.11 | X-H torsion
[ 7974 7965 7964 7962 ] final  -94.46 input  175.53 | X-H torsion
[ 8008 7997 7996 7995 ] final   79.38 input   59.86 | X-H torsion
[ 10167 10162 10161 10158 ] final -164.18 input  -65.29 | X-H torsion
[ 10718 10713 10712 10709 ] final   10.54 input   66.30 | X-H torsion
[ 10763 10752 10751 10750 ] final   13.10 input  -60.55 | X-H torsion
[ 11005 11000 10999 10996 ] final -169.53 input  -57.11 | X-H torsion

> <Gold.Protein.ActiveResidues>
 VAL166  LYS551  ARG553  GLY616  TRP617  ASP618  TYR619  PRO620  LYS621  CYS622 
 ASP623  PHE694  ASN695  SER759  ASP760  ASP761  ALA762  ILE779  LEU786  VAL792 
 PHE793  MET794  SER795  GLU796  ALA797  LYS798  CYS799  TRP800  GLU811  SER814 

> <Gold.Protein.RotatedAtoms>
  152.4089  134.6159  160.0037 H   0  0  0  0  0  0  0  0  0  0  0  0  # atno 6907 bound_to 6896
  151.6342  133.3324  159.3123 H   0  0  0  0  0  0  0  0  0  0  0  0  # atno 6908 bound_to 6896
  150.7981  134.7097  159.6641 H   0  0  0  0  0  0  0  0  0  0  0  0  # atno 6909 bound_to 6896
  145.3730  140.9508  143.2436 H   0  0  0  0  0  0  0  0  0  0  0  0  # atno 7974 bound_to 7965
  155.8689  140.3450  155.5807 H   0  0  0  0  0  0  0  0  0  0  0  0  # atno 8008 bound_to 7997
  155.7850  140.0863  157.2058 H   0  0  0  0  0  0  0  0  0  0  0  0  # atno 8009 bound_to 7997
  154.4016  140.1494  156.3083 H   0  0  0  0  0  0  0  0  0  0  0  0  # atno 8010 bound_to 7997
  139.6268  144.0516  152.1982 H   0  0  0  0  0  0  0  0  0  0  0  0  # atno 10167 bound_to 10162
  156.9825  130.6011  149.5678 H   0  0  0  0  0  0  0  0  0  0  0  0  # atno 10718 bound_to 10713
  153.1755  135.6819  153.8548 H   0  0  0  0  0  0  0  0  0  0  0  0  # atno 10763 bound_to 10752
  153.7898  135.3170  155.3378 H   0  0  0  0  0  0  0  0  0  0  0  0  # atno 10764 bound_to 10752
  154.8026  135.4768  154.0407 H   0  0  0  0  0  0  0  0  0  0  0  0  # atno 10765 bound_to 10752
  140.5297  134.5628  157.5071 H   0  0  0  0  0  0  0  0  0  0  0  0  # atno 11005 bound_to 11000
  144.8562  139.5245  143.6833 LP  0  0  0  0  0  0  0  0  0  0  0  0  # atno 17320 bound_to 7965
  146.2877  139.7049  142.9184 LP  0  0  0  0  0  0  0  0  0  0  0  0  # atno 17321 bound_to 7965
  140.0171  144.6180  150.7598 LP  0  0  0  0  0  0  0  0  0  0  0  0  # atno 17342 bound_to 10162
  140.7416  143.2820  151.3571 LP  0  0  0  0  0  0  0  0  0  0  0  0  # atno 17343 bound_to 10162
  156.0239  130.5333  150.8352 LP  0  0  0  0  0  0  0  0  0  0  0  0  # atno 17370 bound_to 10713
  157.5516  131.0944  150.9687 LP  0  0  0  0  0  0  0  0  0  0  0  0  # atno 17371 bound_to 10713
  139.9561  134.7533  156.0340 LP  0  0  0  0  0  0  0  0  0  0  0  0  # atno 17394 bound_to 11000
  141.1288  133.6592  156.3408 LP  0  0  0  0  0  0  0  0  0  0  0  0  # atno 17395 bound_to 11000

$$$$
