AV-unprocessed.smi:657|AV-procd|sdf|3227|dock1
  -GOLD-   22720 0163D 1   1.00000     0.00000
 Structure written by MMmdl.
 46 47  0  0  0  0  0  0  0  0  3 V2000
  150.2377  137.4793  155.6634 C   0  0  0  0  0  0  0  0  0  0  0  0
  150.6959  138.2748  154.4219 C   0  0  0  0  0  0  0  0  0  0  0  0
  152.1190  138.8078  154.6897 C   0  0  0  0  0  0  0  0  0  0  0  0
  149.7356  139.3698  154.0478 N   0  3  1  0  0  0  0  0  0  0  0  0
  148.3177  138.9121  153.8963 C   0  0  0  0  0  0  0  0  0  0  0  0
  147.3878  140.0226  153.3770 C   0  0  0  0  0  0  0  0  0  0  0  0
  147.4657  141.2776  154.2469 C   0  0  0  0  0  0  0  0  0  0  0  0
  148.9237  141.7414  154.3120 C   0  0  0  0  0  0  0  0  0  0  0  0
  149.8668  140.6390  154.8460 C   0  0  1  0  0  0  0  0  0  0  0  0
  149.7241  140.4711  156.3797 C   0  0  0  0  0  0  0  0  0  0  0  0
  148.6441  140.1003  156.8515 O   0  0  0  0  0  0  0  0  0  0  0  0
  150.8819  140.8077  157.0143 N   0  5  0  0  0  0  0  0  0  0  0  0
  150.9633  141.1503  158.4358 C   0  0  0  0  0  0  0  0  0  0  0  0
  151.7500  142.4660  158.6395 C   0  0  0  0  0  0  0  0  0  0  0  0
  152.5053  142.5354  159.9490 C   0  0  0  0  0  0  0  0  0  0  0  0
  153.6067  141.7406  160.3849 C   0  0  0  0  0  0  0  0  0  0  0  0
  154.0137  142.0470  161.6062 N   0  0  0  0  0  0  0  0  0  0  0  0
  153.1971  143.0492  161.9897 N   0  0  0  0  0  0  0  0  0  0  0  0
  153.3511  143.6340  163.3040 C   0  0  0  0  0  0  0  0  0  0  0  0
  152.2895  143.3751  161.0064 C   0  0  0  0  0  0  0  0  0  0  0  0
  150.9964  136.7582  155.9687 H   0  0  0  0  0  0  0  0  0  0  0  0
  149.3335  136.9010  155.4753 H   0  0  0  0  0  0  0  0  0  0  0  0
  150.0504  138.1379  156.5120 H   0  0  0  0  0  0  0  0  0  0  0  0
  150.7655  137.5757  153.5877 H   0  0  0  0  0  0  0  0  0  0  0  0
  152.7638  138.0224  155.0854 H   0  0  0  0  0  0  0  0  0  0  0  0
  152.1104  139.6208  155.4162 H   0  0  0  0  0  0  0  0  0  0  0  0
  152.6055  139.1632  153.7821 H   0  0  0  0  0  0  0  0  0  0  0  0
  148.2547  138.0996  153.1756 H   0  0  0  0  0  0  0  0  0  0  0  0
  147.9404  138.5110  154.8361 H   0  0  0  0  0  0  0  0  0  0  0  0
  147.6588  140.2739  152.3508 H   0  0  0  0  0  0  0  0  0  0  0  0
  146.3603  139.6591  153.3431 H   0  0  0  0  0  0  0  0  0  0  0  0
  146.8383  142.0659  153.8305 H   0  0  0  0  0  0  0  0  0  0  0  0
  147.0821  141.0699  155.2464 H   0  0  0  0  0  0  0  0  0  0  0  0
  149.2494  142.0387  153.3144 H   0  0  0  0  0  0  0  0  0  0  0  0
  148.9993  142.6397  154.9257 H   0  0  0  0  0  0  0  0  0  0  0  0
  150.8680  141.0207  154.6416 H   0  0  0  0  0  0  0  0  0  0  0  0
  149.9816  141.2445  158.9022 H   0  0  0  0  0  0  0  0  0  0  0  0
  151.4667  140.3591  158.9915 H   0  0  0  0  0  0  0  0  0  0  0  0
  152.4435  142.5819  157.8065 H   0  0  0  0  0  0  0  0  0  0  0  0
  151.0600  143.3065  158.5540 H   0  0  0  0  0  0  0  0  0  0  0  0
  154.1087  140.9437  159.8560 H   0  0  0  0  0  0  0  0  0  0  0  0
  152.5099  144.2937  163.5191 H   0  0  0  0  0  0  0  0  0  0  0  0
  154.2759  144.2102  163.3440 H   0  0  0  0  0  0  0  0  0  0  0  0
  153.3836  142.8475  164.0587 H   0  0  0  0  0  0  0  0  0  0  0  0
  151.5580  144.1578  161.1428 H   0  0  0  0  0  0  0  0  0  0  0  0
  150.0110  139.6411  153.1154 H   0  0  0  0  0  0  0  0  0  0  0  0
  1  2  1  0  0  0  0
  1 21  1  0  0  0  0
  1 22  1  0  0  0  0
  1 23  1  0  0  0  0
  2  3  1  0  0  0  0
  2  4  1  0  0  0  0
  2 24  1  0  0  0  0
  3 25  1  0  0  0  0
  3 26  1  0  0  0  0
  3 27  1  0  0  0  0
  4  9  1  0  0  0  0
  4  5  1  0  0  0  0
  4 46  1  0  0  0  0
  5  6  1  0  0  0  0
  5 28  1  0  0  0  0
  5 29  1  0  0  0  0
  6  7  1  0  0  0  0
  6 30  1  0  0  0  0
  6 31  1  0  0  0  0
  7  8  1  0  0  0  0
  7 32  1  0  0  0  0
  7 33  1  0  0  0  0
  8  9  1  0  0  0  0
  8 34  1  0  0  0  0
  8 35  1  0  0  0  0
  9 10  1  0  0  0  0
  9 36  1  0  0  0  0
 10 11  2  0  0  0  0
 10 12  1  0  0  0  0
 12 13  1  0  0  0  0
 13 14  1  0  0  0  0
 13 37  1  0  0  0  0
 13 38  1  0  0  0  0
 14 15  1  0  0  0  0
 14 39  1  0  0  0  0
 14 40  1  0  0  0  0
 15 20  2  0  0  0  0
 15 16  1  0  0  0  0
 16 17  2  0  0  0  0
 16 41  1  0  0  0  0
 17 18  1  0  0  0  0
 18 19  1  0  0  0  0
 18 20  1  0  0  0  0
 19 42  1  0  0  0  0
 19 43  1  0  0  0  0
 19 44  1  0  0  0  0
 20 45  1  0  0  0  0
M  CHG  1   4   1
M  CHG  1  12  -1
M  END
> <s_m_source_file>
AV-unprocessed.smi

> <i_m_source_file_index>
657

> <i_lp_mmshare_version>
43012

> <i_f3d_flags>
0

> <s_epik_input>
W0NIM11bQ0hdKFtDSDNdKU4xW0NIMl1bQ0gyXVtDSDJdW0NIMl1bQ0BIXTFDKD1PKVtOSF1bQ0gyXVtDSDJdYzJbY0hdbm4oW0NIM10pW2NIXTI=

> <s_epik_cmdline>
J2VwaWtfcHl0aG9uJywgJy1waCcsICc3LjAnLCAnLXRuJywgJzgnLCAnLW1hJywgJzIwMCcsICctbWV0YWxfYmluZGluZycsICctaW1hZScsICc8aW5maWxlLm1hZT4nLCAnLW9tYWUnLCAnPG91dGZpbGUubWFlPic=

> <r_lp_tautomer_probability>
1

> <r_epik_Ionization_Penalty>
6.1622

> <r_epik_Ionization_Penalty_Charging>
6.16146

> <r_epik_Ionization_Penalty_Neutral>
0.00073675

> <r_epik_State_Penalty>
6.18018

> <r_epik_Charging_Adjusted_Penalty>
12.3416

> <i_epik_Tot_Q>
0

> <i_epik_Tot_abs_Q>
2

> <r_epik_Metal_State_Penalty>
2.12232

> <b_epik_Metal_Only>
1

> <s_lp_Force_Field>
OPLS_2005

> <r_lp_Energy>
12.187

> <b_lp_Chiralities_Consistent>
1

> <s_lp_Variant>
AV-unprocessed.smi:657-8

> <Gold.Version>
5.8.1

> <Gold.Id.Protein>
6NUR|6NUR_protein|mol2

> <Gold.PLP.Fitness>
47.0329

> <Gold.PLP.PLP>
-44.9782

> <Gold.PLP.part.hbond>
-1.7536

> <Gold.PLP.part.metal>
0.0000

> <Gold.PLP.part.buried>
-2.9733

> <Gold.PLP.part.nonpolar>
-39.1560

> <Gold.PLP.part.repulsive>
0.1204

> <Gold.PLP.ligand.clash>
0.0000

> <Gold.PLP.ligand.torsion>
0.5964

> <Gold.PLP.Chemscore.Hbond>
0.9913

> <Gold.PLP.Chemscore.CHOScore>
0.0000

> <Gold.PLP.Chemscore.Metal>
0.0000

> <Gold.Chemscore.Hbonds>
donor molecule, donor type, donor heavy atom, donor atom, acceptor molecule, acceptor atom, score
      L1  H     4    46       P1  7957  1.00

> <Gold.PLP.Chemscore.Internal.Correction>
0.2737

> <Gold.Rescore>
     Score         DG    S(hbond)    S(metal)    S(lipo)     H(rot)  DE(clash)    DE(int)     intcor
     16.89     -17.58       0.98        0.00     109.91       1.57       0.10       0.60       ----

> <Gold.Chemscore.Fitness>
16.8885

> <Gold.Chemscore.DG>
-17.5828

> <Gold.Chemscore.ZeroCoef>
-5.4800

> <Gold.Chemscore.Hbond>
0.9799

> <Gold.Chemscore.Metal>
0.0000

> <Gold.Chemscore.Lipo>
109.9119

> <Gold.Chemscore.Internal_Hbond>
0.0000

> <Gold.Chemscore.DEClash>
0.0975

> <Gold.Chemscore.DEInternal>
0.5967

> <Gold.Chemscore.Rot>
1.5741

> <Gold.Chemscore.Internal.Correction>
   9.000000E+99

> <Gold.Chemscore.Hbonds>
donor molecule, donor type, donor heavy atom, donor atom, acceptor molecule, acceptor atom, score
      L1  H     4    46       P1  7957  0.90

> <Gold.Chemscore.Hbond.Weighted>
-3.2727

> <Gold.Chemscore.Metal.Weighted>
-0.0000

> <Gold.Chemscore.Lipo.Weighted>
-12.8597

> <Gold.Chemscore.Internal_Hbond.Weighted>
0.0000

> <Gold.Chemscore.DEClash.Weighted>
0.0975

> <Gold.Chemscore.DEInternal.Weighted>
0.5967

> <Gold.Chemscore.Rot.Weighted>
4.0297

> <Gold.Chemscore.Internal.Correction.Weighted>
   9.000000E+99

> <Gold.Protein.RotatedTorsions>
[ 6907 6896 6895 6894 ] final   13.87 input  -60.11 | X-H torsion
[ 7974 7965 7964 7962 ] final   58.10 input  175.53 | X-H torsion
[ 8008 7997 7996 7995 ] final   62.16 input   59.86 | X-H torsion
[ 10167 10162 10161 10158 ] final  -14.40 input  -65.29 | X-H torsion
[ 10718 10713 10712 10709 ] final  -39.04 input   66.30 | X-H torsion
[ 10763 10752 10751 10750 ] final  -89.37 input  -60.55 | X-H torsion
[ 11005 11000 10999 10996 ] final -117.60 input  -57.11 | X-H torsion

> <Gold.Protein.ActiveResidues>
 VAL166  LYS551  ARG553  GLY616  TRP617  ASP618  TYR619  PRO620  LYS621  CYS622 
 ASP623  PHE694  ASN695  SER759  ASP760  ASP761  ALA762  ILE779  LEU786  VAL792 
 PHE793  MET794  SER795  GLU796  ALA797  LYS798  CYS799  TRP800  GLU811  SER814 

> <Gold.Protein.RotatedAtoms>
  151.7932  135.0730  160.0389 H   0  0  0  0  0  0  0  0  0  0  0  0  # atno 6907 bound_to 6896
  152.3142  133.5780  159.5709 H   0  0  0  0  0  0  0  0  0  0  0  0  # atno 6908 bound_to 6896
  150.7335  134.0024  159.3684 H   0  0  0  0  0  0  0  0  0  0  0  0  # atno 6909 bound_to 6896
  145.9219  139.3736  143.0473 H   0  0  0  0  0  0  0  0  0  0  0  0  # atno 7974 bound_to 7965
  155.6099  140.3495  155.4619 H   0  0  0  0  0  0  0  0  0  0  0  0  # atno 8008 bound_to 7997
  156.0162  140.1244  157.0428 H   0  0  0  0  0  0  0  0  0  0  0  0  # atno 8009 bound_to 7997
  154.4298  140.1071  156.5885 H   0  0  0  0  0  0  0  0  0  0  0  0  # atno 8010 bound_to 7997
  140.7200  143.5325  150.9503 H   0  0  0  0  0  0  0  0  0  0  0  0  # atno 10167 bound_to 10162
  156.2969  130.4235  149.8182 H   0  0  0  0  0  0  0  0  0  0  0  0  # atno 10718 bound_to 10713
  154.6546  135.5343  153.7943 H   0  0  0  0  0  0  0  0  0  0  0  0  # atno 10763 bound_to 10752
  153.0406  135.6491  154.0965 H   0  0  0  0  0  0  0  0  0  0  0  0  # atno 10764 bound_to 10752
  154.0879  135.2942  155.3257 H   0  0  0  0  0  0  0  0  0  0  0  0  # atno 10765 bound_to 10752
  141.0344  133.9933  157.3094 H   0  0  0  0  0  0  0  0  0  0  0  0  # atno 11005 bound_to 11000
  145.8539  140.9513  143.0735 LP  0  0  0  0  0  0  0  0  0  0  0  0  # atno 17320 bound_to 7965
  144.6754  140.0442  143.7480 LP  0  0  0  0  0  0  0  0  0  0  0  0  # atno 17321 bound_to 7965
  139.9046  143.6794  152.3125 LP  0  0  0  0  0  0  0  0  0  0  0  0  # atno 17342 bound_to 10162
  139.7155  144.7612  151.1040 LP  0  0  0  0  0  0  0  0  0  0  0  0  # atno 17343 bound_to 10162
  156.5574  130.8368  151.3318 LP  0  0  0  0  0  0  0  0  0  0  0  0  # atno 17370 bound_to 10713
  157.7358  130.9767  150.2099 LP  0  0  0  0  0  0  0  0  0  0  0  0  # atno 17371 bound_to 10713
  139.9230  135.0201  156.8133 LP  0  0  0  0  0  0  0  0  0  0  0  0  # atno 17394 bound_to 11000
  140.6349  133.9871  155.7680 LP  0  0  0  0  0  0  0  0  0  0  0  0  # atno 17395 bound_to 11000

$$$$
