AV-unprocessed.smi:1046|AV-procd|sdf|4556|dock4
  -GOLD-   22720 2593D 1   1.00000     0.00000
 Structure written by MMmdl.
 54 56  0  0  0  0  0  0  0  0  3 V2000
  152.8341  143.3516  161.5510 C   0  0  0  0  0  0  0  0  0  0  0  0
  152.2704  142.9075  160.2127 C   0  0  0  0  0  0  0  0  0  0  0  0
  152.2603  141.5308  159.8948 C   0  0  0  0  0  0  0  0  0  0  0  0
  151.7430  141.0759  158.6624 C   0  0  0  0  0  0  0  0  0  0  0  0
  151.6276  139.7937  158.1538 N   0  0  0  0  0  0  0  0  0  0  0  0
  151.0647  140.0227  156.9714 C   0  0  0  0  0  0  0  0  0  0  0  0
  150.7910  141.3035  156.6569 N   0  0  0  0  0  0  0  0  0  0  0  0
  150.1686  141.7875  155.4385 C   0  0  0  0  0  0  0  0  0  0  0  0
  149.2382  140.7403  154.7949 C   0  0  2  0  0  0  0  0  0  0  0  0
  150.0290  139.9098  153.9692 O   0  0  0  0  0  0  0  0  0  0  0  0
  148.1070  141.3581  153.9430 C   0  0  0  0  0  0  0  0  0  0  0  0
  147.2151  142.2479  154.7309 N   0  3  2  0  0  0  0  0  0  0  0  0
  146.7825  141.6221  156.0053 C   0  0  0  0  0  0  0  0  0  0  0  0
  145.9391  142.5984  156.8464 C   0  0  0  0  0  0  0  0  0  0  0  0
  144.7653  143.1031  156.0915 N   0  3  2  0  0  0  0  0  0  0  0  0
  143.6564  142.1163  155.9864 C   0  0  0  0  0  0  0  0  0  0  0  0
  142.2757  142.7901  155.9138 C   0  0  0  0  0  0  0  0  0  0  0  0
  142.1670  143.5385  154.7217 O   0  0  0  0  0  0  0  0  0  0  0  0
  145.1833  143.7112  154.8012 C   0  0  0  0  0  0  0  0  0  0  0  0
  146.0515  142.7550  153.9567 C   0  0  0  0  0  0  0  0  0  0  0  0
  151.2324  142.0440  157.7489 C   0  0  0  0  0  0  0  0  0  0  0  0
  151.2405  143.4171  158.0520 C   0  0  0  0  0  0  0  0  0  0  0  0
  151.7605  143.8542  159.2883 C   0  0  0  0  0  0  0  0  0  0  0  0
  151.7635  145.3385  159.6080 C   0  0  0  0  0  0  0  0  0  0  0  0
  153.1430  142.4989  162.1562 H   0  0  0  0  0  0  0  0  0  0  0  0
  152.0861  143.9079  162.1161 H   0  0  0  0  0  0  0  0  0  0  0  0
  153.7045  143.9915  161.4046 H   0  0  0  0  0  0  0  0  0  0  0  0
  152.6509  140.8101  160.5983 H   0  0  0  0  0  0  0  0  0  0  0  0
  150.8304  139.2117  156.2972 H   0  0  0  0  0  0  0  0  0  0  0  0
  149.6183  142.7007  155.6688 H   0  0  0  0  0  0  0  0  0  0  0  0
  150.9597  142.0694  154.7418 H   0  0  0  0  0  0  0  0  0  0  0  0
  148.8208  140.1215  155.5887 H   0  0  0  0  0  0  0  0  0  0  0  0
  149.5966  139.8106  153.1341 H   0  0  0  0  0  0  0  0  0  0  0  0
  148.5102  141.9275  153.1050 H   0  0  0  0  0  0  0  0  0  0  0  0
  147.5251  140.5458  153.5042 H   0  0  0  0  0  0  0  0  0  0  0  0
  146.2166  140.7135  155.7939 H   0  0  0  0  0  0  0  0  0  0  0  0
  147.6586  141.3212  156.5812 H   0  0  0  0  0  0  0  0  0  0  0  0
  145.6211  142.1293  157.7781 H   0  0  0  0  0  0  0  0  0  0  0  0
  146.5547  143.4521  157.1333 H   0  0  0  0  0  0  0  0  0  0  0  0
  143.8042  141.4717  155.1201 H   0  0  0  0  0  0  0  0  0  0  0  0
  143.6665  141.4563  156.8551 H   0  0  0  0  0  0  0  0  0  0  0  0
  141.4605  142.0698  155.9718 H   0  0  0  0  0  0  0  0  0  0  0  0
  142.1542  143.4715  156.7563 H   0  0  0  0  0  0  0  0  0  0  0  0
  142.3280  142.9641  153.9876 H   0  0  0  0  0  0  0  0  0  0  0  0
  144.3188  144.0447  154.2284 H   0  0  0  0  0  0  0  0  0  0  0  0
  145.7583  144.6110  155.0248 H   0  0  0  0  0  0  0  0  0  0  0  0
  146.3932  143.2866  153.0693 H   0  0  0  0  0  0  0  0  0  0  0  0
  145.4555  141.9139  153.6009 H   0  0  0  0  0  0  0  0  0  0  0  0
  150.8496  144.1288  157.3402 H   0  0  0  0  0  0  0  0  0  0  0  0
  151.3774  145.9264  158.7748 H   0  0  0  0  0  0  0  0  0  0  0  0
  152.7762  145.6831  159.8184 H   0  0  0  0  0  0  0  0  0  0  0  0
  151.1407  145.5415  160.4795 H   0  0  0  0  0  0  0  0  0  0  0  0
  147.7748  143.0500  154.9856 H   0  0  0  0  0  0  0  0  0  0  0  0
  144.3828  143.8526  156.6522 H   0  0  0  0  0  0  0  0  0  0  0  0
  1  2  1  0  0  0  0
  1 25  1  0  0  0  0
  1 26  1  0  0  0  0
  1 27  1  0  0  0  0
  2 23  1  0  0  0  0
  2  3  2  0  0  0  0
  3  4  1  0  0  0  0
  3 28  1  0  0  0  0
  4 21  2  0  0  0  0
  4  5  1  0  0  0  0
  5  6  2  0  0  0  0
  6  7  1  0  0  0  0
  6 29  1  0  0  0  0
  7  8  1  0  0  0  0
  7 21  1  0  0  0  0
  8  9  1  0  0  0  0
  8 30  1  0  0  0  0
  8 31  1  0  0  0  0
  9 10  1  0  0  0  0
  9 11  1  0  0  0  0
  9 32  1  0  0  0  0
 10 33  1  0  0  0  0
 11 12  1  0  0  0  0
 11 34  1  0  0  0  0
 11 35  1  0  0  0  0
 12 20  1  0  0  0  0
 12 13  1  0  0  0  0
 12 53  1  0  0  0  0
 13 14  1  0  0  0  0
 13 36  1  0  0  0  0
 13 37  1  0  0  0  0
 14 15  1  0  0  0  0
 14 38  1  0  0  0  0
 14 39  1  0  0  0  0
 15 16  1  0  0  0  0
 15 19  1  0  0  0  0
 15 54  1  0  0  0  0
 16 17  1  0  0  0  0
 16 40  1  0  0  0  0
 16 41  1  0  0  0  0
 17 18  1  0  0  0  0
 17 42  1  0  0  0  0
 17 43  1  0  0  0  0
 18 44  1  0  0  0  0
 19 20  1  0  0  0  0
 19 45  1  0  0  0  0
 19 46  1  0  0  0  0
 20 47  1  0  0  0  0
 20 48  1  0  0  0  0
 21 22  1  0  0  0  0
 22 23  2  0  0  0  0
 22 49  1  0  0  0  0
 23 24  1  0  0  0  0
 24 50  1  0  0  0  0
 24 51  1  0  0  0  0
 24 52  1  0  0  0  0
M  CHG  1  12   1
M  CHG  1  15   1
M  END
> <s_m_source_file>
AV-unprocessed.smi

> <i_m_source_file_index>
1046

> <i_lp_mmshare_version>
43012

> <i_f3d_flags>
0

> <s_epik_input>
W0NIM11jKFtjSF0xKWMoW0NIM10pW2NIXWMoYzEyKW4oW2NIXW4yKVtDSDJdW0NASF0oW09IXSlbQ0gyXU4zW0NIMl1bQ0gyXU4oW0NIMl1bQ0gyXTMpW0NIMl1bQ0gyXVtPSF0=

> <s_epik_cmdline>
J2VwaWtfcHl0aG9uJywgJy1waCcsICc3LjAnLCAnLXRuJywgJzgnLCAnLW1hJywgJzIwMCcsICctbWV0YWxfYmluZGluZycsICctaW1hZScsICc8aW5maWxlLm1hZT4nLCAnLW9tYWUnLCAnPG91dGZpbGUubWFlPic=

> <r_epik_Ionization_Penalty>
3.17398

> <r_epik_Ionization_Penalty_Charging>
3.09061

> <r_epik_Ionization_Penalty_Neutral>
0.0833726

> <r_epik_State_Penalty>
2.17606

> <r_epik_Charging_Adjusted_Penalty>
5.26667

> <i_epik_Tot_Q>
2

> <i_epik_Tot_abs_Q>
2

> <r_epik_Metal_State_Penalty>
2.08587

> <b_epik_Metal_Only>
0

> <s_lp_Force_Field>
OPLS_2005

> <r_lp_Energy>
31.2877

> <b_lp_Chiralities_Consistent>
1

> <s_lp_Variant>
AV-unprocessed.smi:1046-9

> <Gold.Version>
5.8.1

> <Gold.Id.Protein>
6NUR|6NUR_protein|mol2

> <Gold.PLP.Fitness>
63.7321

> <Gold.PLP.PLP>
-50.7038

> <Gold.PLP.part.hbond>
-3.9888

> <Gold.PLP.part.metal>
0.0000

> <Gold.PLP.part.buried>
-6.5340

> <Gold.PLP.part.nonpolar>
-39.0389

> <Gold.PLP.part.repulsive>
0.1252

> <Gold.PLP.ligand.clash>
0.0000

> <Gold.PLP.ligand.torsion>
1.0185

> <Gold.PLP.Chemscore.Hbond>
4.9280

> <Gold.PLP.Chemscore.CHOScore>
0.0000

> <Gold.PLP.Chemscore.Metal>
0.0000

> <Gold.Chemscore.Hbonds>
donor molecule, donor type, donor heavy atom, donor atom, acceptor molecule, acceptor atom, score
      L1  H    10    33       P1  7957  0.99
      L1  H    12    53       P1  8028  1.76
      L1  H    18    44       P1 10174  1.00
      P1  H  7989  7998       L1    10  0.93

> <Gold.PLP.Chemscore.Internal.Correction>
0.2813

> <Gold.Rescore>
     Score         DG    S(hbond)    S(metal)    S(lipo)     H(rot)  DE(clash)    DE(int)     intcor
     20.11     -21.57       2.98        0.00     124.38       3.28       0.33       1.12       ----

> <Gold.Chemscore.Fitness>
20.1137

> <Gold.Chemscore.DG>
-21.5659

> <Gold.Chemscore.ZeroCoef>
-5.4800

> <Gold.Chemscore.Hbond>
2.9752

> <Gold.Chemscore.Metal>
0.0000

> <Gold.Chemscore.Lipo>
124.3825

> <Gold.Chemscore.Internal_Hbond>
0.0000

> <Gold.Chemscore.DEClash>
0.3307

> <Gold.Chemscore.DEInternal>
1.1215

> <Gold.Chemscore.Rot>
3.2828

> <Gold.Chemscore.Internal.Correction>
   9.000000E+99

> <Gold.Chemscore.Hbonds>
donor molecule, donor type, donor heavy atom, donor atom, acceptor molecule, acceptor atom, score
      L1  H    10    33       P1  7957  0.91
      L1  H    12    53       P1  8028  0.64
      L1  H    18    44       P1 10174  0.98
      P1  H  7989  7998       L1    10  0.19

> <Gold.Chemscore.Hbond.Weighted>
-9.9371

> <Gold.Chemscore.Metal.Weighted>
-0.0000

> <Gold.Chemscore.Lipo.Weighted>
-14.5528

> <Gold.Chemscore.Internal_Hbond.Weighted>
0.0000

> <Gold.Chemscore.DEClash.Weighted>
0.3307

> <Gold.Chemscore.DEInternal.Weighted>
1.1215

> <Gold.Chemscore.Rot.Weighted>
8.4039

> <Gold.Chemscore.Internal.Correction.Weighted>
   9.000000E+99

> <Gold.Protein.RotatedTorsions>
[ 6907 6896 6895 6894 ] final -173.74 input  -60.11 | X-H torsion
[ 7974 7965 7964 7962 ] final   23.49 input  175.53 | X-H torsion
[ 8008 7997 7996 7995 ] final  101.45 input   59.86 | X-H torsion
[ 10167 10162 10161 10158 ] final   56.31 input  -65.29 | X-H torsion
[ 10718 10713 10712 10709 ] final  115.94 input   66.30 | X-H torsion
[ 10763 10752 10751 10750 ] final  -54.67 input  -60.55 | X-H torsion
[ 11005 11000 10999 10996 ] final  -52.52 input  -57.11 | X-H torsion

> <Gold.Protein.ActiveResidues>
 VAL166  LYS551  ARG553  GLY616  TRP617  ASP618  TYR619  PRO620  LYS621  CYS622 
 ASP623  PHE694  ASN695  SER759  ASP760  ASP761  ALA762  ILE779  LEU786  VAL792 
 PHE793  MET794  SER795  GLU796  ALA797  LYS798  CYS799  TRP800  GLU811  SER814 

> <Gold.Protein.RotatedAtoms>
  151.5611  133.3403  159.2971 H   0  0  0  0  0  0  0  0  0  0  0  0  # atno 6907 bound_to 6896
  150.8422  134.7721  159.6953 H   0  0  0  0  0  0  0  0  0  0  0  0  # atno 6908 bound_to 6896
  152.4487  134.5447  159.9901 H   0  0  0  0  0  0  0  0  0  0  0  0  # atno 6909 bound_to 6896
  146.1982  139.7737  142.8782 H   0  0  0  0  0  0  0  0  0  0  0  0  # atno 7974 bound_to 7965
  156.1300  140.3197  155.8335 H   0  0  0  0  0  0  0  0  0  0  0  0  # atno 8008 bound_to 7997
  155.4349  140.0521  157.3032 H   0  0  0  0  0  0  0  0  0  0  0  0  # atno 8009 bound_to 7997
  154.4892  140.2085  155.9599 H   0  0  0  0  0  0  0  0  0  0  0  0  # atno 8010 bound_to 7997
  140.2101  144.3897  150.6492 H   0  0  0  0  0  0  0  0  0  0  0  0  # atno 10167 bound_to 10162
  157.6191  131.1019  150.7402 H   0  0  0  0  0  0  0  0  0  0  0  0  # atno 10718 bound_to 10713
  154.1786  135.6447  153.5028 H   0  0  0  0  0  0  0  0  0  0  0  0  # atno 10763 bound_to 10752
  153.0065  135.5400  154.6538 H   0  0  0  0  0  0  0  0  0  0  0  0  # atno 10764 bound_to 10752
  154.5896  135.2933  155.0622 H   0  0  0  0  0  0  0  0  0  0  0  0  # atno 10765 bound_to 10752
  141.0928  133.6629  156.4036 H   0  0  0  0  0  0  0  0  0  0  0  0  # atno 11005 bound_to 11000
  145.3574  141.0319  143.3304 LP  0  0  0  0  0  0  0  0  0  0  0  0  # atno 17320 bound_to 7965
  144.8625  139.5157  143.6806 LP  0  0  0  0  0  0  0  0  0  0  0  0  # atno 17321 bound_to 7965
  140.6329  143.2190  151.6457 LP  0  0  0  0  0  0  0  0  0  0  0  0  # atno 17342 bound_to 10162
  139.5183  144.3288  152.0844 LP  0  0  0  0  0  0  0  0  0  0  0  0  # atno 17343 bound_to 10162
  156.7763  130.4845  149.5409 LP  0  0  0  0  0  0  0  0  0  0  0  0  # atno 17370 bound_to 10713
  156.1327  130.6189  151.0356 LP  0  0  0  0  0  0  0  0  0  0  0  0  # atno 17371 bound_to 10713
  140.5211  134.6303  157.5318 LP  0  0  0  0  0  0  0  0  0  0  0  0  # atno 17394 bound_to 11000
  139.9758  134.7218  155.9953 LP  0  0  0  0  0  0  0  0  0  0  0  0  # atno 17395 bound_to 11000

$$$$
