AV-unprocessed.smi:2973|AV-procd|sdf|11345|dock9
  -GOLD-   2272016263D 1   1.00000     0.00000
 Structure written by MMmdl.
 48 50  0  0  0  0  0  0  0  0  2 V2000
  146.7251  134.0650  158.9450 C   0  0  0  0  0  0  0  0  0  0  0  0
  147.3728  134.5978  160.2429 C   0  0  2  0  0  0  0  0  0  0  0  0
  146.3115  134.6840  161.3629 C   0  0  0  0  0  0  0  0  0  0  0  0
  146.9188  135.1405  162.6974 C   0  0  0  0  0  0  0  0  0  0  0  0
  147.6390  136.4865  162.5487 C   0  0  0  0  0  0  0  0  0  0  0  0
  148.7122  136.4171  161.4488 C   0  0  0  0  0  0  0  0  0  0  0  0
  148.1631  135.9395  160.0774 C   0  0  1  0  0  0  0  0  0  0  0  0
  149.2852  135.7561  159.1732 N   0  5  0  0  0  0  0  0  0  0  0  0
  149.1579  136.6072  158.1291 C   0  0  0  0  0  0  0  0  0  0  0  0
  149.9244  136.7173  157.1727 O   0  0  0  0  0  0  0  0  0  0  0  0
  148.0469  137.3576  158.2499 N   0  0  0  0  0  0  0  0  0  0  0  0
  147.6002  138.3592  157.2726 C   0  0  0  0  0  0  0  0  0  0  0  0
  148.0991  139.7766  157.5872 C   0  0  0  0  0  0  0  0  0  0  0  0
  147.4681  140.5195  158.3404 O   0  0  0  0  0  0  0  0  0  0  0  0
  149.2575  140.1295  157.0103 N   0  0  0  0  0  0  0  0  0  0  0  0
  149.9120  141.4233  157.1648 C   0  0  0  0  0  0  0  0  0  0  0  0
  151.1643  141.3250  158.0515 C   0  0  0  0  0  0  0  0  0  0  0  0
  151.4677  142.6318  158.7602 C   0  0  0  0  0  0  0  0  0  0  0  0
  151.6707  143.8193  158.0249 C   0  0  0  0  0  0  0  0  0  0  0  0
  151.9388  145.0082  158.7309 C   0  0  0  0  0  0  0  0  0  0  0  0
  151.9914  144.9650  160.1374 C   0  0  0  0  0  0  0  0  0  0  0  0
  151.7724  143.7292  160.7783 C   0  0  0  0  0  0  0  0  0  0  0  0
  151.5149  142.5837  160.1110 N   0  0  0  0  0  0  0  0  0  0  0  0
  147.3802  137.0411  159.3652 C   0  0  0  0  0  0  0  0  0  0  0  0
  146.3209  137.5291  159.7617 O   0  0  0  0  0  0  0  0  0  0  0  0
  145.9468  134.7327  158.5749 H   0  0  0  0  0  0  0  0  0  0  0  0
  146.2640  133.0919  159.1135 H   0  0  0  0  0  0  0  0  0  0  0  0
  147.4601  133.9379  158.1502 H   0  0  0  0  0  0  0  0  0  0  0  0
  148.0940  133.8409  160.5566 H   0  0  0  0  0  0  0  0  0  0  0  0
  145.5101  135.3642  161.0739 H   0  0  0  0  0  0  0  0  0  0  0  0
  145.8425  133.7093  161.5009 H   0  0  0  0  0  0  0  0  0  0  0  0
  146.1377  135.2190  163.4538 H   0  0  0  0  0  0  0  0  0  0  0  0
  147.6221  134.3874  163.0551 H   0  0  0  0  0  0  0  0  0  0  0  0
  146.9160  137.2707  162.3251 H   0  0  0  0  0  0  0  0  0  0  0  0
  148.1023  136.7628  163.4961 H   0  0  0  0  0  0  0  0  0  0  0  0
  149.1872  137.3950  161.3506 H   0  0  0  0  0  0  0  0  0  0  0  0
  149.5005  135.7385  161.7789 H   0  0  0  0  0  0  0  0  0  0  0  0
  147.9405  138.0904  156.2716 H   0  0  0  0  0  0  0  0  0  0  0  0
  146.5099  138.3595  157.2231 H   0  0  0  0  0  0  0  0  0  0  0  0
  149.7106  139.4562  156.4095 H   0  0  0  0  0  0  0  0  0  0  0  0
  150.1894  141.7797  156.1724 H   0  0  0  0  0  0  0  0  0  0  0  0
  149.2088  142.1526  157.5709 H   0  0  0  0  0  0  0  0  0  0  0  0
  151.0382  140.5404  158.7991 H   0  0  0  0  0  0  0  0  0  0  0  0
  152.0265  141.0363  157.4486 H   0  0  0  0  0  0  0  0  0  0  0  0
  151.6200  143.8216  156.9457 H   0  0  0  0  0  0  0  0  0  0  0  0
  152.0999  145.9367  158.2029 H   0  0  0  0  0  0  0  0  0  0  0  0
  152.1935  145.8571  160.7116 H   0  0  0  0  0  0  0  0  0  0  0  0
  151.8044  143.6590  161.8555 H   0  0  0  0  0  0  0  0  0  0  0  0
  1  2  1  0  0  0  0
  1 26  1  0  0  0  0
  1 27  1  0  0  0  0
  1 28  1  0  0  0  0
  2  7  1  0  0  0  0
  2  3  1  0  0  0  0
  2 29  1  0  0  0  0
  3  4  1  0  0  0  0
  3 30  1  0  0  0  0
  3 31  1  0  0  0  0
  4  5  1  0  0  0  0
  4 32  1  0  0  0  0
  4 33  1  0  0  0  0
  5  6  1  0  0  0  0
  5 34  1  0  0  0  0
  5 35  1  0  0  0  0
  6  7  1  0  0  0  0
  6 36  1  0  0  0  0
  6 37  1  0  0  0  0
  7 24  1  0  0  0  0
  7  8  1  0  0  0  0
  8  9  1  0  0  0  0
  9 10  2  0  0  0  0
  9 11  1  0  0  0  0
 11 12  1  0  0  0  0
 11 24  1  0  0  0  0
 12 13  1  0  0  0  0
 12 38  1  0  0  0  0
 12 39  1  0  0  0  0
 13 14  2  0  0  0  0
 13 15  1  0  0  0  0
 15 16  1  0  0  0  0
 15 40  1  0  0  0  0
 16 17  1  0  0  0  0
 16 41  1  0  0  0  0
 16 42  1  0  0  0  0
 17 18  1  0  0  0  0
 17 43  1  0  0  0  0
 17 44  1  0  0  0  0
 18 23  1  0  0  0  0
 18 19  2  0  0  0  0
 19 20  1  0  0  0  0
 19 45  1  0  0  0  0
 20 21  2  0  0  0  0
 20 46  1  0  0  0  0
 21 22  1  0  0  0  0
 21 47  1  0  0  0  0
 22 23  2  0  0  0  0
 22 48  1  0  0  0  0
 24 25  2  0  0  0  0
M  CHG  1   8  -1
M  END
> <s_m_source_file>
AV-unprocessed.smi

> <i_m_source_file_index>
2973

> <i_lp_mmshare_version>
43012

> <i_f3d_flags>
0

> <s_epik_input>
W0NIMl0xW0NIMl1bQ0gyXVtDSDJdW0NAQEhdKFtDSDNdKVtDQF0xMltOSF1DKD1PKU4oQzI9TylbQ0gyXUMoPU8pW05IXVtDSDJdW0NIMl1jM1tjSF1bY0hdW2NIXVtjSF1uMw==

> <s_epik_cmdline>
J2VwaWtfcHl0aG9uJywgJy1waCcsICc3LjAnLCAnLXRuJywgJzgnLCAnLW1hJywgJzIwMCcsICctbWV0YWxfYmluZGluZycsICctaW1hZScsICc8aW5maWxlLm1hZT4nLCAnLW9tYWUnLCAnPG91dGZpbGUubWFlPic=

> <r_lp_tautomer_probability>
1

> <r_epik_Ionization_Penalty>
6.04175

> <r_epik_Ionization_Penalty_Charging>
6.01728

> <r_epik_Ionization_Penalty_Neutral>
0.0244696

> <r_epik_State_Penalty>
6.03712

> <r_epik_Charging_Adjusted_Penalty>
12.0544

> <i_epik_Tot_Q>
-1

> <i_epik_Tot_abs_Q>
1

> <r_epik_Metal_State_Penalty>
2.01153

> <b_epik_Metal_Only>
1

> <s_lp_Force_Field>
OPLS_2005

> <r_lp_Energy>
12.5421

> <b_lp_Chiralities_Consistent>
1

> <s_lp_Variant>
AV-unprocessed.smi:2973-9

> <Gold.Version>
5.8.1

> <Gold.Id.Protein>
6NUR|6NUR_protein|mol2

> <Gold.PLP.Fitness>
48.6509

> <Gold.PLP.PLP>
-41.5962

> <Gold.PLP.part.hbond>
-3.6668

> <Gold.PLP.part.metal>
0.0000

> <Gold.PLP.part.buried>
-2.7372

> <Gold.PLP.part.nonpolar>
-34.9906

> <Gold.PLP.part.repulsive>
0.0519

> <Gold.PLP.ligand.clash>
0.0000

> <Gold.PLP.ligand.torsion>
0.9760

> <Gold.PLP.Chemscore.Hbond>
3.0000

> <Gold.PLP.Chemscore.CHOScore>
0.0000

> <Gold.PLP.Chemscore.Metal>
0.0000

> <Gold.Chemscore.Hbonds>
donor molecule, donor type, donor heavy atom, donor atom, acceptor molecule, acceptor atom, score
      P1  H  6896  6908       L1     8  2.00
      P1  H  6934  6947       L1    25  0.77

> <Gold.PLP.Chemscore.Internal.Correction>
0.0068

> <Gold.Rescore>
     Score         DG    S(hbond)    S(metal)    S(lipo)     H(rot)  DE(clash)    DE(int)     intcor
     16.45     -18.91       1.17        0.00     120.95       1.81       1.57       0.89       ----

> <Gold.Chemscore.Fitness>
16.4537

> <Gold.Chemscore.DG>
-18.9141

> <Gold.Chemscore.ZeroCoef>
-5.4800

> <Gold.Chemscore.Hbond>
1.1718

> <Gold.Chemscore.Metal>
0.0000

> <Gold.Chemscore.Lipo>
120.9511

> <Gold.Chemscore.Internal_Hbond>
0.0000

> <Gold.Chemscore.DEClash>
1.5681

> <Gold.Chemscore.DEInternal>
0.8923

> <Gold.Chemscore.Rot>
1.8090

> <Gold.Chemscore.Internal.Correction>
   9.000000E+99

> <Gold.Chemscore.Hbonds>
donor molecule, donor type, donor heavy atom, donor atom, acceptor molecule, acceptor atom, score
      P1  H  6896  6908       L1     8  0.99
      P1  H  6934  6947       L1    25  0.13

> <Gold.Chemscore.Hbond.Weighted>
-3.9138

> <Gold.Chemscore.Metal.Weighted>
-0.0000

> <Gold.Chemscore.Lipo.Weighted>
-14.1513

> <Gold.Chemscore.Internal_Hbond.Weighted>
0.0000

> <Gold.Chemscore.DEClash.Weighted>
1.5681

> <Gold.Chemscore.DEInternal.Weighted>
0.8923

> <Gold.Chemscore.Rot.Weighted>
4.6310

> <Gold.Chemscore.Internal.Correction.Weighted>
   9.000000E+99

> <Gold.Protein.RotatedTorsions>
[ 6907 6896 6895 6894 ] final -174.68 input  -60.11 | X-H torsion
[ 7974 7965 7964 7962 ] final   71.86 input  175.53 | X-H torsion
[ 8008 7997 7996 7995 ] final -175.83 input   59.86 | X-H torsion
[ 10167 10162 10161 10158 ] final   51.51 input  -65.29 | X-H torsion
[ 10718 10713 10712 10709 ] final   50.11 input   66.30 | X-H torsion
[ 10763 10752 10751 10750 ] final   86.89 input  -60.55 | X-H torsion
[ 11005 11000 10999 10996 ] final  -38.53 input  -57.11 | X-H torsion

> <Gold.Protein.ActiveResidues>
 VAL166  LYS551  ARG553  GLY616  TRP617  ASP618  TYR619  PRO620  LYS621  CYS622 
 ASP623  PHE694  ASN695  SER759  ASP760  ASP761  ALA762  ILE779  LEU786  VAL792 
 PHE793  MET794  SER795  GLU796  ALA797  LYS798  CYS799  TRP800  GLU811  SER814 

> <Gold.Protein.RotatedAtoms>
  151.5763  133.3383  159.2999 H   0  0  0  0  0  0  0  0  0  0  0  0  # atno 6907 bound_to 6896
  150.8339  134.7606  159.6887 H   0  0  0  0  0  0  0  0  0  0  0  0  # atno 6908 bound_to 6896
  152.4418  134.5582  159.9938 H   0  0  0  0  0  0  0  0  0  0  0  0  # atno 6909 bound_to 6896
  145.7606  139.2799  143.1379 H   0  0  0  0  0  0  0  0  0  0  0  0  # atno 7974 bound_to 7965
  155.9874  140.1194  157.0670 H   0  0  0  0  0  0  0  0  0  0  0  0  # atno 8008 bound_to 7997
  154.4201  140.1132  156.5586 H   0  0  0  0  0  0  0  0  0  0  0  0  # atno 8009 bound_to 7997
  155.6389  140.3473  155.4710 H   0  0  0  0  0  0  0  0  0  0  0  0  # atno 8010 bound_to 7997
  140.2612  144.3371  150.6317 H   0  0  0  0  0  0  0  0  0  0  0  0  # atno 10167 bound_to 10162
  157.4853  130.8341  149.8139 H   0  0  0  0  0  0  0  0  0  0  0  0  # atno 10718 bound_to 10713
  153.1615  135.4563  154.9778 H   0  0  0  0  0  0  0  0  0  0  0  0  # atno 10763 bound_to 10752
  154.7901  135.3217  154.7800 H   0  0  0  0  0  0  0  0  0  0  0  0  # atno 10764 bound_to 10752
  153.8289  135.6940  153.4871 H   0  0  0  0  0  0  0  0  0  0  0  0  # atno 10765 bound_to 10752
  141.0034  133.6944  156.2065 H   0  0  0  0  0  0  0  0  0  0  0  0  # atno 11005 bound_to 11000
  146.0268  140.8296  142.9896 LP  0  0  0  0  0  0  0  0  0  0  0  0  # atno 17320 bound_to 7965
  144.6831  140.2710  143.7306 LP  0  0  0  0  0  0  0  0  0  0  0  0  # atno 17321 bound_to 7965
  140.5964  143.2167  151.7155 LP  0  0  0  0  0  0  0  0  0  0  0  0  # atno 17342 bound_to 10162
  139.5016  144.3860  152.0328 LP  0  0  0  0  0  0  0  0  0  0  0  0  # atno 17343 bound_to 10162
  156.0143  130.3820  150.2161 LP  0  0  0  0  0  0  0  0  0  0  0  0  # atno 17370 bound_to 10713
  157.0348  131.0018  151.3301 LP  0  0  0  0  0  0  0  0  0  0  0  0  # atno 17371 bound_to 10713
  140.6852  134.4725  157.5589 LP  0  0  0  0  0  0  0  0  0  0  0  0  # atno 17394 bound_to 11000
  139.9051  134.8468  156.1740 LP  0  0  0  0  0  0  0  0  0  0  0  0  # atno 17395 bound_to 11000

$$$$
