AV-unprocessed.smi:2524|AV-procd|sdf|9923|dock4
  -GOLD-   2272013563D 1   1.00000     0.00000
 Structure written by MMmdl.
 37 38  0  0  0  0  0  0  0  0  2 V2000
  152.7302  142.6240  161.9912 C   0  0  0  0  0  0  0  0  0  0  0  0
  153.6461  142.2865  161.0711 C   0  0  0  0  0  0  0  0  0  0  0  0
  153.4018  141.3215  159.9300 C   0  0  0  0  0  0  0  0  0  0  0  0
  152.0174  141.5176  159.3010 C   0  0  0  0  0  0  0  0  0  0  0  0
  151.5812  140.0950  158.2175 S   0  0  0  0  0  0  0  0  0  0  0  0
  152.7899  139.6730  157.4933 O   0  0  0  0  0  0  0  0  0  0  0  0
  150.8175  139.1112  158.9993 O   0  0  0  0  0  0  0  0  0  0  0  0
  150.4976  140.8088  157.0799 N   0  0  0  0  0  0  0  0  0  0  0  0
  150.8454  140.7869  155.6564 C   0  0  0  0  0  0  0  0  0  0  0  0
  150.2613  139.5693  154.9491 C   0  0  0  0  0  0  0  0  0  0  0  0
  148.9243  139.8692  154.3307 C   0  0  0  0  0  0  0  0  0  0  0  0
  148.4753  141.2010  154.1768 C   0  0  0  0  0  0  0  0  0  0  0  0
  147.2267  141.4490  153.5714 C   0  0  0  0  0  0  0  0  0  0  0  0
  146.4685  140.4151  153.1475 N   0  3  0  0  0  0  0  0  0  0  0  0
  146.8527  139.1271  153.2770 C   0  0  0  0  0  0  0  0  0  0  0  0
  148.0926  138.8218  153.8739 C   0  0  0  0  0  0  0  0  0  0  0  0
  151.1990  138.6388  154.2072 C   0  0  0  0  0  0  0  0  0  0  0  0
  150.5441  138.1805  155.4845 C   0  0  0  0  0  0  0  0  0  0  0  0
  151.7323  142.2111  161.9693 H   0  0  0  0  0  0  0  0  0  0  0  0
  152.9690  143.3211  162.7809 H   0  0  0  0  0  0  0  0  0  0  0  0
  154.6332  142.7223  161.1264 H   0  0  0  0  0  0  0  0  0  0  0  0
  154.1765  141.4440  159.1721 H   0  0  0  0  0  0  0  0  0  0  0  0
  153.4949  140.3055  160.3147 H   0  0  0  0  0  0  0  0  0  0  0  0
  151.2513  141.6046  160.0717 H   0  0  0  0  0  0  0  0  0  0  0  0
  151.9902  142.4258  158.6986 H   0  0  0  0  0  0  0  0  0  0  0  0
  149.5400  140.4916  157.2312 H   0  0  0  0  0  0  0  0  0  0  0  0
  150.4952  141.6981  155.1694 H   0  0  0  0  0  0  0  0  0  0  0  0
  151.9320  140.7780  155.5664 H   0  0  0  0  0  0  0  0  0  0  0  0
  149.0890  142.0260  154.5085 H   0  0  0  0  0  0  0  0  0  0  0  0
  146.8167  142.4355  153.4115 H   0  0  0  0  0  0  0  0  0  0  0  0
  146.1639  138.3857  152.8996 H   0  0  0  0  0  0  0  0  0  0  0  0
  148.4064  137.7927  153.9728 H   0  0  0  0  0  0  0  0  0  0  0  0
  150.8488  138.1886  153.2803 H   0  0  0  0  0  0  0  0  0  0  0  0
  152.2676  138.8404  154.2517 H   0  0  0  0  0  0  0  0  0  0  0  0
  151.1872  138.0887  156.3577 H   0  0  0  0  0  0  0  0  0  0  0  0
  149.7612  137.4291  155.4021 H   0  0  0  0  0  0  0  0  0  0  0  0
  145.5689  140.6151  152.7096 H   0  0  0  0  0  0  0  0  0  0  0  0
  1  2  2  0  0  0  0
  1 19  1  0  0  0  0
  1 20  1  0  0  0  0
  2  3  1  0  0  0  0
  2 21  1  0  0  0  0
  3  4  1  0  0  0  0
  3 22  1  0  0  0  0
  3 23  1  0  0  0  0
  4  5  1  0  0  0  0
  4 24  1  0  0  0  0
  4 25  1  0  0  0  0
  5  6  2  0  0  0  0
  5  7  2  0  0  0  0
  5  8  1  0  0  0  0
  8  9  1  0  0  0  0
  8 26  1  0  0  0  0
  9 10  1  0  0  0  0
  9 27  1  0  0  0  0
  9 28  1  0  0  0  0
 10 18  1  0  0  0  0
 10 11  1  0  0  0  0
 10 17  1  0  0  0  0
 11 16  1  0  0  0  0
 11 12  2  0  0  0  0
 12 13  1  0  0  0  0
 12 29  1  0  0  0  0
 13 14  2  0  0  0  0
 13 30  1  0  0  0  0
 14 15  1  0  0  0  0
 14 37  1  0  0  0  0
 15 16  2  0  0  0  0
 15 31  1  0  0  0  0
 16 32  1  0  0  0  0
 17 18  1  0  0  0  0
 17 33  1  0  0  0  0
 17 34  1  0  0  0  0
 18 35  1  0  0  0  0
 18 36  1  0  0  0  0
M  CHG  1  14   1
M  END
> <s_m_source_file>
AV-unprocessed.smi

> <i_m_source_file_index>
2524

> <i_lp_mmshare_version>
43012

> <i_f3d_flags>
0

> <s_epik_input>
W0NIMl09W0NIXVtDSDJdW0NIMl1TKD1PKSg9TylbTkhdW0NIMl1DMShbQ0gyXVtDSDJdMSljMltjSF1bY0hdbltjSF1bY0hdMg==

> <s_epik_cmdline>
J2VwaWtfcHl0aG9uJywgJy1waCcsICc3LjAnLCAnLXRuJywgJzgnLCAnLW1hJywgJzIwMCcsICctbWV0YWxfYmluZGluZycsICctaW1hZScsICc8aW5maWxlLm1hZT4nLCAnLW9tYWUnLCAnPG91dGZpbGUubWFlPic=

> <r_epik_Ionization_Penalty>
1.70311

> <r_epik_Ionization_Penalty_Charging>
1.7031

> <r_epik_Ionization_Penalty_Neutral>
1.31612e-05

> <r_epik_State_Penalty>
1.80925

> <r_epik_Charging_Adjusted_Penalty>
3.51235

> <i_epik_Tot_Q>
1

> <i_epik_Tot_abs_Q>
1

> <r_epik_Metal_State_Penalty>
1.86078

> <b_epik_Metal_Only>
0

> <s_lp_Force_Field>
OPLS_2005

> <r_lp_Energy>
15.9515

> <b_lp_Chiralities_Consistent>
1

> <s_lp_Variant>
AV-unprocessed.smi:2524-2

> <Gold.Version>
5.8.1

> <Gold.Id.Protein>
6NUR|6NUR_protein|mol2

> <Gold.PLP.Fitness>
45.2625

> <Gold.PLP.PLP>
-38.7812

> <Gold.PLP.part.hbond>
-2.3246

> <Gold.PLP.part.metal>
0.0000

> <Gold.PLP.part.buried>
-3.8129

> <Gold.PLP.part.nonpolar>
-31.8987

> <Gold.PLP.part.repulsive>
0.0169

> <Gold.PLP.ligand.clash>
0.0000

> <Gold.PLP.ligand.torsion>
2.0457

> <Gold.PLP.Chemscore.Hbond>
3.0000

> <Gold.PLP.Chemscore.CHOScore>
0.0000

> <Gold.PLP.Chemscore.Metal>
0.0000

> <Gold.Chemscore.Hbonds>
donor molecule, donor type, donor heavy atom, donor atom, acceptor molecule, acceptor atom, score
      L1  H    14    37       P1 10175  2.00
      P1  H  7997  8008       L1     6  1.00

> <Gold.PLP.Chemscore.Internal.Correction>
1.5728

> <Gold.Rescore>
     Score         DG    S(hbond)    S(metal)    S(lipo)     H(rot)  DE(clash)    DE(int)     intcor
     16.99     -18.71       1.96        0.00     100.36       1.97       0.03       1.69       ----

> <Gold.Chemscore.Fitness>
16.9883

> <Gold.Chemscore.DG>
-18.7067

> <Gold.Chemscore.ZeroCoef>
-5.4800

> <Gold.Chemscore.Hbond>
1.9577

> <Gold.Chemscore.Metal>
0.0000

> <Gold.Chemscore.Lipo>
100.3640

> <Gold.Chemscore.Internal_Hbond>
0.0000

> <Gold.Chemscore.DEClash>
0.0267

> <Gold.Chemscore.DEInternal>
1.6917

> <Gold.Chemscore.Rot>
1.9744

> <Gold.Chemscore.Internal.Correction>
   9.000000E+99

> <Gold.Chemscore.Hbonds>
donor molecule, donor type, donor heavy atom, donor atom, acceptor molecule, acceptor atom, score
      L1  H    14    37       P1 10175  0.54
      P1  H  7997  8008       L1     6  0.95

> <Gold.Chemscore.Hbond.Weighted>
-6.5386

> <Gold.Chemscore.Metal.Weighted>
-0.0000

> <Gold.Chemscore.Lipo.Weighted>
-11.7426

> <Gold.Chemscore.Internal_Hbond.Weighted>
0.0000

> <Gold.Chemscore.DEClash.Weighted>
0.0267

> <Gold.Chemscore.DEInternal.Weighted>
1.6917

> <Gold.Chemscore.Rot.Weighted>
5.0546

> <Gold.Chemscore.Internal.Correction.Weighted>
   9.000000E+99

> <Gold.Protein.RotatedTorsions>
[ 6907 6896 6895 6894 ] final  117.56 input  -60.11 | X-H torsion
[ 7974 7965 7964 7962 ] final  162.31 input  175.53 | X-H torsion
[ 8008 7997 7996 7995 ] final  -50.89 input   59.86 | X-H torsion
[ 10167 10162 10161 10158 ] final   74.00 input  -65.29 | X-H torsion
[ 10718 10713 10712 10709 ] final  -28.87 input   66.30 | X-H torsion
[ 10763 10752 10751 10750 ] final  -29.27 input  -60.55 | X-H torsion
[ 11005 11000 10999 10996 ] final   -7.19 input  -57.11 | X-H torsion

> <Gold.Protein.ActiveResidues>
 VAL166  LYS551  ARG553  GLY616  TRP617  ASP618  TYR619  PRO620  LYS621  CYS622 
 ASP623  PHE694  ASN695  SER759  ASP760  ASP761  ALA762  ILE779  LEU786  VAL792 
 PHE793  MET794  SER795  GLU796  ALA797  LYS798  CYS799  TRP800  GLU811  SER814 

> <Gold.Protein.RotatedAtoms>
  152.4603  133.7808  159.6849 H   0  0  0  0  0  0  0  0  0  0  0  0  # atno 6907 bound_to 6896
  150.8544  133.7727  159.3020 H   0  0  0  0  0  0  0  0  0  0  0  0  # atno 6908 bound_to 6896
  151.5312  135.1071  159.9955 H   0  0  0  0  0  0  0  0  0  0  0  0  # atno 6909 bound_to 6896
  144.7643  139.8021  143.6321 H   0  0  0  0  0  0  0  0  0  0  0  0  # atno 7974 bound_to 7965
  154.4071  140.1261  156.4740 H   0  0  0  0  0  0  0  0  0  0  0  0  # atno 8008 bound_to 7997
  155.7151  140.3493  155.4971 H   0  0  0  0  0  0  0  0  0  0  0  0  # atno 8009 bound_to 7997
  155.9265  140.1062  157.1156 H   0  0  0  0  0  0  0  0  0  0  0  0  # atno 8010 bound_to 7997
  140.0185  144.5559  150.7601 H   0  0  0  0  0  0  0  0  0  0  0  0  # atno 10167 bound_to 10162
  156.4197  130.4424  149.7193 H   0  0  0  0  0  0  0  0  0  0  0  0  # atno 10718 bound_to 10713
  153.7619  135.6918  153.4924 H   0  0  0  0  0  0  0  0  0  0  0  0  # atno 10763 bound_to 10752
  153.1933  135.4463  155.0175 H   0  0  0  0  0  0  0  0  0  0  0  0  # atno 10764 bound_to 10752
  154.8150  135.3394  154.7134 H   0  0  0  0  0  0  0  0  0  0  0  0  # atno 10765 bound_to 10752
  140.7101  133.8916  155.8744 H   0  0  0  0  0  0  0  0  0  0  0  0  # atno 11005 bound_to 11000
  146.1736  139.4897  142.9912 LP  0  0  0  0  0  0  0  0  0  0  0  0  # atno 17320 bound_to 7965
  145.6520  141.0261  143.1755 LP  0  0  0  0  0  0  0  0  0  0  0  0  # atno 17321 bound_to 7965
  140.7352  143.2738  151.3804 LP  0  0  0  0  0  0  0  0  0  0  0  0  # atno 17342 bound_to 10162
  139.6156  144.1009  152.2342 LP  0  0  0  0  0  0  0  0  0  0  0  0  # atno 17343 bound_to 10162
  156.4138  130.7735  151.2749 LP  0  0  0  0  0  0  0  0  0  0  0  0  # atno 17370 bound_to 10713
  157.7508  131.0203  150.3704 LP  0  0  0  0  0  0  0  0  0  0  0  0  # atno 17371 bound_to 10713
  141.0092  134.1044  157.4239 LP  0  0  0  0  0  0  0  0  0  0  0  0  # atno 17394 bound_to 11000
  139.8874  135.0089  156.6558 LP  0  0  0  0  0  0  0  0  0  0  0  0  # atno 17395 bound_to 11000

$$$$
