AV-unprocessed.smi:203|AV-procd|sdf|1586|dock7
  -GOLD-   2262019483D 1   1.00000     0.00000
 Structure written by MMmdl.
 57 61  0  0  0  0  0  0  0  0  1 V2000
  151.8326  146.0443  159.4782 O   0  0  0  0  0  0  0  0  0  0  0  0
  151.2676  145.0522  159.0238 C   0  0  0  0  0  0  0  0  0  0  0  0
  151.9093  144.1050  158.0248 C   0  0  0  0  0  0  0  0  0  0  0  0
  150.9208  142.9225  157.9579 C   0  0  1  0  0  0  0  0  0  0  0  0
  151.4553  141.5956  158.5850 C   0  0  2  0  0  0  0  0  0  0  0  0
  152.7688  141.7962  159.3871 C   0  0  0  0  0  0  0  0  0  0  0  0
  153.2722  140.4802  159.9941 C   0  0  0  0  0  0  0  0  0  0  0  0
  153.4409  139.4288  158.8923 C   0  0  0  0  0  0  0  0  0  0  0  0
  152.1261  139.2476  158.1226 C   0  0  0  0  0  0  0  0  0  0  0  0
  151.6383  140.5209  157.5928 N   0  0  0  0  0  0  0  0  0  0  0  0
  150.6100  140.3133  156.7401 C   0  0  0  0  0  0  0  0  0  0  0  0
  150.7747  140.7282  155.4604 N   0  0  0  0  0  0  0  0  0  0  0  0
  149.7890  140.5610  154.5734 C   0  0  0  0  0  0  0  0  0  0  0  0
  148.5870  140.0083  154.7539 N   0  0  0  0  0  0  0  0  0  0  0  0
  148.4237  139.5843  156.0400 C   0  0  0  0  0  0  0  0  0  0  0  0
  149.3759  139.6965  157.0912 C   0  0  0  0  0  0  0  0  0  0  0  0
  148.8567  139.1569  158.2623 N   0  0  0  0  0  0  0  0  0  0  0  0
  147.6647  138.7480  157.9218 C   0  0  0  0  0  0  0  0  0  0  0  0
  147.3239  138.9648  156.6063 N   0  0  0  0  0  0  0  0  0  0  0  0
  146.0702  138.6097  155.9655 C   0  0  0  0  0  0  0  0  0  0  0  0
  145.3770  139.8271  155.3176 C   0  0  1  0  0  0  0  0  0  0  0  0
  144.1240  139.4571  154.7779 O   0  0  0  0  0  0  0  0  0  0  0  0
  145.1708  141.0226  156.2706 C   0  0  2  0  0  0  0  0  0  0  0  0
  144.6833  142.3039  155.5825 C   0  0  0  0  0  0  0  0  0  0  0  0
  145.3342  143.4309  156.3740 C   0  0  0  0  0  0  0  0  0  0  0  0
  146.1660  142.7125  157.4346 C   0  0  0  0  0  0  0  0  0  0  0  0
  146.3887  141.4268  156.8801 O   0  0  0  0  0  0  0  0  0  0  0  0
  149.6337  143.4434  158.6329 C   0  0  0  0  0  0  0  0  0  0  0  0
  150.0325  144.6548  159.3228 N   0  0  0  0  0  0  0  0  0  0  0  0
  151.9891  144.6036  157.0582 H   0  0  0  0  0  0  0  0  0  0  0  0
  152.9122  143.8143  158.3380 H   0  0  0  0  0  0  0  0  0  0  0  0
  150.6672  142.7424  156.9127 H   0  0  0  0  0  0  0  0  0  0  0  0
  150.7023  141.2463  159.2926 H   0  0  0  0  0  0  0  0  0  0  0  0
  153.5482  142.2023  158.7421 H   0  0  0  0  0  0  0  0  0  0  0  0
  152.6288  142.5214  160.1879 H   0  0  0  0  0  0  0  0  0  0  0  0
  154.2197  140.6409  160.5093 H   0  0  0  0  0  0  0  0  0  0  0  0
  152.5637  140.1231  160.7423 H   0  0  0  0  0  0  0  0  0  0  0  0
  154.2304  139.7367  158.2052 H   0  0  0  0  0  0  0  0  0  0  0  0
  153.7555  138.4786  159.3245 H   0  0  0  0  0  0  0  0  0  0  0  0
  152.2780  138.5384  157.3071 H   0  0  0  0  0  0  0  0  0  0  0  0
  151.3720  138.8162  158.7825 H   0  0  0  0  0  0  0  0  0  0  0  0
  149.9918  140.9231  153.5763 H   0  0  0  0  0  0  0  0  0  0  0  0
  146.9953  138.2748  158.6254 H   0  0  0  0  0  0  0  0  0  0  0  0
  146.2681  137.8378  155.2210 H   0  0  0  0  0  0  0  0  0  0  0  0
  145.4251  138.1551  156.7172 H   0  0  0  0  0  0  0  0  0  0  0  0
  145.9773  140.1673  154.4728 H   0  0  0  0  0  0  0  0  0  0  0  0
  144.1506  139.5954  153.8432 H   0  0  0  0  0  0  0  0  0  0  0  0
  144.4567  140.7619  157.0549 H   0  0  0  0  0  0  0  0  0  0  0  0
  145.0121  142.3506  154.5441 H   0  0  0  0  0  0  0  0  0  0  0  0
  143.5949  142.3701  155.5845 H   0  0  0  0  0  0  0  0  0  0  0  0
  145.9778  144.0206  155.7202 H   0  0  0  0  0  0  0  0  0  0  0  0
  144.6036  144.1050  156.8222 H   0  0  0  0  0  0  0  0  0  0  0  0
  147.1036  143.2241  157.6529 H   0  0  0  0  0  0  0  0  0  0  0  0
  145.6050  142.6125  158.3652 H   0  0  0  0  0  0  0  0  0  0  0  0
  148.8813  143.6998  157.8857 H   0  0  0  0  0  0  0  0  0  0  0  0
  149.1832  142.7250  159.3179 H   0  0  0  0  0  0  0  0  0  0  0  0
  149.4237  145.1391  159.9665 H   0  0  0  0  0  0  0  0  0  0  0  0
  1  2  2  0  0  0  0
  2 29  1  0  0  0  0
  2  3  1  0  0  0  0
  3  4  1  0  0  0  0
  3 30  1  0  0  0  0
  3 31  1  0  0  0  0
  4  5  1  0  0  0  0
  4 28  1  0  0  0  0
  4 32  1  0  0  0  0
  5 10  1  0  0  0  0
  5  6  1  0  0  0  0
  5 33  1  0  0  0  0
  6  7  1  0  0  0  0
  6 34  1  0  0  0  0
  6 35  1  0  0  0  0
  7  8  1  0  0  0  0
  7 36  1  0  0  0  0
  7 37  1  0  0  0  0
  8  9  1  0  0  0  0
  8 38  1  0  0  0  0
  8 39  1  0  0  0  0
  9 10  1  0  0  0  0
  9 40  1  0  0  0  0
  9 41  1  0  0  0  0
 10 11  1  0  0  0  0
 11 16  1  0  0  0  0
 11 12  2  0  0  0  0
 12 13  1  0  0  0  0
 13 14  2  0  0  0  0
 13 42  1  0  0  0  0
 14 15  1  0  0  0  0
 15 19  1  0  0  0  0
 15 16  2  0  0  0  0
 16 17  1  0  0  0  0
 17 18  2  0  0  0  0
 18 19  1  0  0  0  0
 18 43  1  0  0  0  0
 19 20  1  0  0  0  0
 20 21  1  0  0  0  0
 20 44  1  0  0  0  0
 20 45  1  0  0  0  0
 21 22  1  0  0  0  0
 21 23  1  0  0  0  0
 21 46  1  0  0  0  0
 22 47  1  0  0  0  0
 23 27  1  0  0  0  0
 23 24  1  0  0  0  0
 23 48  1  0  0  0  0
 24 25  1  0  0  0  0
 24 49  1  0  0  0  0
 24 50  1  0  0  0  0
 25 26  1  0  0  0  0
 25 51  1  0  0  0  0
 25 52  1  0  0  0  0
 26 27  1  0  0  0  0
 26 53  1  0  0  0  0
 26 54  1  0  0  0  0
 28 29  1  0  0  0  0
 28 55  1  0  0  0  0
 28 56  1  0  0  0  0
 29 57  1  0  0  0  0
M  END
> <s_m_source_file>
AV-unprocessed.smi

> <i_m_source_file_index>
203

> <i_lp_mmshare_version>
43012

> <i_f3d_flags>
0

> <s_epik_input>
Tz1DMVtDSDJdW0NASF0oW0NIMl1bTkhdMSlbQ0BASF0yW0NIMl1bQ0gyXVtDSDJdW0NIMl1OMmMobltjSF1uMyljKGMzNCluW2NIXW40W0NIMl1bQ0BIXShbT0hdKVtDQEBIXTVbQ0gyXVtDSDJdW0NIMl1PNQ==

> <s_epik_cmdline>
J2VwaWtfcHl0aG9uJywgJy1waCcsICc3LjAnLCAnLXRuJywgJzgnLCAnLW1hJywgJzIwMCcsICctbWV0YWxfYmluZGluZycsICctaW1hZScsICc8aW5maWxlLm1hZT4nLCAnLW9tYWUnLCAnPG91dGZpbGUubWFlPic=

> <r_lp_tautomer_probability>
1

> <r_epik_Ionization_Penalty>
0.00175146

> <r_epik_Ionization_Penalty_Charging>
0

> <r_epik_Ionization_Penalty_Neutral>
0.00175146

> <r_epik_State_Penalty>
0.00109045

> <r_epik_Charging_Adjusted_Penalty>
0.00109045

> <i_epik_Tot_Q>
0

> <i_epik_Tot_abs_Q>
0

> <r_epik_Metal_State_Penalty>
-0

> <b_epik_Metal_Only>
0

> <s_lp_Force_Field>
OPLS_2005

> <r_lp_Energy>
58.3664

> <b_lp_Chiralities_Consistent>
1

> <s_lp_Variant>
AV-unprocessed.smi:203-5

> <Gold.Version>
5.8.1

> <Gold.Id.Protein>
6NUR|6NUR_protein|mol2

> <Gold.PLP.Fitness>
39.5112

> <Gold.PLP.PLP>
-36.8526

> <Gold.PLP.part.hbond>
-3.9872

> <Gold.PLP.part.metal>
0.0000

> <Gold.PLP.part.buried>
-4.4678

> <Gold.PLP.part.nonpolar>
-29.1025

> <Gold.PLP.part.repulsive>
0.5317

> <Gold.PLP.ligand.clash>
0.0000

> <Gold.PLP.ligand.torsion>
1.6474

> <Gold.PLP.Chemscore.Hbond>
1.0000

> <Gold.PLP.Chemscore.CHOScore>
0.8715

> <Gold.PLP.Chemscore.Metal>
0.0000

> <Gold.Chemscore.Hbonds>
donor molecule, donor type, donor heavy atom, donor atom, acceptor molecule, acceptor atom, score
      L1  H    22    47       P1 10175  0.99
      L1  C    13    42       P1  7957  0.85

> <Gold.PLP.Chemscore.Internal.Correction>
0.3389

> <Gold.Rescore>
     Score         DG    S(hbond)    S(metal)    S(lipo)     H(rot)  DE(clash)    DE(int)     intcor
      5.89     -10.14       0.99        0.00      71.03       2.72       0.10       4.15       ----

> <Gold.Chemscore.Fitness>
5.8868

> <Gold.Chemscore.DG>
-10.1397

> <Gold.Chemscore.ZeroCoef>
-5.4800

> <Gold.Chemscore.Hbond>
0.9896

> <Gold.Chemscore.Metal>
0.0000

> <Gold.Chemscore.Lipo>
71.0258

> <Gold.Chemscore.Internal_Hbond>
0.0000

> <Gold.Chemscore.DEClash>
0.1004

> <Gold.Chemscore.DEInternal>
4.1525

> <Gold.Chemscore.Rot>
2.7171

> <Gold.Chemscore.Internal.Correction>
   9.000000E+99

> <Gold.Chemscore.Hbonds>
donor molecule, donor type, donor heavy atom, donor atom, acceptor molecule, acceptor atom, score
      L1  H    22    47       P1 10175  0.93

> <Gold.Chemscore.Hbond.Weighted>
-3.3053

> <Gold.Chemscore.Metal.Weighted>
-0.0000

> <Gold.Chemscore.Lipo.Weighted>
-8.3100

> <Gold.Chemscore.Internal_Hbond.Weighted>
0.0000

> <Gold.Chemscore.DEClash.Weighted>
0.1004

> <Gold.Chemscore.DEInternal.Weighted>
4.1525

> <Gold.Chemscore.Rot.Weighted>
6.9557

> <Gold.Chemscore.Internal.Correction.Weighted>
   9.000000E+99

> <Gold.Protein.RotatedTorsions>
[ 6907 6896 6895 6894 ] final   71.50 input  -60.11 | X-H torsion
[ 7974 7965 7964 7962 ] final  -65.81 input  175.53 | X-H torsion
[ 8008 7997 7996 7995 ] final  -30.85 input   59.86 | X-H torsion
[ 10167 10162 10161 10158 ] final  -22.02 input  -65.29 | X-H torsion
[ 10718 10713 10712 10709 ] final -163.74 input   66.30 | X-H torsion
[ 10763 10752 10751 10750 ] final  147.26 input  -60.55 | X-H torsion
[ 11005 11000 10999 10996 ] final  116.01 input  -57.11 | X-H torsion

> <Gold.Protein.ActiveResidues>
 VAL166  LYS551  ARG553  GLY616  TRP617  ASP618  TYR619  PRO620  LYS621  CYS622 
 ASP623  PHE694  ASN695  SER759  ASP760  ASP761  ALA762  ILE779  LEU786  VAL792 
 PHE793  MET794  SER795  GLU796  ALA797  LYS798  CYS799  TRP800  GLU811  SER814 

> <Gold.Protein.RotatedAtoms>
  152.4813  134.4711  159.9635 H   0  0  0  0  0  0  0  0  0  0  0  0  # atno 6907 bound_to 6896
  151.4716  133.3561  159.2832 H   0  0  0  0  0  0  0  0  0  0  0  0  # atno 6908 bound_to 6896
  150.8888  134.8315  159.7339 H   0  0  0  0  0  0  0  0  0  0  0  0  # atno 6909 bound_to 6896
  145.7496  140.8915  143.0487 H   0  0  0  0  0  0  0  0  0  0  0  0  # atno 7974 bound_to 7965
  154.4235  140.1780  156.1473 H   0  0  0  0  0  0  0  0  0  0  0  0  # atno 8008 bound_to 7997
  155.9943  140.3366  155.6759 H   0  0  0  0  0  0  0  0  0  0  0  0  # atno 8009 bound_to 7997
  155.6330  140.0672  157.2634 H   0  0  0  0  0  0  0  0  0  0  0  0  # atno 8010 bound_to 7997
  140.7284  143.4573  151.0430 H   0  0  0  0  0  0  0  0  0  0  0  0  # atno 10167 bound_to 10162
  156.6290  130.8922  151.2973 H   0  0  0  0  0  0  0  0  0  0  0  0  # atno 10718 bound_to 10713
  154.0355  135.2894  155.3362 H   0  0  0  0  0  0  0  0  0  0  0  0  # atno 10763 bound_to 10752
  154.6962  135.5207  153.8464 H   0  0  0  0  0  0  0  0  0  0  0  0  # atno 10764 bound_to 10752
  153.0622  135.6618  154.0564 H   0  0  0  0  0  0  0  0  0  0  0  0  # atno 10765 bound_to 10752
  139.9028  134.9592  156.7133 H   0  0  0  0  0  0  0  0  0  0  0  0  # atno 11005 bound_to 11000
  144.6852  139.9573  143.7479 LP  0  0  0  0  0  0  0  0  0  0  0  0  # atno 17320 bound_to 7965
  146.0369  139.3386  143.0721 LP  0  0  0  0  0  0  0  0  0  0  0  0  # atno 17321 bound_to 7965
  139.8254  143.7762  152.3178 LP  0  0  0  0  0  0  0  0  0  0  0  0  # atno 17342 bound_to 10162
  139.7860  144.7427  151.0022 LP  0  0  0  0  0  0  0  0  0  0  0  0  # atno 17343 bound_to 10162
  157.7205  130.9553  150.1422 LP  0  0  0  0  0  0  0  0  0  0  0  0  # atno 17370 bound_to 10713
  156.2250  130.3677  149.8511 LP  0  0  0  0  0  0  0  0  0  0  0  0  # atno 17371 bound_to 10713
  140.7058  133.9266  155.8053 LP  0  0  0  0  0  0  0  0  0  0  0  0  # atno 17394 bound_to 11000
  141.0337  134.0720  157.3984 LP  0  0  0  0  0  0  0  0  0  0  0  0  # atno 17395 bound_to 11000

$$$$
