AV-unprocessed.smi:2635|AV-procd|sdf|10256|dock5
  -GOLD-   2272014263D 1   1.00000     0.00000
 Structure written by MMmdl.
 31 32  0  0  0  0  0  0  0  0  2 V2000
  152.5202  138.5693  154.3722 C   0  0  0  0  0  0  0  0  0  0  0  0
  152.1768  138.2047  155.8050 C   0  0  0  0  0  0  0  0  0  0  0  0
  152.4542  139.0127  156.8492 C   0  0  0  0  0  0  0  0  0  0  0  0
  152.1320  138.6647  158.1713 N   0  0  0  0  0  0  0  0  0  0  0  0
  152.5035  139.5723  159.2434 C   0  0  0  0  0  0  0  0  0  0  0  0
  153.3912  140.5200  158.7468 O   0  0  0  0  0  0  0  0  0  0  0  0
  153.9144  141.3690  159.7549 C   0  0  0  0  0  0  0  0  0  0  0  0
  153.1055  142.6443  159.8872 C   0  0  0  0  0  0  0  0  0  0  0  0
  152.9687  143.5104  158.7819 C   0  0  0  0  0  0  0  0  0  0  0  0
  152.2302  144.7036  158.9044 C   0  0  0  0  0  0  0  0  0  0  0  0
  151.6287  145.0371  160.1335 C   0  0  0  0  0  0  0  0  0  0  0  0
  151.7679  144.1778  161.2407 C   0  0  0  0  0  0  0  0  0  0  0  0
  152.5074  142.9851  161.1191 C   0  0  0  0  0  0  0  0  0  0  0  0
  151.5555  137.4567  158.4454 C   0  0  0  0  0  0  0  0  0  0  0  0
  151.3166  137.1549  159.6157 O   0  0  0  0  0  0  0  0  0  0  0  0
  151.2570  136.6249  157.4008 N   0  5  0  0  0  0  0  0  0  0  0  0
  151.5252  136.9248  156.0961 C   0  0  0  0  0  0  0  0  0  0  0  0
  151.2414  136.1622  155.1728 O   0  0  0  0  0  0  0  0  0  0  0  0
  152.9812  139.5559  154.3170 H   0  0  0  0  0  0  0  0  0  0  0  0
  151.6213  138.5804  153.7552 H   0  0  0  0  0  0  0  0  0  0  0  0
  153.2185  137.8447  153.9523 H   0  0  0  0  0  0  0  0  0  0  0  0
  152.9418  139.9697  156.7350 H   0  0  0  0  0  0  0  0  0  0  0  0
  151.6097  140.0612  159.6339 H   0  0  0  0  0  0  0  0  0  0  0  0
  152.9570  138.9949  160.0521 H   0  0  0  0  0  0  0  0  0  0  0  0
  153.9306  140.8414  160.7098 H   0  0  0  0  0  0  0  0  0  0  0  0
  154.9437  141.6407  159.5157 H   0  0  0  0  0  0  0  0  0  0  0  0
  153.4302  143.2595  157.8377 H   0  0  0  0  0  0  0  0  0  0  0  0
  152.1259  145.3637  158.0561 H   0  0  0  0  0  0  0  0  0  0  0  0
  151.0624  145.9518  160.2271 H   0  0  0  0  0  0  0  0  0  0  0  0
  151.3086  144.4337  162.1838 H   0  0  0  0  0  0  0  0  0  0  0  0
  152.6110  142.3333  161.9740 H   0  0  0  0  0  0  0  0  0  0  0  0
  1  2  1  0  0  0  0
  1 19  1  0  0  0  0
  1 20  1  0  0  0  0
  1 21  1  0  0  0  0
  2 17  1  0  0  0  0
  2  3  2  0  0  0  0
  3  4  1  0  0  0  0
  3 22  1  0  0  0  0
  4  5  1  0  0  0  0
  4 14  1  0  0  0  0
  5  6  1  0  0  0  0
  5 23  1  0  0  0  0
  5 24  1  0  0  0  0
  6  7  1  0  0  0  0
  7  8  1  0  0  0  0
  7 25  1  0  0  0  0
  7 26  1  0  0  0  0
  8 13  1  0  0  0  0
  8  9  2  0  0  0  0
  9 10  1  0  0  0  0
  9 27  1  0  0  0  0
 10 11  2  0  0  0  0
 10 28  1  0  0  0  0
 11 12  1  0  0  0  0
 11 29  1  0  0  0  0
 12 13  2  0  0  0  0
 12 30  1  0  0  0  0
 13 31  1  0  0  0  0
 14 15  2  0  0  0  0
 14 16  1  0  0  0  0
 16 17  1  0  0  0  0
 17 18  2  0  0  0  0
M  CHG  1  16  -1
M  END
> <s_m_source_file>
AV-unprocessed.smi

> <i_m_source_file_index>
2635

> <i_lp_mmshare_version>
43012

> <i_f3d_flags>
0

> <s_epik_input>
Tz1jMVtuSF1jKD1PKW4oW2NIXWMxW0NIM10pW0NIMl1PW0NIMl1jMltjSF1bY0hdW2NIXVtjSF1bY0hdMg==

> <s_epik_cmdline>
J2VwaWtfcHl0aG9uJywgJy1waCcsICc3LjAnLCAnLXRuJywgJzgnLCAnLW1hJywgJzIwMCcsICctbWV0YWxfYmluZGluZycsICctaW1hZScsICc8aW5maWxlLm1hZT4nLCAnLW9tYWUnLCAnPG91dGZpbGUubWFlPic=

> <r_lp_tautomer_probability>
0.999537

> <r_epik_Ionization_Penalty>
3.41553

> <r_epik_Ionization_Penalty_Charging>
6.94296e-08

> <r_epik_Ionization_Penalty_Neutral>
3.41553

> <r_epik_State_Penalty>
3.41493

> <r_epik_Charging_Adjusted_Penalty>
3.41493

> <i_epik_Tot_Q>
-1

> <i_epik_Tot_abs_Q>
1

> <r_epik_Metal_State_Penalty>
0.16353

> <b_epik_Metal_Only>
1

> <s_epik_Chemistry_Notes>
This compound contains an acetal/aminal-like group ( X-CH(R)-Y where X, Y are N, S, or O) that may be acid/base labile, releasing an aldehyde.

> <s_lp_Force_Field>
OPLS_2005

> <r_lp_Energy>
15.2245

> <b_lp_Chiralities_Consistent>
1

> <s_lp_Variant>
AV-unprocessed.smi:2635-2

> <Gold.Version>
5.8.1

> <Gold.Id.Protein>
6NUR|6NUR_protein|mol2

> <Gold.PLP.Fitness>
49.0788

> <Gold.PLP.PLP>
-42.4287

> <Gold.PLP.part.hbond>
-3.0000

> <Gold.PLP.part.metal>
0.0000

> <Gold.PLP.part.buried>
-3.4533

> <Gold.PLP.part.nonpolar>
-35.3856

> <Gold.PLP.part.repulsive>
0.1057

> <Gold.PLP.ligand.clash>
0.0000

> <Gold.PLP.ligand.torsion>
0.4204

> <Gold.PLP.Chemscore.Hbond>
2.4904

> <Gold.PLP.Chemscore.CHOScore>
0.0000

> <Gold.PLP.Chemscore.Metal>
0.0000

> <Gold.Chemscore.Hbonds>
donor molecule, donor type, donor heavy atom, donor atom, acceptor molecule, acceptor atom, score
      P1  H  6896  6909       L1    15  1.00
      P1  H  7997  8010       L1     6  0.49
      P1  H 10752 10763       L1    18  1.00

> <Gold.PLP.Chemscore.Internal.Correction>
0.0199

> <Gold.Rescore>
     Score         DG    S(hbond)    S(metal)    S(lipo)     H(rot)  DE(clash)    DE(int)     intcor
     19.00     -19.68       2.04        0.00     104.67       1.90       0.11       0.58       ----

> <Gold.Chemscore.Fitness>
18.9965

> <Gold.Chemscore.DG>
-19.6848

> <Gold.Chemscore.ZeroCoef>
-5.4800

> <Gold.Chemscore.Hbond>
2.0428

> <Gold.Chemscore.Metal>
0.0000

> <Gold.Chemscore.Lipo>
104.6745

> <Gold.Chemscore.Internal_Hbond>
0.0000

> <Gold.Chemscore.DEClash>
0.1117

> <Gold.Chemscore.DEInternal>
0.5766

> <Gold.Chemscore.Rot>
1.9004

> <Gold.Chemscore.Internal.Correction>
   9.000000E+99

> <Gold.Chemscore.Hbonds>
donor molecule, donor type, donor heavy atom, donor atom, acceptor molecule, acceptor atom, score
      P1  H  6896  6909       L1    15  0.81
      P1  H  7997  8010       L1     6  0.40
      P1  H 10752 10763       L1    18  0.26

> <Gold.Chemscore.Hbond.Weighted>
-6.8230

> <Gold.Chemscore.Metal.Weighted>
-0.0000

> <Gold.Chemscore.Lipo.Weighted>
-12.2469

> <Gold.Chemscore.Internal_Hbond.Weighted>
0.0000

> <Gold.Chemscore.DEClash.Weighted>
0.1117

> <Gold.Chemscore.DEInternal.Weighted>
0.5766

> <Gold.Chemscore.Rot.Weighted>
4.8651

> <Gold.Chemscore.Internal.Correction.Weighted>
   9.000000E+99

> <Gold.Protein.RotatedTorsions>
[ 6907 6896 6895 6894 ] final  107.67 input  -60.11 | X-H torsion
[ 7974 7965 7964 7962 ] final  130.14 input  175.53 | X-H torsion
[ 8008 7997 7996 7995 ] final   13.74 input   59.86 | X-H torsion
[ 10167 10162 10161 10158 ] final  -47.19 input  -65.29 | X-H torsion
[ 10718 10713 10712 10709 ] final  162.90 input   66.30 | X-H torsion
[ 10763 10752 10751 10750 ] final   66.03 input  -60.55 | X-H torsion
[ 11005 11000 10999 10996 ] final  102.12 input  -57.11 | X-H torsion

> <Gold.Protein.ActiveResidues>
 VAL166  LYS551  ARG553  GLY616  TRP617  ASP618  TYR619  PRO620  LYS621  CYS622 
 ASP623  PHE694  ASN695  SER759  ASP760  ASP761  ALA762  ILE779  LEU786  VAL792 
 PHE793  MET794  SER795  GLU796  ALA797  LYS798  CYS799  TRP800  GLU811  SER814 

> <Gold.Protein.RotatedAtoms>
  152.5145  133.9201  159.7529 H   0  0  0  0  0  0  0  0  0  0  0  0  # atno 6907 bound_to 6896
  150.9575  133.6473  159.2767 H   0  0  0  0  0  0  0  0  0  0  0  0  # atno 6908 bound_to 6896
  151.3730  135.0931  159.9524 H   0  0  0  0  0  0  0  0  0  0  0  0  # atno 6909 bound_to 6896
  145.0211  139.4131  143.5197 H   0  0  0  0  0  0  0  0  0  0  0  0  # atno 7974 bound_to 7965
  154.8387  140.2911  155.5674 H   0  0  0  0  0  0  0  0  0  0  0  0  # atno 8008 bound_to 7997
  156.3010  140.2518  156.3256 H   0  0  0  0  0  0  0  0  0  0  0  0  # atno 8009 bound_to 7997
  154.9150  140.0387  157.1956 H   0  0  0  0  0  0  0  0  0  0  0  0  # atno 8010 bound_to 7997
  140.6785  143.2796  151.3891 H   0  0  0  0  0  0  0  0  0  0  0  0  # atno 10167 bound_to 10162
  157.1161  131.0480  151.2436 H   0  0  0  0  0  0  0  0  0  0  0  0  # atno 10718 bound_to 10713
  153.0122  135.5335  154.6760 H   0  0  0  0  0  0  0  0  0  0  0  0  # atno 10763 bound_to 10752
  154.5932  135.2861  155.0615 H   0  0  0  0  0  0  0  0  0  0  0  0  # atno 10764 bound_to 10752
  154.1700  135.6533  153.5059 H   0  0  0  0  0  0  0  0  0  0  0  0  # atno 10765 bound_to 10752
  139.8776  134.9211  156.5010 H   0  0  0  0  0  0  0  0  0  0  0  0  # atno 11005 bound_to 11000
  146.3485  139.9709  142.8706 LP  0  0  0  0  0  0  0  0  0  0  0  0  # atno 17320 bound_to 7965
  145.1894  140.9804  143.4219 LP  0  0  0  0  0  0  0  0  0  0  0  0  # atno 17321 bound_to 7965
  139.6093  144.1132  152.2282 LP  0  0  0  0  0  0  0  0  0  0  0  0  # atno 17342 bound_to 10162
  140.0541  144.5909  150.7313 LP  0  0  0  0  0  0  0  0  0  0  0  0  # atno 17343 bound_to 10162
  157.4517  130.7602  149.7157 LP  0  0  0  0  0  0  0  0  0  0  0  0  # atno 17370 bound_to 10713
  155.9839  130.3996  150.3339 LP  0  0  0  0  0  0  0  0  0  0  0  0  # atno 17371 bound_to 10713
  140.8589  133.8075  155.9245 LP  0  0  0  0  0  0  0  0  0  0  0  0  # atno 17394 bound_to 11000
  140.9069  134.2309  157.5009 LP  0  0  0  0  0  0  0  0  0  0  0  0  # atno 17395 bound_to 11000

$$$$
