#       Name:                AV-unprocessed.smi:1244
#       Creating user name   scv26
#       Creation time:       Fri Mar 27 04:34:21 2020


#       File generated by GOLD software.
#

@<TRIPOS>MOLECULE
AV-unprocessed.smi:1244
    61    63     1
SMALL
NO_CHARGES


@<TRIPOS>ATOM
      1 ****        -4.9725   4.3639   1.4882 C.3            1 S1                 0.0000
      2 ****        -3.7135   3.8451   0.7850 C.3            1 S1                 0.0000
      3 ****        -2.4659   3.9379   1.6857 C.3            1 S1                 0.0000
      4 ****        -1.2503   3.4927   0.9611 N.4            1 S1                 1.0000
      5 ****        -1.1325   2.0130   0.8347 C.3            1 S1                 0.0000
      6 ****         0.3203   1.5301   1.0241 C.3            1 S1                 0.0000
      7 ****         0.3888   0.0732   0.9202 N.pl3          1 S1                -1.0000
      8 ****         0.4554  -0.6202  -0.2477 C.2            1 S1                 0.0000
      9 ****         0.4297  -0.1689  -1.3989 O.2            1 S1                 0.0000
     10 ****         0.5721  -1.9429  -0.0432 N.am           1 S1                 0.0000
     11 ****         0.7807  -2.9626  -1.0110 C.ar           1 S1                 0.0000
     12 ****         0.0269  -2.9831  -2.2110 C.ar           1 S1                 0.0000
     13 ****         0.1889  -4.0427  -3.1234 C.ar           1 S1                 0.0000
     14 ****         1.0907  -5.0748  -2.8120 C.ar           1 S1                 0.0000
     15 ****         1.7836  -5.0325  -1.6550 N.pl3          1 S1                 1.0000
     16 ****         1.6830  -4.0322  -0.7435 C.ar           1 S1                 0.0000
     17 ****         2.4813  -4.1171   0.4205 N.3            1 S1                 0.0000
     18 ****         3.2647  -5.3158   0.6949 C.3            1 S1                 0.0000
     19 ****         4.2219  -4.9146   1.8140 C.3            1 S1                 0.0000
     20 ****         4.5262  -3.4571   1.4804 C.3            1 S1                 0.0000
     21 ****         3.2165  -2.9408   0.8754 C.3            1 S1                 0.0000
     22 ****        -1.1079   4.2452  -0.3149 C.3            1 S1                 0.0000
     23 ****        -2.3987   4.1828  -1.1605 C.3            1 S1                 0.0000
     24 ****        -2.3080   5.0645  -2.4107 C.3            1 S1                 0.0000
     25 ****        -3.4977   4.6379  -0.3777 O.3            1 S1                 0.0000
     26 ****        -5.1887   3.7829   2.3852 H              1 S1                 0.0000
     27 ****        -5.8407   4.2960   0.8320 H              1 S1                 0.0000
     28 ****        -4.8590   5.4074   1.7835 H              1 S1                 0.0000
     29 ****        -3.8862   2.8086   0.4897 H              1 S1                 0.0000
     30 ****        -2.3174   4.9726   1.9984 H              1 S1                 0.0000
     31 ****        -2.5980   3.3600   2.6014 H              1 S1                 0.0000
     32 ****        -1.7464   1.5306   1.5969 H              1 S1                 0.0000
     33 ****        -1.5313   1.6784  -0.1231 H              1 S1                 0.0000
     34 ****         0.9633   2.0228   0.2935 H              1 S1                 0.0000
     35 ****         0.6776   1.8691   1.9968 H              1 S1                 0.0000
     36 ****         0.6784  -2.2234   0.9208 H              1 S1                 0.0000
     37 ****        -0.6905  -2.2064  -2.4309 H              1 S1                 0.0000
     38 ****        -0.3801  -4.0688  -4.0411 H              1 S1                 0.0000
     39 ****         1.2749  -5.9300  -3.4458 H              1 S1                 0.0000
     40 ****         2.6277  -6.1512   0.9870 H              1 S1                 0.0000
     41 ****         3.8343  -5.6071  -0.1888 H              1 S1                 0.0000
     42 ****         3.7161  -4.9771   2.7786 H              1 S1                 0.0000
     43 ****         5.1138  -5.5404   1.8562 H              1 S1                 0.0000
     44 ****         4.8479  -2.8795   2.3475 H              1 S1                 0.0000
     45 ****         5.3188  -3.4106   0.7325 H              1 S1                 0.0000
     46 ****         3.4061  -2.2349   0.0656 H              1 S1                 0.0000
     47 ****         2.6281  -2.4315   1.6393 H              1 S1                 0.0000
     48 ****        -0.8857   5.2843  -0.0684 H              1 S1                 0.0000
     49 ****        -0.2551   3.8792  -0.8881 H              1 S1                 0.0000
     50 ****        -2.5920   3.1588  -1.4825 H              1 S1                 0.0000
     51 ****        -1.4860   4.7496  -3.0539 H              1 S1                 0.0000
     52 ****        -2.1457   6.1100  -2.1472 H              1 S1                 0.0000
     53 ****        -3.2269   5.0075  -2.9947 H              1 S1                 0.0000
     54 ****        -0.4698   3.7595   1.5445 H              1 S1                 0.0000
     55 ****         2.4290  -5.7969  -1.4572 H              1 S1                 0.0000
     56 ****         0.3865  -0.4522   1.7710 LP             1 S1                 0.0000
     57 ****         0.3517   0.8169  -1.5479 LP             1 S1                 0.0000
     58 ****         0.4869  -0.7898  -2.1808 LP             1 S1                 0.0000
     59 ****         1.6563  -4.1928   0.9805 LP             1 S1                 0.0000
     60 ****        -3.3190   5.5798  -0.0934 LP             1 S1                 0.0000
     61 ****        -4.3238   4.6107  -0.9407 LP             1 S1                 0.0000
@<TRIPOS>BOND
    1    1    2 1     
    2    1   26 1     
    3    1   27 1     
    4    1   28 1     
    5    2   25 1     
    6    2    3 1     
    7    2   29 1     
    8    3    4 1     
    9    3   30 1     
   10    3   31 1     
   11    4    5 1     
   12    4   22 1     
   13    4   54 1     
   14    5    6 1     
   15    5   32 1     
   16    5   33 1     
   17    6    7 1     
   18    6   34 1     
   19    6   35 1     
   20    7    8 1     
   21    8    9 2     
   22    8   10 am    
   23   10   11 1     
   24   10   36 1     
   25   11   16 ar    
   26   11   12 ar    
   27   12   13 ar    
   28   12   37 1     
   29   13   14 ar    
   30   13   38 1     
   31   14   15 ar    
   32   14   39 1     
   33   15   16 ar    
   34   15   55 1     
   35   16   17 1     
   36   17   21 1     
   37   17   18 1     
   38   18   19 1     
   39   18   40 1     
   40   18   41 1     
   41   19   20 1     
   42   19   42 1     
   43   19   43 1     
   44   20   21 1     
   45   20   44 1     
   46   20   45 1     
   47   21   46 1     
   48   21   47 1     
   49   22   23 1     
   50   22   48 1     
   51   22   49 1     
   52   23   24 1     
   53   23   25 1     
   54   23   50 1     
   55   24   51 1     
   56   24   52 1     
   57   24   53 1     
   58    7   56 1     
   59    9   57 1     
   60    9   58 1     
   61   17   59 1     
   62   25   60 1     
   63   25   61 1     
@<TRIPOS>SUBSTRUCTURE
      1 S1             1
@<TRIPOS>SET
LONE_PAIRS      STATIC     ATOMS    <user>   **** ""
6 56 57 58 59 60 61
DONOR_HYDROGENS      STATIC     ATOMS    <user>   **** ""
3 54 36 55
ATOM$BLUE        STATIC     ATOMS    COLORGROUP SYSTEM
6 56 57 58 59 60 61
ATOM$RED        STATIC     ATOMS    COLORGROUP SYSTEM
3 54 36 55
