AV-unprocessed.smi:1196|AV-procd|sdf|4997|dock2
  -GOLD-   22720 4 03D 1   1.00000     0.00000
 Structure written by MMmdl.
 37 38  0  0  0  0  0  0  0  0  1 V2000
  153.2725  139.7030  158.8274 C   0  0  0  0  0  0  0  0  0  0  0  0
  152.3204  140.8125  159.3012 C   0  0  1  0  0  0  0  0  0  0  0  0
  153.0871  141.9496  160.0040 C   0  0  0  0  0  0  0  0  0  0  0  0
  152.3413  143.1959  160.0127 N   0  0  0  0  0  0  0  0  0  0  0  0
  152.5512  144.3229  159.2466 C   0  0  0  0  0  0  0  0  0  0  0  0
  151.6084  145.2417  159.6087 C   0  0  0  0  0  0  0  0  0  0  0  0
  150.8569  144.5755  160.6170 C   0  0  0  0  0  0  0  0  0  0  0  0
  151.2983  143.3512  160.8574 N   0  0  0  0  0  0  0  0  0  0  0  0
  151.5671  141.3433  158.1671 N   0  0  0  0  0  0  0  0  0  0  0  0
  150.7510  140.6358  157.3715 C   0  0  0  0  0  0  0  0  0  0  0  0
  150.5613  139.4261  157.5002 O   0  0  0  0  0  0  0  0  0  0  0  0
  150.0353  141.4198  156.2690 C   0  0  0  0  0  0  0  0  0  0  0  0
  149.1332  140.5279  155.3955 C   0  0  0  0  0  0  0  0  0  0  0  0
  148.5922  141.2572  154.1506 C   0  0  2  0  0  0  0  0  0  0  0  0
  147.8517  142.4628  154.4819 N   0  0  0  0  0  0  0  0  0  0  0  0
  146.5838  142.4200  154.0506 C   0  0  0  0  0  0  0  0  0  0  0  0
  145.7425  143.3040  154.1933 O   0  0  0  0  0  0  0  0  0  0  0  0
  146.3955  141.2459  153.4386 N   0  0  0  0  0  0  0  0  0  0  0  0
  147.4894  140.4862  153.4478 C   0  0  0  0  0  0  0  0  0  0  0  0
  147.6102  139.3565  152.9781 O   0  0  0  0  0  0  0  0  0  0  0  0
  153.8356  139.2872  159.6633 H   0  0  0  0  0  0  0  0  0  0  0  0
  153.9899  140.0802  158.0979 H   0  0  0  0  0  0  0  0  0  0  0  0
  152.7249  138.8823  158.3630 H   0  0  0  0  0  0  0  0  0  0  0  0
  151.6252  140.3787  160.0226 H   0  0  0  0  0  0  0  0  0  0  0  0
  153.2912  141.6773  161.0403 H   0  0  0  0  0  0  0  0  0  0  0  0
  154.0566  142.1142  159.5304 H   0  0  0  0  0  0  0  0  0  0  0  0
  153.3467  144.3768  158.5178 H   0  0  0  0  0  0  0  0  0  0  0  0
  151.4758  146.2381  159.2141 H   0  0  0  0  0  0  0  0  0  0  0  0
  150.0101  144.9429  161.1777 H   0  0  0  0  0  0  0  0  0  0  0  0
  151.6542  142.3339  157.9916 H   0  0  0  0  0  0  0  0  0  0  0  0
  149.4461  142.2065  156.7412 H   0  0  0  0  0  0  0  0  0  0  0  0
  150.7741  141.9182  155.6393 H   0  0  0  0  0  0  0  0  0  0  0  0
  149.7005  139.6525  155.0740 H   0  0  0  0  0  0  0  0  0  0  0  0
  148.3008  140.1481  155.9912 H   0  0  0  0  0  0  0  0  0  0  0  0
  149.3912  141.4898  153.4456 H   0  0  0  0  0  0  0  0  0  0  0  0
  148.2606  143.2402  154.9797 H   0  0  0  0  0  0  0  0  0  0  0  0
  145.5191  140.9627  153.0250 H   0  0  0  0  0  0  0  0  0  0  0  0
  1  2  1  0  0  0  0
  1 21  1  0  0  0  0
  1 22  1  0  0  0  0
  1 23  1  0  0  0  0
  2  3  1  0  0  0  0
  2  9  1  0  0  0  0
  2 24  1  0  0  0  0
  3  4  1  0  0  0  0
  3 25  1  0  0  0  0
  3 26  1  0  0  0  0
  4  8  1  0  0  0  0
  4  5  1  0  0  0  0
  5  6  2  0  0  0  0
  5 27  1  0  0  0  0
  6  7  1  0  0  0  0
  6 28  1  0  0  0  0
  7  8  2  0  0  0  0
  7 29  1  0  0  0  0
  9 10  1  0  0  0  0
  9 30  1  0  0  0  0
 10 11  2  0  0  0  0
 10 12  1  0  0  0  0
 12 13  1  0  0  0  0
 12 31  1  0  0  0  0
 12 32  1  0  0  0  0
 13 14  1  0  0  0  0
 13 33  1  0  0  0  0
 13 34  1  0  0  0  0
 14 19  1  0  0  0  0
 14 15  1  0  0  0  0
 14 35  1  0  0  0  0
 15 16  1  0  0  0  0
 15 36  1  0  0  0  0
 16 17  2  0  0  0  0
 16 18  1  0  0  0  0
 18 19  1  0  0  0  0
 18 37  1  0  0  0  0
 19 20  2  0  0  0  0
M  END
> <s_m_source_file>
AV-unprocessed.smi

> <i_m_source_file_index>
1196

> <i_lp_mmshare_version>
43012

> <i_f3d_flags>
0

> <s_epik_input>
bjFbY0hdW2NIXVtjSF1uMVtDSDJdW0NAQEhdKFtDSDNdKVtOSF1DKD1PKVtDSDJdW0NIMl1bQ0BASF0yW05IXUMoPU8pW05IXUMyPU8=

> <s_epik_cmdline>
J2VwaWtfcHl0aG9uJywgJy1waCcsICc3LjAnLCAnLXRuJywgJzgnLCAnLW1hJywgJzIwMCcsICctbWV0YWxfYmluZGluZycsICctaW1hZScsICc8aW5maWxlLm1hZT4nLCAnLW9tYWUnLCAnPG91dGZpbGUubWFlPic=

> <r_lp_tautomer_probability>
1

> <r_epik_Ionization_Penalty>
0.00815973

> <r_epik_Ionization_Penalty_Charging>
0

> <r_epik_Ionization_Penalty_Neutral>
0.00815973

> <r_epik_State_Penalty>
0.00583796

> <r_epik_Charging_Adjusted_Penalty>
0.00583796

> <i_epik_Tot_Q>
0

> <i_epik_Tot_abs_Q>
0

> <r_epik_Metal_State_Penalty>
0.409204

> <b_epik_Metal_Only>
0

> <s_lp_Force_Field>
OPLS_2005

> <r_lp_Energy>
16.5203

> <b_lp_Chiralities_Consistent>
1

> <s_lp_Variant>
AV-unprocessed.smi:1196-2

> <Gold.Version>
5.8.1

> <Gold.Id.Protein>
6NUR|6NUR_protein|mol2

> <Gold.PLP.Fitness>
48.1657

> <Gold.PLP.PLP>
-43.0826

> <Gold.PLP.part.hbond>
-2.3938

> <Gold.PLP.part.metal>
0.0000

> <Gold.PLP.part.buried>
-8.1535

> <Gold.PLP.part.nonpolar>
-34.0460

> <Gold.PLP.part.repulsive>
1.5850

> <Gold.PLP.ligand.clash>
0.0000

> <Gold.PLP.ligand.torsion>
0.4882

> <Gold.PLP.Chemscore.Hbond>
2.0000

> <Gold.PLP.Chemscore.CHOScore>
0.0000

> <Gold.PLP.Chemscore.Metal>
0.0000

> <Gold.Chemscore.Hbonds>
donor molecule, donor type, donor heavy atom, donor atom, acceptor molecule, acceptor atom, score
      L1  H    15    36       P1  8028  1.00
      L1  H    18    37       P1 10175  1.00

> <Gold.PLP.Chemscore.Internal.Correction>
0.0596

> <Gold.Rescore>
     Score         DG    S(hbond)    S(metal)    S(lipo)     H(rot)  DE(clash)    DE(int)     intcor
     13.42     -13.82       1.94        0.00      80.47       2.96       0.01       0.39       ----

> <Gold.Chemscore.Fitness>
13.4222

> <Gold.Chemscore.DG>
-13.8187

> <Gold.Chemscore.ZeroCoef>
-5.4800

> <Gold.Chemscore.Hbond>
1.9447

> <Gold.Chemscore.Metal>
0.0000

> <Gold.Chemscore.Lipo>
80.4670

> <Gold.Chemscore.Internal_Hbond>
0.0000

> <Gold.Chemscore.DEClash>
0.0069

> <Gold.Chemscore.DEInternal>
0.3896

> <Gold.Chemscore.Rot>
2.9575

> <Gold.Chemscore.Internal.Correction>
   9.000000E+99

> <Gold.Chemscore.Hbonds>
donor molecule, donor type, donor heavy atom, donor atom, acceptor molecule, acceptor atom, score
      L1  H    15    36       P1  8028  0.98
      L1  H    18    37       P1 10175  0.34
      P1  H  6933  6945       L1     8  0.01

> <Gold.Chemscore.Hbond.Weighted>
-6.4954

> <Gold.Chemscore.Metal.Weighted>
-0.0000

> <Gold.Chemscore.Lipo.Weighted>
-9.4146

> <Gold.Chemscore.Internal_Hbond.Weighted>
0.0000

> <Gold.Chemscore.DEClash.Weighted>
0.0069

> <Gold.Chemscore.DEInternal.Weighted>
0.3896

> <Gold.Chemscore.Rot.Weighted>
7.5713

> <Gold.Chemscore.Internal.Correction.Weighted>
   9.000000E+99

> <Gold.Protein.RotatedTorsions>
[ 6907 6896 6895 6894 ] final  132.68 input  -60.11 | X-H torsion
[ 7974 7965 7964 7962 ] final   72.62 input  175.53 | X-H torsion
[ 8008 7997 7996 7995 ] final -139.48 input   59.86 | X-H torsion
[ 10167 10162 10161 10158 ] final  107.35 input  -65.29 | X-H torsion
[ 10718 10713 10712 10709 ] final  -48.89 input   66.30 | X-H torsion
[ 10763 10752 10751 10750 ] final   71.71 input  -60.55 | X-H torsion
[ 11005 11000 10999 10996 ] final -155.49 input  -57.11 | X-H torsion

> <Gold.Protein.ActiveResidues>
 VAL166  LYS551  ARG553  GLY616  TRP617  ASP618  TYR619  PRO620  LYS621  CYS622 
 ASP623  PHE694  ASN695  SER759  ASP760  ASP761  ALA762  ILE779  LEU786  VAL792 
 PHE793  MET794  SER795  GLU796  ALA797  LYS798  CYS799  TRP800  GLU811  SER814 

> <Gold.Protein.RotatedAtoms>
  152.3298  133.5946  159.5801 H   0  0  0  0  0  0  0  0  0  0  0  0  # atno 6907 bound_to 6896
  150.7417  133.9885  159.3608 H   0  0  0  0  0  0  0  0  0  0  0  0  # atno 6908 bound_to 6896
  151.7761  135.0774  160.0418 H   0  0  0  0  0  0  0  0  0  0  0  0  # atno 6909 bound_to 6896
  145.7511  139.2760  143.1431 H   0  0  0  0  0  0  0  0  0  0  0  0  # atno 7974 bound_to 7965
  155.4455  140.0535  157.3006 H   0  0  0  0  0  0  0  0  0  0  0  0  # atno 8008 bound_to 7997
  154.4799  140.2077  155.9744 H   0  0  0  0  0  0  0  0  0  0  0  0  # atno 8009 bound_to 7997
  156.1190  140.3191  155.8186 H   0  0  0  0  0  0  0  0  0  0  0  0  # atno 8010 bound_to 7997
  139.6935  144.7104  151.1308 H   0  0  0  0  0  0  0  0  0  0  0  0  # atno 10167 bound_to 10162
  156.1945  130.4154  149.9326 H   0  0  0  0  0  0  0  0  0  0  0  0  # atno 10718 bound_to 10713
  153.0415  135.5127  154.7634 H   0  0  0  0  0  0  0  0  0  0  0  0  # atno 10763 bound_to 10752
  154.6568  135.2933  154.9920 H   0  0  0  0  0  0  0  0  0  0  0  0  # atno 10764 bound_to 10752
  154.0784  135.6667  153.4887 H   0  0  0  0  0  0  0  0  0  0  0  0  # atno 10765 bound_to 10752
  140.6859  134.4094  157.5223 H   0  0  0  0  0  0  0  0  0  0  0  0  # atno 11005 bound_to 11000
  146.0356  140.8215  142.9854 LP  0  0  0  0  0  0  0  0  0  0  0  0  # atno 17320 bound_to 7965
  144.6849  140.2834  143.7289 LP  0  0  0  0  0  0  0  0  0  0  0  0  # atno 17321 bound_to 7965
  140.7689  143.5526  150.9188 LP  0  0  0  0  0  0  0  0  0  0  0  0  # atno 17342 bound_to 10162
  139.9204  143.6613  152.3098 LP  0  0  0  0  0  0  0  0  0  0  0  0  # atno 17343 bound_to 10162
  156.7055  130.8950  151.3604 LP  0  0  0  0  0  0  0  0  0  0  0  0  # atno 17370 bound_to 10713
  157.6949  130.9271  150.0617 LP  0  0  0  0  0  0  0  0  0  0  0  0  # atno 17371 bound_to 10713
  139.8938  134.8722  156.2208 LP  0  0  0  0  0  0  0  0  0  0  0  0  # atno 17394 bound_to 11000
  141.0280  133.7004  156.1382 LP  0  0  0  0  0  0  0  0  0  0  0  0  # atno 17395 bound_to 11000

$$$$
