AV-unprocessed.smi:227|AV-procd|sdf|1727|dock10
  -GOLD-   2262020213D 1   1.00000     0.00000
 Structure written by MMmdl.
 54 58  0  0  0  0  0  0  0  0  1 V2000
  148.8680  142.4949  157.3305 O   0  0  0  0  0  0  0  0  0  0  0  0
  149.8932  141.5244  157.3753 C   0  0  0  0  0  0  0  0  0  0  0  0
  149.5756  140.3249  156.4459 C   0  0  2  0  0  0  0  0  0  0  0  0
  150.4806  139.1050  156.7887 C   0  0  0  0  0  0  0  0  0  0  0  0
  149.9982  138.2935  157.8975 N   0  0  0  0  0  0  0  0  0  0  0  0
  150.7096  137.9061  159.0097 C   0  0  0  0  0  0  0  0  0  0  0  0
  150.0482  137.1795  159.8667 N   0  0  0  0  0  0  0  0  0  0  0  0
  148.7844  137.0396  159.3045 C   0  0  0  0  0  0  0  0  0  0  0  0
  147.5784  136.3839  159.6952 C   0  0  0  0  0  0  0  0  0  0  0  0
  147.4123  135.6821  160.8514 N   0  0  0  0  0  0  0  0  0  0  0  0
  147.4793  136.3298  162.1535 C   0  0  2  0  0  0  0  0  0  0  0  0
  147.4342  135.1325  163.1180 C   0  0  0  0  0  0  0  0  0  0  0  0
  146.5017  134.1733  162.3654 C   0  0  0  0  0  0  0  0  0  0  0  0
  146.1469  135.0105  161.1223 C   0  0  1  0  0  0  0  0  0  0  0  0
  145.1947  136.1819  161.4781 C   0  0  1  0  0  0  0  0  0  0  0  0
  143.8941  135.8069  162.2124 C   0  0  0  0  0  0  0  0  0  0  0  0
  143.1854  136.9764  162.5620 O   0  0  0  0  0  0  0  0  0  0  0  0
  146.1498  137.1050  162.2592 C   0  0  0  0  0  0  0  0  0  0  0  0
  146.5305  136.4501  158.8314 N   0  0  0  0  0  0  0  0  0  0  0  0
  146.6357  137.1210  157.6819 C   0  0  0  0  0  0  0  0  0  0  0  0
  147.6848  137.7872  157.2004 N   0  0  0  0  0  0  0  0  0  0  0  0
  148.7466  137.7208  158.0527 C   0  0  0  0  0  0  0  0  0  0  0  0
  149.6432  140.7363  154.9413 C   0  0  2  0  0  0  0  0  0  0  0  0
  148.4612  141.5682  154.4488 C   0  0  0  0  0  0  0  0  0  0  0  0
  147.4065  140.5255  154.0793 C   0  0  0  0  0  0  0  0  0  0  0  0
  148.1195  139.3172  153.8429 O   0  0  0  0  0  0  0  0  0  0  0  0
  149.5135  139.5651  153.9561 C   0  0  0  0  0  0  0  0  0  0  0  0
  149.1028  143.1479  156.6883 H   0  0  0  0  0  0  0  0  0  0  0  0
  150.8044  142.0373  157.0776 H   0  0  0  0  0  0  0  0  0  0  0  0
  150.0427  141.1996  158.4049 H   0  0  0  0  0  0  0  0  0  0  0  0
  148.5492  140.0205  156.6557 H   0  0  0  0  0  0  0  0  0  0  0  0
  150.5898  138.4579  155.9182 H   0  0  0  0  0  0  0  0  0  0  0  0
  151.4972  139.4218  157.0159 H   0  0  0  0  0  0  0  0  0  0  0  0
  151.7404  138.1836  159.1732 H   0  0  0  0  0  0  0  0  0  0  0  0
  148.3568  136.9478  162.3329 H   0  0  0  0  0  0  0  0  0  0  0  0
  148.4236  134.6889  163.2369 H   0  0  0  0  0  0  0  0  0  0  0  0
  147.0610  135.4010  164.1069 H   0  0  0  0  0  0  0  0  0  0  0  0
  147.0447  133.2731  162.0741 H   0  0  0  0  0  0  0  0  0  0  0  0
  145.6393  133.8584  162.9513 H   0  0  0  0  0  0  0  0  0  0  0  0
  145.7759  134.3912  160.3050 H   0  0  0  0  0  0  0  0  0  0  0  0
  144.9176  136.6771  160.5456 H   0  0  0  0  0  0  0  0  0  0  0  0
  143.2589  135.1953  161.5713 H   0  0  0  0  0  0  0  0  0  0  0  0
  144.0920  135.2368  163.1197 H   0  0  0  0  0  0  0  0  0  0  0  0
  143.5666  137.3341  163.3492 H   0  0  0  0  0  0  0  0  0  0  0  0
  145.8471  137.2686  163.2943 H   0  0  0  0  0  0  0  0  0  0  0  0
  146.2221  138.0792  161.7741 H   0  0  0  0  0  0  0  0  0  0  0  0
  145.7523  137.1256  157.0606 H   0  0  0  0  0  0  0  0  0  0  0  0
  150.5736  141.2773  154.7656 H   0  0  0  0  0  0  0  0  0  0  0  0
  148.0828  142.3147  155.1433 H   0  0  0  0  0  0  0  0  0  0  0  0
  148.7591  142.1055  153.5471 H   0  0  0  0  0  0  0  0  0  0  0  0
  146.7084  140.3660  154.9017 H   0  0  0  0  0  0  0  0  0  0  0  0
  146.8333  140.8230  153.2008 H   0  0  0  0  0  0  0  0  0  0  0  0
  149.8863  139.8648  152.9755 H   0  0  0  0  0  0  0  0  0  0  0  0
  150.0518  138.6620  154.2343 H   0  0  0  0  0  0  0  0  0  0  0  0
  1  2  1  0  0  0  0
  1 28  1  0  0  0  0
  2  3  1  0  0  0  0
  2 29  1  0  0  0  0
  2 30  1  0  0  0  0
  3  4  1  0  0  0  0
  3 23  1  0  0  0  0
  3 31  1  0  0  0  0
  4  5  1  0  0  0  0
  4 32  1  0  0  0  0
  4 33  1  0  0  0  0
  5 22  1  0  0  0  0
  5  6  1  0  0  0  0
  6  7  2  0  0  0  0
  6 34  1  0  0  0  0
  7  8  1  0  0  0  0
  8 22  2  0  0  0  0
  8  9  1  0  0  0  0
  9 10  1  0  0  0  0
  9 19  2  0  0  0  0
 10 14  1  0  0  0  0
 10 11  1  0  0  0  0
 11 18  1  0  0  0  0
 11 12  1  0  0  0  0
 11 35  1  0  0  0  0
 12 13  1  0  0  0  0
 12 36  1  0  0  0  0
 12 37  1  0  0  0  0
 13 14  1  0  0  0  0
 13 38  1  0  0  0  0
 13 39  1  0  0  0  0
 14 15  1  0  0  0  0
 14 40  1  0  0  0  0
 15 16  1  0  0  0  0
 15 18  1  0  0  0  0
 15 41  1  0  0  0  0
 16 17  1  0  0  0  0
 16 42  1  0  0  0  0
 16 43  1  0  0  0  0
 17 44  1  0  0  0  0
 18 45  1  0  0  0  0
 18 46  1  0  0  0  0
 19 20  1  0  0  0  0
 20 21  2  0  0  0  0
 20 47  1  0  0  0  0
 21 22  1  0  0  0  0
 23 27  1  0  0  0  0
 23 24  1  0  0  0  0
 23 48  1  0  0  0  0
 24 25  1  0  0  0  0
 24 49  1  0  0  0  0
 24 50  1  0  0  0  0
 25 26  1  0  0  0  0
 25 51  1  0  0  0  0
 25 52  1  0  0  0  0
 26 27  1  0  0  0  0
 27 53  1  0  0  0  0
 27 54  1  0  0  0  0
M  END
> <s_m_source_file>
AV-unprocessed.smi

> <i_m_source_file_index>
227

> <i_lp_mmshare_version>
43012

> <i_f3d_flags>
0

> <s_epik_input>
W0NIMl0xT1tDSDJdW0NIMl1bQ0BIXTFbQ0BIXShbQ0gyXVtPSF0pW0NIMl1uKFtjSF1uMiljKGMyMyluW2NIXW5jM04oW0NASF00NSlbQ0BASF0oW0NIMl1bQ0gyXTQpW0NASF0oW0NIMl01KVtDSDJdW09IXQ==

> <s_epik_cmdline>
J2VwaWtfcHl0aG9uJywgJy1waCcsICc3LjAnLCAnLXRuJywgJzgnLCAnLW1hJywgJzIwMCcsICctbWV0YWxfYmluZGluZycsICctaW1hZScsICc8aW5maWxlLm1hZT4nLCAnLW9tYWUnLCAnPG91dGZpbGUubWFlPic=

> <r_lp_tautomer_probability>
1

> <r_epik_Ionization_Penalty>
0.0055791

> <r_epik_Ionization_Penalty_Charging>
0

> <r_epik_Ionization_Penalty_Neutral>
0.0055791

> <r_epik_State_Penalty>
0.00401299

> <r_epik_Charging_Adjusted_Penalty>
0.00401299

> <i_epik_Tot_Q>
0

> <i_epik_Tot_abs_Q>
0

> <r_epik_Metal_State_Penalty>
-0

> <b_epik_Metal_Only>
0

> <s_lp_Force_Field>
OPLS_2005

> <r_lp_Energy>
89.6374

> <b_lp_Chiralities_Consistent>
1

> <s_lp_Variant>
AV-unprocessed.smi:227-1

> <Gold.Version>
5.8.1

> <Gold.Id.Protein>
6NUR|6NUR_protein|mol2

> <Gold.PLP.Fitness>
41.8693

> <Gold.PLP.PLP>
-40.1093

> <Gold.PLP.part.hbond>
-3.0288

> <Gold.PLP.part.metal>
0.0000

> <Gold.PLP.part.buried>
-2.6110

> <Gold.PLP.part.nonpolar>
-33.9755

> <Gold.PLP.part.repulsive>
0.2656

> <Gold.PLP.ligand.clash>
0.0000

> <Gold.PLP.ligand.torsion>
0.6679

> <Gold.PLP.Chemscore.Hbond>
0.9760

> <Gold.PLP.Chemscore.CHOScore>
0.0000

> <Gold.PLP.Chemscore.Metal>
0.0000

> <Gold.Chemscore.Hbonds>
donor molecule, donor type, donor heavy atom, donor atom, acceptor molecule, acceptor atom, score
      L1  H     1    28       P1  8028  1.00

> <Gold.PLP.Chemscore.Internal.Correction>
0.1679

> <Gold.Rescore>
     Score         DG    S(hbond)    S(metal)    S(lipo)     H(rot)  DE(clash)    DE(int)     intcor
      8.49     -10.58       0.97        0.00      94.81       3.61       0.16       1.93       ----

> <Gold.Chemscore.Fitness>
8.4878

> <Gold.Chemscore.DG>
-10.5752

> <Gold.Chemscore.ZeroCoef>
-5.4800

> <Gold.Chemscore.Hbond>
0.9691

> <Gold.Chemscore.Metal>
0.0000

> <Gold.Chemscore.Lipo>
94.8086

> <Gold.Chemscore.Internal_Hbond>
0.0000

> <Gold.Chemscore.DEClash>
0.1617

> <Gold.Chemscore.DEInternal>
1.9257

> <Gold.Chemscore.Rot>
3.6071

> <Gold.Chemscore.Internal.Correction>
   9.000000E+99

> <Gold.Chemscore.Hbonds>
donor molecule, donor type, donor heavy atom, donor atom, acceptor molecule, acceptor atom, score
      L1  H     1    28       P1  8028  0.96

> <Gold.Chemscore.Hbond.Weighted>
-3.2368

> <Gold.Chemscore.Metal.Weighted>
-0.0000

> <Gold.Chemscore.Lipo.Weighted>
-11.0926

> <Gold.Chemscore.Internal_Hbond.Weighted>
0.0000

> <Gold.Chemscore.DEClash.Weighted>
0.1617

> <Gold.Chemscore.DEInternal.Weighted>
1.9257

> <Gold.Chemscore.Rot.Weighted>
9.2342

> <Gold.Chemscore.Internal.Correction.Weighted>
   9.000000E+99

> <Gold.Protein.RotatedTorsions>
[ 6907 6896 6895 6894 ] final  152.56 input  -60.11 | X-H torsion
[ 7974 7965 7964 7962 ] final  -50.35 input  175.53 | X-H torsion
[ 8008 7997 7996 7995 ] final  114.64 input   59.86 | X-H torsion
[ 10167 10162 10161 10158 ] final  -85.30 input  -65.29 | X-H torsion
[ 10718 10713 10712 10709 ] final  171.53 input   66.30 | X-H torsion
[ 10763 10752 10751 10750 ] final  176.10 input  -60.55 | X-H torsion
[ 11005 11000 10999 10996 ] final  159.73 input  -57.11 | X-H torsion

> <Gold.Protein.ActiveResidues>
 VAL166  LYS551  ARG553  GLY616  TRP617  ASP618  TYR619  PRO620  LYS621  CYS622 
 ASP623  PHE694  ASN695  SER759  ASP760  ASP761  ALA762  ILE779  LEU786  VAL792 
 PHE793  MET794  SER795  GLU796  ALA797  LYS798  CYS799  TRP800  GLU811  SER814 

> <Gold.Protein.RotatedAtoms>
  152.0850  133.4171  159.4517 H   0  0  0  0  0  0  0  0  0  0  0  0  # atno 6907 bound_to 6896
  150.6862  134.2938  159.4687 H   0  0  0  0  0  0  0  0  0  0  0  0  # atno 6908 bound_to 6896
  152.0784  134.9487  160.0624 H   0  0  0  0  0  0  0  0  0  0  0  0  # atno 6909 bound_to 6896
  145.9307  140.7752  142.9601 H   0  0  0  0  0  0  0  0  0  0  0  0  # atno 7974 bound_to 7965
  156.2333  140.2955  156.0247 H   0  0  0  0  0  0  0  0  0  0  0  0  # atno 8008 bound_to 7997
  155.2162  140.0414  157.2958 H   0  0  0  0  0  0  0  0  0  0  0  0  # atno 8009 bound_to 7997
  154.6035  140.2433  155.7769 H   0  0  0  0  0  0  0  0  0  0  0  0  # atno 8010 bound_to 7997
  140.4051  143.2646  151.9092 H   0  0  0  0  0  0  0  0  0  0  0  0  # atno 10167 bound_to 10162
  156.9922  131.0151  151.2853 H   0  0  0  0  0  0  0  0  0  0  0  0  # atno 10718 bound_to 10713
  154.4765  135.2773  155.1603 H   0  0  0  0  0  0  0  0  0  0  0  0  # atno 10763 bound_to 10752
  154.3331  135.6186  153.5564 H   0  0  0  0  0  0  0  0  0  0  0  0  # atno 10764 bound_to 10752
  152.9870  135.5770  154.5157 H   0  0  0  0  0  0  0  0  0  0  0  0  # atno 10765 bound_to 10752
  140.1990  134.8352  157.2997 H   0  0  0  0  0  0  0  0  0  0  0  0  # atno 11005 bound_to 11000
  144.6764  140.2123  143.7375 LP  0  0  0  0  0  0  0  0  0  0  0  0  # atno 17320 bound_to 7965
  145.8429  139.2138  143.1817 LP  0  0  0  0  0  0  0  0  0  0  0  0  # atno 17321 bound_to 7965
  139.4783  144.5594  151.8262 LP  0  0  0  0  0  0  0  0  0  0  0  0  # atno 17342 bound_to 10162
  140.4698  144.1603  150.5916 LP  0  0  0  0  0  0  0  0  0  0  0  0  # atno 17343 bound_to 10162
  157.5450  130.8145  149.8075 LP  0  0  0  0  0  0  0  0  0  0  0  0  # atno 17370 bound_to 10713
  156.0203  130.3798  150.1983 LP  0  0  0  0  0  0  0  0  0  0  0  0  # atno 17371 bound_to 10713
  140.2075  134.4179  155.7630 LP  0  0  0  0  0  0  0  0  0  0  0  0  # atno 17394 bound_to 11000
  141.2227  133.7102  156.8284 LP  0  0  0  0  0  0  0  0  0  0  0  0  # atno 17395 bound_to 11000

$$$$
