AV-unprocessed.smi:2618|AV-procd|sdf|10219|dock9
  -GOLD-   2272014223D 1   1.00000     0.00000
 Structure written by MMmdl.
 39 40  0  0  0  0  0  0  0  0  1 V2000
  156.3178  138.0741  153.3640 C   0  0  0  0  0  0  0  0  0  0  0  0
  155.0845  137.6897  153.9449 O   0  0  0  0  0  0  0  0  0  0  0  0
  154.4027  138.7782  154.5488 C   0  0  0  0  0  0  0  0  0  0  0  0
  152.8902  138.4879  154.5888 C   0  0  0  0  0  0  0  0  0  0  0  0
  152.0906  139.4893  155.3873 C   0  0  0  0  0  0  0  0  0  0  0  0
  152.5209  140.0989  156.4299 N   0  0  0  0  0  0  0  0  0  0  0  0
  151.5955  140.9239  156.9188 N   0  0  0  0  0  0  0  0  0  0  0  0
  151.8275  141.7680  158.0112 C   0  0  0  0  0  0  0  0  0  0  0  0
  151.3090  143.0021  157.9757 N   0  0  0  0  0  0  0  0  0  0  0  0
  151.5403  143.8131  159.0301 C   0  0  0  0  0  0  0  0  0  0  0  0
  150.9383  145.2004  158.9643 C   0  0  0  0  0  0  0  0  0  0  0  0
  152.3068  143.3928  160.1353 C   0  0  0  0  0  0  0  0  0  0  0  0
  152.8117  142.0785  160.0717 C   0  0  0  0  0  0  0  0  0  0  0  0
  153.6536  141.4967  161.1870 C   0  0  0  0  0  0  0  0  0  0  0  0
  152.5701  141.2747  159.0139 N   0  0  0  0  0  0  0  0  0  0  0  0
  150.3268  140.8107  156.1839 C   0  0  2  0  0  0  0  0  0  0  0  0
  149.8343  142.0138  155.6163 O   0  0  0  0  0  0  0  0  0  0  0  0
  149.1968  140.1654  157.0358 C   0  0  0  0  0  0  0  0  0  0  0  0
  149.6460  139.0628  157.6380 F   0  0  0  0  0  0  0  0  0  0  0  0
  148.7396  140.9895  157.9774 F   0  0  0  0  0  0  0  0  0  0  0  0
  148.1746  139.8179  156.2521 F   0  0  0  0  0  0  0  0  0  0  0  0
  150.7138  139.9013  155.0099 C   0  0  0  0  0  0  0  0  0  0  0  0
  156.7933  137.2063  152.9072 H   0  0  0  0  0  0  0  0  0  0  0  0
  156.9992  138.4736  154.1164 H   0  0  0  0  0  0  0  0  0  0  0  0
  156.1715  138.8264  152.5878 H   0  0  0  0  0  0  0  0  0  0  0  0
  154.7873  138.9712  155.5520 H   0  0  0  0  0  0  0  0  0  0  0  0
  154.5822  139.6803  153.9618 H   0  0  0  0  0  0  0  0  0  0  0  0
  152.5029  138.4643  153.5701 H   0  0  0  0  0  0  0  0  0  0  0  0
  152.7302  137.4901  154.9982 H   0  0  0  0  0  0  0  0  0  0  0  0
  150.9832  145.6943  159.9353 H   0  0  0  0  0  0  0  0  0  0  0  0
  149.8932  145.1501  158.6569 H   0  0  0  0  0  0  0  0  0  0  0  0
  151.4801  145.8124  158.2429 H   0  0  0  0  0  0  0  0  0  0  0  0
  152.4969  144.0396  160.9794 H   0  0  0  0  0  0  0  0  0  0  0  0
  153.8175  142.2269  161.9799 H   0  0  0  0  0  0  0  0  0  0  0  0
  154.6260  141.1846  160.8052 H   0  0  0  0  0  0  0  0  0  0  0  0
  153.1587  140.6272  161.6205 H   0  0  0  0  0  0  0  0  0  0  0  0
  148.9021  141.9251  155.4907 H   0  0  0  0  0  0  0  0  0  0  0  0
  150.7348  140.4243  154.0524 H   0  0  0  0  0  0  0  0  0  0  0  0
  150.0594  139.0350  154.9087 H   0  0  0  0  0  0  0  0  0  0  0  0
  1  2  1  0  0  0  0
  1 23  1  0  0  0  0
  1 24  1  0  0  0  0
  1 25  1  0  0  0  0
  2  3  1  0  0  0  0
  3  4  1  0  0  0  0
  3 26  1  0  0  0  0
  3 27  1  0  0  0  0
  4  5  1  0  0  0  0
  4 28  1  0  0  0  0
  4 29  1  0  0  0  0
  5 22  1  0  0  0  0
  5  6  2  0  0  0  0
  6  7  1  0  0  0  0
  7  8  1  0  0  0  0
  7 16  1  0  0  0  0
  8 15  1  0  0  0  0
  8  9  2  0  0  0  0
  9 10  1  0  0  0  0
 10 11  1  0  0  0  0
 10 12  2  0  0  0  0
 11 30  1  0  0  0  0
 11 31  1  0  0  0  0
 11 32  1  0  0  0  0
 12 13  1  0  0  0  0
 12 33  1  0  0  0  0
 13 14  1  0  0  0  0
 13 15  2  0  0  0  0
 14 34  1  0  0  0  0
 14 35  1  0  0  0  0
 14 36  1  0  0  0  0
 16 17  1  0  0  0  0
 16 18  1  0  0  0  0
 16 22  1  0  0  0  0
 17 37  1  0  0  0  0
 18 19  1  0  0  0  0
 18 20  1  0  0  0  0
 18 21  1  0  0  0  0
 22 38  1  0  0  0  0
 22 39  1  0  0  0  0
M  END
> <s_m_source_file>
AV-unprocessed.smi

> <i_m_source_file_index>
2618

> <i_lp_mmshare_version>
43012

> <i_f3d_flags>
0

> <s_epik_input>
W0NIM11PW0NIMl1bQ0gyXUMoW0NIMl0xKT1OTihbQ0BAXTEoW09IXSlDKEYpKEYpRiljMm5jKFtDSDNdKVtjSF1jKG4yKVtDSDNd

> <s_epik_cmdline>
J2VwaWtfcHl0aG9uJywgJy1waCcsICc3LjAnLCAnLXRuJywgJzgnLCAnLW1hJywgJzIwMCcsICctbWV0YWxfYmluZGluZycsICctaW1hZScsICc8aW5maWxlLm1hZT4nLCAnLW9tYWUnLCAnPG91dGZpbGUubWFlPic=

> <r_lp_tautomer_probability>
1

> <r_epik_Ionization_Penalty>
0.0648608

> <r_epik_Ionization_Penalty_Charging>
0

> <r_epik_Ionization_Penalty_Neutral>
0.0648608

> <r_epik_State_Penalty>
0.0551477

> <r_epik_Charging_Adjusted_Penalty>
0.0551477

> <i_epik_Tot_Q>
0

> <i_epik_Tot_abs_Q>
0

> <r_epik_Metal_State_Penalty>
0.0550619

> <b_epik_Metal_Only>
0

> <s_epik_Chemistry_Notes>
This compound has an imine and may undergo hydrolysis.

> <s_lp_Force_Field>
OPLS_2005

> <r_lp_Energy>
16.3005

> <b_lp_Chiralities_Consistent>
1

> <s_lp_Variant>
AV-unprocessed.smi:2618-2

> <Gold.Version>
5.8.1

> <Gold.Id.Protein>
6NUR|6NUR_protein|mol2

> <Gold.PLP.Fitness>
43.5486

> <Gold.PLP.PLP>
-42.1473

> <Gold.PLP.part.hbond>
-3.0000

> <Gold.PLP.part.metal>
0.0000

> <Gold.PLP.part.buried>
-0.5851

> <Gold.PLP.part.nonpolar>
-38.5533

> <Gold.PLP.part.repulsive>
0.0936

> <Gold.PLP.ligand.clash>
0.0000

> <Gold.PLP.ligand.torsion>
1.2894

> <Gold.PLP.Chemscore.Hbond>
1.2960

> <Gold.PLP.Chemscore.CHOScore>
0.0000

> <Gold.PLP.Chemscore.Metal>
0.0000

> <Gold.Chemscore.Hbonds>
donor molecule, donor type, donor heavy atom, donor atom, acceptor molecule, acceptor atom, score
      P1  H  7997  8008       L1     6  0.94
      P1  H 10752 10765       L1     2  0.28

> <Gold.PLP.Chemscore.Internal.Correction>
0.0921

> <Gold.Rescore>
     Score         DG    S(hbond)    S(metal)    S(lipo)     H(rot)  DE(clash)    DE(int)     intcor
     14.47     -17.28       1.41        0.00     105.03       2.03       1.74       1.08       ----

> <Gold.Chemscore.Fitness>
14.4701

> <Gold.Chemscore.DG>
-17.2819

> <Gold.Chemscore.ZeroCoef>
-5.4800

> <Gold.Chemscore.Hbond>
1.4132

> <Gold.Chemscore.Metal>
0.0000

> <Gold.Chemscore.Lipo>
105.0344

> <Gold.Chemscore.Internal_Hbond>
0.0000

> <Gold.Chemscore.DEClash>
1.7350

> <Gold.Chemscore.DEInternal>
1.0769

> <Gold.Chemscore.Rot>
2.0340

> <Gold.Chemscore.Internal.Correction>
   9.000000E+99

> <Gold.Chemscore.Hbonds>
donor molecule, donor type, donor heavy atom, donor atom, acceptor molecule, acceptor atom, score
      P1  H  7997  8008       L1     6  0.82
      P1  H 10752 10765       L1     2  0.24

> <Gold.Chemscore.Hbond.Weighted>
-4.7200

> <Gold.Chemscore.Metal.Weighted>
-0.0000

> <Gold.Chemscore.Lipo.Weighted>
-12.2890

> <Gold.Chemscore.Internal_Hbond.Weighted>
0.0000

> <Gold.Chemscore.DEClash.Weighted>
1.7350

> <Gold.Chemscore.DEInternal.Weighted>
1.0769

> <Gold.Chemscore.Rot.Weighted>
5.2071

> <Gold.Chemscore.Internal.Correction.Weighted>
   9.000000E+99

> <Gold.Protein.RotatedTorsions>
[ 6907 6896 6895 6894 ] final   89.89 input  -60.11 | X-H torsion
[ 7974 7965 7964 7962 ] final   66.38 input  175.53 | X-H torsion
[ 8008 7997 7996 7995 ] final  -62.12 input   59.86 | X-H torsion
[ 10167 10162 10161 10158 ] final  104.34 input  -65.29 | X-H torsion
[ 10718 10713 10712 10709 ] final  -40.93 input   66.30 | X-H torsion
[ 10763 10752 10751 10750 ] final   26.17 input  -60.55 | X-H torsion
[ 11005 11000 10999 10996 ] final  -72.63 input  -57.11 | X-H torsion

> <Gold.Protein.ActiveResidues>
 VAL166  LYS551  ARG553  GLY616  TRP617  ASP618  TYR619  PRO620  LYS621  CYS622 
 ASP623  PHE694  ASN695  SER759  ASP760  ASP761  ALA762  ILE779  LEU786  VAL792 
 PHE793  MET794  SER795  GLU796  ALA797  LYS798  CYS799  TRP800  GLU811  SER814 

> <Gold.Protein.RotatedAtoms>
  152.5440  134.1897  159.8668 H   0  0  0  0  0  0  0  0  0  0  0  0  # atno 6907 bound_to 6896
  151.1893  133.4670  159.2602 H   0  0  0  0  0  0  0  0  0  0  0  0  # atno 6908 bound_to 6896
  151.1099  135.0033  159.8544 H   0  0  0  0  0  0  0  0  0  0  0  0  # atno 6909 bound_to 6896
  145.8273  139.3119  143.1008 H   0  0  0  0  0  0  0  0  0  0  0  0  # atno 7974 bound_to 7965
  154.4483  140.1003  156.6538 H   0  0  0  0  0  0  0  0  0  0  0  0  # atno 8008 bound_to 7997
  155.5368  140.3482  155.4419 H   0  0  0  0  0  0  0  0  0  0  0  0  # atno 8009 bound_to 7997
  156.0625  140.1330  156.9913 H   0  0  0  0  0  0  0  0  0  0  0  0  # atno 8010 bound_to 7997
  139.7186  144.7063  151.0910 H   0  0  0  0  0  0  0  0  0  0  0  0  # atno 10167 bound_to 10162
  156.2759  130.4212  149.8388 H   0  0  0  0  0  0  0  0  0  0  0  0  # atno 10718 bound_to 10713
  153.0640  135.6566  154.0396 H   0  0  0  0  0  0  0  0  0  0  0  0  # atno 10763 bound_to 10752
  154.0057  135.2933  155.3399 H   0  0  0  0  0  0  0  0  0  0  0  0  # atno 10764 bound_to 10752
  154.6991  135.5252  153.8569 H   0  0  0  0  0  0  0  0  0  0  0  0  # atno 10765 bound_to 10752
  141.1611  133.6853  156.7089 H   0  0  0  0  0  0  0  0  0  0  0  0  # atno 11005 bound_to 11000
  145.9609  140.8836  143.0211 LP  0  0  0  0  0  0  0  0  0  0  0  0  # atno 17320 bound_to 7965
  144.6742  140.1811  143.7405 LP  0  0  0  0  0  0  0  0  0  0  0  0  # atno 17321 bound_to 7965
  140.7749  143.5197  150.9552 LP  0  0  0  0  0  0  0  0  0  0  0  0  # atno 17342 bound_to 10162
  139.8883  143.6985  152.3148 LP  0  0  0  0  0  0  0  0  0  0  0  0  # atno 17343 bound_to 10162
  156.5852  130.8483  151.3393 LP  0  0  0  0  0  0  0  0  0  0  0  0  # atno 17370 bound_to 10713
  157.7299  130.9678  150.1809 LP  0  0  0  0  0  0  0  0  0  0  0  0  # atno 17371 bound_to 10713
  140.2902  134.8246  157.4010 LP  0  0  0  0  0  0  0  0  0  0  0  0  # atno 17394 bound_to 11000
  140.1353  134.5042  155.8073 LP  0  0  0  0  0  0  0  0  0  0  0  0  # atno 17395 bound_to 11000

$$$$
