#       Name:                AV-unprocessed.smi:871
#       Creating user name   scv26
#       Creation time:       Fri Mar 27 01:50:13 2020


#       File generated by GOLD software.
#

@<TRIPOS>MOLECULE
AV-unprocessed.smi:871
    25    25     1
SMALL
NO_CHARGES


@<TRIPOS>ATOM
      1 ****        -2.1748  -2.1322  -0.4212 N.pl3          1 S1                 0.0000
      2 ****        -1.4931  -0.9365  -0.3023 C.2            1 S1                 0.0000
      3 ****        -2.1399   0.2415  -0.1837 C.2            1 S1                 0.0000
      4 ****        -1.4061   1.4775  -0.0648 C.2            1 S1                 0.0000
      5 ****        -0.0665   1.4204  -0.0633 C.2            1 S1                 0.0000
      6 ****         0.6306   0.1998  -0.1660 N.am           1 S1                 0.0000
      7 ****         2.1014   0.2790  -0.1844 C.3            1 S1                 0.0000
      8 ****         2.6716   0.6820   1.1788 C.2            1 S1                 0.0000
      9 ****         2.6862  -0.1937   2.0712 O.co2          1 S1                 0.0000
     10 ****         3.0817   1.8569   1.3042 O.co2          1 S1                -1.0000
     11 ****        -0.0192  -0.9973  -0.3092 C.2            1 S1                 0.0000
     12 ****         0.5937  -2.0606  -0.4310 O.2            1 S1                 0.0000
     13 ****        -1.6943  -3.0156  -0.5096 H              1 S1                 0.0000
     14 ****        -3.1812  -2.1559  -0.5056 H              1 S1                 0.0000
     15 ****        -3.2199   0.2669  -0.1795 H              1 S1                 0.0000
     16 ****        -1.9208   2.4236   0.0149 H              1 S1                 0.0000
     17 ****         0.5588   2.2985   0.0147 H              1 S1                 0.0000
     18 ****         2.5799  -0.6501  -0.4962 H              1 S1                 0.0000
     19 ****         2.4021   1.0174  -0.9295 H              1 S1                 0.0000
     20 ****         3.0486   0.0223   2.9778 LP             1 S1                 0.0000
     21 ****         2.3354  -1.1101   1.8783 LP             1 S1                 0.0000
     22 ****         3.4616   2.1634   2.1770 LP             1 S1                 0.0000
     23 ****         3.0297   2.4898   0.5317 LP             1 S1                 0.0000
     24 ****         0.0907  -2.9192  -0.5294 LP             1 S1                 0.0000
     25 ****         1.5937  -2.0641  -0.4314 LP             1 S1                 0.0000
@<TRIPOS>BOND
    1    1    2 1     
    2    1   13 1     
    3    1   14 1     
    4    2   11 1     
    5    2    3 2     
    6    3    4 1     
    7    3   15 1     
    8    4    5 2     
    9    4   16 1     
   10    5    6 1     
   11    5   17 1     
   12    6    7 1     
   13    6   11 am    
   14    7    8 1     
   15    7   18 1     
   16    7   19 1     
   17    8    9 ar    
   18    8   10 ar    
   19   11   12 2     
   20    9   20 1     
   21    9   21 1     
   22   10   22 1     
   23   10   23 1     
   24   12   24 1     
   25   12   25 1     
@<TRIPOS>SUBSTRUCTURE
      1 S1             1
@<TRIPOS>SET
LONE_PAIRS      STATIC     ATOMS    <user>   **** ""
6 20 21 22 23 24 25
DONOR_HYDROGENS      STATIC     ATOMS    <user>   **** ""
2 13 14
ATOM$BLUE        STATIC     ATOMS    COLORGROUP SYSTEM
6 20 21 22 23 24 25
ATOM$RED        STATIC     ATOMS    COLORGROUP SYSTEM
2 13 14
