#       Name:                AV-unprocessed.smi:3044
#       Creating user name   scv26
#       Creation time:       Fri Mar 27 16:58:40 2020


#       File generated by GOLD software.
#

@<TRIPOS>MOLECULE
AV-unprocessed.smi:3044
    46    47     1
SMALL
NO_CHARGES


@<TRIPOS>ATOM
      1 ****        -1.3207  -2.8172   0.9038 C.3            1 S1                 0.0000
      2 ****        -2.3380  -1.8931   1.5511 C.ar           1 S1                 0.0000
      3 ****        -3.6222  -2.3105   1.4863 N.ar           1 S1                 0.0000
      4 ****        -4.5747  -1.5361   2.0461 C.ar           1 S1                 0.0000
      5 ****        -4.2948  -0.3218   2.7000 C.ar           1 S1                 0.0000
      6 ****        -2.9577   0.1125   2.7655 C.ar           1 S1                 0.0000
      7 ****        -1.9469  -0.6786   2.1674 C.ar           1 S1                 0.0000
      8 ****        -0.5682  -0.3303   2.1960 N.am           1 S1                 0.0000
      9 ****        -0.0157   0.8949   2.2613 C.2            1 S1                 0.0000
     10 ****        -0.6464   1.9485   2.3377 O.2            1 S1                 0.0000
     11 ****         1.5148   0.9334   2.2171 C.3            1 S1                 0.0000
     12 ****         2.0088   0.2630   1.0600 O.3            1 S1                 0.0000
     13 ****         1.7914   0.9260  -0.1834 C.3            1 S1                 0.0000
     14 ****         3.1586   1.1425  -0.8523 C.3            1 S1                 0.0000
     15 ****         3.0005   1.7473  -2.2556 C.3            1 S1                 0.0000
     16 ****         2.0907   0.8761  -3.1366 C.3            1 S1                 0.0000
     17 ****         0.7149   0.6513  -2.4798 C.3            1 S1                 0.0000
     18 ****        -0.1908  -0.2266  -3.3552 C.3            1 S1                 0.0000
     19 ****         0.8816   0.0541  -1.0692 C.3            1 S1                 0.0000
     20 ****        -0.8376  -2.3200   0.0632 H              1 S1                 0.0000
     21 ****        -1.7878  -3.7295   0.5310 H              1 S1                 0.0000
     22 ****        -0.5535  -3.1037   1.6233 H              1 S1                 0.0000
     23 ****        -5.5897  -1.8987   1.9767 H              1 S1                 0.0000
     24 ****        -5.0874   0.2611   3.1453 H              1 S1                 0.0000
     25 ****        -2.7322   1.0319   3.2834 H              1 S1                 0.0000
     26 ****         0.0765  -1.0940   2.0508 H              1 S1                 0.0000
     27 ****         1.8818   1.9605   2.2532 H              1 S1                 0.0000
     28 ****         1.9009   0.4277   3.1025 H              1 S1                 0.0000
     29 ****         1.3204   1.9008  -0.0401 H              1 S1                 0.0000
     30 ****         3.7759   1.7950  -0.2341 H              1 S1                 0.0000
     31 ****         3.6881   0.1916  -0.9243 H              1 S1                 0.0000
     32 ****         2.5809   2.7510  -2.1760 H              1 S1                 0.0000
     33 ****         3.9784   1.8571  -2.7252 H              1 S1                 0.0000
     34 ****         1.9666   1.3479  -4.1121 H              1 S1                 0.0000
     35 ****         2.5741  -0.0848  -3.3183 H              1 S1                 0.0000
     36 ****         0.2295   1.6229  -2.3772 H              1 S1                 0.0000
     37 ****         0.2335  -1.2218  -3.4917 H              1 S1                 0.0000
     38 ****        -0.3297   0.2141  -4.3427 H              1 S1                 0.0000
     39 ****        -1.1772  -0.3438  -2.9053 H              1 S1                 0.0000
     40 ****         1.2987  -0.9512  -1.1423 H              1 S1                 0.0000
     41 ****        -0.0972  -0.0509  -0.6018 H              1 S1                 0.0000
     42 ****        -3.8599  -3.1707   1.0353 LP             1 S1                 0.0000
     43 ****        -1.6461   1.9327   2.3551 LP             1 S1                 0.0000
     44 ****        -0.1593   2.8207   2.3825 LP             1 S1                 0.0000
     45 ****         1.5656  -0.6320   1.0117 LP             1 S1                 0.0000
     46 ****         2.9948   0.1410   1.1740 LP             1 S1                 0.0000
@<TRIPOS>BOND
    1    1    2 1     
    2    1   20 1     
    3    1   21 1     
    4    1   22 1     
    5    2    7 ar    
    6    2    3 ar    
    7    3    4 ar    
    8    4    5 ar    
    9    4   23 1     
   10    5    6 ar    
   11    5   24 1     
   12    6    7 ar    
   13    6   25 1     
   14    7    8 1     
   15    8    9 am    
   16    8   26 1     
   17    9   10 2     
   18    9   11 1     
   19   11   12 1     
   20   11   27 1     
   21   11   28 1     
   22   12   13 1     
   23   13   19 1     
   24   13   14 1     
   25   13   29 1     
   26   14   15 1     
   27   14   30 1     
   28   14   31 1     
   29   15   16 1     
   30   15   32 1     
   31   15   33 1     
   32   16   17 1     
   33   16   34 1     
   34   16   35 1     
   35   17   18 1     
   36   17   19 1     
   37   17   36 1     
   38   18   37 1     
   39   18   38 1     
   40   18   39 1     
   41   19   40 1     
   42   19   41 1     
   43    3   42 1     
   44   10   43 1     
   45   10   44 1     
   46   12   45 1     
   47   12   46 1     
@<TRIPOS>SUBSTRUCTURE
      1 S1             1
@<TRIPOS>SET
LONE_PAIRS      STATIC     ATOMS    <user>   **** ""
5 42 43 44 45 46
DONOR_HYDROGENS      STATIC     ATOMS    <user>   **** ""
1 26
ATOM$BLUE        STATIC     ATOMS    COLORGROUP SYSTEM
5 42 43 44 45 46
ATOM$RED        STATIC     ATOMS    COLORGROUP SYSTEM
1 26
