#       Name:                AV-unprocessed.smi:92
#       Creating user name   scv26
#       Creation time:       Thu Mar 26 17:28:37 2020


#       File generated by GOLD software.
#

@<TRIPOS>MOLECULE
AV-unprocessed.smi:92
    68    71     1
SMALL
NO_CHARGES


@<TRIPOS>ATOM
      1 ****        -7.5435  -0.6883  -1.5016 C.3            1 S1                 0.0000
      2 ****        -6.3883   0.1164  -2.1148 C.3            1 S1                 0.0000
      3 ****        -5.0583  -0.3205  -1.6185 N.4            1 S1                 1.0000
      4 ****        -4.7929   0.0885  -0.2140 C.3            1 S1                 0.0000
      5 ****        -3.4463  -0.4576   0.3007 C.3            1 S1                 0.0000
      6 ****        -2.2485  -0.2039  -0.6384 C.3            1 S1                 0.0000
      7 ****        -1.5999   1.1037  -0.4301 N.pl3          1 S1                 0.0000
      8 ****        -2.2087   2.3802  -0.7996 C.3            1 S1                 0.0000
      9 ****        -0.2522   1.1027  -0.2607 C.ar           1 S1                 0.0000
     10 ****         0.5167   1.8719  -1.0761 N.ar           1 S1                 0.0000
     11 ****         1.8462   1.8710  -0.9464 C.ar           1 S1                 0.0000
     12 ****         2.5982   1.1918  -0.0792 N.ar           1 S1                 0.0000
     13 ****         1.8340   0.4297   0.7551 C.ar           1 S1                 0.0000
     14 ****         0.4137   0.3288   0.7324 C.ar           1 S1                 0.0000
     15 ****        -0.0152  -0.5331   1.7347 N.2            1 S1                 0.0000
     16 ****         1.0878  -0.9281   2.3093 C.2            1 S1                 0.0000
     17 ****         2.2471  -0.3990   1.7870 N.pl3          1 S1                 0.0000
     18 ****         3.5855  -0.6749   2.2313 C.3            1 S1                 0.0000
     19 ****         4.5739   0.4501   2.5543 C.3            1 S1                 0.0000
     20 ****         5.7326  -0.4345   2.0360 C.3            1 S1                 0.0000
     21 ****         6.8149   0.2722   1.1959 C.3            1 S1                 0.0000
     22 ****         6.2675   1.0751   0.1689 O.3            1 S1                 0.0000
     23 ****         6.4569  -1.2263   3.1410 C.3            1 S1                 0.0000
     24 ****         7.2163  -2.2925   2.6076 O.3            1 S1                 0.0000
     25 ****         4.6424  -1.2180   1.2669 C.3            1 S1                 0.0000
     26 ****        -2.6193  -0.5343  -2.1058 C.3            1 S1                 0.0000
     27 ****        -1.4903  -0.2522  -3.1115 C.3            1 S1                 0.0000
     28 ****        -3.9611   0.0926  -2.5304 C.3            1 S1                 0.0000
     29 ****        -8.4901  -0.4112  -1.9661 H              1 S1                 0.0000
     30 ****        -7.6467  -0.5094  -0.4317 H              1 S1                 0.0000
     31 ****        -7.4031  -1.7588  -1.6541 H              1 S1                 0.0000
     32 ****        -6.4303  -0.0210  -3.1961 H              1 S1                 0.0000
     33 ****        -6.5242   1.1840  -1.9351 H              1 S1                 0.0000
     34 ****        -4.8423   1.1717  -0.1298 H              1 S1                 0.0000
     35 ****        -5.5798  -0.2930   0.4353 H              1 S1                 0.0000
     36 ****        -3.2353  -0.0725   1.2990 H              1 S1                 0.0000
     37 ****        -3.5531  -1.5366   0.4199 H              1 S1                 0.0000
     38 ****        -1.5128  -0.9617  -0.3704 H              1 S1                 0.0000
     39 ****        -1.6889   3.2095  -0.3175 H              1 S1                 0.0000
     40 ****        -3.2461   2.4425  -0.4868 H              1 S1                 0.0000
     41 ****        -2.1609   2.5379  -1.8768 H              1 S1                 0.0000
     42 ****         2.3850   2.5038  -1.6363 H              1 S1                 0.0000
     43 ****         1.0830  -1.6224   3.1370 H              1 S1                 0.0000
     44 ****         3.4942  -1.3410   3.0913 H              1 S1                 0.0000
     45 ****         4.4049   1.3479   1.9594 H              1 S1                 0.0000
     46 ****         4.6323   0.7018   3.6137 H              1 S1                 0.0000
     47 ****         7.4384   0.9105   1.8229 H              1 S1                 0.0000
     48 ****         7.4801  -0.4515   0.7243 H              1 S1                 0.0000
     49 ****         6.9770   1.4638  -0.3196 H              1 S1                 0.0000
     50 ****         7.1192  -0.5788   3.7169 H              1 S1                 0.0000
     51 ****         5.7482  -1.6474   3.8545 H              1 S1                 0.0000
     52 ****         7.6355  -2.7500   3.3206 H              1 S1                 0.0000
     53 ****         4.7514  -2.3025   1.2911 H              1 S1                 0.0000
     54 ****         4.4965  -0.8712   0.2433 H              1 S1                 0.0000
     55 ****        -2.7745  -1.6141  -2.1364 H              1 S1                 0.0000
     56 ****        -1.3007   0.8151  -3.2212 H              1 S1                 0.0000
     57 ****        -1.7409  -0.6414  -4.0985 H              1 S1                 0.0000
     58 ****        -0.5588  -0.7257  -2.7992 H              1 S1                 0.0000
     59 ****        -4.1956  -0.2391  -3.5427 H              1 S1                 0.0000
     60 ****        -3.9011   1.1796  -2.5692 H              1 S1                 0.0000
     61 ****        -5.0668  -1.3304  -1.6336 H              1 S1                 0.0000
     62 ****         0.0851   2.4409  -1.7761 LP             1 S1                 0.0000
     63 ****         3.5966   1.2357  -0.0449 LP             1 S1                 0.0000
     64 ****        -0.9539  -0.7914   1.9631 LP             1 S1                 0.0000
     65 ****         5.7003   1.7946   0.5696 LP             1 S1                 0.0000
     66 ****         5.7093   0.5105  -0.4391 LP             1 S1                 0.0000
     67 ****         7.9101  -1.9329   1.9836 LP             1 S1                 0.0000
     68 ****         6.6151  -2.9194   2.1120 LP             1 S1                 0.0000
@<TRIPOS>BOND
    1    1    2 1     
    2    1   29 1     
    3    1   30 1     
    4    1   31 1     
    5    2    3 1     
    6    2   32 1     
    7    2   33 1     
    8    3   28 1     
    9    3    4 1     
   10    3   61 1     
   11    4    5 1     
   12    4   34 1     
   13    4   35 1     
   14    5    6 1     
   15    5   36 1     
   16    5   37 1     
   17    6    7 1     
   18    6   26 1     
   19    6   38 1     
   20    7    8 1     
   21    7    9 1     
   22    8   39 1     
   23    8   40 1     
   24    8   41 1     
   25    9   14 ar    
   26    9   10 ar    
   27   10   11 ar    
   28   11   12 ar    
   29   11   42 1     
   30   12   13 ar    
   31   13   17 1     
   32   13   14 ar    
   33   14   15 1     
   34   15   16 2     
   35   16   17 1     
   36   16   43 1     
   37   17   18 1     
   38   18   25 1     
   39   18   19 1     
   40   18   44 1     
   41   19   20 1     
   42   19   45 1     
   43   19   46 1     
   44   20   21 1     
   45   20   23 1     
   46   20   25 1     
   47   21   22 1     
   48   21   47 1     
   49   21   48 1     
   50   22   49 1     
   51   23   24 1     
   52   23   50 1     
   53   23   51 1     
   54   24   52 1     
   55   25   53 1     
   56   25   54 1     
   57   26   27 1     
   58   26   28 1     
   59   26   55 1     
   60   27   56 1     
   61   27   57 1     
   62   27   58 1     
   63   28   59 1     
   64   28   60 1     
   65   10   62 1     
   66   12   63 1     
   67   15   64 1     
   68   22   65 1     
   69   22   66 1     
   70   24   67 1     
   71   24   68 1     
@<TRIPOS>SUBSTRUCTURE
      1 S1             1
@<TRIPOS>SET
LONE_PAIRS      STATIC     ATOMS    <user>   **** ""
7 62 63 64 65 66 67 68
DONOR_HYDROGENS      STATIC     ATOMS    <user>   **** ""
3 61 49 52
ATOM$BLUE        STATIC     ATOMS    COLORGROUP SYSTEM
7 62 63 64 65 66 67 68
ATOM$RED        STATIC     ATOMS    COLORGROUP SYSTEM
3 61 49 52
