AV-unprocessed.smi:1473|AV-procd|sdf|5971|dock6
  -GOLD-   22720 6 63D 1   1.00000     0.00000
 Structure written by MMmdl.
 32 33  0  0  0  0  0  0  0  0  3 V2000
  148.8937  136.6126  161.6034 N   0  5  0  0  0  0  0  0  0  0  0  0
  148.6619  136.5956  160.0001 S   0  0  0  0  0  0  0  0  0  0  0  0
  148.9341  135.2485  159.4760 O   0  0  0  0  0  0  0  0  0  0  0  0
  147.3460  137.1535  159.6414 O   0  0  0  0  0  0  0  0  0  0  0  0
  149.8973  137.5938  159.6270 N   0  5  0  0  0  0  0  0  0  0  0  0
  150.7307  137.3960  158.4438 C   0  0  0  0  0  0  0  0  0  0  0  0
  150.9077  138.6902  157.6623 C   0  0  0  0  0  0  0  0  0  0  0  0
  150.6517  138.7367  156.2743 C   0  0  0  0  0  0  0  0  0  0  0  0
  150.8391  139.9571  155.6005 C   0  0  0  0  0  0  0  0  0  0  0  0
  151.2441  141.0888  156.2129 N   0  0  0  0  0  0  0  0  0  0  0  0
  151.4887  141.0603  157.5464 C   0  0  0  0  0  0  0  0  0  0  0  0
  151.9082  142.2536  158.1740 N   0  0  0  0  0  0  0  0  0  0  0  0
  152.1760  142.1526  159.6064 C   0  0  0  0  0  0  0  0  0  0  0  0
  152.9075  143.4109  160.1052 C   0  0  0  0  0  0  0  0  0  0  0  0
  152.1605  144.5734  159.7615 O   0  0  0  0  0  0  0  0  0  0  0  0
  152.0112  144.7079  158.3520 C   0  0  0  0  0  0  0  0  0  0  0  0
  151.2422  143.4983  157.7953 C   0  0  0  0  0  0  0  0  0  0  0  0
  151.3360  139.8748  158.3049 C   0  0  0  0  0  0  0  0  0  0  0  0
  148.6021  135.7023  161.9788 H   0  0  0  0  0  0  0  0  0  0  0  0
  151.7227  137.0249  158.7053 H   0  0  0  0  0  0  0  0  0  0  0  0
  150.3101  136.6492  157.7689 H   0  0  0  0  0  0  0  0  0  0  0  0
  150.3273  137.8639  155.7241 H   0  0  0  0  0  0  0  0  0  0  0  0
  150.6569  140.0270  154.5384 H   0  0  0  0  0  0  0  0  0  0  0  0
  151.2278  142.0395  160.1334 H   0  0  0  0  0  0  0  0  0  0  0  0
  152.7770  141.2766  159.8454 H   0  0  0  0  0  0  0  0  0  0  0  0
  153.0240  143.3716  161.1883 H   0  0  0  0  0  0  0  0  0  0  0  0
  153.9105  143.4710  159.6796 H   0  0  0  0  0  0  0  0  0  0  0  0
  151.4680  145.6284  158.1385 H   0  0  0  0  0  0  0  0  0  0  0  0
  152.9901  144.7985  157.8784 H   0  0  0  0  0  0  0  0  0  0  0  0
  151.1804  143.5783  156.7091 H   0  0  0  0  0  0  0  0  0  0  0  0
  150.2222  143.4946  158.1820 H   0  0  0  0  0  0  0  0  0  0  0  0
  151.5628  139.8721  159.3624 H   0  0  0  0  0  0  0  0  0  0  0  0
  1  2  1  0  0  0  0
  1 19  1  0  0  0  0
  2  3  2  0  0  0  0
  2  4  2  0  0  0  0
  2  5  1  0  0  0  0
  5  6  1  0  0  0  0
  6  7  1  0  0  0  0
  6 20  1  0  0  0  0
  6 21  1  0  0  0  0
  7 18  1  0  0  0  0
  7  8  2  0  0  0  0
  8  9  1  0  0  0  0
  8 22  1  0  0  0  0
  9 10  2  0  0  0  0
  9 23  1  0  0  0  0
 10 11  1  0  0  0  0
 11 12  1  0  0  0  0
 11 18  2  0  0  0  0
 12 17  1  0  0  0  0
 12 13  1  0  0  0  0
 13 14  1  0  0  0  0
 13 24  1  0  0  0  0
 13 25  1  0  0  0  0
 14 15  1  0  0  0  0
 14 26  1  0  0  0  0
 14 27  1  0  0  0  0
 15 16  1  0  0  0  0
 16 17  1  0  0  0  0
 16 28  1  0  0  0  0
 16 29  1  0  0  0  0
 17 30  1  0  0  0  0
 17 31  1  0  0  0  0
 18 32  1  0  0  0  0
M  CHG  1   1  -1
M  CHG  1   5  -1
M  END
> <s_m_source_file>
AV-unprocessed.smi

> <i_m_source_file_index>
1473

> <i_lp_mmshare_version>
43012

> <i_f3d_flags>
0

> <s_epik_input>
W05IMl1TKD1PKSg9TylbTkhdW0NIMl1jMVtjSF1bY0hdbmMoW2NIXTEpTjJbQ0gyXVtDSDJdT1tDSDJdW0NIMl0y

> <s_epik_cmdline>
J2VwaWtfcHl0aG9uJywgJy1waCcsICc3LjAnLCAnLXRuJywgJzgnLCAnLW1hJywgJzIwMCcsICctbWV0YWxfYmluZGluZycsICctaW1hZScsICc8aW5maWxlLm1hZT4nLCAnLW9tYWUnLCAnPG91dGZpbGUubWFlPic=

> <r_lp_tautomer_probability>
1

> <r_epik_Ionization_Penalty>
9.31635

> <r_epik_Ionization_Penalty_Charging>
9.0542

> <r_epik_Ionization_Penalty_Neutral>
0.262148

> <r_epik_State_Penalty>
4.75451

> <r_epik_Charging_Adjusted_Penalty>
13.8087

> <i_epik_Tot_Q>
-2

> <i_epik_Tot_abs_Q>
2

> <r_epik_Metal_State_Penalty>
1.32914

> <b_epik_Metal_Only>
1

> <s_lp_Force_Field>
OPLS_2005

> <r_lp_Energy>
19.9679

> <b_lp_Chiralities_Consistent>
1

> <s_lp_Variant>
AV-unprocessed.smi:1473-6

> <Gold.Version>
5.8.1

> <Gold.Id.Protein>
6NUR|6NUR_protein|mol2

> <Gold.PLP.Fitness>
40.0127

> <Gold.PLP.PLP>
-29.7600

> <Gold.PLP.part.hbond>
-3.9546

> <Gold.PLP.part.metal>
0.0000

> <Gold.PLP.part.buried>
-3.7737

> <Gold.PLP.part.nonpolar>
-23.3590

> <Gold.PLP.part.repulsive>
0.0865

> <Gold.PLP.ligand.clash>
0.0000

> <Gold.PLP.ligand.torsion>
0.9710

> <Gold.PLP.Chemscore.Hbond>
3.6137

> <Gold.PLP.Chemscore.CHOScore>
0.0000

> <Gold.PLP.Chemscore.Metal>
0.0000

> <Gold.Chemscore.Hbonds>
donor molecule, donor type, donor heavy atom, donor atom, acceptor molecule, acceptor atom, score
      P1  H  6896  6909       L1     3  1.00
      P1  H  6931  6943       L1     1  2.00
      P1  H  6934  6947       L1     4  0.38

> <Gold.PLP.Chemscore.Internal.Correction>
1.3536

> <Gold.Rescore>
     Score         DG    S(hbond)    S(metal)    S(lipo)     H(rot)  DE(clash)    DE(int)     intcor
     14.52     -15.55       1.97        0.00      70.39       1.86       0.11       0.91       ----

> <Gold.Chemscore.Fitness>
14.5190

> <Gold.Chemscore.DG>
-15.5469

> <Gold.Chemscore.ZeroCoef>
-5.4800

> <Gold.Chemscore.Hbond>
1.9743

> <Gold.Chemscore.Metal>
0.0000

> <Gold.Chemscore.Lipo>
70.3912

> <Gold.Chemscore.Internal_Hbond>
0.0000

> <Gold.Chemscore.DEClash>
0.1135

> <Gold.Chemscore.DEInternal>
0.9143

> <Gold.Chemscore.Rot>
1.8606

> <Gold.Chemscore.Internal.Correction>
   9.000000E+99

> <Gold.Chemscore.Hbonds>
donor molecule, donor type, donor heavy atom, donor atom, acceptor molecule, acceptor atom, score
      P1  H  6896  6909       L1     3  0.95
      P1  H  6931  6943       L1     1  0.35
      P1  H  6934  6947       L1     4  0.17

> <Gold.Chemscore.Hbond.Weighted>
-6.5942

> <Gold.Chemscore.Metal.Weighted>
-0.0000

> <Gold.Chemscore.Lipo.Weighted>
-8.2358

> <Gold.Chemscore.Internal_Hbond.Weighted>
0.0000

> <Gold.Chemscore.DEClash.Weighted>
0.1135

> <Gold.Chemscore.DEInternal.Weighted>
0.9143

> <Gold.Chemscore.Rot.Weighted>
4.7631

> <Gold.Chemscore.Internal.Correction.Weighted>
   9.000000E+99

> <Gold.Protein.RotatedTorsions>
[ 6907 6896 6895 6894 ] final   52.14 input  -60.11 | X-H torsion
[ 7974 7965 7964 7962 ] final  -74.79 input  175.53 | X-H torsion
[ 8008 7997 7996 7995 ] final  -56.91 input   59.86 | X-H torsion
[ 10167 10162 10161 10158 ] final -127.75 input  -65.29 | X-H torsion
[ 10718 10713 10712 10709 ] final -105.95 input   66.30 | X-H torsion
[ 10763 10752 10751 10750 ] final -178.61 input  -60.55 | X-H torsion
[ 11005 11000 10999 10996 ] final -149.26 input  -57.11 | X-H torsion

> <Gold.Protein.ActiveResidues>
 VAL166  LYS551  ARG553  GLY616  TRP617  ASP618  TYR619  PRO620  LYS621  CYS622 
 ASP623  PHE694  ASN695  SER759  ASP760  ASP761  ALA762  ILE779  LEU786  VAL792 
 PHE793  MET794  SER795  GLU796  ALA797  LYS798  CYS799  TRP800  GLU811  SER814 

> <Gold.Protein.RotatedAtoms>
  152.3201  134.7391  160.0315 H   0  0  0  0  0  0  0  0  0  0  0  0  # atno 6907 bound_to 6896
  151.7842  133.3347  159.3488 H   0  0  0  0  0  0  0  0  0  0  0  0  # atno 6908 bound_to 6896
  150.7365  134.5833  159.5994 H   0  0  0  0  0  0  0  0  0  0  0  0  # atno 6909 bound_to 6896
  145.6345  140.9328  143.1069 H   0  0  0  0  0  0  0  0  0  0  0  0  # atno 7974 bound_to 7965
  154.4248  140.1119  156.5714 H   0  0  0  0  0  0  0  0  0  0  0  0  # atno 8008 bound_to 7997
  155.6208  140.3495  155.4632 H   0  0  0  0  0  0  0  0  0  0  0  0  # atno 8009 bound_to 7997
  156.0025  140.1202  157.0523 H   0  0  0  0  0  0  0  0  0  0  0  0  # atno 8010 bound_to 7997
  139.9575  143.5986  152.2456 H   0  0  0  0  0  0  0  0  0  0  0  0  # atno 10167 bound_to 10162
  156.0368  130.5589  150.7612 H   0  0  0  0  0  0  0  0  0  0  0  0  # atno 10718 bound_to 10713
  154.5456  135.2809  155.1056 H   0  0  0  0  0  0  0  0  0  0  0  0  # atno 10763 bound_to 10752
  154.2522  135.6337  153.5248 H   0  0  0  0  0  0  0  0  0  0  0  0  # atno 10764 bound_to 10752
  152.9989  135.5585  154.6007 H   0  0  0  0  0  0  0  0  0  0  0  0  # atno 10765 bound_to 10752
  140.7526  134.3389  157.5122 H   0  0  0  0  0  0  0  0  0  0  0  0  # atno 11005 bound_to 11000
  144.7181  139.8126  143.7391 LP  0  0  0  0  0  0  0  0  0  0  0  0  # atno 17320 bound_to 7965
  146.1330  139.4370  143.0156 LP  0  0  0  0  0  0  0  0  0  0  0  0  # atno 17321 bound_to 7965
  139.6579  144.7662  151.2019 LP  0  0  0  0  0  0  0  0  0  0  0  0  # atno 17342 bound_to 10162
  140.7563  143.6056  150.8656 LP  0  0  0  0  0  0  0  0  0  0  0  0  # atno 17343 bound_to 10162
  157.5131  131.0927  151.0174 LP  0  0  0  0  0  0  0  0  0  0  0  0  # atno 17370 bound_to 10713
  157.0524  130.5792  149.5372 LP  0  0  0  0  0  0  0  0  0  0  0  0  # atno 17371 bound_to 10713
  139.8785  134.9152  156.3125 LP  0  0  0  0  0  0  0  0  0  0  0  0  # atno 17394 bound_to 11000
  140.9736  133.7311  156.0570 LP  0  0  0  0  0  0  0  0  0  0  0  0  # atno 17395 bound_to 11000

$$$$
