AV-unprocessed.smi:1083|AV-procd|sdf|4715|dock8
  -GOLD-   22720 3243D 1   1.00000     0.00000
 Structure written by MMmdl.
 43 45  0  0  0  0  0  0  0  0  1 V2000
  145.0576  137.7626  153.4608 O   0  0  0  0  0  0  0  0  0  0  0  0
  146.1450  137.2730  153.1549 C   0  0  0  0  0  0  0  0  0  0  0  0
  147.3297  137.8973  153.2538 N   0  0  0  0  0  0  0  0  0  0  0  0
  147.5790  139.2329  153.6773 C   0  0  0  0  0  0  0  0  0  0  0  0
  146.6111  140.2572  153.5434 C   0  0  0  0  0  0  0  0  0  0  0  0
  146.9028  141.5440  154.0297 C   0  0  0  0  0  0  0  0  0  0  0  0
  148.1493  141.7588  154.6437 C   0  0  0  0  0  0  0  0  0  0  0  0
  149.0764  140.7904  154.7902 N   0  0  0  0  0  0  0  0  0  0  0  0
  148.8060  139.5477  154.3209 C   0  0  0  0  0  0  0  0  0  0  0  0
  149.8064  138.5660  154.4685 N   0  0  0  0  0  0  0  0  0  0  0  0
  151.1240  139.1144  154.7703 C   0  0  0  0  0  0  0  0  0  0  0  0
  152.1915  138.0131  154.6514 C   0  0  0  0  0  0  0  0  0  0  0  0
  151.8480  136.9182  155.4963 O   0  0  0  0  0  0  0  0  0  0  0  0
  150.5931  136.3417  155.1449 C   0  0  0  0  0  0  0  0  0  0  0  0
  149.4832  137.3978  155.2820 C   0  0  0  0  0  0  0  0  0  0  0  0
  146.2900  136.0398  152.6507 N   0  0  0  0  0  0  0  0  0  0  0  0
  145.1985  135.1091  152.3764 C   0  0  0  0  0  0  0  0  0  0  0  0
  145.7378  133.7954  151.7772 C   0  0  0  0  0  0  0  0  0  0  0  0
  144.9051  133.5253  150.5224 C   0  0  0  0  0  0  0  0  0  0  0  0
  144.4803  134.9095  150.0429 C   0  0  0  0  0  0  0  0  0  0  0  0
  144.2211  135.6862  151.3335 C   0  0  0  0  0  0  0  0  0  0  0  0
  148.1264  137.4070  152.8741 H   0  0  0  0  0  0  0  0  0  0  0  0
  145.6472  140.0709  153.0944 H   0  0  0  0  0  0  0  0  0  0  0  0
  146.1840  142.3452  153.9416 H   0  0  0  0  0  0  0  0  0  0  0  0
  148.4073  142.7326  155.0325 H   0  0  0  0  0  0  0  0  0  0  0  0
  151.3681  139.9389  154.1003 H   0  0  0  0  0  0  0  0  0  0  0  0
  151.1172  139.5202  155.7829 H   0  0  0  0  0  0  0  0  0  0  0  0
  152.2857  137.6739  153.6184 H   0  0  0  0  0  0  0  0  0  0  0  0
  153.1658  138.4001  154.9497 H   0  0  0  0  0  0  0  0  0  0  0  0
  150.6333  135.9490  154.1276 H   0  0  0  0  0  0  0  0  0  0  0  0
  150.3925  135.4976  155.8050 H   0  0  0  0  0  0  0  0  0  0  0  0
  149.3837  137.6925  156.3277 H   0  0  0  0  0  0  0  0  0  0  0  0
  148.5264  136.9789  154.9681 H   0  0  0  0  0  0  0  0  0  0  0  0
  147.2222  135.7246  152.4259 H   0  0  0  0  0  0  0  0  0  0  0  0
  144.6592  134.8919  153.3005 H   0  0  0  0  0  0  0  0  0  0  0  0
  146.7859  133.9017  151.4922 H   0  0  0  0  0  0  0  0  0  0  0  0
  145.6812  132.9682  152.4856 H   0  0  0  0  0  0  0  0  0  0  0  0
  145.4563  132.9684  149.7644 H   0  0  0  0  0  0  0  0  0  0  0  0
  144.0214  132.9428  150.7862 H   0  0  0  0  0  0  0  0  0  0  0  0
  145.2980  135.3749  149.4910 H   0  0  0  0  0  0  0  0  0  0  0  0
  143.6089  134.8794  149.3881 H   0  0  0  0  0  0  0  0  0  0  0  0
  143.1976  135.5023  151.6626 H   0  0  0  0  0  0  0  0  0  0  0  0
  144.3206  136.7632  151.1907 H   0  0  0  0  0  0  0  0  0  0  0  0
  1  2  2  0  0  0  0
  2  3  1  0  0  0  0
  2 16  1  0  0  0  0
  3  4  1  0  0  0  0
  3 22  1  0  0  0  0
  4  9  1  0  0  0  0
  4  5  2  0  0  0  0
  5  6  1  0  0  0  0
  5 23  1  0  0  0  0
  6  7  2  0  0  0  0
  6 24  1  0  0  0  0
  7  8  1  0  0  0  0
  7 25  1  0  0  0  0
  8  9  2  0  0  0  0
  9 10  1  0  0  0  0
 10 15  1  0  0  0  0
 10 11  1  0  0  0  0
 11 12  1  0  0  0  0
 11 26  1  0  0  0  0
 11 27  1  0  0  0  0
 12 13  1  0  0  0  0
 12 28  1  0  0  0  0
 12 29  1  0  0  0  0
 13 14  1  0  0  0  0
 14 15  1  0  0  0  0
 14 30  1  0  0  0  0
 14 31  1  0  0  0  0
 15 32  1  0  0  0  0
 15 33  1  0  0  0  0
 16 17  1  0  0  0  0
 16 34  1  0  0  0  0
 17 21  1  0  0  0  0
 17 18  1  0  0  0  0
 17 35  1  0  0  0  0
 18 19  1  0  0  0  0
 18 36  1  0  0  0  0
 18 37  1  0  0  0  0
 19 20  1  0  0  0  0
 19 38  1  0  0  0  0
 19 39  1  0  0  0  0
 20 21  1  0  0  0  0
 20 40  1  0  0  0  0
 20 41  1  0  0  0  0
 21 42  1  0  0  0  0
 21 43  1  0  0  0  0
M  END
> <s_m_source_file>
AV-unprocessed.smi

> <i_m_source_file_index>
1083

> <i_lp_mmshare_version>
43012

> <i_f3d_flags>
0

> <s_epik_input>
W0NIMl0xW0NIMl1bQ0gyXVtDSDJdW0NIXTFbTkhdQyg9TylbTkhdYzJbY0hdW2NIXVtjSF1uYzJOM1tDSDJdW0NIMl1PW0NIMl1bQ0gyXTM=

> <s_epik_cmdline>
J2VwaWtfcHl0aG9uJywgJy1waCcsICc3LjAnLCAnLXRuJywgJzgnLCAnLW1hJywgJzIwMCcsICctbWV0YWxfYmluZGluZycsICctaW1hZScsICc8aW5maWxlLm1hZT4nLCAnLW9tYWUnLCAnPG91dGZpbGUubWFlPic=

> <r_lp_tautomer_probability>
1

> <r_epik_Ionization_Penalty>
0.00217669

> <r_epik_Ionization_Penalty_Charging>
0

> <r_epik_Ionization_Penalty_Neutral>
0.00217669

> <r_epik_State_Penalty>
0.00146536

> <r_epik_Charging_Adjusted_Penalty>
0.00146536

> <i_epik_Tot_Q>
0

> <i_epik_Tot_abs_Q>
0

> <r_epik_Metal_State_Penalty>
-0

> <b_epik_Metal_Only>
0

> <s_lp_Force_Field>
OPLS_2005

> <r_lp_Energy>
35.5183

> <b_lp_Chiralities_Consistent>
1

> <s_lp_Variant>
AV-unprocessed.smi:1083-1

> <Gold.Version>
5.8.1

> <Gold.Id.Protein>
6NUR|6NUR_protein|mol2

> <Gold.PLP.Fitness>
43.2499

> <Gold.PLP.PLP>
-31.9539

> <Gold.PLP.part.hbond>
-3.0000

> <Gold.PLP.part.metal>
0.0000

> <Gold.PLP.part.buried>
-2.0938

> <Gold.PLP.part.nonpolar>
-28.3258

> <Gold.PLP.part.repulsive>
0.6045

> <Gold.PLP.ligand.clash>
0.0000

> <Gold.PLP.ligand.torsion>
0.3967

> <Gold.PLP.Chemscore.Hbond>
2.9600

> <Gold.PLP.Chemscore.CHOScore>
1.0000

> <Gold.PLP.Chemscore.Metal>
0.0000

> <Gold.Chemscore.Hbonds>
donor molecule, donor type, donor heavy atom, donor atom, acceptor molecule, acceptor atom, score
      L1  H     3    22       P1  7948  1.00
      L1  H    16    34       P1  7948  0.93
      P1  H 10752 10765       L1    13  1.00
      L1  C     7    25       P1  8028  1.00

> <Gold.PLP.Chemscore.Internal.Correction>
0.2095

> <Gold.Rescore>
     Score         DG    S(hbond)    S(metal)    S(lipo)     H(rot)  DE(clash)    DE(int)     intcor
     17.26     -19.68       2.41        0.00      78.53       1.19       0.66       1.77       ----

> <Gold.Chemscore.Fitness>
17.2564

> <Gold.Chemscore.DG>
-19.6846

> <Gold.Chemscore.ZeroCoef>
-5.4800

> <Gold.Chemscore.Hbond>
2.4147

> <Gold.Chemscore.Metal>
0.0000

> <Gold.Chemscore.Lipo>
78.5321

> <Gold.Chemscore.Internal_Hbond>
0.0000

> <Gold.Chemscore.DEClash>
0.6584

> <Gold.Chemscore.DEInternal>
1.7699

> <Gold.Chemscore.Rot>
1.1909

> <Gold.Chemscore.Internal.Correction>
   9.000000E+99

> <Gold.Chemscore.Hbonds>
donor molecule, donor type, donor heavy atom, donor atom, acceptor molecule, acceptor atom, score
      L1  H     3    22       P1  7948  0.99
      L1  H    16    34       P1  7948  0.91
      P1  H 10752 10765       L1    13  0.07

> <Gold.Chemscore.Hbond.Weighted>
-8.0650

> <Gold.Chemscore.Metal.Weighted>
-0.0000

> <Gold.Chemscore.Lipo.Weighted>
-9.1883

> <Gold.Chemscore.Internal_Hbond.Weighted>
0.0000

> <Gold.Chemscore.DEClash.Weighted>
0.6584

> <Gold.Chemscore.DEInternal.Weighted>
1.7699

> <Gold.Chemscore.Rot.Weighted>
3.0487

> <Gold.Chemscore.Internal.Correction.Weighted>
   9.000000E+99

> <Gold.Protein.RotatedTorsions>
[ 6907 6896 6895 6894 ] final   99.04 input  -60.11 | X-H torsion
[ 7974 7965 7964 7962 ] final -154.60 input  175.53 | X-H torsion
[ 8008 7997 7996 7995 ] final  -64.25 input   59.86 | X-H torsion
[ 10167 10162 10161 10158 ] final  169.73 input  -65.29 | X-H torsion
[ 10718 10713 10712 10709 ] final  -97.58 input   66.30 | X-H torsion
[ 10763 10752 10751 10750 ] final -163.66 input  -60.55 | X-H torsion
[ 11005 11000 10999 10996 ] final   20.70 input  -57.11 | X-H torsion

> <Gold.Protein.ActiveResidues>
 VAL166  LYS551  ARG553  GLY616  TRP617  ASP618  TYR619  PRO620  LYS621  CYS622 
 ASP623  PHE694  ASN695  SER759  ASP760  ASP761  ALA762  ILE779  LEU786  VAL792 
 PHE793  MET794  SER795  GLU796  ALA797  LYS798  CYS799  TRP800  GLU811  SER814 

> <Gold.Protein.RotatedAtoms>
  152.5399  134.0488  159.8100 H   0  0  0  0  0  0  0  0  0  0  0  0  # atno 6907 bound_to 6896
  151.0633  133.5519  159.2640 H   0  0  0  0  0  0  0  0  0  0  0  0  # atno 6908 bound_to 6896
  151.2409  135.0596  159.9078 H   0  0  0  0  0  0  0  0  0  0  0  0  # atno 6909 bound_to 6896
  144.7681  140.4365  143.5927 H   0  0  0  0  0  0  0  0  0  0  0  0  # atno 7974 bound_to 7965
  154.4601  140.0958  156.6868 H   0  0  0  0  0  0  0  0  0  0  0  0  # atno 8008 bound_to 7997
  155.5021  140.3474  155.4354 H   0  0  0  0  0  0  0  0  0  0  0  0  # atno 8009 bound_to 7997
  156.0853  140.1383  156.9650 H   0  0  0  0  0  0  0  0  0  0  0  0  # atno 8010 bound_to 7997
  139.5000  144.3675  151.9760 H   0  0  0  0  0  0  0  0  0  0  0  0  # atno 10167 bound_to 10162
  156.0087  130.5200  150.6395 H   0  0  0  0  0  0  0  0  0  0  0  0  # atno 10718 bound_to 10713
  154.7101  135.3004  154.9210 H   0  0  0  0  0  0  0  0  0  0  0  0  # atno 10763 bound_to 10752
  154.0114  135.6694  153.4769 H   0  0  0  0  0  0  0  0  0  0  0  0  # atno 10764 bound_to 10752
  153.0748  135.5040  154.8295 H   0  0  0  0  0  0  0  0  0  0  0  0  # atno 10765 bound_to 10752
  140.3997  134.1731  155.7663 H   0  0  0  0  0  0  0  0  0  0  0  0  # atno 11005 bound_to 11000
  145.6407  139.1549  143.2917 LP  0  0  0  0  0  0  0  0  0  0  0  0  # atno 17320 bound_to 7965
  146.1805  140.6504  142.9191 LP  0  0  0  0  0  0  0  0  0  0  0  0  # atno 17321 bound_to 7965
  140.3111  144.3537  150.6034 LP  0  0  0  0  0  0  0  0  0  0  0  0  # atno 17342 bound_to 10162
  140.5798  143.2173  151.7449 LP  0  0  0  0  0  0  0  0  0  0  0  0  # atno 17343 bound_to 10162
  157.4178  131.0832  151.1160 LP  0  0  0  0  0  0  0  0  0  0  0  0  # atno 17370 bound_to 10713
  157.1772  130.6293  149.5660 LP  0  0  0  0  0  0  0  0  0  0  0  0  # atno 17371 bound_to 10713
  141.1861  133.8309  157.1080 LP  0  0  0  0  0  0  0  0  0  0  0  0  # atno 17394 bound_to 11000
  140.0345  134.9885  157.0845 LP  0  0  0  0  0  0  0  0  0  0  0  0  # atno 17395 bound_to 11000

$$$$
