AV-unprocessed.smi:3335|AV-procd|sdf|12844|dock3
  -GOLD-   2272019233D 1   1.00000     0.00000
 Structure written by MMmdl.
 47 48  0  0  0  0  0  0  0  0  2 V2000
  144.2046  131.9321  150.9261 C   0  0  0  0  0  0  0  0  0  0  0  0
  144.0627  133.3973  151.2226 C   0  0  0  0  0  0  0  0  0  0  0  0
  144.7360  134.4843  150.5967 C   0  0  0  0  0  0  0  0  0  0  0  0
  144.3840  135.6595  151.0910 N   0  0  0  0  0  0  0  0  0  0  0  0
  143.4746  135.3680  152.0477 N   0  0  0  0  0  0  0  0  0  0  0  0
  142.8567  136.4366  152.8225 C   0  0  1  0  0  0  0  0  0  0  0  0
  141.7386  135.8611  153.7133 C   0  0  0  0  0  0  0  0  0  0  0  0
  143.8992  137.2538  153.6311 C   0  0  1  0  0  0  0  0  0  0  0  0
  144.8353  136.3620  154.4733 C   0  0  0  0  0  0  0  0  0  0  0  0
  144.6993  138.0958  152.7088 N   0  3  0  0  0  0  0  0  0  0  0  0
  146.0620  138.4564  153.1691 C   0  0  1  0  0  0  0  0  0  0  0  0
  146.7399  139.3360  152.1068 C   0  0  0  0  0  0  0  0  0  0  0  0
  146.0211  139.2016  154.5190 C   0  0  0  0  0  0  0  0  0  0  0  0
  144.9289  139.5457  154.9737 O   0  0  0  0  0  0  0  0  0  0  0  0
  147.1778  139.4716  155.1617 N   0  0  0  0  0  0  0  0  0  0  0  0
  148.5247  139.1242  154.7079 C   0  0  0  0  0  0  0  0  0  0  0  0
  149.4815  139.8696  155.6384 C   0  0  0  0  0  0  0  0  0  0  0  0
  148.6826  140.0562  156.9202 C   0  0  0  0  0  0  0  0  0  0  0  0
  147.2351  140.1742  156.4429 C   0  0  0  0  0  0  0  0  0  0  0  0
  143.2652  134.0083  152.1484 C   0  0  0  0  0  0  0  0  0  0  0  0
  145.1818  131.6983  150.5030 H   0  0  0  0  0  0  0  0  0  0  0  0
  143.4551  131.5929  150.2109 H   0  0  0  0  0  0  0  0  0  0  0  0
  144.0911  131.3248  151.8242 H   0  0  0  0  0  0  0  0  0  0  0  0
  145.4662  134.4535  149.8015 H   0  0  0  0  0  0  0  0  0  0  0  0
  142.3882  137.1097  152.1025 H   0  0  0  0  0  0  0  0  0  0  0  0
  141.1646  136.6503  154.1988 H   0  0  0  0  0  0  0  0  0  0  0  0
  142.1414  135.2171  154.4959 H   0  0  0  0  0  0  0  0  0  0  0  0
  141.0372  135.2683  153.1251 H   0  0  0  0  0  0  0  0  0  0  0  0
  143.3508  137.9054  154.3132 H   0  0  0  0  0  0  0  0  0  0  0  0
  144.2853  135.7840  155.2159 H   0  0  0  0  0  0  0  0  0  0  0  0
  145.5706  136.9504  155.0215 H   0  0  0  0  0  0  0  0  0  0  0  0
  145.3798  135.6580  153.8432 H   0  0  0  0  0  0  0  0  0  0  0  0
  144.7675  137.6122  151.8252 H   0  0  0  0  0  0  0  0  0  0  0  0
  146.6362  137.5360  153.2620 H   0  0  0  0  0  0  0  0  0  0  0  0
  147.7531  139.6124  152.4003 H   0  0  0  0  0  0  0  0  0  0  0  0
  146.1829  140.2581  151.9350 H   0  0  0  0  0  0  0  0  0  0  0  0
  146.8109  138.8110  151.1537 H   0  0  0  0  0  0  0  0  0  0  0  0
  148.6656  138.0469  154.8050 H   0  0  0  0  0  0  0  0  0  0  0  0
  148.7015  139.4003  153.6679 H   0  0  0  0  0  0  0  0  0  0  0  0
  150.4193  139.3365  155.7974 H   0  0  0  0  0  0  0  0  0  0  0  0
  149.7200  140.8451  155.2125 H   0  0  0  0  0  0  0  0  0  0  0  0
  148.7902  139.1712  157.5489 H   0  0  0  0  0  0  0  0  0  0  0  0
  149.0087  140.9196  157.5008 H   0  0  0  0  0  0  0  0  0  0  0  0
  146.9687  141.2205  156.2858 H   0  0  0  0  0  0  0  0  0  0  0  0
  146.5427  139.7542  157.1741 H   0  0  0  0  0  0  0  0  0  0  0  0
  142.5710  133.5902  152.8627 H   0  0  0  0  0  0  0  0  0  0  0  0
  144.2008  138.9623  152.5614 H   0  0  0  0  0  0  0  0  0  0  0  0
  1  2  1  0  0  0  0
  1 21  1  0  0  0  0
  1 22  1  0  0  0  0
  1 23  1  0  0  0  0
  2 20  2  0  0  0  0
  2  3  1  0  0  0  0
  3  4  2  0  0  0  0
  3 24  1  0  0  0  0
  4  5  1  0  0  0  0
  5  6  1  0  0  0  0
  5 20  1  0  0  0  0
  6  7  1  0  0  0  0
  6  8  1  0  0  0  0
  6 25  1  0  0  0  0
  7 26  1  0  0  0  0
  7 27  1  0  0  0  0
  7 28  1  0  0  0  0
  8  9  1  0  0  0  0
  8 10  1  0  0  0  0
  8 29  1  0  0  0  0
  9 30  1  0  0  0  0
  9 31  1  0  0  0  0
  9 32  1  0  0  0  0
 10 11  1  0  0  0  0
 10 33  1  0  0  0  0
 10 47  1  0  0  0  0
 11 12  1  0  0  0  0
 11 13  1  0  0  0  0
 11 34  1  0  0  0  0
 12 35  1  0  0  0  0
 12 36  1  0  0  0  0
 12 37  1  0  0  0  0
 13 14  2  0  0  0  0
 13 15  1  0  0  0  0
 15 19  1  0  0  0  0
 15 16  1  0  0  0  0
 16 17  1  0  0  0  0
 16 38  1  0  0  0  0
 16 39  1  0  0  0  0
 17 18  1  0  0  0  0
 17 40  1  0  0  0  0
 17 41  1  0  0  0  0
 18 19  1  0  0  0  0
 18 42  1  0  0  0  0
 18 43  1  0  0  0  0
 19 44  1  0  0  0  0
 19 45  1  0  0  0  0
 20 46  1  0  0  0  0
M  CHG  1  10   1
M  END
> <s_m_source_file>
AV-unprocessed.smi

> <i_m_source_file_index>
3335

> <i_lp_mmshare_version>
43012

> <i_f3d_flags>
0

> <s_epik_input>
W0NIM11jMVtjSF1ubihbY0hdMSlbQ0BIXShbQ0gzXSlbQ0BIXShbQ0gzXSlbTkhdW0NASF0oW0NIM10pQyg9TylOMltDSDJdW0NIMl1bQ0gyXVtDSDJdMg==

> <s_epik_cmdline>
J2VwaWtfcHl0aG9uJywgJy1waCcsICc3LjAnLCAnLXRuJywgJzgnLCAnLW1hJywgJzIwMCcsICctbWV0YWxfYmluZGluZycsICctaW1hZScsICc8aW5maWxlLm1hZT4nLCAnLW9tYWUnLCAnPG91dGZpbGUubWFlPic=

> <r_lp_tautomer_probability>
1

> <r_epik_Ionization_Penalty>
0.14175

> <r_epik_Ionization_Penalty_Charging>
0.141731

> <r_epik_Ionization_Penalty_Neutral>
1.91261e-05

> <r_epik_State_Penalty>
0.131043

> <r_epik_Charging_Adjusted_Penalty>
0.272773

> <i_epik_Tot_Q>
1

> <i_epik_Tot_abs_Q>
1

> <r_epik_Metal_State_Penalty>
0.131408

> <b_epik_Metal_Only>
0

> <s_lp_Force_Field>
OPLS_2005

> <r_lp_Energy>
36.0865

> <b_lp_Chiralities_Consistent>
1

> <s_lp_Variant>
AV-unprocessed.smi:3335-8

> <Gold.Version>
5.8.1

> <Gold.Id.Protein>
6NUR|6NUR_protein|mol2

> <Gold.PLP.Fitness>
41.8675

> <Gold.PLP.PLP>
-30.6505

> <Gold.PLP.part.hbond>
-2.0000

> <Gold.PLP.part.metal>
0.0000

> <Gold.PLP.part.buried>
-0.9562

> <Gold.PLP.part.nonpolar>
-28.5271

> <Gold.PLP.part.repulsive>
0.8341

> <Gold.PLP.ligand.clash>
0.0000

> <Gold.PLP.ligand.torsion>
0.6744

> <Gold.PLP.Chemscore.Hbond>
2.1690

> <Gold.PLP.Chemscore.CHOScore>
1.9963

> <Gold.PLP.Chemscore.Metal>
0.0000

> <Gold.Chemscore.Hbonds>
donor molecule, donor type, donor heavy atom, donor atom, acceptor molecule, acceptor atom, score
      L1  H    10    33       P1 10171  0.02
      L1  H    10    47       P1 10175  2.00
      L1  C     3    24       P1  7921  1.00
      L1  C    20    46       P1 10957  0.73

> <Gold.PLP.Chemscore.Internal.Correction>
0.0700

> <Gold.Rescore>
     Score         DG    S(hbond)    S(metal)    S(lipo)     H(rot)  DE(clash)    DE(int)     intcor
     11.29     -13.54       1.08        0.00      74.79       1.68       0.29       1.96       ----

> <Gold.Chemscore.Fitness>
11.2912

> <Gold.Chemscore.DG>
-13.5439

> <Gold.Chemscore.ZeroCoef>
-5.4800

> <Gold.Chemscore.Hbond>
1.0803

> <Gold.Chemscore.Metal>
0.0000

> <Gold.Chemscore.Lipo>
74.7933

> <Gold.Chemscore.Internal_Hbond>
0.0000

> <Gold.Chemscore.DEClash>
0.2930

> <Gold.Chemscore.DEInternal>
1.9596

> <Gold.Chemscore.Rot>
1.6778

> <Gold.Chemscore.Internal.Correction>
   9.000000E+99

> <Gold.Chemscore.Hbonds>
donor molecule, donor type, donor heavy atom, donor atom, acceptor molecule, acceptor atom, score
      L1  H    10    33       P1 10171  0.04
      L1  H    10    47       P1 10175  0.97

> <Gold.Chemscore.Hbond.Weighted>
-3.6082

> <Gold.Chemscore.Metal.Weighted>
-0.0000

> <Gold.Chemscore.Lipo.Weighted>
-8.7508

> <Gold.Chemscore.Internal_Hbond.Weighted>
0.0000

> <Gold.Chemscore.DEClash.Weighted>
0.2930

> <Gold.Chemscore.DEInternal.Weighted>
1.9596

> <Gold.Chemscore.Rot.Weighted>
4.2952

> <Gold.Chemscore.Internal.Correction.Weighted>
   9.000000E+99

> <Gold.Protein.RotatedTorsions>
[ 6907 6896 6895 6894 ] final   64.04 input  -60.11 | X-H torsion
[ 7974 7965 7964 7962 ] final  118.38 input  175.53 | X-H torsion
[ 8008 7997 7996 7995 ] final   56.41 input   59.86 | X-H torsion
[ 10167 10162 10161 10158 ] final   94.62 input  -65.29 | X-H torsion
[ 10718 10713 10712 10709 ] final  114.18 input   66.30 | X-H torsion
[ 10763 10752 10751 10750 ] final  -47.49 input  -60.55 | X-H torsion
[ 11005 11000 10999 10996 ] final   87.25 input  -57.11 | X-H torsion

> <Gold.Protein.ActiveResidues>
 VAL166  LYS551  ARG553  GLY616  TRP617  ASP618  TYR619  PRO620  LYS621  CYS622 
 ASP623  PHE694  ASN695  SER759  ASP760  ASP761  ALA762  ILE779  LEU786  VAL792 
 PHE793  MET794  SER795  GLU796  ALA797  LYS798  CYS799  TRP800  GLU811  SER814 

> <Gold.Protein.RotatedAtoms>
  152.4301  134.5794  159.9943 H   0  0  0  0  0  0  0  0  0  0  0  0  # atno 6907 bound_to 6896
  151.5920  133.3360  159.3037 H   0  0  0  0  0  0  0  0  0  0  0  0  # atno 6908 bound_to 6896
  150.8193  134.7428  159.6823 H   0  0  0  0  0  0  0  0  0  0  0  0  # atno 6909 bound_to 6896
  145.1558  139.3183  143.4543 H   0  0  0  0  0  0  0  0  0  0  0  0  # atno 7974 bound_to 7965
  155.5170  140.3478  155.4399 H   0  0  0  0  0  0  0  0  0  0  0  0  # atno 8008 bound_to 7997
  156.0811  140.1386  156.9739 H   0  0  0  0  0  0  0  0  0  0  0  0  # atno 8009 bound_to 7997
  154.4580  140.0946  156.6789 H   0  0  0  0  0  0  0  0  0  0  0  0  # atno 8010 bound_to 7997
  139.8066  144.6791  150.9694 H   0  0  0  0  0  0  0  0  0  0  0  0  # atno 10167 bound_to 10162
  157.6296  131.0995  150.7148 H   0  0  0  0  0  0  0  0  0  0  0  0  # atno 10718 bound_to 10713
  154.0622  135.6616  153.4813 H   0  0  0  0  0  0  0  0  0  0  0  0  # atno 10763 bound_to 10752
  153.0422  135.5137  154.7648 H   0  0  0  0  0  0  0  0  0  0  0  0  # atno 10764 bound_to 10752
  154.6688  135.3026  154.9737 H   0  0  0  0  0  0  0  0  0  0  0  0  # atno 10765 bound_to 10752
  139.8924  134.8410  156.2834 H   0  0  0  0  0  0  0  0  0  0  0  0  # atno 11005 bound_to 11000
  146.3489  140.1650  142.8590 LP  0  0  0  0  0  0  0  0  0  0  0  0  # atno 17320 bound_to 7965
  145.0382  140.8925  143.5068 LP  0  0  0  0  0  0  0  0  0  0  0  0  # atno 17321 bound_to 7965
  140.7819  143.4227  151.0817 LP  0  0  0  0  0  0  0  0  0  0  0  0  # atno 17342 bound_to 10162
  139.7896  143.8238  152.3150 LP  0  0  0  0  0  0  0  0  0  0  0  0  # atno 17343 bound_to 10162
  156.7490  130.4762  149.5461 LP  0  0  0  0  0  0  0  0  0  0  0  0  # atno 17370 bound_to 10713
  156.1491  130.6297  151.0571 LP  0  0  0  0  0  0  0  0  0  0  0  0  # atno 17371 bound_to 10713
  141.0024  133.7144  156.0981 LP  0  0  0  0  0  0  0  0  0  0  0  0  # atno 17394 bound_to 11000
  140.7480  134.4077  157.5545 LP  0  0  0  0  0  0  0  0  0  0  0  0  # atno 17395 bound_to 11000

$$$$
