AV-unprocessed.smi:276|AV-procd|sdf|2073|dock8
  -GOLD-   2262021333D 1   1.00000     0.00000
 Structure written by MMmdl.
 57 61  0  0  0  0  0  0  0  0  1 V2000
  143.5276  132.5443  148.8839 C   0  0  0  0  0  0  0  0  0  0  0  0
  144.4878  132.6206  149.9228 O   0  0  0  0  0  0  0  0  0  0  0  0
  144.2616  133.7166  150.7950 C   0  0  1  0  0  0  0  0  0  0  0  0
  143.1466  133.4925  151.8239 C   0  0  0  0  0  0  0  0  0  0  0  0
  144.0393  134.1763  152.8783 C   0  0  2  0  0  0  0  0  0  0  0  0
  143.7522  135.6150  152.9784 N   0  0  0  0  0  0  0  0  0  0  0  0
  142.3798  135.9740  153.3211 C   0  0  0  0  0  0  0  0  0  0  0  0
  144.6106  136.3313  153.7375 C   0  0  0  0  0  0  0  0  0  0  0  0
  144.5942  136.0972  155.0731 N   0  0  0  0  0  0  0  0  0  0  0  0
  145.3968  136.7937  155.8832 C   0  0  0  0  0  0  0  0  0  0  0  0
  146.2723  137.7513  155.5699 N   0  0  0  0  0  0  0  0  0  0  0  0
  146.3022  137.9761  154.2247 C   0  0  0  0  0  0  0  0  0  0  0  0
  145.5211  137.3076  153.2409 C   0  0  0  0  0  0  0  0  0  0  0  0
  145.8357  137.7933  151.9773 N   0  0  0  0  0  0  0  0  0  0  0  0
  146.7356  138.7107  152.2027 C   0  0  0  0  0  0  0  0  0  0  0  0
  147.0540  138.9054  153.5276 N   0  0  0  0  0  0  0  0  0  0  0  0
  148.0002  139.8695  154.0592 C   0  0  0  0  0  0  0  0  0  0  0  0
  147.6731  141.3328  153.6805 C   0  0  2  0  0  0  0  0  0  0  0  0
  148.7300  142.1052  154.2131 O   0  0  0  0  0  0  0  0  0  0  0  0
  146.3554  141.8973  154.2634 C   0  0  2  0  0  0  0  0  0  0  0  0
  145.9534  143.3031  153.7997 C   0  0  0  0  0  0  0  0  0  0  0  0
  145.1670  143.8813  154.9662 C   0  0  0  0  0  0  0  0  0  0  0  0
  145.4061  142.8861  156.0996 C   0  0  0  0  0  0  0  0  0  0  0  0
  146.5124  142.1149  155.6588 O   0  0  0  0  0  0  0  0  0  0  0  0
  145.2443  133.7861  151.9775 C   0  0  0  0  0  0  0  0  0  0  0  0
  146.0908  132.5532  152.3448 C   0  0  0  0  0  0  0  0  0  0  0  0
  147.2675  133.2119  151.6201 C   0  0  0  0  0  0  0  0  0  0  0  0
  146.5750  134.5553  151.8591 C   0  0  0  0  0  0  0  0  0  0  0  0
  143.7512  131.6931  148.2412 H   0  0  0  0  0  0  0  0  0  0  0  0
  143.5426  133.4443  148.2682 H   0  0  0  0  0  0  0  0  0  0  0  0
  142.5213  132.4094  149.2819 H   0  0  0  0  0  0  0  0  0  0  0  0
  144.1788  134.6761  150.2800 H   0  0  0  0  0  0  0  0  0  0  0  0
  142.2082  133.9886  151.5785 H   0  0  0  0  0  0  0  0  0  0  0  0
  142.9846  132.4354  152.0416 H   0  0  0  0  0  0  0  0  0  0  0  0
  144.0191  133.6509  153.8334 H   0  0  0  0  0  0  0  0  0  0  0  0
  142.2859  137.0330  153.5671 H   0  0  0  0  0  0  0  0  0  0  0  0
  142.0343  135.3954  154.1783 H   0  0  0  0  0  0  0  0  0  0  0  0
  141.7090  135.7788  152.4853 H   0  0  0  0  0  0  0  0  0  0  0  0
  145.3208  136.5548  156.9338 H   0  0  0  0  0  0  0  0  0  0  0  0
  147.1822  139.2856  151.4045 H   0  0  0  0  0  0  0  0  0  0  0  0
  148.0523  139.7611  155.1433 H   0  0  0  0  0  0  0  0  0  0  0  0
  148.9837  139.5957  153.6746 H   0  0  0  0  0  0  0  0  0  0  0  0
  147.6813  141.4469  152.5960 H   0  0  0  0  0  0  0  0  0  0  0  0
  148.3818  142.9384  154.4916 H   0  0  0  0  0  0  0  0  0  0  0  0
  145.5286  141.2043  154.0935 H   0  0  0  0  0  0  0  0  0  0  0  0
  146.8379  143.9175  153.6285 H   0  0  0  0  0  0  0  0  0  0  0  0
  145.3680  143.2868  152.8810 H   0  0  0  0  0  0  0  0  0  0  0  0
  145.5417  144.8719  155.2249 H   0  0  0  0  0  0  0  0  0  0  0  0
  144.1042  143.9706  154.7391 H   0  0  0  0  0  0  0  0  0  0  0  0
  145.6141  143.3737  157.0521 H   0  0  0  0  0  0  0  0  0  0  0  0
  144.5408  142.2344  156.2300 H   0  0  0  0  0  0  0  0  0  0  0  0
  146.2591  132.4661  153.4197 H   0  0  0  0  0  0  0  0  0  0  0  0
  145.7591  131.6071  151.9165 H   0  0  0  0  0  0  0  0  0  0  0  0
  148.2319  133.0977  152.1149 H   0  0  0  0  0  0  0  0  0  0  0  0
  147.3186  132.9438  150.5636 H   0  0  0  0  0  0  0  0  0  0  0  0
  146.6306  135.2542  151.0244 H   0  0  0  0  0  0  0  0  0  0  0  0
  146.9137  135.0099  152.7892 H   0  0  0  0  0  0  0  0  0  0  0  0
  1  2  1  0  0  0  0
  1 29  1  0  0  0  0
  1 30  1  0  0  0  0
  1 31  1  0  0  0  0
  2  3  1  0  0  0  0
  3 25  1  0  0  0  0
  3  4  1  0  0  0  0
  3 32  1  0  0  0  0
  4  5  1  0  0  0  0
  4 33  1  0  0  0  0
  4 34  1  0  0  0  0
  5  6  1  0  0  0  0
  5 25  1  0  0  0  0
  5 35  1  0  0  0  0
  6  7  1  0  0  0  0
  6  8  1  0  0  0  0
  7 36  1  0  0  0  0
  7 37  1  0  0  0  0
  7 38  1  0  0  0  0
  8 13  1  0  0  0  0
  8  9  2  0  0  0  0
  9 10  1  0  0  0  0
 10 11  2  0  0  0  0
 10 39  1  0  0  0  0
 11 12  1  0  0  0  0
 12 16  1  0  0  0  0
 12 13  2  0  0  0  0
 13 14  1  0  0  0  0
 14 15  2  0  0  0  0
 15 16  1  0  0  0  0
 15 40  1  0  0  0  0
 16 17  1  0  0  0  0
 17 18  1  0  0  0  0
 17 41  1  0  0  0  0
 17 42  1  0  0  0  0
 18 19  1  0  0  0  0
 18 20  1  0  0  0  0
 18 43  1  0  0  0  0
 19 44  1  0  0  0  0
 20 24  1  0  0  0  0
 20 21  1  0  0  0  0
 20 45  1  0  0  0  0
 21 22  1  0  0  0  0
 21 46  1  0  0  0  0
 21 47  1  0  0  0  0
 22 23  1  0  0  0  0
 22 48  1  0  0  0  0
 22 49  1  0  0  0  0
 23 24  1  0  0  0  0
 23 50  1  0  0  0  0
 23 51  1  0  0  0  0
 25 28  1  0  0  0  0
 25 26  1  0  0  0  0
 26 27  1  0  0  0  0
 26 52  1  0  0  0  0
 26 53  1  0  0  0  0
 27 28  1  0  0  0  0
 27 54  1  0  0  0  0
 27 55  1  0  0  0  0
 28 56  1  0  0  0  0
 28 57  1  0  0  0  0
M  END
> <s_m_source_file>
AV-unprocessed.smi

> <i_m_source_file_index>
276

> <i_lp_mmshare_version>
43012

> <i_f3d_flags>
0

> <s_epik_input>
W0NIMl0xW0NIMl1bQ0gyXUMxMltDQEhdKE9bQ0gzXSlbQ0gyXVtDQEhdMk4oW0NIM10pYyhuW2NIXW4zKWMoYzM0KW5bY0hdbjRbQ0gyXVtDQEhdKFtPSF0pW0NAQEhdNVtDSDJdW0NIMl1bQ0gyXU81

> <s_epik_cmdline>
J2VwaWtfcHl0aG9uJywgJy1waCcsICc3LjAnLCAnLXRuJywgJzgnLCAnLW1hJywgJzIwMCcsICctbWV0YWxfYmluZGluZycsICctaW1hZScsICc8aW5maWxlLm1hZT4nLCAnLW9tYWUnLCAnPG91dGZpbGUubWFlPic=

> <r_lp_tautomer_probability>
1

> <r_epik_Ionization_Penalty>
0.00204117

> <r_epik_Ionization_Penalty_Charging>
0

> <r_epik_Ionization_Penalty_Neutral>
0.00204117

> <r_epik_State_Penalty>
0.00127401

> <r_epik_Charging_Adjusted_Penalty>
0.00127401

> <i_epik_Tot_Q>
0

> <i_epik_Tot_abs_Q>
0

> <r_epik_Metal_State_Penalty>
-0

> <b_epik_Metal_Only>
0

> <s_lp_Force_Field>
OPLS_2005

> <r_lp_Energy>
57.8978

> <b_lp_Chiralities_Consistent>
1

> <s_lp_Variant>
AV-unprocessed.smi:276-4

> <Gold.Version>
5.8.1

> <Gold.Id.Protein>
6NUR|6NUR_protein|mol2

> <Gold.PLP.Fitness>
45.7411

> <Gold.PLP.PLP>
-40.5871

> <Gold.PLP.part.hbond>
-2.0000

> <Gold.PLP.part.metal>
0.0000

> <Gold.PLP.part.buried>
-6.1855

> <Gold.PLP.part.nonpolar>
-34.1032

> <Gold.PLP.part.repulsive>
1.2240

> <Gold.PLP.ligand.clash>
0.0000

> <Gold.PLP.ligand.torsion>
0.5082

> <Gold.PLP.Chemscore.Hbond>
0.7958

> <Gold.PLP.Chemscore.CHOScore>
1.0000

> <Gold.PLP.Chemscore.Metal>
0.0000

> <Gold.Chemscore.Hbonds>
donor molecule, donor type, donor heavy atom, donor atom, acceptor molecule, acceptor atom, score
      L1  H    19    44       P1  8028  0.59
      P1  H  8011  8017       L1    19  0.19
      L1  C    15    40       P1  7957  0.99

> <Gold.PLP.Chemscore.Internal.Correction>
0.7831

> <Gold.Rescore>
     Score         DG    S(hbond)    S(metal)    S(lipo)     H(rot)  DE(clash)    DE(int)     intcor
      9.78     -11.98       0.76        0.00      93.20       2.72       1.43       0.78       ----

> <Gold.Chemscore.Fitness>
9.7785

> <Gold.Chemscore.DG>
-11.9809

> <Gold.Chemscore.ZeroCoef>
-5.4800

> <Gold.Chemscore.Hbond>
0.7641

> <Gold.Chemscore.Metal>
0.0000

> <Gold.Chemscore.Lipo>
93.2036

> <Gold.Chemscore.Internal_Hbond>
0.0000

> <Gold.Chemscore.DEClash>
1.4268

> <Gold.Chemscore.DEInternal>
0.7755

> <Gold.Chemscore.Rot>
2.7172

> <Gold.Chemscore.Internal.Correction>
   9.000000E+99

> <Gold.Chemscore.Hbonds>
donor molecule, donor type, donor heavy atom, donor atom, acceptor molecule, acceptor atom, score
      L1  H    19    44       P1  8028  0.58
      P1  H  8011  8017       L1    19  0.02

> <Gold.Chemscore.Hbond.Weighted>
-2.5520

> <Gold.Chemscore.Metal.Weighted>
-0.0000

> <Gold.Chemscore.Lipo.Weighted>
-10.9048

> <Gold.Chemscore.Internal_Hbond.Weighted>
0.0000

> <Gold.Chemscore.DEClash.Weighted>
1.4268

> <Gold.Chemscore.DEInternal.Weighted>
0.7755

> <Gold.Chemscore.Rot.Weighted>
6.9560

> <Gold.Chemscore.Internal.Correction.Weighted>
   9.000000E+99

> <Gold.Protein.RotatedTorsions>
[ 6907 6896 6895 6894 ] final   56.81 input  -60.11 | X-H torsion
[ 7974 7965 7964 7962 ] final  -50.57 input  175.53 | X-H torsion
[ 8008 7997 7996 7995 ] final  111.74 input   59.86 | X-H torsion
[ 10167 10162 10161 10158 ] final -112.04 input  -65.29 | X-H torsion
[ 10718 10713 10712 10709 ] final   71.59 input   66.30 | X-H torsion
[ 10763 10752 10751 10750 ] final  -44.67 input  -60.55 | X-H torsion
[ 11005 11000 10999 10996 ] final  162.58 input  -57.11 | X-H torsion

> <Gold.Protein.ActiveResidues>
 VAL166  LYS551  ARG553  GLY616  TRP617  ASP618  TYR619  PRO620  LYS621  CYS622 
 ASP623  PHE694  ASN695  SER759  ASP760  ASP761  ALA762  ILE779  LEU786  VAL792 
 PHE793  MET794  SER795  GLU796  ALA797  LYS798  CYS799  TRP800  GLU811  SER814 

> <Gold.Protein.RotatedAtoms>
  152.3671  134.6788  160.0187 H   0  0  0  0  0  0  0  0  0  0  0  0  # atno 6907 bound_to 6896
  151.7092  133.3306  159.3294 H   0  0  0  0  0  0  0  0  0  0  0  0  # atno 6908 bound_to 6896
  150.7646  134.6482  159.6318 H   0  0  0  0  0  0  0  0  0  0  0  0  # atno 6909 bound_to 6896
  145.9284  140.7771  142.9612 H   0  0  0  0  0  0  0  0  0  0  0  0  # atno 7974 bound_to 7965
  156.2144  140.3013  155.9807 H   0  0  0  0  0  0  0  0  0  0  0  0  # atno 8008 bound_to 7997
  155.2642  140.0431  157.3017 H   0  0  0  0  0  0  0  0  0  0  0  0  # atno 8009 bound_to 7997
  154.5747  140.2358  155.8149 H   0  0  0  0  0  0  0  0  0  0  0  0  # atno 8010 bound_to 7997
  140.1271  143.4393  152.1652 H   0  0  0  0  0  0  0  0  0  0  0  0  # atno 10167 bound_to 10162
  157.6459  130.9536  150.0811 H   0  0  0  0  0  0  0  0  0  0  0  0  # atno 10718 bound_to 10713
  154.0160  135.6675  153.4769 H   0  0  0  0  0  0  0  0  0  0  0  0  # atno 10763 bound_to 10752
  153.0600  135.5033  154.8068 H   0  0  0  0  0  0  0  0  0  0  0  0  # atno 10764 bound_to 10752
  154.6967  135.3071  154.9366 H   0  0  0  0  0  0  0  0  0  0  0  0  # atno 10765 bound_to 10752
  140.2272  134.8151  157.3280 H   0  0  0  0  0  0  0  0  0  0  0  0  # atno 11005 bound_to 11000
  144.6761  140.2088  143.7379 LP  0  0  0  0  0  0  0  0  0  0  0  0  # atno 17320 bound_to 7965
  145.8458  139.2151  143.1801 LP  0  0  0  0  0  0  0  0  0  0  0  0  # atno 17321 bound_to 7965
  139.5539  144.7358  151.4353 LP  0  0  0  0  0  0  0  0  0  0  0  0  # atno 17342 bound_to 10162
  140.6839  143.8019  150.7159 LP  0  0  0  0  0  0  0  0  0  0  0  0  # atno 17343 bound_to 10162
  156.1787  130.3649  149.9065 LP  0  0  0  0  0  0  0  0  0  0  0  0  # atno 17370 bound_to 10713
  156.7022  130.8937  151.3600 LP  0  0  0  0  0  0  0  0  0  0  0  0  # atno 17371 bound_to 10713
  140.1788  134.4516  155.7785 LP  0  0  0  0  0  0  0  0  0  0  0  0  # atno 17394 bound_to 11000
  141.2220  133.6974  156.7833 LP  0  0  0  0  0  0  0  0  0  0  0  0  # atno 17395 bound_to 11000

$$$$
