#       Name:                AV-unprocessed.smi:949
#       Creating user name   scv26
#       Creation time:       Fri Mar 27 02:15:19 2020


#       File generated by GOLD software.
#

@<TRIPOS>MOLECULE
AV-unprocessed.smi:949
    35    36     1
SMALL
NO_CHARGES


@<TRIPOS>ATOM
      1 ****        -1.4053  -0.8955   1.5779 C.3            1 S1                 0.0000
      2 ****        -0.8236  -0.3015   0.2814 C.3            1 S1                 0.0000
      3 ****         0.6340  -0.3051   0.3336 N.pl3          1 S1                 0.0000
      4 ****         1.3817   0.6994   0.9738 C.ar           1 S1                 0.0000
      5 ****         0.7764   1.7438   1.7179 C.ar           1 S1                 0.0000
      6 ****         1.5837   2.7201   2.3348 C.ar           1 S1                 0.0000
      7 ****         2.9258   2.6583   2.2139 N.pl3          1 S1                 1.0000
      8 ****         3.5504   1.6867   1.5166 C.ar           1 S1                 0.0000
      9 ****         2.7981   0.6791   0.8770 C.ar           1 S1                 0.0000
     10 ****         3.4692  -0.3156   0.1614 N.pl3          1 S1                 0.0000
     11 ****        -1.2954  -1.0817  -0.9610 C.3            1 S1                 0.0000
     12 ****        -2.8109  -1.0986  -1.1731 C.3            1 S1                 0.0000
     13 ****        -2.9676  -1.2810  -2.6752 C.3            1 S1                 0.0000
     14 ****        -1.5711  -0.9963  -3.2326 C.3            1 S1                 0.0000
     15 ****        -0.8499  -0.4368  -2.1448 O.3            1 S1                 0.0000
     16 ****        -2.4944  -0.8517   1.5820 H              1 S1                 0.0000
     17 ****        -1.0614  -0.3564   2.4605 H              1 S1                 0.0000
     18 ****        -1.1158  -1.9399   1.6978 H              1 S1                 0.0000
     19 ****        -1.1722   0.7256   0.1728 H              1 S1                 0.0000
     20 ****         1.1215  -0.9884  -0.2279 H              1 S1                 0.0000
     21 ****        -0.2945   1.8146   1.8304 H              1 S1                 0.0000
     22 ****         1.1969   3.5431   2.9180 H              1 S1                 0.0000
     23 ****         4.6290   1.7455   1.4924 H              1 S1                 0.0000
     24 ****         2.9675  -1.0540  -0.3112 H              1 S1                 0.0000
     25 ****         4.4727  -0.4154   0.2188 H              1 S1                 0.0000
     26 ****        -0.9112  -2.1039  -0.9454 H              1 S1                 0.0000
     27 ****        -3.3063  -1.8830  -0.5999 H              1 S1                 0.0000
     28 ****        -3.2439  -0.1420  -0.8773 H              1 S1                 0.0000
     29 ****        -3.2846  -2.2937  -2.9273 H              1 S1                 0.0000
     30 ****        -3.7090  -0.5878  -3.0743 H              1 S1                 0.0000
     31 ****        -1.0867  -1.9223  -3.5458 H              1 S1                 0.0000
     32 ****        -1.5891  -0.3162  -4.0844 H              1 S1                 0.0000
     33 ****         3.4918   3.3755   2.6683 H              1 S1                 0.0000
     34 ****         0.1302  -0.5910  -2.2695 LP             1 S1                 0.0000
     35 ****        -1.0279   0.5455  -2.0862 LP             1 S1                 0.0000
@<TRIPOS>BOND
    1    1    2 1     
    2    1   16 1     
    3    1   17 1     
    4    1   18 1     
    5    2    3 1     
    6    2   11 1     
    7    2   19 1     
    8    3    4 1     
    9    3   20 1     
   10    4    9 ar    
   11    4    5 ar    
   12    5    6 ar    
   13    5   21 1     
   14    6    7 ar    
   15    6   22 1     
   16    7    8 ar    
   17    7   33 1     
   18    8    9 ar    
   19    8   23 1     
   20    9   10 1     
   21   10   24 1     
   22   10   25 1     
   23   11   15 1     
   24   11   12 1     
   25   11   26 1     
   26   12   13 1     
   27   12   27 1     
   28   12   28 1     
   29   13   14 1     
   30   13   29 1     
   31   13   30 1     
   32   14   15 1     
   33   14   31 1     
   34   14   32 1     
   35   15   34 1     
   36   15   35 1     
@<TRIPOS>SUBSTRUCTURE
      1 S1             1
@<TRIPOS>SET
LONE_PAIRS      STATIC     ATOMS    <user>   **** ""
2 34 35
DONOR_HYDROGENS      STATIC     ATOMS    <user>   **** ""
4 20 33 24 25
ATOM$BLUE        STATIC     ATOMS    COLORGROUP SYSTEM
2 34 35
ATOM$RED        STATIC     ATOMS    COLORGROUP SYSTEM
4 20 33 24 25
