AV-unprocessed.smi:1648|AV-procd|sdf|6631|dock4
  -GOLD-   22720 7333D 1   1.00000     0.00000
 Structure written by MMmdl.
 41 41  0  0  0  0  0  0  0  0  1 V2000
  147.3625  145.1416  160.5237 C   0  0  0  0  0  0  0  0  0  0  0  0
  147.0557  143.7635  159.9341 C   0  0  0  0  0  0  0  0  0  0  0  0
  146.6894  142.8569  160.6783 O   0  0  0  0  0  0  0  0  0  0  0  0
  147.1960  143.5664  158.6116 N   0  0  0  0  0  0  0  0  0  0  0  0
  146.9537  142.3302  157.8619 C   0  0  2  0  0  0  0  0  0  0  0  0
  148.3061  141.6490  157.5779 C   0  0  0  0  0  0  0  0  0  0  0  0
  148.5298  140.5062  157.9803 O   0  0  0  0  0  0  0  0  0  0  0  0
  149.2031  142.3783  156.8959 N   0  0  0  0  0  0  0  0  0  0  0  0
  150.5460  141.9428  156.5254 C   0  0  2  0  0  0  0  0  0  0  0  0
  150.4670  140.6877  155.6364 C   0  0  0  0  0  0  0  0  0  0  0  0
  151.3742  141.7291  157.8079 C   0  0  0  0  0  0  0  0  0  0  0  0
  151.7038  142.9726  158.4790 N   0  0  0  0  0  0  0  0  0  0  0  0
  151.4693  144.2606  158.0162 C   0  0  0  0  0  0  0  0  0  0  0  0
  151.9440  145.1183  158.9826 C   0  0  0  0  0  0  0  0  0  0  0  0
  152.4673  144.3846  160.0444 N   0  0  0  0  0  0  0  0  0  0  0  0
  152.2874  143.1227  159.6763 C   0  0  0  0  0  0  0  0  0  0  0  0
  146.2502  142.6891  156.5194 C   0  0  0  0  0  0  0  0  0  0  0  0
  144.9078  143.4114  156.7507 C   0  0  0  0  0  0  0  0  0  0  0  0
  146.0114  141.4629  155.6132 C   0  0  0  0  0  0  0  0  0  0  0  0
  146.7322  145.9077  160.0724 H   0  0  0  0  0  0  0  0  0  0  0  0
  148.4077  145.4065  160.3642 H   0  0  0  0  0  0  0  0  0  0  0  0
  147.1766  145.1481  161.5982 H   0  0  0  0  0  0  0  0  0  0  0  0
  147.5210  144.3525  158.0675 H   0  0  0  0  0  0  0  0  0  0  0  0
  146.3085  141.6613  158.4341 H   0  0  0  0  0  0  0  0  0  0  0  0
  148.9343  143.3095  156.6128 H   0  0  0  0  0  0  0  0  0  0  0  0
  151.0247  142.7380  155.9504 H   0  0  0  0  0  0  0  0  0  0  0  0
  151.4537  140.3785  155.2913 H   0  0  0  0  0  0  0  0  0  0  0  0
  149.8604  140.8700  154.7489 H   0  0  0  0  0  0  0  0  0  0  0  0
  150.0238  139.8492  156.1749 H   0  0  0  0  0  0  0  0  0  0  0  0
  150.8253  141.1011  158.5114 H   0  0  0  0  0  0  0  0  0  0  0  0
  152.3021  141.2030  157.5776 H   0  0  0  0  0  0  0  0  0  0  0  0
  150.9996  144.4542  157.0631 H   0  0  0  0  0  0  0  0  0  0  0  0
  151.9478  146.1981  158.9959 H   0  0  0  0  0  0  0  0  0  0  0  0
  152.5912  142.2879  160.2907 H   0  0  0  0  0  0  0  0  0  0  0  0
  146.8904  143.3786  155.9660 H   0  0  0  0  0  0  0  0  0  0  0  0
  144.2231  142.7947  157.3337 H   0  0  0  0  0  0  0  0  0  0  0  0
  144.4188  143.6443  155.8043 H   0  0  0  0  0  0  0  0  0  0  0  0
  145.0371  144.3559  157.2792 H   0  0  0  0  0  0  0  0  0  0  0  0
  145.4253  140.7004  156.1272 H   0  0  0  0  0  0  0  0  0  0  0  0
  146.9444  141.0034  155.2863 H   0  0  0  0  0  0  0  0  0  0  0  0
  145.4685  141.7427  154.7099 H   0  0  0  0  0  0  0  0  0  0  0  0
  1  2  1  0  0  0  0
  1 20  1  0  0  0  0
  1 21  1  0  0  0  0
  1 22  1  0  0  0  0
  2  3  2  0  0  0  0
  2  4  1  0  0  0  0
  4  5  1  0  0  0  0
  4 23  1  0  0  0  0
  5  6  1  0  0  0  0
  5 17  1  0  0  0  0
  5 24  1  0  0  0  0
  6  7  2  0  0  0  0
  6  8  1  0  0  0  0
  8  9  1  0  0  0  0
  8 25  1  0  0  0  0
  9 10  1  0  0  0  0
  9 11  1  0  0  0  0
  9 26  1  0  0  0  0
 10 27  1  0  0  0  0
 10 28  1  0  0  0  0
 10 29  1  0  0  0  0
 11 12  1  0  0  0  0
 11 30  1  0  0  0  0
 11 31  1  0  0  0  0
 12 16  1  0  0  0  0
 12 13  1  0  0  0  0
 13 14  2  0  0  0  0
 13 32  1  0  0  0  0
 14 15  1  0  0  0  0
 14 33  1  0  0  0  0
 15 16  2  0  0  0  0
 16 34  1  0  0  0  0
 17 18  1  0  0  0  0
 17 19  1  0  0  0  0
 17 35  1  0  0  0  0
 18 36  1  0  0  0  0
 18 37  1  0  0  0  0
 18 38  1  0  0  0  0
 19 39  1  0  0  0  0
 19 40  1  0  0  0  0
 19 41  1  0  0  0  0
M  END
> <s_m_source_file>
AV-unprocessed.smi

> <i_m_source_file_index>
1648

> <i_lp_mmshare_version>
43012

> <i_f3d_flags>
0

> <s_epik_input>
W0NIM11DKD1PKVtOSF1bQ0BASF0oW0NIXShbQ0gzXSlbQ0gzXSlDKD1PKVtOSF1bQ0BIXShbQ0gzXSlbQ0gyXW4xW2NIXVtjSF1uW2NIXTE=

> <s_epik_cmdline>
J2VwaWtfcHl0aG9uJywgJy1waCcsICc3LjAnLCAnLXRuJywgJzgnLCAnLW1hJywgJzIwMCcsICctbWV0YWxfYmluZGluZycsICctaW1hZScsICc8aW5maWxlLm1hZT4nLCAnLW9tYWUnLCAnPG91dGZpbGUubWFlPic=

> <r_lp_tautomer_probability>
1

> <r_epik_Ionization_Penalty>
0.628885

> <r_epik_Ionization_Penalty_Charging>
0.628884

> <r_epik_Ionization_Penalty_Neutral>
4.35155e-07

> <r_epik_State_Penalty>
0.64556

> <r_epik_Charging_Adjusted_Penalty>
1.27444

> <i_epik_Tot_Q>
0

> <i_epik_Tot_abs_Q>
0

> <r_epik_Metal_State_Penalty>
0.30874

> <b_epik_Metal_Only>
0

> <s_lp_Force_Field>
OPLS_2005

> <r_lp_Energy>
10.0668

> <b_lp_Chiralities_Consistent>
1

> <s_lp_Variant>
AV-unprocessed.smi:1648-5

> <Gold.Version>
5.8.1

> <Gold.Id.Protein>
6NUR|6NUR_protein|mol2

> <Gold.PLP.Fitness>
51.3720

> <Gold.PLP.PLP>
-37.6017

> <Gold.PLP.part.hbond>
-4.3648

> <Gold.PLP.part.metal>
0.0000

> <Gold.PLP.part.buried>
-5.6279

> <Gold.PLP.part.nonpolar>
-28.5469

> <Gold.PLP.part.repulsive>
0.1361

> <Gold.PLP.ligand.clash>
0.0000

> <Gold.PLP.ligand.torsion>
0.4144

> <Gold.PLP.Chemscore.Hbond>
3.8400

> <Gold.PLP.Chemscore.CHOScore>
1.0000

> <Gold.PLP.Chemscore.Metal>
0.0000

> <Gold.Chemscore.Hbonds>
donor molecule, donor type, donor heavy atom, donor atom, acceptor molecule, acceptor atom, score
      L1  H     4    23       P1  8029  1.00
      L1  H     8    25       P1  8028  1.00
      P1  H  6933  6944       L1     3  0.85
      P1  H  6934  6946       L1     3  0.93
      L1  C    13    32       P1  8028  1.00

> <Gold.PLP.Chemscore.Internal.Correction>
0.0791

> <Gold.Rescore>
     Score         DG    S(hbond)    S(metal)    S(lipo)     H(rot)  DE(clash)    DE(int)     intcor
     14.43     -15.78       2.89        0.00      60.80       2.52       0.05       1.30       ----

> <Gold.Chemscore.Fitness>
14.4290

> <Gold.Chemscore.DG>
-15.7755

> <Gold.Chemscore.ZeroCoef>
-5.4800

> <Gold.Chemscore.Hbond>
2.8854

> <Gold.Chemscore.Metal>
0.0000

> <Gold.Chemscore.Lipo>
60.7987

> <Gold.Chemscore.Internal_Hbond>
0.0000

> <Gold.Chemscore.DEClash>
0.0480

> <Gold.Chemscore.DEInternal>
1.2985

> <Gold.Chemscore.Rot>
2.5216

> <Gold.Chemscore.Internal.Correction>
   9.000000E+99

> <Gold.Chemscore.Hbonds>
donor molecule, donor type, donor heavy atom, donor atom, acceptor molecule, acceptor atom, score
      L1  H     4    23       P1  8029  0.40
      L1  H     8    25       P1  8028  0.92
      P1  H  6933  6944       L1     3  0.18
      P1  H  6934  6946       L1     3  0.86

> <Gold.Chemscore.Hbond.Weighted>
-9.6373

> <Gold.Chemscore.Metal.Weighted>
-0.0000

> <Gold.Chemscore.Lipo.Weighted>
-7.1134

> <Gold.Chemscore.Internal_Hbond.Weighted>
0.0000

> <Gold.Chemscore.DEClash.Weighted>
0.0480

> <Gold.Chemscore.DEInternal.Weighted>
1.2985

> <Gold.Chemscore.Rot.Weighted>
6.4553

> <Gold.Chemscore.Internal.Correction.Weighted>
   9.000000E+99

> <Gold.Protein.RotatedTorsions>
[ 6907 6896 6895 6894 ] final   91.13 input  -60.11 | X-H torsion
[ 7974 7965 7964 7962 ] final   33.90 input  175.53 | X-H torsion
[ 8008 7997 7996 7995 ] final   -3.47 input   59.86 | X-H torsion
[ 10167 10162 10161 10158 ] final   11.43 input  -65.29 | X-H torsion
[ 10718 10713 10712 10709 ] final  148.42 input   66.30 | X-H torsion
[ 10763 10752 10751 10750 ] final   29.51 input  -60.55 | X-H torsion
[ 11005 11000 10999 10996 ] final  164.66 input  -57.11 | X-H torsion

> <Gold.Protein.ActiveResidues>
 VAL166  LYS551  ARG553  GLY616  TRP617  ASP618  TYR619  PRO620  LYS621  CYS622 
 ASP623  PHE694  ASN695  SER759  ASP760  ASP761  ALA762  ILE779  LEU786  VAL792 
 PHE793  MET794  SER795  GLU796  ALA797  LYS798  CYS799  TRP800  GLU811  SER814 

> <Gold.Protein.RotatedAtoms>
  152.5448  134.1704  159.8594 H   0  0  0  0  0  0  0  0  0  0  0  0  # atno 6907 bound_to 6896
  151.1715  133.4774  159.2601 H   0  0  0  0  0  0  0  0  0  0  0  0  # atno 6908 bound_to 6896
  151.1270  135.0121  159.8620 H   0  0  0  0  0  0  0  0  0  0  0  0  # atno 6909 bound_to 6896
  146.1390  139.6338  142.9176 H   0  0  0  0  0  0  0  0  0  0  0  0  # atno 7974 bound_to 7965
  154.6246  140.2508  155.7508 H   0  0  0  0  0  0  0  0  0  0  0  0  # atno 8008 bound_to 7997
  156.2446  140.2919  156.0489 H   0  0  0  0  0  0  0  0  0  0  0  0  # atno 8009 bound_to 7997
  155.1842  140.0390  157.2878 H   0  0  0  0  0  0  0  0  0  0  0  0  # atno 8010 bound_to 7997
  140.6132  143.8363  150.7089 H   0  0  0  0  0  0  0  0  0  0  0  0  # atno 10167 bound_to 10162
  157.3088  131.0884  151.1333 H   0  0  0  0  0  0  0  0  0  0  0  0  # atno 10718 bound_to 10713
  153.0426  135.6487  154.0902 H   0  0  0  0  0  0  0  0  0  0  0  0  # atno 10763 bound_to 10752
  154.0606  135.2888  155.3327 H   0  0  0  0  0  0  0  0  0  0  0  0  # atno 10764 bound_to 10752
  154.6660  135.5374  153.8143 H   0  0  0  0  0  0  0  0  0  0  0  0  # atno 10765 bound_to 10752
  140.2482  134.7998  157.3476 H   0  0  0  0  0  0  0  0  0  0  0  0  # atno 11005 bound_to 11000
  145.5091  141.0436  143.2498 LP  0  0  0  0  0  0  0  0  0  0  0  0  # atno 17320 bound_to 7965
  144.7771  139.6606  143.7170 LP  0  0  0  0  0  0  0  0  0  0  0  0  # atno 17321 bound_to 7965
  140.1936  143.4016  152.1845 LP  0  0  0  0  0  0  0  0  0  0  0  0  # atno 17342 bound_to 10162
  139.5378  144.7227  151.4835 LP  0  0  0  0  0  0  0  0  0  0  0  0  # atno 17343 bound_to 10162
  157.2663  130.6683  149.5998 LP  0  0  0  0  0  0  0  0  0  0  0  0  # atno 17370 bound_to 10713
  155.9676  130.4493  150.5653 LP  0  0  0  0  0  0  0  0  0  0  0  0  # atno 17371 bound_to 10713
  140.1585  134.4759  155.7911 LP  0  0  0  0  0  0  0  0  0  0  0  0  # atno 17394 bound_to 11000
  141.2204  133.6891  156.7502 LP  0  0  0  0  0  0  0  0  0  0  0  0  # atno 17395 bound_to 11000

$$$$
