#       Name:                AV-unprocessed.smi:2655
#       Creating user name   scv26
#       Creation time:       Fri Mar 27 14:31:25 2020


#       File generated by GOLD software.
#

@<TRIPOS>MOLECULE
AV-unprocessed.smi:2655
    42    43     1
SMALL
NO_CHARGES


@<TRIPOS>ATOM
      1 ****        -2.7026   2.9392   3.0503 C.3            1 S1                 0.0000
      2 ****        -2.7745   3.3361   1.6035 C.2            1 S1                 0.0000
      3 ****        -3.3388   4.4967   1.2844 N.2            1 S1                 0.0000
      4 ****        -3.2377   4.5605  -0.0565 N.pl3          1 S1                 0.0000
      5 ****        -2.6156   3.4523  -0.5701 C.2            1 S1                 0.0000
      6 ****        -2.4074   3.3245  -1.9079 O.3            1 S1                 0.0000
      7 ****        -2.2943   2.6198   0.4623 C.2            1 S1                 0.0000
      8 ****        -1.6002   1.2855   0.4155 C.3            1 S1                 0.0000
      9 ****        -0.1065   1.4182   0.7540 C.3            1 S1                 0.0000
     10 ****         0.5707   0.1270   0.7221 N.am           1 S1                 0.0000
     11 ****         0.9957  -0.4891  -0.3907 C.2            1 S1                 0.0000
     12 ****         0.8519  -0.0230  -1.5214 O.2            1 S1                 0.0000
     13 ****         1.5858  -1.6628  -0.1058 N.am           1 S1                 0.0000
     14 ****         2.1479  -2.5913  -1.0190 C.2            1 S1                 0.0000
     15 ****         2.7243  -3.8065  -0.5622 C.2            1 S1                 0.0000
     16 ****         3.1366  -4.4056  -1.7192 C.2            1 S1                 0.0000
     17 ****         3.8186  -5.6994  -2.0054 C.3            1 S1                 0.0000
     18 ****         2.8399  -3.6214  -2.7908 O.3            1 S1                 0.0000
     19 ****         2.2057  -2.4595  -2.3353 N.2            1 S1                 0.0000
     20 ****        -2.4740   1.8796   3.1627 H              1 S1                 0.0000
     21 ****        -3.6483   3.1267   3.5596 H              1 S1                 0.0000
     22 ****        -1.9266   3.5017   3.5700 H              1 S1                 0.0000
     23 ****        -3.5870   5.3456  -0.5873 H              1 S1                 0.0000
     24 ****        -1.7118   0.8355  -0.5717 H              1 S1                 0.0000
     25 ****        -2.0680   0.5861   1.1090 H              1 S1                 0.0000
     26 ****         0.3806   2.1124   0.0669 H              1 S1                 0.0000
     27 ****         0.0127   1.8368   1.7537 H              1 S1                 0.0000
     28 ****         0.7279  -0.3266   1.6103 H              1 S1                 0.0000
     29 ****         1.6343  -1.9223   0.8683 H              1 S1                 0.0000
     30 ****         2.8193  -4.1811   0.4461 H              1 S1                 0.0000
     31 ****         3.8736  -6.3184  -1.1097 H              1 S1                 0.0000
     32 ****         4.8343  -5.5288  -2.3625 H              1 S1                 0.0000
     33 ****         3.2801  -6.2596  -2.7700 H              1 S1                 0.0000
     34 ****        -1.9468   2.5120  -2.0525 H              1 S1                 0.0000
     35 ****        -3.7463   5.1702   1.9011 LP             1 S1                 0.0000
     36 ****        -1.8582   4.0908  -2.2414 LP             1 S1                 0.0000
     37 ****        -3.2841   3.3086  -2.3886 LP             1 S1                 0.0000
     38 ****         0.3979   0.8594  -1.6445 LP             1 S1                 0.0000
     39 ****         1.1892  -0.5270  -2.3166 LP             1 S1                 0.0000
     40 ****         2.2311  -4.1158  -3.4113 LP             1 S1                 0.0000
     41 ****         3.6815  -3.3783  -3.2731 LP             1 S1                 0.0000
     42 ****         1.8691  -1.6951  -2.8852 LP             1 S1                 0.0000
@<TRIPOS>BOND
    1    1   20 1     
    2    1   21 1     
    3    1   22 1     
    4    1    2 1     
    5    2    7 1     
    6    2    3 2     
    7    3    4 1     
    8    4   23 1     
    9    4    5 1     
   10    5    7 2     
   11    5    6 1     
   12    6   34 1     
   13    7    8 1     
   14    8    9 1     
   15    8   24 1     
   16    8   25 1     
   17    9   10 1     
   18    9   26 1     
   19    9   27 1     
   20   10   11 am    
   21   10   28 1     
   22   11   12 2     
   23   11   13 am    
   24   13   14 1     
   25   13   29 1     
   26   14   19 2     
   27   14   15 1     
   28   15   16 2     
   29   15   30 1     
   30   16   17 1     
   31   16   18 1     
   32   17   31 1     
   33   17   32 1     
   34   17   33 1     
   35   18   19 1     
   36    3   35 1     
   37    6   36 1     
   38    6   37 1     
   39   12   38 1     
   40   12   39 1     
   41   18   40 1     
   42   18   41 1     
   43   19   42 1     
@<TRIPOS>SUBSTRUCTURE
      1 S1             1
@<TRIPOS>SET
LONE_PAIRS      STATIC     ATOMS    <user>   **** ""
8 35 36 37 38 39 40 41 42
DONOR_HYDROGENS      STATIC     ATOMS    <user>   **** ""
4 23 34 28 29
ATOM$BLUE        STATIC     ATOMS    COLORGROUP SYSTEM
8 35 36 37 38 39 40 41 42
ATOM$RED        STATIC     ATOMS    COLORGROUP SYSTEM
4 23 34 28 29
