#       Name:                AV-unprocessed.smi:2958
#       Creating user name   scv26
#       Creation time:       Fri Mar 27 16:20:36 2020


#       File generated by GOLD software.
#

@<TRIPOS>MOLECULE
AV-unprocessed.smi:2958
    44    46     1
SMALL
NO_CHARGES


@<TRIPOS>ATOM
      1 ****        -5.1340   0.1994   0.1200 C.3            1 S1                 0.0000
      2 ****        -4.1495   1.3509   0.1158 C.ar           1 S1                 0.0000
      3 ****        -4.6112   2.6824   0.1233 C.ar           1 S1                 0.0000
      4 ****        -3.6895   3.7452   0.1185 C.ar           1 S1                 0.0000
      5 ****        -2.3072   3.4790   0.1062 C.ar           1 S1                 0.0000
      6 ****        -1.8277   2.1532   0.1007 C.ar           1 S1                 0.0000
      7 ****        -0.4598   1.9844   0.0916 O.3            1 S1                 0.0000
      8 ****         0.0532   0.6607   0.1293 C.3            1 S1                 0.0000
      9 ****         1.5844   0.7308   0.1473 C.3            1 S1                 0.0000
     10 ****         2.1781  -0.5949   0.2140 N.pl3          1 S1                 0.0000
     11 ****         2.5463  -1.2959   1.3156 C.2            1 S1                 0.0000
     12 ****         2.3757  -0.7537   2.7015 C.3            1 S1                 0.0000
     13 ****         3.3913   0.1594   3.0578 O.3            1 S1                 0.0000
     14 ****         3.0694  -2.5014   1.0879 N.2            1 S1                 0.0000
     15 ****         3.0315  -2.5933  -0.2900 C.ar           1 S1                 0.0000
     16 ****         3.4422  -3.6346  -1.1527 C.ar           1 S1                 0.0000
     17 ****         3.2977  -3.5034  -2.5496 C.ar           1 S1                 0.0000
     18 ****         2.7414  -2.3318  -3.1029 C.ar           1 S1                 0.0000
     19 ****         2.3278  -1.2811  -2.2614 C.ar           1 S1                 0.0000
     20 ****         2.4755  -1.4168  -0.8680 C.ar           1 S1                 0.0000
     21 ****        -2.7639   1.0878   0.1046 C.ar           1 S1                 0.0000
     22 ****        -6.1645   0.5560   0.1166 H              1 S1                 0.0000
     23 ****        -4.9904  -0.4174   1.0075 H              1 S1                 0.0000
     24 ****        -4.9879  -0.4260  -0.7611 H              1 S1                 0.0000
     25 ****        -5.6705   2.8939   0.1325 H              1 S1                 0.0000
     26 ****        -4.0424   4.7660   0.1241 H              1 S1                 0.0000
     27 ****        -1.6070   4.3014   0.1028 H              1 S1                 0.0000
     28 ****        -0.3037   0.1438   1.0215 H              1 S1                 0.0000
     29 ****        -0.2802   0.1014  -0.7465 H              1 S1                 0.0000
     30 ****         1.9484   1.2305  -0.7511 H              1 S1                 0.0000
     31 ****         1.9309   1.3280   0.9907 H              1 S1                 0.0000
     32 ****         1.4036  -0.2691   2.7928 H              1 S1                 0.0000
     33 ****         2.3821  -1.5789   3.4142 H              1 S1                 0.0000
     34 ****         3.2339   0.4526   3.9421 H              1 S1                 0.0000
     35 ****         3.8687  -4.5364  -0.7390 H              1 S1                 0.0000
     36 ****         3.6145  -4.3059  -3.1994 H              1 S1                 0.0000
     37 ****         2.6333  -2.2401  -4.1738 H              1 S1                 0.0000
     38 ****         1.9016  -0.3823  -2.6820 H              1 S1                 0.0000
     39 ****        -2.4421   0.0573   0.0984 H              1 S1                 0.0000
     40 ****        -0.0963   2.4661   0.8890 LP             1 S1                 0.0000
     41 ****        -0.1137   2.4128  -0.7430 LP             1 S1                 0.0000
     42 ****         3.3753   0.9417   2.4351 LP             1 S1                 0.0000
     43 ****         4.2829  -0.2903   3.0052 LP             1 S1                 0.0000
     44 ****         3.4053  -3.1717   1.7496 LP             1 S1                 0.0000
@<TRIPOS>BOND
    1    1    2 1     
    2    1   22 1     
    3    1   23 1     
    4    1   24 1     
    5    2   21 ar    
    6    2    3 ar    
    7    3    4 ar    
    8    3   25 1     
    9    4    5 ar    
   10    4   26 1     
   11    5    6 ar    
   12    5   27 1     
   13    6    7 1     
   14    6   21 ar    
   15    7    8 1     
   16    8    9 1     
   17    8   28 1     
   18    8   29 1     
   19    9   10 1     
   20    9   30 1     
   21    9   31 1     
   22   10   20 1     
   23   10   11 1     
   24   11   12 1     
   25   11   14 2     
   26   12   13 1     
   27   12   32 1     
   28   12   33 1     
   29   13   34 1     
   30   14   15 1     
   31   15   20 ar    
   32   15   16 ar    
   33   16   17 ar    
   34   16   35 1     
   35   17   18 ar    
   36   17   36 1     
   37   18   19 ar    
   38   18   37 1     
   39   19   20 ar    
   40   19   38 1     
   41   21   39 1     
   42    7   40 1     
   43    7   41 1     
   44   13   42 1     
   45   13   43 1     
   46   14   44 1     
@<TRIPOS>SUBSTRUCTURE
      1 S1             1
@<TRIPOS>SET
LONE_PAIRS      STATIC     ATOMS    <user>   **** ""
5 40 41 42 43 44
DONOR_HYDROGENS      STATIC     ATOMS    <user>   **** ""
1 34
ATOM$BLUE        STATIC     ATOMS    COLORGROUP SYSTEM
5 40 41 42 43 44
ATOM$RED        STATIC     ATOMS    COLORGROUP SYSTEM
1 34
