#       Name:                AV-unprocessed.smi:2011
#       Creating user name   scv26
#       Creation time:       Fri Mar 27 10:39:39 2020


#       File generated by GOLD software.
#

@<TRIPOS>MOLECULE
AV-unprocessed.smi:2011
    30    31     1
SMALL
NO_CHARGES


@<TRIPOS>ATOM
      1 ****        -0.5500   2.1896   0.7422 O.2            1 S1                 0.0000
      2 ****        -1.0707   1.1420   0.3520 C.2            1 S1                 0.0000
      3 ****        -0.3272   0.0348   0.2263 N.am           1 S1                 0.0000
      4 ****         1.0981  -0.0557   0.5139 C.3            1 S1                 0.0000
      5 ****         1.6088  -1.4650   0.2395 C.3            1 S1                 0.0000
      6 ****         3.1156  -1.7532   0.3117 C.3            1 S1                 0.0000
      7 ****         2.9335  -2.7524  -0.8341 C.3            1 S1                 0.0000
      8 ****         1.6549  -1.9952  -1.2019 C.3            1 S1                 0.0000
      9 ****        -2.3705   0.9676   0.0200 N.pl3          1 S1                -1.0000
     10 ****        -3.2276   1.9991   0.0961 C.2            1 S1                 0.0000
     11 ****        -3.5769   2.7236  -0.9792 N.2            1 S1                 0.0000
     12 ****        -4.4767   3.7392  -0.6849 N.2            1 S1                 0.0000
     13 ****        -4.7906   3.7496   0.6104 C.2            1 S1                 0.0000
     14 ****        -4.0197   2.5175   1.5870 S.3            1 S1                 0.0000
     15 ****        -0.7861  -0.8040  -0.0973 H              1 S1                 0.0000
     16 ****         1.6352   0.6715  -0.0969 H              1 S1                 0.0000
     17 ****         1.2726   0.2137   1.5564 H              1 S1                 0.0000
     18 ****         1.0869  -2.1933   0.8642 H              1 S1                 0.0000
     19 ****         3.7261  -0.8945   0.0275 H              1 S1                 0.0000
     20 ****         3.4518  -2.1914   1.2517 H              1 S1                 0.0000
     21 ****         3.7158  -2.7257  -1.5930 H              1 S1                 0.0000
     22 ****         2.7392  -3.7676  -0.4842 H              1 S1                 0.0000
     23 ****         0.8116  -2.6272  -1.4817 H              1 S1                 0.0000
     24 ****         1.8277  -1.2076  -1.9374 H              1 S1                 0.0000
     25 ****        -5.4830   4.4846   0.9925 H              1 S1                 0.0000
     26 ****         0.4249   2.2111   0.9638 LP             1 S1                 0.0000
     27 ****        -1.1026   3.0176   0.8369 LP             1 S1                 0.0000
     28 ****        -2.6932   0.0706  -0.2821 LP             1 S1                 0.0000
     29 ****        -3.2246   2.5493  -1.8988 LP             1 S1                 0.0000
     30 ****        -4.8426   4.3810  -1.3589 LP             1 S1                 0.0000
@<TRIPOS>BOND
    1    1    2 2     
    2    2    3 am    
    3    2    9 1     
    4    3    4 1     
    5    3   15 1     
    6    4    5 1     
    7    4   16 1     
    8    4   17 1     
    9    5    8 1     
   10    5    6 1     
   11    5   18 1     
   12    6    7 1     
   13    6   19 1     
   14    6   20 1     
   15    7    8 1     
   16    7   21 1     
   17    7   22 1     
   18    8   23 1     
   19    8   24 1     
   20    9   10 1     
   21   10   14 1     
   22   10   11 2     
   23   11   12 1     
   24   12   13 2     
   25   13   14 1     
   26   13   25 1     
   27    1   26 1     
   28    1   27 1     
   29    9   28 1     
   30   11   29 1     
   31   12   30 1     
@<TRIPOS>SUBSTRUCTURE
      1 S1             1
@<TRIPOS>SET
LONE_PAIRS      STATIC     ATOMS    <user>   **** ""
5 26 27 28 29 30
DONOR_HYDROGENS      STATIC     ATOMS    <user>   **** ""
1 15
ATOM$BLUE        STATIC     ATOMS    COLORGROUP SYSTEM
5 26 27 28 29 30
ATOM$RED        STATIC     ATOMS    COLORGROUP SYSTEM
1 15
