#       Name:                AV-unprocessed.smi:3001
#       Creating user name   scv26
#       Creation time:       Fri Mar 27 16:36:02 2020


#       File generated by GOLD software.
#

@<TRIPOS>MOLECULE
AV-unprocessed.smi:3001
    47    48     1
SMALL
NO_CHARGES


@<TRIPOS>ATOM
      1 ****        -4.6605  -6.0148  -0.2364 C.1            1 S1                 0.0000
      2 ****        -4.3003  -5.1098   0.4999 C.1            1 S1                 0.0000
      3 ****        -3.8704  -4.0250   1.3978 C.3            1 S1                 0.0000
      4 ****        -2.4195  -3.9400   1.5213 N.am           1 S1                 0.0000
      5 ****        -1.6157  -3.1834   0.7578 C.2            1 S1                 0.0000
      6 ****        -2.0261  -2.4726  -0.1609 O.2            1 S1                 0.0000
      7 ****        -0.1170  -3.2654   1.0730 C.3            1 S1                 0.0000
      8 ****         0.6141  -2.0674   0.6668 N.am           1 S1                 0.0000
      9 ****         0.6467  -0.9169   1.3550 C.2            1 S1                 0.0000
     10 ****         0.0816  -0.7530   2.4364 O.2            1 S1                 0.0000
     11 ****         1.3490   0.0242   0.7027 N.am           1 S1                 0.0000
     12 ****         1.5309   1.3843   1.0794 C.ar           1 S1                 0.0000
     13 ****         1.7119   1.7445   2.4393 C.ar           1 S1                 0.0000
     14 ****         1.9598   3.0862   2.7842 C.ar           1 S1                 0.0000
     15 ****         2.0402   4.0468   1.7618 C.ar           1 S1                 0.0000
     16 ****         1.8765   3.6709   0.4767 N.pl3          1 S1                 1.0000
     17 ****         1.6198   2.3984   0.0818 C.ar           1 S1                 0.0000
     18 ****         1.4585   2.1576  -1.3020 N.3            1 S1                 0.0000
     19 ****         1.7334   3.2115  -2.2717 C.3            1 S1                 0.0000
     20 ****         1.1257   2.7142  -3.5803 C.3            1 S1                 0.0000
     21 ****        -0.1109   1.9595  -3.1016 C.3            1 S1                 0.0000
     22 ****         0.3251   1.3601  -1.7605 C.3            1 S1                 0.0000
     23 ****        -4.9763  -6.8069  -0.8777 H              1 S1                 0.0000
     24 ****        -4.2973  -3.0863   1.0417 H              1 S1                 0.0000
     25 ****        -4.2962  -4.2166   2.3826 H              1 S1                 0.0000
     26 ****        -1.9933  -4.4981   2.2469 H              1 S1                 0.0000
     27 ****         0.0348  -3.4531   2.1376 H              1 S1                 0.0000
     28 ****         0.3016  -4.1201   0.5413 H              1 S1                 0.0000
     29 ****         1.1017  -2.1126  -0.2158 H              1 S1                 0.0000
     30 ****         1.6772  -0.2233  -0.2194 H              1 S1                 0.0000
     31 ****         1.6856   1.0044   3.2247 H              1 S1                 0.0000
     32 ****         2.0985   3.3702   3.8172 H              1 S1                 0.0000
     33 ****         2.2329   5.0965   1.9301 H              1 S1                 0.0000
     34 ****         1.2470   4.1407  -1.9723 H              1 S1                 0.0000
     35 ****         2.8035   3.3970  -2.3670 H              1 S1                 0.0000
     36 ****         0.8932   3.5216  -4.2751 H              1 S1                 0.0000
     37 ****         1.8134   2.0270  -4.0753 H              1 S1                 0.0000
     38 ****        -0.9286   2.6634  -2.9408 H              1 S1                 0.0000
     39 ****        -0.4518   1.2056  -3.8114 H              1 S1                 0.0000
     40 ****         0.6564   0.3314  -1.9042 H              1 S1                 0.0000
     41 ****        -0.4956   1.3569  -1.0419 H              1 S1                 0.0000
     42 ****         1.9412   4.3916  -0.2422 H              1 S1                 0.0000
     43 ****        -3.0036  -2.4396  -0.3692 LP             1 S1                 0.0000
     44 ****        -1.3817  -1.9286  -0.6983 LP             1 S1                 0.0000
     45 ****        -0.4376  -1.5021   2.8478 LP             1 S1                 0.0000
     46 ****         0.1418   0.1292   2.9034 LP             1 S1                 0.0000
     47 ****         2.2655   1.5671  -1.3015 LP             1 S1                 0.0000
@<TRIPOS>BOND
    1    1    2 3     
    2    1   23 1     
    3    2    3 1     
    4    3    4 1     
    5    3   24 1     
    6    3   25 1     
    7    4    5 am    
    8    4   26 1     
    9    5    6 2     
   10    5    7 1     
   11    7    8 1     
   12    7   27 1     
   13    7   28 1     
   14    8    9 am    
   15    8   29 1     
   16    9   10 2     
   17    9   11 am    
   18   11   12 1     
   19   11   30 1     
   20   12   17 ar    
   21   12   13 ar    
   22   13   14 ar    
   23   13   31 1     
   24   14   15 ar    
   25   14   32 1     
   26   15   16 ar    
   27   15   33 1     
   28   16   17 ar    
   29   16   42 1     
   30   17   18 1     
   31   18   22 1     
   32   18   19 1     
   33   19   20 1     
   34   19   34 1     
   35   19   35 1     
   36   20   21 1     
   37   20   36 1     
   38   20   37 1     
   39   21   22 1     
   40   21   38 1     
   41   21   39 1     
   42   22   40 1     
   43   22   41 1     
   44    6   43 1     
   45    6   44 1     
   46   10   45 1     
   47   10   46 1     
   48   18   47 1     
@<TRIPOS>SUBSTRUCTURE
      1 S1             1
@<TRIPOS>SET
LONE_PAIRS      STATIC     ATOMS    <user>   **** ""
5 43 44 45 46 47
DONOR_HYDROGENS      STATIC     ATOMS    <user>   **** ""
4 26 29 30 42
ATOM$BLUE        STATIC     ATOMS    COLORGROUP SYSTEM
5 43 44 45 46 47
ATOM$RED        STATIC     ATOMS    COLORGROUP SYSTEM
4 26 29 30 42
