AV-unprocessed.smi:276|AV-procd|sdf|2083|dock10
  -GOLD-   2262021353D 1   1.00000     0.00000
 Structure written by MMmdl.
 57 61  0  0  0  0  0  0  0  0  1 V2000
  143.9629  134.7544  158.1666 C   0  0  0  0  0  0  0  0  0  0  0  0
  144.8194  135.4006  159.0920 O   0  0  0  0  0  0  0  0  0  0  0  0
  145.4565  134.4943  159.9818 C   0  0  1  0  0  0  0  0  0  0  0  0
  146.3458  133.4783  159.2505 C   0  0  0  0  0  0  0  0  0  0  0  0
  147.5394  134.4409  159.4124 C   0  0  1  0  0  0  0  0  0  0  0  0
  147.7221  135.2809  158.2210 N   0  0  0  0  0  0  0  0  0  0  0  0
  148.0010  134.5909  156.9642 C   0  0  0  0  0  0  0  0  0  0  0  0
  148.5005  136.3799  158.3494 C   0  0  0  0  0  0  0  0  0  0  0  0
  149.6387  136.2430  159.0746 N   0  0  0  0  0  0  0  0  0  0  0  0
  150.4550  137.2868  159.2443 C   0  0  0  0  0  0  0  0  0  0  0  0
  150.3185  138.5351  158.7933 N   0  0  0  0  0  0  0  0  0  0  0  0
  149.1663  138.6818  158.0788 C   0  0  0  0  0  0  0  0  0  0  0  0
  148.2065  137.6655  157.8086 C   0  0  0  0  0  0  0  0  0  0  0  0
  147.1684  138.1902  157.0473 N   0  0  0  0  0  0  0  0  0  0  0  0
  147.5008  139.4387  156.8679 C   0  0  0  0  0  0  0  0  0  0  0  0
  148.6738  139.8257  157.4750 N   0  0  0  0  0  0  0  0  0  0  0  0
  149.2713  141.1493  157.4447 C   0  0  0  0  0  0  0  0  0  0  0  0
  150.5321  141.2962  158.3298 C   0  0  1  0  0  0  0  0  0  0  0  0
  151.5843  140.7154  157.5858 O   0  0  0  0  0  0  0  0  0  0  0  0
  150.9545  142.7470  158.6603 C   0  0  1  0  0  0  0  0  0  0  0  0
  152.2067  142.9056  159.5299 C   0  0  0  0  0  0  0  0  0  0  0  0
  152.7865  144.2503  159.1190 C   0  0  0  0  0  0  0  0  0  0  0  0
  152.0236  144.6042  157.8435 C   0  0  0  0  0  0  0  0  0  0  0  0
  151.3790  143.3965  157.4701 O   0  0  0  0  0  0  0  0  0  0  0  0
  146.7441  135.0933  160.5747 C   0  0  0  0  0  0  0  0  0  0  0  0
  147.1077  134.7409  162.0275 C   0  0  0  0  0  0  0  0  0  0  0  0
  146.5510  136.1040  162.4447 C   0  0  0  0  0  0  0  0  0  0  0  0
  146.8130  136.5713  161.0121 C   0  0  0  0  0  0  0  0  0  0  0  0
  143.5073  135.4969  157.5117 H   0  0  0  0  0  0  0  0  0  0  0  0
  143.1615  134.2221  158.6804 H   0  0  0  0  0  0  0  0  0  0  0  0
  144.5075  134.0461  157.5417 H   0  0  0  0  0  0  0  0  0  0  0  0
  144.7859  134.0650  160.7278 H   0  0  0  0  0  0  0  0  0  0  0  0
  146.4780  132.5606  159.8259 H   0  0  0  0  0  0  0  0  0  0  0  0
  146.0439  133.2522  158.2278 H   0  0  0  0  0  0  0  0  0  0  0  0
  148.4412  133.9194  159.7328 H   0  0  0  0  0  0  0  0  0  0  0  0
  148.7528  135.0983  156.3564 H   0  0  0  0  0  0  0  0  0  0  0  0
  147.0873  134.5241  156.3735 H   0  0  0  0  0  0  0  0  0  0  0  0
  148.3585  133.5773  157.1492 H   0  0  0  0  0  0  0  0  0  0  0  0
  151.3445  137.0944  159.8260 H   0  0  0  0  0  0  0  0  0  0  0  0
  146.8853  140.1199  156.2987 H   0  0  0  0  0  0  0  0  0  0  0  0
  149.5219  141.3606  156.4040 H   0  0  0  0  0  0  0  0  0  0  0  0
  148.5175  141.8826  157.7351 H   0  0  0  0  0  0  0  0  0  0  0  0
  150.4131  140.7243  159.2504 H   0  0  0  0  0  0  0  0  0  0  0  0
  151.2248  140.3427  156.7954 H   0  0  0  0  0  0  0  0  0  0  0  0
  150.1253  143.3022  159.1037 H   0  0  0  0  0  0  0  0  0  0  0  0
  151.9842  142.8648  160.5956 H   0  0  0  0  0  0  0  0  0  0  0  0
  152.9288  142.1204  159.3022 H   0  0  0  0  0  0  0  0  0  0  0  0
  152.6357  145.0100  159.8863 H   0  0  0  0  0  0  0  0  0  0  0  0
  153.8579  144.1660  158.9343 H   0  0  0  0  0  0  0  0  0  0  0  0
  151.2697  145.3672  158.0435 H   0  0  0  0  0  0  0  0  0  0  0  0
  152.6761  144.9677  157.0492 H   0  0  0  0  0  0  0  0  0  0  0  0
  146.5783  133.8834  162.4437 H   0  0  0  0  0  0  0  0  0  0  0  0
  148.1850  134.6613  162.1842 H   0  0  0  0  0  0  0  0  0  0  0  0
  145.4886  136.0708  162.6917 H   0  0  0  0  0  0  0  0  0  0  0  0
  147.1314  136.6217  163.2088 H   0  0  0  0  0  0  0  0  0  0  0  0
  147.8012  137.0201  160.9216 H   0  0  0  0  0  0  0  0  0  0  0  0
  146.0409  137.2176  160.5943 H   0  0  0  0  0  0  0  0  0  0  0  0
  1  2  1  0  0  0  0
  1 29  1  0  0  0  0
  1 30  1  0  0  0  0
  1 31  1  0  0  0  0
  2  3  1  0  0  0  0
  3 25  1  0  0  0  0
  3  4  1  0  0  0  0
  3 32  1  0  0  0  0
  4  5  1  0  0  0  0
  4 33  1  0  0  0  0
  4 34  1  0  0  0  0
  5  6  1  0  0  0  0
  5 25  1  0  0  0  0
  5 35  1  0  0  0  0
  6  7  1  0  0  0  0
  6  8  1  0  0  0  0
  7 36  1  0  0  0  0
  7 37  1  0  0  0  0
  7 38  1  0  0  0  0
  8 13  1  0  0  0  0
  8  9  2  0  0  0  0
  9 10  1  0  0  0  0
 10 11  2  0  0  0  0
 10 39  1  0  0  0  0
 11 12  1  0  0  0  0
 12 16  1  0  0  0  0
 12 13  2  0  0  0  0
 13 14  1  0  0  0  0
 14 15  2  0  0  0  0
 15 16  1  0  0  0  0
 15 40  1  0  0  0  0
 16 17  1  0  0  0  0
 17 18  1  0  0  0  0
 17 41  1  0  0  0  0
 17 42  1  0  0  0  0
 18 19  1  0  0  0  0
 18 20  1  0  0  0  0
 18 43  1  0  0  0  0
 19 44  1  0  0  0  0
 20 24  1  0  0  0  0
 20 21  1  0  0  0  0
 20 45  1  0  0  0  0
 21 22  1  0  0  0  0
 21 46  1  0  0  0  0
 21 47  1  0  0  0  0
 22 23  1  0  0  0  0
 22 48  1  0  0  0  0
 22 49  1  0  0  0  0
 23 24  1  0  0  0  0
 23 50  1  0  0  0  0
 23 51  1  0  0  0  0
 25 28  1  0  0  0  0
 25 26  1  0  0  0  0
 26 27  1  0  0  0  0
 26 52  1  0  0  0  0
 26 53  1  0  0  0  0
 27 28  1  0  0  0  0
 27 54  1  0  0  0  0
 27 55  1  0  0  0  0
 28 56  1  0  0  0  0
 28 57  1  0  0  0  0
M  END
> <s_m_source_file>
AV-unprocessed.smi

> <i_m_source_file_index>
276

> <i_lp_mmshare_version>
43012

> <i_f3d_flags>
0

> <s_epik_input>
W0NIMl0xW0NIMl1bQ0gyXUMxMltDQEhdKE9bQ0gzXSlbQ0gyXVtDQEhdMk4oW0NIM10pYyhuW2NIXW4zKWMoYzM0KW5bY0hdbjRbQ0gyXVtDQEhdKFtPSF0pW0NAQEhdNVtDSDJdW0NIMl1bQ0gyXU81

> <s_epik_cmdline>
J2VwaWtfcHl0aG9uJywgJy1waCcsICc3LjAnLCAnLXRuJywgJzgnLCAnLW1hJywgJzIwMCcsICctbWV0YWxfYmluZGluZycsICctaW1hZScsICc8aW5maWxlLm1hZT4nLCAnLW9tYWUnLCAnPG91dGZpbGUubWFlPic=

> <r_lp_tautomer_probability>
1

> <r_epik_Ionization_Penalty>
0.00204117

> <r_epik_Ionization_Penalty_Charging>
0

> <r_epik_Ionization_Penalty_Neutral>
0.00204117

> <r_epik_State_Penalty>
0.00127401

> <r_epik_Charging_Adjusted_Penalty>
0.00127401

> <i_epik_Tot_Q>
0

> <i_epik_Tot_abs_Q>
0

> <r_epik_Metal_State_Penalty>
-0

> <b_epik_Metal_Only>
0

> <s_lp_Force_Field>
OPLS_2005

> <r_lp_Energy>
58.3472

> <b_lp_Chiralities_Consistent>
1

> <s_lp_Variant>
AV-unprocessed.smi:276-14

> <Gold.Version>
5.8.1

> <Gold.Id.Protein>
6NUR|6NUR_protein|mol2

> <Gold.PLP.Fitness>
39.9706

> <Gold.PLP.PLP>
-38.2622

> <Gold.PLP.part.hbond>
-1.2524

> <Gold.PLP.part.metal>
0.0000

> <Gold.PLP.part.buried>
-7.2523

> <Gold.PLP.part.nonpolar>
-30.2166

> <Gold.PLP.part.repulsive>
0.1343

> <Gold.PLP.ligand.clash>
0.0000

> <Gold.PLP.ligand.torsion>
1.1174

> <Gold.PLP.Chemscore.Hbond>
1.0000

> <Gold.PLP.Chemscore.CHOScore>
0.0000

> <Gold.PLP.Chemscore.Metal>
0.0000

> <Gold.Chemscore.Hbonds>
donor molecule, donor type, donor heavy atom, donor atom, acceptor molecule, acceptor atom, score
      P1  H  6896  6908       L1     9  1.00

> <Gold.PLP.Chemscore.Internal.Correction>
0.9431

> <Gold.Rescore>
     Score         DG    S(hbond)    S(metal)    S(lipo)     H(rot)  DE(clash)    DE(int)     intcor
     11.27     -14.02       0.94        0.00     105.69       2.72       0.23       2.51       ----

> <Gold.Chemscore.Fitness>
11.2745

> <Gold.Chemscore.DG>
-14.0199

> <Gold.Chemscore.ZeroCoef>
-5.4800

> <Gold.Chemscore.Hbond>
0.9372

> <Gold.Chemscore.Metal>
0.0000

> <Gold.Chemscore.Lipo>
105.6901

> <Gold.Chemscore.Internal_Hbond>
0.0000

> <Gold.Chemscore.DEClash>
0.2327

> <Gold.Chemscore.DEInternal>
2.5127

> <Gold.Chemscore.Rot>
2.7172

> <Gold.Chemscore.Internal.Correction>
   9.000000E+99

> <Gold.Chemscore.Hbonds>
donor molecule, donor type, donor heavy atom, donor atom, acceptor molecule, acceptor atom, score
      P1  H  6896  6908       L1     9  0.30

> <Gold.Chemscore.Hbond.Weighted>
-3.1301

> <Gold.Chemscore.Metal.Weighted>
-0.0000

> <Gold.Chemscore.Lipo.Weighted>
-12.3657

> <Gold.Chemscore.Internal_Hbond.Weighted>
0.0000

> <Gold.Chemscore.DEClash.Weighted>
0.2327

> <Gold.Chemscore.DEInternal.Weighted>
2.5127

> <Gold.Chemscore.Rot.Weighted>
6.9560

> <Gold.Chemscore.Internal.Correction.Weighted>
   9.000000E+99

> <Gold.Protein.RotatedTorsions>
[ 6907 6896 6895 6894 ] final -176.21 input  -60.11 | X-H torsion
[ 7974 7965 7964 7962 ] final  -37.82 input  175.53 | X-H torsion
[ 8008 7997 7996 7995 ] final  -82.59 input   59.86 | X-H torsion
[ 10167 10162 10161 10158 ] final  -17.22 input  -65.29 | X-H torsion
[ 10718 10713 10712 10709 ] final  -18.49 input   66.30 | X-H torsion
[ 10763 10752 10751 10750 ] final  111.56 input  -60.55 | X-H torsion
[ 11005 11000 10999 10996 ] final   89.16 input  -57.11 | X-H torsion

> <Gold.Protein.ActiveResidues>
 VAL166  LYS551  ARG553  GLY616  TRP617  ASP618  TYR619  PRO620  LYS621  CYS622 
 ASP623  PHE694  ASN695  SER759  ASP760  ASP761  ALA762  ILE779  LEU786  VAL792 
 PHE793  MET794  SER795  GLU796  ALA797  LYS798  CYS799  TRP800  GLU811  SER814 

> <Gold.Protein.RotatedAtoms>
  151.6012  133.3356  159.3047 H   0  0  0  0  0  0  0  0  0  0  0  0  # atno 6907 bound_to 6896
  150.8207  134.7416  159.6781 H   0  0  0  0  0  0  0  0  0  0  0  0  # atno 6908 bound_to 6896
  152.4300  134.5800  159.9997 H   0  0  0  0  0  0  0  0  0  0  0  0  # atno 6909 bound_to 6896
  146.0541  140.6441  142.9028 H   0  0  0  0  0  0  0  0  0  0  0  0  # atno 7974 bound_to 7965
  154.6102  140.0631  156.9484 H   0  0  0  0  0  0  0  0  0  0  0  0  # atno 8008 bound_to 7997
  155.1985  140.3313  155.4328 H   0  0  0  0  0  0  0  0  0  0  0  0  # atno 8009 bound_to 7997
  156.2372  140.1868  156.7070 H   0  0  0  0  0  0  0  0  0  0  0  0  # atno 8010 bound_to 7997
  140.7244  143.5037  150.9837 H   0  0  0  0  0  0  0  0  0  0  0  0  # atno 10167 bound_to 10162
  156.5589  130.4720  149.6416 H   0  0  0  0  0  0  0  0  0  0  0  0  # atno 10718 bound_to 10713
  153.4651  135.3713  155.2360 H   0  0  0  0  0  0  0  0  0  0  0  0  # atno 10763 bound_to 10752
  154.8757  135.3918  154.3878 H   0  0  0  0  0  0  0  0  0  0  0  0  # atno 10764 bound_to 10752
  153.4458  135.7085  153.6204 H   0  0  0  0  0  0  0  0  0  0  0  0  # atno 10765 bound_to 10752
  139.8881  134.8534  156.3102 H   0  0  0  0  0  0  0  0  0  0  0  0  # atno 11005 bound_to 11000
  144.7138  140.4137  143.7060 LP  0  0  0  0  0  0  0  0  0  0  0  0  # atno 17320 bound_to 7965
  145.6674  139.1592  143.2774 LP  0  0  0  0  0  0  0  0  0  0  0  0  # atno 17321 bound_to 7965
  139.8748  143.7147  152.3163 LP  0  0  0  0  0  0  0  0  0  0  0  0  # atno 17342 bound_to 10162
  139.7408  144.7560  151.0655 LP  0  0  0  0  0  0  0  0  0  0  0  0  # atno 17343 bound_to 10162
  156.2817  130.7074  151.1900 LP  0  0  0  0  0  0  0  0  0  0  0  0  # atno 17370 bound_to 10713
  157.7372  131.0554  150.5366 LP  0  0  0  0  0  0  0  0  0  0  0  0  # atno 17371 bound_to 10713
  140.9855  133.7241  156.0735 LP  0  0  0  0  0  0  0  0  0  0  0  0  # atno 17394 bound_to 11000
  140.7693  134.3850  157.5511 LP  0  0  0  0  0  0  0  0  0  0  0  0  # atno 17395 bound_to 11000

$$$$
