#       Name:                AV-unprocessed.smi:921
#       Creating user name   scv26
#       Creation time:       Fri Mar 27 02:07:43 2020


#       File generated by GOLD software.
#

@<TRIPOS>MOLECULE
AV-unprocessed.smi:921
    44    46     1
SMALL
NO_CHARGES


@<TRIPOS>ATOM
      1 ****        -2.8204   4.1761  -0.2935 N.am           1 S1                 0.0000
      2 ****        -1.8257   3.3778   0.1040 C.2            1 S1                 0.0000
      3 ****        -1.4512   3.3328   1.2739 O.2            1 S1                 0.0000
      4 ****        -1.1507   2.5120  -0.9668 C.3            1 S1                 0.0000
      5 ****        -1.6974   1.1066  -0.8988 C.2            1 S1                 0.0000
      6 ****        -3.0047   0.8538  -1.0213 N.2            1 S1                 0.0000
      7 ****        -3.0703  -0.5192  -0.9030 C.ar           1 S1                 0.0000
      8 ****        -4.1811  -1.3924  -0.9338 C.ar           1 S1                 0.0000
      9 ****        -3.9991  -2.7837  -0.7912 C.ar           1 S1                 0.0000
     10 ****        -2.7067  -3.3198  -0.6178 C.ar           1 S1                 0.0000
     11 ****        -1.5869  -2.4667  -0.5866 C.ar           1 S1                 0.0000
     12 ****        -1.7746  -1.0785  -0.7281 C.ar           1 S1                 0.0000
     13 ****        -0.9064   0.0090  -0.7474 N.pl3          1 S1                 0.0000
     14 ****         0.5448  -0.0814  -0.6337 C.3            1 S1                 0.0000
     15 ****         1.0285  -0.1607   0.8276 C.3            1 S1                 0.0000
     16 ****         0.6272   0.9957   1.5348 O.3            1 S1                 0.0000
     17 ****         2.5327  -0.3855   0.8950 C.ar           1 S1                 0.0000
     18 ****         3.4226   0.7003   0.7344 C.ar           1 S1                 0.0000
     19 ****         4.8147   0.4944   0.7861 C.ar           1 S1                 0.0000
     20 ****         5.6601   1.5409   0.6327 F              1 S1                 0.0000
     21 ****         5.3276  -0.7995   0.9952 C.ar           1 S1                 0.0000
     22 ****         4.4473  -1.8872   1.1490 C.ar           1 S1                 0.0000
     23 ****         3.0543  -1.6838   1.0968 C.ar           1 S1                 0.0000
     24 ****         2.2229  -2.7444   1.2374 F              1 S1                 0.0000
     25 ****        -3.2997   4.7522   0.3829 H              1 S1                 0.0000
     26 ****        -3.0989   4.1919  -1.2638 H              1 S1                 0.0000
     27 ****        -1.3328   2.9190  -1.9621 H              1 S1                 0.0000
     28 ****        -0.0765   2.5422  -0.7997 H              1 S1                 0.0000
     29 ****        -5.1749  -0.9912  -1.0667 H              1 S1                 0.0000
     30 ****        -4.8548  -3.4424  -0.8154 H              1 S1                 0.0000
     31 ****        -2.5754  -4.3865  -0.5096 H              1 S1                 0.0000
     32 ****        -0.5957  -2.8744  -0.4544 H              1 S1                 0.0000
     33 ****         0.8606  -0.9802  -1.1649 H              1 S1                 0.0000
     34 ****         1.0162   0.7435  -1.1660 H              1 S1                 0.0000
     35 ****         0.5296  -0.9990   1.3149 H              1 S1                 0.0000
     36 ****         0.8192   0.8703   2.4515 H              1 S1                 0.0000
     37 ****         3.0398   1.6965   0.5670 H              1 S1                 0.0000
     38 ****         6.3951  -0.9584   1.0344 H              1 S1                 0.0000
     39 ****         4.8415  -2.8803   1.3054 H              1 S1                 0.0000
     40 ****        -1.8946   3.9057   1.9633 LP             1 S1                 0.0000
     41 ****        -0.7031   2.7233   1.5364 LP             1 S1                 0.0000
     42 ****        -3.7527   1.5020  -1.1639 LP             1 S1                 0.0000
     43 ****        -0.3547   1.1412   1.4131 LP             1 S1                 0.0000
     44 ****         1.1271   1.7909   1.1916 LP             1 S1                 0.0000
@<TRIPOS>BOND
    1    1    2 am    
    2    1   25 1     
    3    1   26 1     
    4    2    3 2     
    5    2    4 1     
    6    4    5 1     
    7    4   27 1     
    8    4   28 1     
    9    5   13 1     
   10    5    6 2     
   11    6    7 1     
   12    7   12 ar    
   13    7    8 ar    
   14    8    9 ar    
   15    8   29 1     
   16    9   10 ar    
   17    9   30 1     
   18   10   11 ar    
   19   10   31 1     
   20   11   12 ar    
   21   11   32 1     
   22   12   13 1     
   23   13   14 1     
   24   14   15 1     
   25   14   33 1     
   26   14   34 1     
   27   15   16 1     
   28   15   17 1     
   29   15   35 1     
   30   16   36 1     
   31   17   23 ar    
   32   17   18 ar    
   33   18   19 ar    
   34   18   37 1     
   35   19   20 1     
   36   19   21 ar    
   37   21   22 ar    
   38   21   38 1     
   39   22   23 ar    
   40   22   39 1     
   41   23   24 1     
   42    3   40 1     
   43    3   41 1     
   44    6   42 1     
   45   16   43 1     
   46   16   44 1     
@<TRIPOS>SUBSTRUCTURE
      1 S1             1
@<TRIPOS>SET
LONE_PAIRS      STATIC     ATOMS    <user>   **** ""
5 40 41 42 43 44
DONOR_HYDROGENS      STATIC     ATOMS    <user>   **** ""
3 25 26 36
ATOM$BLUE        STATIC     ATOMS    COLORGROUP SYSTEM
5 40 41 42 43 44
ATOM$RED        STATIC     ATOMS    COLORGROUP SYSTEM
3 25 26 36
