#       Name:                AV-unprocessed.smi:1019
#       Creating user name   scv26
#       Creation time:       Fri Mar 27 02:40:57 2020


#       File generated by GOLD software.
#

@<TRIPOS>MOLECULE
AV-unprocessed.smi:1019
    47    49     1
SMALL
NO_CHARGES


@<TRIPOS>ATOM
      1 ****        -1.9832   1.0236  -3.3064 C.3            1 S1                 0.0000
      2 ****        -1.3050   1.3329  -2.0272 N.4            1 S1                 1.0000
      3 ****        -1.5530   2.7271  -1.5849 C.3            1 S1                 0.0000
      4 ****        -1.2886   2.8973  -0.0984 C.ar           1 S1                 0.0000
      5 ****        -2.1752   2.3329   0.8433 C.ar           1 S1                 0.0000
      6 ****        -1.9265   2.4729   2.2225 C.ar           1 S1                 0.0000
      7 ****        -0.7933   3.1819   2.6656 C.ar           1 S1                 0.0000
      8 ****         0.0904   3.7525   1.7294 C.ar           1 S1                 0.0000
      9 ****        -0.1568   3.6114   0.3500 C.ar           1 S1                 0.0000
     10 ****         0.1323   0.9529  -2.0363 C.3            1 S1                 0.0000
     11 ****         0.3341  -0.5089  -1.5968 C.3            1 S1                 0.0000
     12 ****         1.6822  -0.8619  -1.8346 O.3            1 S1                 0.0000
     13 ****        -0.0019  -0.7280  -0.1068 C.3            1 S1                 0.0000
     14 ****         0.1811  -2.1067   0.3081 N.pl3          1 S1                 0.0000
     15 ****        -0.6659  -3.1326   0.0981 C.2            1 S1                 0.0000
     16 ****        -0.3072  -4.3251   0.5636 N.2            1 S1                 0.0000
     17 ****         0.9164  -4.0412   1.1455 C.ar           1 S1                 0.0000
     18 ****         1.8269  -4.8838   1.8223 C.ar           1 S1                 0.0000
     19 ****         3.0313  -4.3641   2.3404 C.ar           1 S1                 0.0000
     20 ****         3.3434  -2.9972   2.1901 C.ar           1 S1                 0.0000
     21 ****         2.4521  -2.1378   1.5192 C.ar           1 S1                 0.0000
     22 ****         1.2510  -2.6602   1.0040 C.ar           1 S1                 0.0000
     23 ****        -1.6019   1.6517  -4.1125 H              1 S1                 0.0000
     24 ****        -3.0575   1.1910  -3.2227 H              1 S1                 0.0000
     25 ****        -1.8346  -0.0195  -3.5867 H              1 S1                 0.0000
     26 ****        -0.9468   3.4204  -2.1704 H              1 S1                 0.0000
     27 ****        -2.5953   2.9938  -1.7654 H              1 S1                 0.0000
     28 ****        -3.0455   1.7859   0.5112 H              1 S1                 0.0000
     29 ****        -2.6048   2.0366   2.9412 H              1 S1                 0.0000
     30 ****        -0.6023   3.2894   3.7235 H              1 S1                 0.0000
     31 ****         0.9583   4.2980   2.0700 H              1 S1                 0.0000
     32 ****         0.5278   4.0502  -0.3612 H              1 S1                 0.0000
     33 ****         0.5418   1.1165  -3.0349 H              1 S1                 0.0000
     34 ****         0.7126   1.5955  -1.3743 H              1 S1                 0.0000
     35 ****        -0.2815  -1.1667  -2.2113 H              1 S1                 0.0000
     36 ****         2.2377  -0.3440  -1.2717 H              1 S1                 0.0000
     37 ****         0.6129  -0.0856   0.5252 H              1 S1                 0.0000
     38 ****        -1.0384  -0.4541   0.0932 H              1 S1                 0.0000
     39 ****        -1.5991  -2.9965  -0.4286 H              1 S1                 0.0000
     40 ****         1.5981  -5.9324   1.9429 H              1 S1                 0.0000
     41 ****         3.7193  -5.0182   2.8557 H              1 S1                 0.0000
     42 ****         4.2686  -2.6091   2.5905 H              1 S1                 0.0000
     43 ****         2.6905  -1.0912   1.4026 H              1 S1                 0.0000
     44 ****        -1.7447   0.7518  -1.3279 H              1 S1                 0.0000
     45 ****         1.9126  -0.6825  -2.7910 LP             1 S1                 0.0000
     46 ****         1.8151  -1.8330  -1.6362 LP             1 S1                 0.0000
     47 ****        -0.7932  -5.1973   0.5081 LP             1 S1                 0.0000
@<TRIPOS>BOND
    1    1    2 1     
    2    1   23 1     
    3    1   24 1     
    4    1   25 1     
    5    2    3 1     
    6    2   10 1     
    7    2   44 1     
    8    3    4 1     
    9    3   26 1     
   10    3   27 1     
   11    4    9 ar    
   12    4    5 ar    
   13    5    6 ar    
   14    5   28 1     
   15    6    7 ar    
   16    6   29 1     
   17    7    8 ar    
   18    7   30 1     
   19    8    9 ar    
   20    8   31 1     
   21    9   32 1     
   22   10   11 1     
   23   10   33 1     
   24   10   34 1     
   25   11   12 1     
   26   11   13 1     
   27   11   35 1     
   28   12   36 1     
   29   13   14 1     
   30   13   37 1     
   31   13   38 1     
   32   14   22 1     
   33   14   15 1     
   34   15   16 2     
   35   15   39 1     
   36   16   17 1     
   37   17   22 ar    
   38   17   18 ar    
   39   18   19 ar    
   40   18   40 1     
   41   19   20 ar    
   42   19   41 1     
   43   20   21 ar    
   44   20   42 1     
   45   21   22 ar    
   46   21   43 1     
   47   12   45 1     
   48   12   46 1     
   49   16   47 1     
@<TRIPOS>SUBSTRUCTURE
      1 S1             1
@<TRIPOS>SET
LONE_PAIRS      STATIC     ATOMS    <user>   **** ""
3 45 46 47
DONOR_HYDROGENS      STATIC     ATOMS    <user>   **** ""
2 44 36
ATOM$BLUE        STATIC     ATOMS    COLORGROUP SYSTEM
3 45 46 47
ATOM$RED        STATIC     ATOMS    COLORGROUP SYSTEM
2 44 36
