#       Name:                AV-unprocessed.smi:1922
#       Creating user name   scv26
#       Creation time:       Fri Mar 27 09:53:21 2020


#       File generated by GOLD software.
#

@<TRIPOS>MOLECULE
AV-unprocessed.smi:1922
    42    43     1
SMALL
NO_CHARGES


@<TRIPOS>ATOM
      1 ****        -0.0894   2.6048  -2.7241 O.2            1 S1                 0.0000
      2 ****         0.4757   1.9171  -1.8747 C.2            1 S1                 0.0000
      3 ****         1.9327   2.2366  -1.4950 C.3            1 S1                 0.0000
      4 ****         2.4514   1.4776  -0.3445 N.am           1 S1                 0.0000
      5 ****         3.1753   0.3468  -0.6920 N.2            1 S1                 0.0000
      6 ****         3.6640  -0.4143   0.2281 C.2            1 S1                 0.0000
      7 ****         4.3711  -1.5257  -0.1600 O.3            1 S1                 0.0000
      8 ****         3.4747  -0.1104   1.6296 C.2            1 S1                 0.0000
      9 ****         2.7707   0.9947   1.9584 C.2            1 S1                 0.0000
     10 ****         2.2001   1.8780   0.9401 C.2            1 S1                 0.0000
     11 ****         1.5440   2.8831   1.2115 O.2            1 S1                 0.0000
     12 ****        -0.1276   0.8933  -1.2510 N.am           1 S1                 0.0000
     13 ****        -1.5070   0.4794  -1.4586 C.3            1 S1                 0.0000
     14 ****        -1.8273  -0.7673  -0.6175 C.3            1 S1                 0.0000
     15 ****        -3.2770  -1.2384  -0.7399 C.3            1 S1                 0.0000
     16 ****        -3.4943  -2.1468   0.4743 C.3            1 S1                 0.0000
     17 ****        -2.4875  -1.6869   1.5404 C.3            1 S1                 0.0000
     18 ****        -1.6465  -0.5798   0.8930 C.3            1 S1                 0.0000
     19 ****         4.6434  -1.9445   0.6419 H              1 S1                 0.0000
     20 ****         2.5545   2.0487  -2.3721 H              1 S1                 0.0000
     21 ****         2.0182   3.3085  -1.3077 H              1 S1                 0.0000
     22 ****         3.8910  -0.7560   2.3889 H              1 S1                 0.0000
     23 ****         2.6221   1.2345   3.0011 H              1 S1                 0.0000
     24 ****         0.4059   0.3760  -0.5674 H              1 S1                 0.0000
     25 ****        -2.1722   1.3015  -1.1896 H              1 S1                 0.0000
     26 ****        -1.6690   0.2668  -2.5164 H              1 S1                 0.0000
     27 ****        -1.1787  -1.5845  -0.9383 H              1 S1                 0.0000
     28 ****        -3.9525  -0.3837  -0.6792 H              1 S1                 0.0000
     29 ****        -3.4741  -1.7487  -1.6831 H              1 S1                 0.0000
     30 ****        -4.5233  -2.1001   0.8321 H              1 S1                 0.0000
     31 ****        -3.2910  -3.1835   0.2027 H              1 S1                 0.0000
     32 ****        -2.9872  -1.3249   2.4398 H              1 S1                 0.0000
     33 ****        -1.8525  -2.5234   1.8357 H              1 S1                 0.0000
     34 ****        -0.6001  -0.6228   1.1979 H              1 S1                 0.0000
     35 ****        -2.0359   0.3939   1.1943 H              1 S1                 0.0000
     36 ****         0.3977   3.3618  -3.1595 LP             1 S1                 0.0000
     37 ****        -1.0359   2.4068  -2.9790 LP             1 S1                 0.0000
     38 ****         3.3184   0.1214  -1.6556 LP             1 S1                 0.0000
     39 ****         5.1674  -1.2609  -0.7038 LP             1 S1                 0.0000
     40 ****         3.7910  -2.1396  -0.6953 LP             1 S1                 0.0000
     41 ****         1.1676   3.4480   0.4771 LP             1 S1                 0.0000
     42 ****         1.3871   3.1350   2.1665 LP             1 S1                 0.0000
@<TRIPOS>BOND
    1    1    2 2     
    2    2    3 1     
    3    2   12 am    
    4    3   20 1     
    5    3   21 1     
    6    3    4 1     
    7    4    5 1     
    8    4   10 am    
    9    5    6 2     
   10    6    7 1     
   11    6    8 1     
   12    7   19 1     
   13    8   22 1     
   14    8    9 2     
   15    9   23 1     
   16    9   10 1     
   17   10   11 2     
   18   12   13 1     
   19   12   24 1     
   20   13   14 1     
   21   13   25 1     
   22   13   26 1     
   23   14   18 1     
   24   14   15 1     
   25   14   27 1     
   26   15   16 1     
   27   15   28 1     
   28   15   29 1     
   29   16   17 1     
   30   16   30 1     
   31   16   31 1     
   32   17   18 1     
   33   17   32 1     
   34   17   33 1     
   35   18   34 1     
   36   18   35 1     
   37    1   36 1     
   38    1   37 1     
   39    5   38 1     
   40    7   39 1     
   41    7   40 1     
   42   11   41 1     
   43   11   42 1     
@<TRIPOS>SUBSTRUCTURE
      1 S1             1
@<TRIPOS>SET
LONE_PAIRS      STATIC     ATOMS    <user>   **** ""
7 36 37 38 39 40 41 42
DONOR_HYDROGENS      STATIC     ATOMS    <user>   **** ""
2 19 24
ATOM$BLUE        STATIC     ATOMS    COLORGROUP SYSTEM
7 36 37 38 39 40 41 42
ATOM$RED        STATIC     ATOMS    COLORGROUP SYSTEM
2 19 24
