AV-unprocessed.smi:728|AV-procd|sdf|3518|dock7
  -GOLD-   22720 0513D 1   1.00000     0.00000
 Structure written by MMmdl.
 39 40  0  0  0  0  0  0  0  0  1 V2000
  156.3954  135.2237  162.7576 C   0  0  0  0  0  0  0  0  0  0  0  0
  155.5196  136.4851  162.7088 C   0  0  0  0  0  0  0  0  0  0  0  0
  154.6797  136.6567  163.9826 C   0  0  0  0  0  0  0  0  0  0  0  0
  154.6633  136.5282  161.4823 C   0  0  0  0  0  0  0  0  0  0  0  0
  153.8460  137.5100  161.1061 N   0  0  0  0  0  0  0  0  0  0  0  0
  153.4493  137.0688  159.8798 C   0  0  0  0  0  0  0  0  0  0  0  0
  152.4949  137.8289  159.0146 C   0  0  0  0  0  0  0  0  0  0  0  0
  153.0213  139.2403  158.7491 C   0  0  0  0  0  0  0  0  0  0  0  0
  154.2000  139.4103  158.4376 O   0  0  0  0  0  0  0  0  0  0  0  0
  152.1373  140.2423  158.8819 N   0  0  0  0  0  0  0  0  0  0  0  0
  152.4364  141.6617  158.7255 C   0  0  0  0  0  0  0  0  0  0  0  0
  152.7937  142.2884  160.0895 C   0  0  0  0  0  0  0  0  0  0  0  0
  153.0282  143.8031  159.9703 C   0  0  0  0  0  0  0  0  0  0  0  0
  151.8179  144.5081  159.3378 C   0  0  0  0  0  0  0  0  0  0  0  0
  151.4665  143.8904  157.9752 C   0  0  0  0  0  0  0  0  0  0  0  0
  151.2261  142.3768  158.0952 C   0  0  0  0  0  0  0  0  0  0  0  0
  153.9718  135.9141  159.4842 N   0  0  0  0  0  0  0  0  0  0  0  0
  154.8135  135.5584  160.5476 O   0  0  0  0  0  0  0  0  0  0  0  0
  157.0257  135.1491  161.8708 H   0  0  0  0  0  0  0  0  0  0  0  0
  155.7883  134.3193  162.8123 H   0  0  0  0  0  0  0  0  0  0  0  0
  157.0517  135.2353  163.6280 H   0  0  0  0  0  0  0  0  0  0  0  0
  156.1967  137.3387  162.6518 H   0  0  0  0  0  0  0  0  0  0  0  0
  154.1214  137.5934  163.9604 H   0  0  0  0  0  0  0  0  0  0  0  0
  155.3106  136.6693  164.8716 H   0  0  0  0  0  0  0  0  0  0  0  0
  153.9610  135.8441  164.0953 H   0  0  0  0  0  0  0  0  0  0  0  0
  152.3505  137.3031  158.0693 H   0  0  0  0  0  0  0  0  0  0  0  0
  151.5199  137.8815  159.5009 H   0  0  0  0  0  0  0  0  0  0  0  0
  151.1912  140.0042  159.1423 H   0  0  0  0  0  0  0  0  0  0  0  0
  153.2864  141.7765  158.0501 H   0  0  0  0  0  0  0  0  0  0  0  0
  151.9895  142.1026  160.8032 H   0  0  0  0  0  0  0  0  0  0  0  0
  153.6856  141.8135  160.5004 H   0  0  0  0  0  0  0  0  0  0  0  0
  153.2327  144.2260  160.9543 H   0  0  0  0  0  0  0  0  0  0  0  0
  153.9161  143.9874  159.3641 H   0  0  0  0  0  0  0  0  0  0  0  0
  150.9594  144.4319  160.0061 H   0  0  0  0  0  0  0  0  0  0  0  0
  152.0264  145.5720  159.2213 H   0  0  0  0  0  0  0  0  0  0  0  0
  150.5809  144.3761  157.5641 H   0  0  0  0  0  0  0  0  0  0  0  0
  152.2770  144.0767  157.2695 H   0  0  0  0  0  0  0  0  0  0  0  0
  151.0167  141.9592  157.1097 H   0  0  0  0  0  0  0  0  0  0  0  0
  150.3356  142.2008  158.7007 H   0  0  0  0  0  0  0  0  0  0  0  0
  1  2  1  0  0  0  0
  1 19  1  0  0  0  0
  1 20  1  0  0  0  0
  1 21  1  0  0  0  0
  2  3  1  0  0  0  0
  2  4  1  0  0  0  0
  2 22  1  0  0  0  0
  3 23  1  0  0  0  0
  3 24  1  0  0  0  0
  3 25  1  0  0  0  0
  4 18  1  0  0  0  0
  4  5  2  0  0  0  0
  5  6  1  0  0  0  0
  6  7  1  0  0  0  0
  6 17  2  0  0  0  0
  7  8  1  0  0  0  0
  7 26  1  0  0  0  0
  7 27  1  0  0  0  0
  8  9  2  0  0  0  0
  8 10  1  0  0  0  0
 10 11  1  0  0  0  0
 10 28  1  0  0  0  0
 11 16  1  0  0  0  0
 11 12  1  0  0  0  0
 11 29  1  0  0  0  0
 12 13  1  0  0  0  0
 12 30  1  0  0  0  0
 12 31  1  0  0  0  0
 13 14  1  0  0  0  0
 13 32  1  0  0  0  0
 13 33  1  0  0  0  0
 14 15  1  0  0  0  0
 14 34  1  0  0  0  0
 14 35  1  0  0  0  0
 15 16  1  0  0  0  0
 15 36  1  0  0  0  0
 15 37  1  0  0  0  0
 16 38  1  0  0  0  0
 16 39  1  0  0  0  0
 17 18  1  0  0  0  0
M  END
> <s_m_source_file>
AV-unprocessed.smi

> <i_m_source_file_index>
728

> <i_lp_mmshare_version>
43012

> <i_f3d_flags>
0

> <s_epik_input>
W0NIM11bQ0hdKFtDSDNdKWMxbmMobm8xKVtDSDJdQyg9TylbTkhdW0NIXTJbQ0gyXVtDSDJdW0NIMl1bQ0gyXVtDSDJdMg==

> <s_epik_cmdline>
J2VwaWtfcHl0aG9uJywgJy1waCcsICc3LjAnLCAnLXRuJywgJzgnLCAnLW1hJywgJzIwMCcsICctbWV0YWxfYmluZGluZycsICctaW1hZScsICc8aW5maWxlLm1hZT4nLCAnLW9tYWUnLCAnPG91dGZpbGUubWFlPic=

> <r_lp_tautomer_probability>
1

> <r_epik_Ionization_Penalty>
6.23623e-08

> <r_epik_Ionization_Penalty_Charging>
0

> <r_epik_Ionization_Penalty_Neutral>
6.23623e-08

> <r_epik_State_Penalty>
-0

> <r_epik_Charging_Adjusted_Penalty>
0

> <i_epik_Tot_Q>
0

> <i_epik_Tot_abs_Q>
0

> <r_epik_Metal_State_Penalty>
-0

> <b_epik_Metal_Only>
0

> <s_lp_Force_Field>
OPLS_2005

> <r_lp_Energy>
7.21718

> <b_lp_Chiralities_Consistent>
1

> <s_lp_Variant>
AV-unprocessed.smi:728-1

> <Gold.Version>
5.8.1

> <Gold.Id.Protein>
6NUR|6NUR_protein|mol2

> <Gold.PLP.Fitness>
41.4493

> <Gold.PLP.PLP>
-36.5801

> <Gold.PLP.part.hbond>
-2.0000

> <Gold.PLP.part.metal>
0.0000

> <Gold.PLP.part.buried>
-4.7641

> <Gold.PLP.part.nonpolar>
-30.2546

> <Gold.PLP.part.repulsive>
0.1280

> <Gold.PLP.ligand.clash>
0.0000

> <Gold.PLP.ligand.torsion>
0.6228

> <Gold.PLP.Chemscore.Hbond>
2.0000

> <Gold.PLP.Chemscore.CHOScore>
0.0000

> <Gold.PLP.Chemscore.Metal>
0.0000

> <Gold.Chemscore.Hbonds>
donor molecule, donor type, donor heavy atom, donor atom, acceptor molecule, acceptor atom, score
      P1  H  6896  6908       L1    17  0.76
      P1  H  7997  8008       L1     9  0.93

> <Gold.PLP.Chemscore.Internal.Correction>
0.1148

> <Gold.Rescore>
     Score         DG    S(hbond)    S(metal)    S(lipo)     H(rot)  DE(clash)    DE(int)     intcor
     17.79     -18.37       1.81        0.00      94.22       1.63       0.05       0.53       ----

> <Gold.Chemscore.Fitness>
17.7944

> <Gold.Chemscore.DG>
-18.3658

> <Gold.Chemscore.ZeroCoef>
-5.4800

> <Gold.Chemscore.Hbond>
1.8092

> <Gold.Chemscore.Metal>
0.0000

> <Gold.Chemscore.Lipo>
94.2165

> <Gold.Chemscore.Internal_Hbond>
0.0000

> <Gold.Chemscore.DEClash>
0.0463

> <Gold.Chemscore.DEInternal>
0.5250

> <Gold.Chemscore.Rot>
1.6329

> <Gold.Chemscore.Internal.Correction>
   9.000000E+99

> <Gold.Chemscore.Hbonds>
donor molecule, donor type, donor heavy atom, donor atom, acceptor molecule, acceptor atom, score
      P1  H  6896  6908       L1    17  0.02
      P1  H  7997  8008       L1     9  0.89

> <Gold.Chemscore.Hbond.Weighted>
-6.0426

> <Gold.Chemscore.Metal.Weighted>
-0.0000

> <Gold.Chemscore.Lipo.Weighted>
-11.0233

> <Gold.Chemscore.Internal_Hbond.Weighted>
0.0000

> <Gold.Chemscore.DEClash.Weighted>
0.0463

> <Gold.Chemscore.DEInternal.Weighted>
0.5250

> <Gold.Chemscore.Rot.Weighted>
4.1802

> <Gold.Chemscore.Internal.Correction.Weighted>
   9.000000E+99

> <Gold.Protein.RotatedTorsions>
[ 6907 6896 6895 6894 ] final  -59.87 input  -60.11 | X-H torsion
[ 7974 7965 7964 7962 ] final -142.71 input  175.53 | X-H torsion
[ 8008 7997 7996 7995 ] final -101.03 input   59.86 | X-H torsion
[ 10167 10162 10161 10158 ] final  -94.86 input  -65.29 | X-H torsion
[ 10718 10713 10712 10709 ] final  -10.79 input   66.30 | X-H torsion
[ 10763 10752 10751 10750 ] final  139.36 input  -60.55 | X-H torsion
[ 11005 11000 10999 10996 ] final -127.02 input  -57.11 | X-H torsion

> <Gold.Protein.ActiveResidues>
 VAL166  LYS551  ARG553  GLY616  TRP617  ASP618  TYR619  PRO620  LYS621  CYS622 
 ASP623  PHE694  ASN695  SER759  ASP760  ASP761  ALA762  ILE779  LEU786  VAL792 
 PHE793  MET794  SER795  GLU796  ALA797  LYS798  CYS799  TRP800  GLU811  SER814 

> <Gold.Protein.RotatedAtoms>
  150.7898  134.6912  159.6497 H   0  0  0  0  0  0  0  0  0  0  0  0  # atno 6907 bound_to 6896
  152.4001  134.6297  160.0082 H   0  0  0  0  0  0  0  0  0  0  0  0  # atno 6908 bound_to 6896
  151.6571  133.3281  159.3201 H   0  0  0  0  0  0  0  0  0  0  0  0  # atno 6909 bound_to 6896
  144.8423  140.5924  143.5444 H   0  0  0  0  0  0  0  0  0  0  0  0  # atno 7974 bound_to 7965
  154.8369  140.0437  157.1515 H   0  0  0  0  0  0  0  0  0  0  0  0  # atno 8008 bound_to 7997
  154.9090  140.3011  155.5256 H   0  0  0  0  0  0  0  0  0  0  0  0  # atno 8009 bound_to 7997
  156.2990  140.2361  156.4127 H   0  0  0  0  0  0  0  0  0  0  0  0  # atno 8010 bound_to 7997
  140.3101  143.3110  152.0158 H   0  0  0  0  0  0  0  0  0  0  0  0  # atno 10167 bound_to 10162
  156.6684  130.5002  149.6008 H   0  0  0  0  0  0  0  0  0  0  0  0  # atno 10718 bound_to 10713
  153.9048  135.3018  155.3448 H   0  0  0  0  0  0  0  0  0  0  0  0  # atno 10763 bound_to 10752
  154.7652  135.4914  153.9544 H   0  0  0  0  0  0  0  0  0  0  0  0  # atno 10764 bound_to 10752
  153.1225  135.6785  153.9413 H   0  0  0  0  0  0  0  0  0  0  0  0  # atno 10765 bound_to 10752
  140.9634  134.0905  157.3945 H   0  0  0  0  0  0  0  0  0  0  0  0  # atno 11005 bound_to 11000
  145.4669  139.1507  143.3836 LP  0  0  0  0  0  0  0  0  0  0  0  0  # atno 17320 bound_to 7965
  146.2713  140.4801  142.8813 LP  0  0  0  0  0  0  0  0  0  0  0  0  # atno 17321 bound_to 7965
  139.4896  144.6391  151.6914 LP  0  0  0  0  0  0  0  0  0  0  0  0  # atno 17342 bound_to 10162
  140.5576  144.0322  150.6154 LP  0  0  0  0  0  0  0  0  0  0  0  0  # atno 17343 bound_to 10162
  156.1958  130.6588  151.1112 LP  0  0  0  0  0  0  0  0  0  0  0  0  # atno 17370 bound_to 10713
  157.7086  131.0745  150.6581 LP  0  0  0  0  0  0  0  0  0  0  0  0  # atno 17371 bound_to 10713
  139.8886  135.0099  156.6629 LP  0  0  0  0  0  0  0  0  0  0  0  0  # atno 17394 bound_to 11000
  140.7435  133.8958  155.8295 LP  0  0  0  0  0  0  0  0  0  0  0  0  # atno 17395 bound_to 11000

$$$$
