#       Name:                AV-unprocessed.smi:861
#       Creating user name   scv26
#       Creation time:       Fri Mar 27 01:45:14 2020


#       File generated by GOLD software.
#

@<TRIPOS>MOLECULE
AV-unprocessed.smi:861
    48    49     1
SMALL
NO_CHARGES


@<TRIPOS>ATOM
      1 ****        -5.8422  -5.9870  -1.7805 C.3            1 S1                 0.0000
      2 ****        -5.6198  -5.0558  -0.5767 C.3            1 S1                 0.0000
      3 ****        -6.9339  -4.3605  -0.1893 C.3            1 S1                 0.0000
      4 ****        -4.5086  -4.0171  -0.8334 C.3            1 S1                 0.0000
      5 ****        -3.1010  -4.6302  -0.9680 C.3            1 S1                 0.0000
      6 ****        -2.0376  -3.5974  -1.0499 N.4            1 S1                 1.0000
      7 ****        -1.9925  -2.8976  -2.3575 C.3            1 S1                 0.0000
      8 ****        -0.8856  -1.8315  -2.3575 C.3            1 S1                 0.0000
      9 ****         0.3608  -2.4417  -2.0486 O.3            1 S1                 0.0000
     10 ****         0.3702  -3.0282  -0.7512 C.3            1 S1                 0.0000
     11 ****         1.7778  -3.5865  -0.4924 C.3            1 S1                 0.0000
     12 ****         2.7617  -2.5228  -0.3563 N.pl3          1 S1                 0.0000
     13 ****         4.1272  -2.8227  -0.2627 C.ar           1 S1                 0.0000
     14 ****         5.1453  -1.8507  -0.1256 C.ar           1 S1                 0.0000
     15 ****         6.4775  -2.2892  -0.0375 C.ar           1 S1                 0.0000
     16 ****         6.7123  -3.6746  -0.0914 C.ar           1 S1                 0.0000
     17 ****         5.7249  -4.5882  -0.2242 N.ar           1 S1                 0.0000
     18 ****         4.4607  -4.1371  -0.3065 N.pl3          1 S1                 1.0000
     19 ****        -0.6997  -4.1382  -0.7080 C.3            1 S1                 0.0000
     20 ****        -6.1154  -5.4232  -2.6732 H              1 S1                 0.0000
     21 ****        -6.6441  -6.6985  -1.5814 H              1 S1                 0.0000
     22 ****        -4.9504  -6.5685  -2.0120 H              1 S1                 0.0000
     23 ****        -5.3200  -5.6718   0.2720 H              1 S1                 0.0000
     24 ****        -7.2975  -3.7222  -0.9954 H              1 S1                 0.0000
     25 ****        -6.8051  -3.7378   0.6964 H              1 S1                 0.0000
     26 ****        -7.7134  -5.0892   0.0354 H              1 S1                 0.0000
     27 ****        -4.7624  -3.4393  -1.7222 H              1 S1                 0.0000
     28 ****        -4.4939  -3.3071  -0.0052 H              1 S1                 0.0000
     29 ****        -2.9187  -5.2544  -0.0920 H              1 S1                 0.0000
     30 ****        -3.0362  -5.2873  -1.8358 H              1 S1                 0.0000
     31 ****        -1.8112  -3.6208  -3.1542 H              1 S1                 0.0000
     32 ****        -2.9486  -2.4206  -2.5701 H              1 S1                 0.0000
     33 ****        -0.8150  -1.3633  -3.3392 H              1 S1                 0.0000
     34 ****        -1.1058  -1.0381  -1.6413 H              1 S1                 0.0000
     35 ****         0.1387  -2.2702   0.0001 H              1 S1                 0.0000
     36 ****         1.7763  -4.1702   0.4288 H              1 S1                 0.0000
     37 ****         2.0660  -4.2591  -1.3015 H              1 S1                 0.0000
     38 ****         2.4678  -1.5666  -0.4974 H              1 S1                 0.0000
     39 ****         4.9261  -0.7941  -0.0883 H              1 S1                 0.0000
     40 ****         7.2927  -1.5888   0.0684 H              1 S1                 0.0000
     41 ****         7.7184  -4.0623  -0.0271 H              1 S1                 0.0000
     42 ****        -0.7286  -4.5792   0.2894 H              1 S1                 0.0000
     43 ****        -0.4432  -4.9382  -1.4048 H              1 S1                 0.0000
     44 ****        -2.2528  -2.9034  -0.3480 H              1 S1                 0.0000
     45 ****         3.7109  -4.8216  -0.4069 H              1 S1                 0.0000
     46 ****         1.0785  -1.7467  -2.0922 LP             1 S1                 0.0000
     47 ****         0.5459  -3.1548  -2.7249 LP             1 S1                 0.0000
     48 ****         5.9278  -5.5667  -0.2600 LP             1 S1                 0.0000
@<TRIPOS>BOND
    1    1    2 1     
    2    1   20 1     
    3    1   21 1     
    4    1   22 1     
    5    2    3 1     
    6    2    4 1     
    7    2   23 1     
    8    3   24 1     
    9    3   25 1     
   10    3   26 1     
   11    4    5 1     
   12    4   27 1     
   13    4   28 1     
   14    5    6 1     
   15    5   29 1     
   16    5   30 1     
   17    6   19 1     
   18    6    7 1     
   19    6   44 1     
   20    7    8 1     
   21    7   31 1     
   22    7   32 1     
   23    8    9 1     
   24    8   33 1     
   25    8   34 1     
   26    9   10 1     
   27   10   11 1     
   28   10   19 1     
   29   10   35 1     
   30   11   12 1     
   31   11   36 1     
   32   11   37 1     
   33   12   13 1     
   34   12   38 1     
   35   13   18 ar    
   36   13   14 ar    
   37   14   15 ar    
   38   14   39 1     
   39   15   16 ar    
   40   15   40 1     
   41   16   17 ar    
   42   16   41 1     
   43   17   18 ar    
   44   18   45 1     
   45   19   42 1     
   46   19   43 1     
   47    9   46 1     
   48    9   47 1     
   49   17   48 1     
@<TRIPOS>SUBSTRUCTURE
      1 S1             1
@<TRIPOS>SET
LONE_PAIRS      STATIC     ATOMS    <user>   **** ""
3 46 47 48
DONOR_HYDROGENS      STATIC     ATOMS    <user>   **** ""
3 44 38 45
ATOM$BLUE        STATIC     ATOMS    COLORGROUP SYSTEM
3 46 47 48
ATOM$RED        STATIC     ATOMS    COLORGROUP SYSTEM
3 44 38 45
