AV-unprocessed.smi:1115|AV-procd|sdf|4804|dock4
  -GOLD-   22720 3353D 1   1.00000     0.00000
 Structure written by MMmdl.
 52 53  0  0  0  0  0  0  0  0  3 V2000
  151.1926  144.2763  157.2200 C   0  0  0  0  0  0  0  0  0  0  0  0
  151.4318  142.8433  157.3310 N   0  0  0  0  0  0  0  0  0  0  0  0
  152.2868  142.3187  158.3901 C   0  0  0  0  0  0  0  0  0  0  0  0
  150.7891  141.9535  156.4433 C   0  0  0  0  0  0  0  0  0  0  0  0
  151.2177  140.6194  156.2363 C   0  0  0  0  0  0  0  0  0  0  0  0
  150.5211  139.7910  155.3328 C   0  0  0  0  0  0  0  0  0  0  0  0
  149.4052  140.2954  154.6330 C   0  0  0  0  0  0  0  0  0  0  0  0
  148.7291  139.4152  153.7445 N   0  0  0  0  0  0  0  0  0  0  0  0
  147.4137  139.3351  153.4794 C   0  0  0  0  0  0  0  0  0  0  0  0
  146.5458  140.0678  153.9529 O   0  0  0  0  0  0  0  0  0  0  0  0
  147.1550  138.3558  152.6007 N   0  0  0  0  0  0  0  0  0  0  0  0
  145.8301  137.9920  152.0988 C   0  0  0  0  0  0  0  0  0  0  0  0
  145.2418  136.7121  152.7660 C   0  0  0  0  0  0  0  0  0  0  0  0
  145.4450  136.7591  154.3017 C   0  0  0  0  0  0  0  0  0  0  0  0
  143.7103  136.6625  152.5381 C   0  0  0  0  0  0  0  0  0  0  0  0
  145.8764  135.4627  152.2090 N   0  3  0  0  0  0  0  0  0  0  0  0
  146.0001  134.3195  153.1580 C   0  0  0  0  0  0  0  0  0  0  0  0
  146.8243  133.1820  152.5327 C   0  0  0  0  0  0  0  0  0  0  0  0
  146.2149  132.7617  151.3206 O   0  0  0  0  0  0  0  0  0  0  0  0
  146.1691  133.8122  150.3658 C   0  0  0  0  0  0  0  0  0  0  0  0
  145.3245  134.9756  150.9124 C   0  0  0  0  0  0  0  0  0  0  0  0
  149.0101  141.6318  154.8810 C   0  0  0  0  0  0  0  0  0  0  0  0
  149.7055  142.3899  155.7558 N   0  3  0  0  0  0  0  0  0  0  0  0
  151.4618  144.6352  156.2261 H   0  0  0  0  0  0  0  0  0  0  0  0
  151.7854  144.8343  157.9452 H   0  0  0  0  0  0  0  0  0  0  0  0
  150.1416  144.5033  157.4014 H   0  0  0  0  0  0  0  0  0  0  0  0
  153.1291  141.7709  157.9670 H   0  0  0  0  0  0  0  0  0  0  0  0
  151.7249  141.6451  159.0382 H   0  0  0  0  0  0  0  0  0  0  0  0
  152.6878  143.1206  159.0105 H   0  0  0  0  0  0  0  0  0  0  0  0
  152.0723  140.2141  156.7570 H   0  0  0  0  0  0  0  0  0  0  0  0
  150.8490  138.7733  155.1783 H   0  0  0  0  0  0  0  0  0  0  0  0
  149.3240  138.7891  153.2216 H   0  0  0  0  0  0  0  0  0  0  0  0
  147.9320  137.8088  152.2595 H   0  0  0  0  0  0  0  0  0  0  0  0
  145.1895  138.8512  152.2941 H   0  0  0  0  0  0  0  0  0  0  0  0
  145.8626  137.8882  151.0140 H   0  0  0  0  0  0  0  0  0  0  0  0
  144.8225  137.5220  154.7702 H   0  0  0  0  0  0  0  0  0  0  0  0
  146.4725  136.9982  154.5758 H   0  0  0  0  0  0  0  0  0  0  0  0
  145.1841  135.8080  154.7674 H   0  0  0  0  0  0  0  0  0  0  0  0
  143.1944  137.4476  153.0921 H   0  0  0  0  0  0  0  0  0  0  0  0
  143.2902  135.7113  152.8671 H   0  0  0  0  0  0  0  0  0  0  0  0
  143.4405  136.8052  151.4921 H   0  0  0  0  0  0  0  0  0  0  0  0
  146.4906  134.6170  154.0825 H   0  0  0  0  0  0  0  0  0  0  0  0
  145.0135  133.9394  153.4234 H   0  0  0  0  0  0  0  0  0  0  0  0
  147.8524  133.4989  152.3497 H   0  0  0  0  0  0  0  0  0  0  0  0
  146.8703  132.3333  153.2155 H   0  0  0  0  0  0  0  0  0  0  0  0
  147.1795  134.1441  150.1213 H   0  0  0  0  0  0  0  0  0  0  0  0
  145.7289  133.4308  149.4443 H   0  0  0  0  0  0  0  0  0  0  0  0
  144.2941  134.6436  151.0398 H   0  0  0  0  0  0  0  0  0  0  0  0
  145.3190  135.7594  150.1578 H   0  0  0  0  0  0  0  0  0  0  0  0
  148.1636  142.1275  154.4309 H   0  0  0  0  0  0  0  0  0  0  0  0
  149.3929  143.3488  155.9101 H   0  0  0  0  0  0  0  0  0  0  0  0
  146.8268  135.7342  152.0008 H   0  0  0  0  0  0  0  0  0  0  0  0
  1  2  1  0  0  0  0
  1 24  1  0  0  0  0
  1 25  1  0  0  0  0
  1 26  1  0  0  0  0
  2  3  1  0  0  0  0
  2  4  1  0  0  0  0
  3 27  1  0  0  0  0
  3 28  1  0  0  0  0
  3 29  1  0  0  0  0
  4 23  1  0  0  0  0
  4  5  2  0  0  0  0
  5  6  1  0  0  0  0
  5 30  1  0  0  0  0
  6  7  2  0  0  0  0
  6 31  1  0  0  0  0
  7  8  1  0  0  0  0
  7 22  1  0  0  0  0
  8  9  1  0  0  0  0
  8 32  1  0  0  0  0
  9 10  2  0  0  0  0
  9 11  1  0  0  0  0
 11 12  1  0  0  0  0
 11 33  1  0  0  0  0
 12 13  1  0  0  0  0
 12 34  1  0  0  0  0
 12 35  1  0  0  0  0
 13 14  1  0  0  0  0
 13 15  1  0  0  0  0
 13 16  1  0  0  0  0
 14 36  1  0  0  0  0
 14 37  1  0  0  0  0
 14 38  1  0  0  0  0
 15 39  1  0  0  0  0
 15 40  1  0  0  0  0
 15 41  1  0  0  0  0
 16 21  1  0  0  0  0
 16 17  1  0  0  0  0
 16 52  1  0  0  0  0
 17 18  1  0  0  0  0
 17 42  1  0  0  0  0
 17 43  1  0  0  0  0
 18 19  1  0  0  0  0
 18 44  1  0  0  0  0
 18 45  1  0  0  0  0
 19 20  1  0  0  0  0
 20 21  1  0  0  0  0
 20 46  1  0  0  0  0
 20 47  1  0  0  0  0
 21 48  1  0  0  0  0
 21 49  1  0  0  0  0
 22 23  2  0  0  0  0
 22 50  1  0  0  0  0
 23 51  1  0  0  0  0
M  CHG  1  16   1
M  CHG  1  23   1
M  END
> <s_m_source_file>
AV-unprocessed.smi

> <i_m_source_file_index>
1115

> <i_lp_mmshare_version>
43012

> <i_f3d_flags>
0

> <s_epik_input>
W0NIM11OKFtDSDNdKWMxW2NIXVtjSF1jKFtjSF1uMSlbTkhdQyg9TylbTkhdW0NIMl1DKFtDSDNdKShbQ0gzXSlOMltDSDJdW0NIMl1PW0NIMl1bQ0gyXTI=

> <s_epik_cmdline>
J2VwaWtfcHl0aG9uJywgJy1waCcsICc3LjAnLCAnLXRuJywgJzgnLCAnLW1hJywgJzIwMCcsICctbWV0YWxfYmluZGluZycsICctaW1hZScsICc8aW5maWxlLm1hZT4nLCAnLW9tYWUnLCAnPG91dGZpbGUubWFlPic=

> <r_lp_tautomer_probability>
0.999994

> <r_epik_Ionization_Penalty>
0.90424

> <r_epik_Ionization_Penalty_Charging>
0.90422

> <r_epik_Ionization_Penalty_Neutral>
2.023e-05

> <r_epik_State_Penalty>
0.905868

> <r_epik_Charging_Adjusted_Penalty>
1.81009

> <i_epik_Tot_Q>
2

> <i_epik_Tot_abs_Q>
2

> <r_epik_Metal_State_Penalty>
1.19318

> <b_epik_Metal_Only>
0

> <s_lp_Force_Field>
OPLS_2005

> <r_lp_Energy>
35.8961

> <b_lp_Chiralities_Consistent>
1

> <s_lp_Variant>
AV-unprocessed.smi:1115-3

> <Gold.Version>
5.8.1

> <Gold.Id.Protein>
6NUR|6NUR_protein|mol2

> <Gold.PLP.Fitness>
50.9745

> <Gold.PLP.PLP>
-39.2471

> <Gold.PLP.part.hbond>
-4.8514

> <Gold.PLP.part.metal>
0.0000

> <Gold.PLP.part.buried>
-4.4932

> <Gold.PLP.part.nonpolar>
-30.6460

> <Gold.PLP.part.repulsive>
0.5459

> <Gold.PLP.ligand.clash>
0.0000

> <Gold.PLP.ligand.torsion>
1.6875

> <Gold.PLP.Chemscore.Hbond>
5.0000

> <Gold.PLP.Chemscore.CHOScore>
0.0000

> <Gold.PLP.Chemscore.Metal>
0.0000

> <Gold.Chemscore.Hbonds>
donor molecule, donor type, donor heavy atom, donor atom, acceptor molecule, acceptor atom, score
      L1  H    11    33       P1  7948  1.00
      L1  H    16    52       P1  7948  1.33
      L1  H    23    51       P1  8028  1.76

> <Gold.PLP.Chemscore.Internal.Correction>
0.1025

> <Gold.Rescore>
     Score         DG    S(hbond)    S(metal)    S(lipo)     H(rot)  DE(clash)    DE(int)     intcor
     18.62     -21.12       2.84        0.00      85.20       1.49       0.15       2.35       ----

> <Gold.Chemscore.Fitness>
18.6159

> <Gold.Chemscore.DG>
-21.1191

> <Gold.Chemscore.ZeroCoef>
-5.4800

> <Gold.Chemscore.Hbond>
2.8381

> <Gold.Chemscore.Metal>
0.0000

> <Gold.Chemscore.Lipo>
85.2020

> <Gold.Chemscore.Internal_Hbond>
0.0000

> <Gold.Chemscore.DEClash>
0.1549

> <Gold.Chemscore.DEInternal>
2.3483

> <Gold.Chemscore.Rot>
1.4878

> <Gold.Chemscore.Internal.Correction>
   9.000000E+99

> <Gold.Chemscore.Hbonds>
donor molecule, donor type, donor heavy atom, donor atom, acceptor molecule, acceptor atom, score
      L1  H     8    32       P1  7957  0.01
      L1  H    11    33       P1  7948  0.99
      L1  H    16    52       P1  7948  0.67
      L1  H    23    51       P1  8028  0.85

> <Gold.Chemscore.Hbond.Weighted>
-9.4793

> <Gold.Chemscore.Metal.Weighted>
-0.0000

> <Gold.Chemscore.Lipo.Weighted>
-9.9686

> <Gold.Chemscore.Internal_Hbond.Weighted>
0.0000

> <Gold.Chemscore.DEClash.Weighted>
0.1549

> <Gold.Chemscore.DEInternal.Weighted>
2.3483

> <Gold.Chemscore.Rot.Weighted>
3.8089

> <Gold.Chemscore.Internal.Correction.Weighted>
   9.000000E+99

> <Gold.Protein.RotatedTorsions>
[ 6907 6896 6895 6894 ] final  131.73 input  -60.11 | X-H torsion
[ 7974 7965 7964 7962 ] final   -6.86 input  175.53 | X-H torsion
[ 8008 7997 7996 7995 ] final  -74.43 input   59.86 | X-H torsion
[ 10167 10162 10161 10158 ] final  120.84 input  -65.29 | X-H torsion
[ 10718 10713 10712 10709 ] final -137.23 input   66.30 | X-H torsion
[ 10763 10752 10751 10750 ] final -117.50 input  -60.55 | X-H torsion
[ 11005 11000 10999 10996 ] final  -19.92 input  -57.11 | X-H torsion

> <Gold.Protein.ActiveResidues>
 VAL166  LYS551  ARG553  GLY616  TRP617  ASP618  TYR619  PRO620  LYS621  CYS622 
 ASP623  PHE694  ASN695  SER759  ASP760  ASP761  ALA762  ILE779  LEU786  VAL792 
 PHE793  MET794  SER795  GLU796  ALA797  LYS798  CYS799  TRP800  GLU811  SER814 

> <Gold.Protein.RotatedAtoms>
  152.3397  133.6052  159.5867 H   0  0  0  0  0  0  0  0  0  0  0  0  # atno 6907 bound_to 6896
  150.7471  133.9742  159.3564 H   0  0  0  0  0  0  0  0  0  0  0  0  # atno 6908 bound_to 6896
  151.7607  135.0811  160.0396 H   0  0  0  0  0  0  0  0  0  0  0  0  # atno 6909 bound_to 6896
  146.2321  140.2233  142.8338 H   0  0  0  0  0  0  0  0  0  0  0  0  # atno 7974 bound_to 7965
  154.5330  140.0761  156.8379 H   0  0  0  0  0  0  0  0  0  0  0  0  # atno 8008 bound_to 7997
  155.3335  140.3403  155.4221 H   0  0  0  0  0  0  0  0  0  0  0  0  # atno 8009 bound_to 7997
  156.1801  140.1649  156.8277 H   0  0  0  0  0  0  0  0  0  0  0  0  # atno 8010 bound_to 7997
  139.5957  144.7040  151.3183 H   0  0  0  0  0  0  0  0  0  0  0  0  # atno 10167 bound_to 10162
  156.2858  130.7346  151.1357 H   0  0  0  0  0  0  0  0  0  0  0  0  # atno 10718 bound_to 10713
  154.8557  135.4307  154.1990 H   0  0  0  0  0  0  0  0  0  0  0  0  # atno 10763 bound_to 10752
  153.3041  135.6971  153.7182 H   0  0  0  0  0  0  0  0  0  0  0  0  # atno 10764 bound_to 10752
  153.6300  135.3486  155.3013 H   0  0  0  0  0  0  0  0  0  0  0  0  # atno 10765 bound_to 10752
  140.8413  133.7924  155.9864 H   0  0  0  0  0  0  0  0  0  0  0  0  # atno 11005 bound_to 11000
  144.9615  140.8279  143.5511 LP  0  0  0  0  0  0  0  0  0  0  0  0  # atno 17320 bound_to 7965
  145.2204  139.2161  143.5096 LP  0  0  0  0  0  0  0  0  0  0  0  0  # atno 17321 bound_to 7965
  140.7209  143.7137  150.7749 LP  0  0  0  0  0  0  0  0  0  0  0  0  # atno 17342 bound_to 10162
  140.0702  143.5068  152.2583 LP  0  0  0  0  0  0  0  0  0  0  0  0  # atno 17343 bound_to 10162
  157.7328  131.0596  150.5610 LP  0  0  0  0  0  0  0  0  0  0  0  0  # atno 17370 bound_to 10713
  156.5721  130.4282  149.6015 LP  0  0  0  0  0  0  0  0  0  0  0  0  # atno 17371 bound_to 10713
  140.8891  134.2517  157.5104 LP  0  0  0  0  0  0  0  0  0  0  0  0  # atno 17394 bound_to 11000
  139.8703  134.9653  156.4523 LP  0  0  0  0  0  0  0  0  0  0  0  0  # atno 17395 bound_to 11000

$$$$
