AV-unprocessed.smi:197|AV-procd|sdf|1544|dock8
  -GOLD-   2262019403D 1   1.00000     0.00000
 Structure written by MMmdl.
 54 57  0  0  0  0  0  0  0  0  1 V2000
  152.7580  142.2823  160.1664 C   0  0  0  0  0  0  0  0  0  0  0  0
  151.5279  142.7489  159.6423 O   0  0  0  0  0  0  0  0  0  0  0  0
  151.3875  142.4785  158.2572 C   0  0  0  0  0  0  0  0  0  0  0  0
  150.3685  141.3454  158.0661 C   0  0  0  0  0  0  0  0  0  0  0  0
  150.4526  140.6371  156.6878 C   0  0  2  0  0  0  0  0  0  0  0  0
  150.2241  141.6373  155.5296 C   0  0  0  0  0  0  0  0  0  0  0  0
  150.2773  140.9688  154.2744 O   0  0  0  0  0  0  0  0  0  0  0  0
  149.2625  139.9811  154.1566 C   0  0  0  0  0  0  0  0  0  0  0  0
  149.4722  138.9179  155.2426 C   0  0  0  0  0  0  0  0  0  0  0  0
  149.4859  139.5378  156.5625 N   0  0  0  0  0  0  0  0  0  0  0  0
  149.4926  138.5908  157.5290 C   0  0  0  0  0  0  0  0  0  0  0  0
  150.6908  138.3005  158.0931 N   0  0  0  0  0  0  0  0  0  0  0  0
  150.7723  137.3696  159.0484 C   0  0  0  0  0  0  0  0  0  0  0  0
  149.7964  136.6292  159.5785 N   0  0  0  0  0  0  0  0  0  0  0  0
  148.5868  136.9308  159.0250 C   0  0  0  0  0  0  0  0  0  0  0  0
  148.3450  137.8914  158.0024 C   0  0  0  0  0  0  0  0  0  0  0  0
  146.9901  137.9209  157.6939 N   0  0  0  0  0  0  0  0  0  0  0  0
  146.4642  137.0200  158.4772 C   0  0  0  0  0  0  0  0  0  0  0  0
  147.3491  136.3848  159.3187 N   0  0  0  0  0  0  0  0  0  0  0  0
  147.0350  135.3450  160.2863 C   0  0  0  0  0  0  0  0  0  0  0  0
  147.1108  135.8084  161.7677 C   0  0  1  0  0  0  0  0  0  0  0  0
  148.3147  136.5193  161.9851 O   0  0  0  0  0  0  0  0  0  0  0  0
  145.9370  136.6762  162.2060 C   0  0  0  0  0  0  0  0  0  0  0  0
  144.8682  135.6430  162.5504 C   0  0  0  0  0  0  0  0  0  0  0  0
  145.5754  134.4788  162.9697 O   0  0  0  0  0  0  0  0  0  0  0  0
  146.9770  134.6626  162.7884 C   0  0  1  0  0  0  0  0  0  0  0  0
  147.6614  133.3345  162.4318 C   0  0  0  0  0  0  0  0  0  0  0  0
  152.8208  142.5297  161.2260 H   0  0  0  0  0  0  0  0  0  0  0  0
  153.6053  142.7472  159.6609 H   0  0  0  0  0  0  0  0  0  0  0  0
  152.8417  141.1993  160.0678 H   0  0  0  0  0  0  0  0  0  0  0  0
  151.0310  143.3746  157.7474 H   0  0  0  0  0  0  0  0  0  0  0  0
  152.3498  142.2240  157.8131 H   0  0  0  0  0  0  0  0  0  0  0  0
  150.5303  140.6356  158.8771 H   0  0  0  0  0  0  0  0  0  0  0  0
  149.3607  141.7357  158.2117 H   0  0  0  0  0  0  0  0  0  0  0  0
  151.4524  140.2215  156.5660 H   0  0  0  0  0  0  0  0  0  0  0  0
  149.2662  142.1491  155.6369 H   0  0  0  0  0  0  0  0  0  0  0  0
  150.9956  142.4060  155.5231 H   0  0  0  0  0  0  0  0  0  0  0  0
  148.2760  140.4396  154.2425 H   0  0  0  0  0  0  0  0  0  0  0  0
  149.3200  139.5265  153.1676 H   0  0  0  0  0  0  0  0  0  0  0  0
  148.6778  138.1723  155.1847 H   0  0  0  0  0  0  0  0  0  0  0  0
  150.4161  138.3967  155.0751 H   0  0  0  0  0  0  0  0  0  0  0  0
  151.7611  137.1919  159.4448 H   0  0  0  0  0  0  0  0  0  0  0  0
  145.4069  136.7979  158.4686 H   0  0  0  0  0  0  0  0  0  0  0  0
  146.0370  134.9683  160.0588 H   0  0  0  0  0  0  0  0  0  0  0  0
  147.7181  134.5124  160.1140 H   0  0  0  0  0  0  0  0  0  0  0  0
  148.7188  136.1930  162.7744 H   0  0  0  0  0  0  0  0  0  0  0  0
  146.1943  137.2287  163.1115 H   0  0  0  0  0  0  0  0  0  0  0  0
  145.6062  137.4073  161.4697 H   0  0  0  0  0  0  0  0  0  0  0  0
  144.1878  135.9955  163.3260 H   0  0  0  0  0  0  0  0  0  0  0  0
  144.2761  135.3940  161.6691 H   0  0  0  0  0  0  0  0  0  0  0  0
  147.3645  135.0025  163.7510 H   0  0  0  0  0  0  0  0  0  0  0  0
  148.7280  133.4785  162.2577 H   0  0  0  0  0  0  0  0  0  0  0  0
  147.2305  132.8829  161.5385 H   0  0  0  0  0  0  0  0  0  0  0  0
  147.5529  132.6160  163.2444 H   0  0  0  0  0  0  0  0  0  0  0  0
  1  2  1  0  0  0  0
  1 28  1  0  0  0  0
  1 29  1  0  0  0  0
  1 30  1  0  0  0  0
  2  3  1  0  0  0  0
  3  4  1  0  0  0  0
  3 31  1  0  0  0  0
  3 32  1  0  0  0  0
  4  5  1  0  0  0  0
  4 33  1  0  0  0  0
  4 34  1  0  0  0  0
  5 10  1  0  0  0  0
  5  6  1  0  0  0  0
  5 35  1  0  0  0  0
  6  7  1  0  0  0  0
  6 36  1  0  0  0  0
  6 37  1  0  0  0  0
  7  8  1  0  0  0  0
  8  9  1  0  0  0  0
  8 38  1  0  0  0  0
  8 39  1  0  0  0  0
  9 10  1  0  0  0  0
  9 40  1  0  0  0  0
  9 41  1  0  0  0  0
 10 11  1  0  0  0  0
 11 16  1  0  0  0  0
 11 12  2  0  0  0  0
 12 13  1  0  0  0  0
 13 14  2  0  0  0  0
 13 42  1  0  0  0  0
 14 15  1  0  0  0  0
 15 19  1  0  0  0  0
 15 16  2  0  0  0  0
 16 17  1  0  0  0  0
 17 18  2  0  0  0  0
 18 19  1  0  0  0  0
 18 43  1  0  0  0  0
 19 20  1  0  0  0  0
 20 21  1  0  0  0  0
 20 44  1  0  0  0  0
 20 45  1  0  0  0  0
 21 26  1  0  0  0  0
 21 22  1  0  0  0  0
 21 23  1  0  0  0  0
 22 46  1  0  0  0  0
 23 24  1  0  0  0  0
 23 47  1  0  0  0  0
 23 48  1  0  0  0  0
 24 25  1  0  0  0  0
 24 49  1  0  0  0  0
 24 50  1  0  0  0  0
 25 26  1  0  0  0  0
 26 27  1  0  0  0  0
 26 51  1  0  0  0  0
 27 52  1  0  0  0  0
 27 53  1  0  0  0  0
 27 54  1  0  0  0  0
M  END
> <s_m_source_file>
AV-unprocessed.smi

> <i_m_source_file_index>
197

> <i_lp_mmshare_version>
43012

> <i_f3d_flags>
0

> <s_epik_input>
W0NIM11PW0NIMl1bQ0gyXVtDQEBIXTFbQ0gyXU9bQ0gyXVtDSDJdTjFjKG5bY0hdbjIpYyhjMjMpbltjSF1uM1tDSDJdW0NAQF00KFtPSF0pW0NIMl1bQ0gyXU9bQ0BIXTRbQ0gzXQ==

> <s_epik_cmdline>
J2VwaWtfcHl0aG9uJywgJy1waCcsICc3LjAnLCAnLXRuJywgJzgnLCAnLW1hJywgJzIwMCcsICctbWV0YWxfYmluZGluZycsICctaW1hZScsICc8aW5maWxlLm1hZT4nLCAnLW9tYWUnLCAnPG91dGZpbGUubWFlPic=

> <r_lp_tautomer_probability>
1

> <r_epik_Ionization_Penalty>
0.000106218

> <r_epik_Ionization_Penalty_Charging>
0

> <r_epik_Ionization_Penalty_Neutral>
0.000106218

> <r_epik_State_Penalty>
-0

> <r_epik_Charging_Adjusted_Penalty>
0

> <i_epik_Tot_Q>
0

> <i_epik_Tot_abs_Q>
0

> <r_epik_Metal_State_Penalty>
-0

> <b_epik_Metal_Only>
0

> <s_lp_Force_Field>
OPLS_2005

> <r_lp_Energy>
43.403

> <b_lp_Chiralities_Consistent>
1

> <s_lp_Variant>
AV-unprocessed.smi:197-1

> <Gold.Version>
5.8.1

> <Gold.Id.Protein>
6NUR|6NUR_protein|mol2

> <Gold.PLP.Fitness>
44.0655

> <Gold.PLP.PLP>
-39.2843

> <Gold.PLP.part.hbond>
-3.3625

> <Gold.PLP.part.metal>
0.0000

> <Gold.PLP.part.buried>
-4.6853

> <Gold.PLP.part.nonpolar>
-30.8279

> <Gold.PLP.part.repulsive>
0.1984

> <Gold.PLP.ligand.clash>
0.0000

> <Gold.PLP.ligand.torsion>
1.3201

> <Gold.PLP.Chemscore.Hbond>
2.3715

> <Gold.PLP.Chemscore.CHOScore>
0.0000

> <Gold.PLP.Chemscore.Metal>
0.0000

> <Gold.Chemscore.Hbonds>
donor molecule, donor type, donor heavy atom, donor atom, acceptor molecule, acceptor atom, score
      P1  H  6896  6907       L1    14  0.82
      P1  H  6931  6943       L1    22  1.00
      P1  H  7989  7998       L1     7  0.61

> <Gold.PLP.Chemscore.Internal.Correction>
0.3069

> <Gold.Rescore>
     Score         DG    S(hbond)    S(metal)    S(lipo)     H(rot)  DE(clash)    DE(int)     intcor
     12.07     -15.23       1.77        0.00      94.76       2.84       0.90       2.26       ----

> <Gold.Chemscore.Fitness>
12.0707

> <Gold.Chemscore.DG>
-15.2288

> <Gold.Chemscore.ZeroCoef>
-5.4800

> <Gold.Chemscore.Hbond>
1.7730

> <Gold.Chemscore.Metal>
0.0000

> <Gold.Chemscore.Lipo>
94.7574

> <Gold.Chemscore.Internal_Hbond>
0.0000

> <Gold.Chemscore.DEClash>
0.8980

> <Gold.Chemscore.DEInternal>
2.2600

> <Gold.Chemscore.Rot>
2.8358

> <Gold.Chemscore.Internal.Correction>
   9.000000E+99

> <Gold.Chemscore.Hbonds>
donor molecule, donor type, donor heavy atom, donor atom, acceptor molecule, acceptor atom, score
      P1  H  6896  6907       L1    14  0.15
      P1  H  6931  6943       L1    22  0.26
      P1  H  7989  7998       L1     7  0.55
      P1  H  8011  8017       L1     7  0.01

> <Gold.Chemscore.Hbond.Weighted>
-5.9217

> <Gold.Chemscore.Metal.Weighted>
-0.0000

> <Gold.Chemscore.Lipo.Weighted>
-11.0866

> <Gold.Chemscore.Internal_Hbond.Weighted>
0.0000

> <Gold.Chemscore.DEClash.Weighted>
0.8980

> <Gold.Chemscore.DEInternal.Weighted>
2.2600

> <Gold.Chemscore.Rot.Weighted>
7.2596

> <Gold.Chemscore.Internal.Correction.Weighted>
   9.000000E+99

> <Gold.Protein.RotatedTorsions>
[ 6907 6896 6895 6894 ] final  -53.85 input  -60.11 | X-H torsion
[ 7974 7965 7964 7962 ] final   10.42 input  175.53 | X-H torsion
[ 8008 7997 7996 7995 ] final  -90.67 input   59.86 | X-H torsion
[ 10167 10162 10161 10158 ] final   69.11 input  -65.29 | X-H torsion
[ 10718 10713 10712 10709 ] final -176.52 input   66.30 | X-H torsion
[ 10763 10752 10751 10750 ] final  136.51 input  -60.55 | X-H torsion
[ 11005 11000 10999 10996 ] final  110.40 input  -57.11 | X-H torsion

> <Gold.Protein.ActiveResidues>
 VAL166  LYS551  ARG553  GLY616  TRP617  ASP618  TYR619  PRO620  LYS621  CYS622 
 ASP623  PHE694  ASN695  SER759  ASP760  ASP761  ALA762  ILE779  LEU786  VAL792 
 PHE793  MET794  SER795  GLU796  ALA797  LYS798  CYS799  TRP800  GLU811  SER814 

> <Gold.Protein.RotatedAtoms>
  150.8390  134.7674  159.6916 H   0  0  0  0  0  0  0  0  0  0  0  0  # atno 6907 bound_to 6896
  152.4481  134.5449  159.9859 H   0  0  0  0  0  0  0  0  0  0  0  0  # atno 6908 bound_to 6896
  151.5593  133.3368  159.3004 H   0  0  0  0  0  0  0  0  0  0  0  0  # atno 6909 bound_to 6896
  146.2388  139.9637  142.8455 H   0  0  0  0  0  0  0  0  0  0  0  0  # atno 7974 bound_to 7965
  154.7014  140.0528  157.0462 H   0  0  0  0  0  0  0  0  0  0  0  0  # atno 8008 bound_to 7997
  155.0679  140.3196  155.4621 H   0  0  0  0  0  0  0  0  0  0  0  0  # atno 8009 bound_to 7997
  156.2761  140.2087  156.5807 H   0  0  0  0  0  0  0  0  0  0  0  0  # atno 8010 bound_to 7997
  140.0713  144.5150  150.7225 H   0  0  0  0  0  0  0  0  0  0  0  0  # atno 10167 bound_to 10162
  156.8159  130.9603  151.3114 H   0  0  0  0  0  0  0  0  0  0  0  0  # atno 10718 bound_to 10713
  153.8577  135.3071  155.3436 H   0  0  0  0  0  0  0  0  0  0  0  0  # atno 10763 bound_to 10752
  154.7863  135.4808  153.9956 H   0  0  0  0  0  0  0  0  0  0  0  0  # atno 10764 bound_to 10752
  153.1480  135.6837  153.9019 H   0  0  0  0  0  0  0  0  0  0  0  0  # atno 10765 bound_to 10752
  139.8881  134.9483  156.6273 H   0  0  0  0  0  0  0  0  0  0  0  0  # atno 11005 bound_to 11000
  145.1746  140.9738  143.4301 LP  0  0  0  0  0  0  0  0  0  0  0  0  # atno 17320 bound_to 7965
  144.9997  139.3610  143.6173 LP  0  0  0  0  0  0  0  0  0  0  0  0  # atno 17321 bound_to 7965
  140.7124  143.2516  151.4541 LP  0  0  0  0  0  0  0  0  0  0  0  0  # atno 17342 bound_to 10162
  139.5834  144.1659  152.1998 LP  0  0  0  0  0  0  0  0  0  0  0  0  # atno 17343 bound_to 10162
  157.6482  130.8862  149.9580 LP  0  0  0  0  0  0  0  0  0  0  0  0  # atno 17370 bound_to 10713
  156.1017  130.3655  150.0206 LP  0  0  0  0  0  0  0  0  0  0  0  0  # atno 17371 bound_to 10713
  140.7693  133.8752  155.8479 LP  0  0  0  0  0  0  0  0  0  0  0  0  # atno 17394 bound_to 11000
  140.9856  134.1348  157.4455 LP  0  0  0  0  0  0  0  0  0  0  0  0  # atno 17395 bound_to 11000

$$$$
