AV-unprocessed.smi:837|AV-procd|sdf|3893|dock5
  -GOLD-   22720 1353D 1   1.00000     0.00000
 Structure written by MMmdl.
 49 51  0  0  0  0  0  0  0  0  1 V2000
  157.2005  133.1727  155.4591 C   0  0  0  0  0  0  0  0  0  0  0  0
  157.8061  134.3883  154.7264 C   0  0  1  0  0  0  0  0  0  0  0  0
  157.1097  134.6088  153.3661 C   0  0  0  0  0  0  0  0  0  0  0  0
  157.7592  135.7547  152.5744 C   0  0  0  0  0  0  0  0  0  0  0  0
  157.7753  137.0593  153.3834 C   0  0  0  0  0  0  0  0  0  0  0  0
  158.4669  136.8616  154.7442 C   0  0  0  0  0  0  0  0  0  0  0  0
  157.8596  135.7004  155.5718 C   0  0  2  0  0  0  0  0  0  0  0  0
  158.6340  135.5118  156.7864 N   0  0  0  0  0  0  0  0  0  0  0  0
  157.9369  135.7596  157.9020 C   0  0  0  0  0  0  0  0  0  0  0  0
  158.3813  135.6877  159.0467 O   0  0  0  0  0  0  0  0  0  0  0  0
  156.6840  136.0976  157.5504 N   0  0  0  0  0  0  0  0  0  0  0  0
  155.6298  136.4746  158.5016 C   0  0  0  0  0  0  0  0  0  0  0  0
  155.3221  137.9794  158.5070 C   0  0  0  0  0  0  0  0  0  0  0  0
  156.1019  138.7906  158.0046 O   0  0  0  0  0  0  0  0  0  0  0  0
  154.1706  138.3386  159.0938 N   0  0  0  0  0  0  0  0  0  0  0  0
  153.6869  139.7086  159.2158 C   0  0  0  0  0  0  0  0  0  0  0  0
  153.6076  140.1507  160.6863 C   0  0  0  0  0  0  0  0  0  0  0  0
  153.0254  141.5428  160.8317 C   0  0  0  0  0  0  0  0  0  0  0  0
  152.8897  142.1395  162.1021 C   0  0  0  0  0  0  0  0  0  0  0  0
  152.3488  143.4370  162.1872 C   0  0  0  0  0  0  0  0  0  0  0  0
  151.9658  144.0835  160.9950 C   0  0  0  0  0  0  0  0  0  0  0  0
  152.0919  143.5220  159.7731 N   0  0  0  0  0  0  0  0  0  0  0  0
  152.6115  142.2776  159.7001 C   0  0  0  0  0  0  0  0  0  0  0  0
  156.5303  136.0949  156.2191 C   0  0  0  0  0  0  0  0  0  0  0  0
  155.5022  136.3658  155.5981 O   0  0  0  0  0  0  0  0  0  0  0  0
  156.1447  133.3215  155.6871 H   0  0  0  0  0  0  0  0  0  0  0  0
  157.7190  132.9665  156.3955 H   0  0  0  0  0  0  0  0  0  0  0  0
  157.2763  132.2744  154.8461 H   0  0  0  0  0  0  0  0  0  0  0  0
  158.8404  134.1191  154.5056 H   0  0  0  0  0  0  0  0  0  0  0  0
  157.1588  133.6944  152.7738 H   0  0  0  0  0  0  0  0  0  0  0  0
  156.0493  134.8164  153.5108 H   0  0  0  0  0  0  0  0  0  0  0  0
  158.7802  135.4795  152.3067 H   0  0  0  0  0  0  0  0  0  0  0  0
  157.2251  135.9073  151.6361 H   0  0  0  0  0  0  0  0  0  0  0  0
  158.2909  137.8361  152.8183 H   0  0  0  0  0  0  0  0  0  0  0  0
  156.7554  137.4169  153.5252 H   0  0  0  0  0  0  0  0  0  0  0  0
  159.5266  136.6659  154.5746 H   0  0  0  0  0  0  0  0  0  0  0  0
  158.4241  137.7951  155.3079 H   0  0  0  0  0  0  0  0  0  0  0  0
  159.6060  135.2389  156.7749 H   0  0  0  0  0  0  0  0  0  0  0  0
  154.7134  135.9268  158.2753 H   0  0  0  0  0  0  0  0  0  0  0  0
  155.9127  136.1737  159.5117 H   0  0  0  0  0  0  0  0  0  0  0  0
  153.5874  137.6115  159.4824 H   0  0  0  0  0  0  0  0  0  0  0  0
  154.3294  140.3834  158.6471 H   0  0  0  0  0  0  0  0  0  0  0  0
  152.6988  139.7610  158.7572 H   0  0  0  0  0  0  0  0  0  0  0  0
  152.9975  139.4488  161.2568 H   0  0  0  0  0  0  0  0  0  0  0  0
  154.5991  140.1354  161.1415 H   0  0  0  0  0  0  0  0  0  0  0  0
  153.1961  141.6150  162.9955 H   0  0  0  0  0  0  0  0  0  0  0  0
  152.2305  143.9252  163.1433 H   0  0  0  0  0  0  0  0  0  0  0  0
  151.5474  145.0789  161.0238 H   0  0  0  0  0  0  0  0  0  0  0  0
  152.7021  141.8576  158.7091 H   0  0  0  0  0  0  0  0  0  0  0  0
  1  2  1  0  0  0  0
  1 26  1  0  0  0  0
  1 27  1  0  0  0  0
  1 28  1  0  0  0  0
  2  7  1  0  0  0  0
  2  3  1  0  0  0  0
  2 29  1  0  0  0  0
  3  4  1  0  0  0  0
  3 30  1  0  0  0  0
  3 31  1  0  0  0  0
  4  5  1  0  0  0  0
  4 32  1  0  0  0  0
  4 33  1  0  0  0  0
  5  6  1  0  0  0  0
  5 34  1  0  0  0  0
  5 35  1  0  0  0  0
  6  7  1  0  0  0  0
  6 36  1  0  0  0  0
  6 37  1  0  0  0  0
  7 24  1  0  0  0  0
  7  8  1  0  0  0  0
  8  9  1  0  0  0  0
  8 38  1  0  0  0  0
  9 10  2  0  0  0  0
  9 11  1  0  0  0  0
 11 12  1  0  0  0  0
 11 24  1  0  0  0  0
 12 13  1  0  0  0  0
 12 39  1  0  0  0  0
 12 40  1  0  0  0  0
 13 14  2  0  0  0  0
 13 15  1  0  0  0  0
 15 16  1  0  0  0  0
 15 41  1  0  0  0  0
 16 17  1  0  0  0  0
 16 42  1  0  0  0  0
 16 43  1  0  0  0  0
 17 18  1  0  0  0  0
 17 44  1  0  0  0  0
 17 45  1  0  0  0  0
 18 23  1  0  0  0  0
 18 19  2  0  0  0  0
 19 20  1  0  0  0  0
 19 46  1  0  0  0  0
 20 21  2  0  0  0  0
 20 47  1  0  0  0  0
 21 22  1  0  0  0  0
 21 48  1  0  0  0  0
 22 23  2  0  0  0  0
 23 49  1  0  0  0  0
 24 25  2  0  0  0  0
M  END
> <s_m_source_file>
AV-unprocessed.smi

> <i_m_source_file_index>
837

> <i_lp_mmshare_version>
43012

> <i_f3d_flags>
0

> <s_epik_input>
W0NIMl0xW0NIMl1bQ0gyXVtDSDJdW0NAQEhdKFtDSDNdKVtDQEBdMTJbTkhdQyg9TylOKEMyPU8pW0NIMl1DKD1PKVtOSF1bQ0gyXVtDSDJdYzNbY0hdW2NIXVtjSF1uW2NIXTM=

> <s_epik_cmdline>
J2VwaWtfcHl0aG9uJywgJy1waCcsICc3LjAnLCAnLXRuJywgJzgnLCAnLW1hJywgJzIwMCcsICctbWV0YWxfYmluZGluZycsICctaW1hZScsICc8aW5maWxlLm1hZT4nLCAnLW9tYWUnLCAnPG91dGZpbGUubWFlPic=

> <r_lp_tautomer_probability>
1

> <r_epik_Ionization_Penalty>
0.0127837

> <r_epik_Ionization_Penalty_Charging>
0

> <r_epik_Ionization_Penalty_Neutral>
0.0127837

> <r_epik_State_Penalty>
0.00987657

> <r_epik_Charging_Adjusted_Penalty>
0.00987657

> <i_epik_Tot_Q>
0

> <i_epik_Tot_abs_Q>
0

> <r_epik_Metal_State_Penalty>
0.0309865

> <b_epik_Metal_Only>
0

> <s_lp_Force_Field>
OPLS_2005

> <r_lp_Energy>
18.239

> <b_lp_Chiralities_Consistent>
1

> <s_lp_Variant>
AV-unprocessed.smi:837-2

> <Gold.Version>
5.8.1

> <Gold.Id.Protein>
6NUR|6NUR_protein|mol2

> <Gold.PLP.Fitness>
44.5048

> <Gold.PLP.PLP>
-39.2311

> <Gold.PLP.part.hbond>
-2.4165

> <Gold.PLP.part.metal>
0.0000

> <Gold.PLP.part.buried>
-5.2405

> <Gold.PLP.part.nonpolar>
-31.0909

> <Gold.PLP.part.repulsive>
0.2821

> <Gold.PLP.ligand.clash>
0.0000

> <Gold.PLP.ligand.torsion>
0.3661

> <Gold.PLP.Chemscore.Hbond>
1.9913

> <Gold.PLP.Chemscore.CHOScore>
0.0000

> <Gold.PLP.Chemscore.Metal>
0.0000

> <Gold.Chemscore.Hbonds>
donor molecule, donor type, donor heavy atom, donor atom, acceptor molecule, acceptor atom, score
      P1  H  7997  8010       L1    14  0.77
      P1  H 10752 10764       L1    25  0.61

> <Gold.PLP.Chemscore.Internal.Correction>
0.0321

> <Gold.Rescore>
     Score         DG    S(hbond)    S(metal)    S(lipo)     H(rot)  DE(clash)    DE(int)     intcor
     20.51     -21.02       1.88        0.00     119.70       1.86       0.02       0.49       ----

> <Gold.Chemscore.Fitness>
20.5109

> <Gold.Chemscore.DG>
-21.0212

> <Gold.Chemscore.ZeroCoef>
-5.4800

> <Gold.Chemscore.Hbond>
1.8820

> <Gold.Chemscore.Metal>
0.0000

> <Gold.Chemscore.Lipo>
119.7000

> <Gold.Chemscore.Internal_Hbond>
0.0000

> <Gold.Chemscore.DEClash>
0.0224

> <Gold.Chemscore.DEInternal>
0.4879

> <Gold.Chemscore.Rot>
1.8553

> <Gold.Chemscore.Internal.Correction>
   9.000000E+99

> <Gold.Chemscore.Hbonds>
donor molecule, donor type, donor heavy atom, donor atom, acceptor molecule, acceptor atom, score
      P1  H  7997  8010       L1    14  0.73
      P1  H 10752 10764       L1    25  0.60

> <Gold.Chemscore.Hbond.Weighted>
-6.2860

> <Gold.Chemscore.Metal.Weighted>
-0.0000

> <Gold.Chemscore.Lipo.Weighted>
-14.0049

> <Gold.Chemscore.Internal_Hbond.Weighted>
0.0000

> <Gold.Chemscore.DEClash.Weighted>
0.0224

> <Gold.Chemscore.DEInternal.Weighted>
0.4879

> <Gold.Chemscore.Rot.Weighted>
4.7497

> <Gold.Chemscore.Internal.Correction.Weighted>
   9.000000E+99

> <Gold.Protein.RotatedTorsions>
[ 6907 6896 6895 6894 ] final  -78.27 input  -60.11 | X-H torsion
[ 7974 7965 7964 7962 ] final  -37.16 input  175.53 | X-H torsion
[ 8008 7997 7996 7995 ] final  -55.63 input   59.86 | X-H torsion
[ 10167 10162 10161 10158 ] final    3.65 input  -65.29 | X-H torsion
[ 10718 10713 10712 10709 ] final  129.39 input   66.30 | X-H torsion
[ 10763 10752 10751 10750 ] final   72.88 input  -60.55 | X-H torsion
[ 11005 11000 10999 10996 ] final   96.88 input  -57.11 | X-H torsion

> <Gold.Protein.ActiveResidues>
 VAL166  LYS551  ARG553  GLY616  TRP617  ASP618  TYR619  PRO620  LYS621  CYS622 
 ASP623  PHE694  ASN695  SER759  ASP760  ASP761  ALA762  ILE779  LEU786  VAL792 
 PHE793  MET794  SER795  GLU796  ALA797  LYS798  CYS799  TRP800  GLU811  SER814 

> <Gold.Protein.RotatedAtoms>
  150.6977  134.4297  159.5242 H   0  0  0  0  0  0  0  0  0  0  0  0  # atno 6907 bound_to 6896
  152.2026  134.8572  160.0515 H   0  0  0  0  0  0  0  0  0  0  0  0  # atno 6908 bound_to 6896
  151.9486  133.3624  159.4028 H   0  0  0  0  0  0  0  0  0  0  0  0  # atno 6909 bound_to 6896
  146.0599  140.6363  142.9002 H   0  0  0  0  0  0  0  0  0  0  0  0  # atno 7974 bound_to 7965
  154.4202  140.1148  156.5508 H   0  0  0  0  0  0  0  0  0  0  0  0  # atno 8008 bound_to 7997
  155.6412  140.3496  155.4696 H   0  0  0  0  0  0  0  0  0  0  0  0  # atno 8009 bound_to 7997
  155.9869  140.1171  157.0664 H   0  0  0  0  0  0  0  0  0  0  0  0  # atno 8010 bound_to 7997
  140.6575  143.7390  150.7679 H   0  0  0  0  0  0  0  0  0  0  0  0  # atno 10167 bound_to 10162
  157.5158  131.1097  150.9226 H   0  0  0  0  0  0  0  0  0  0  0  0  # atno 10718 bound_to 10713
  153.0486  135.5083  154.7810 H   0  0  0  0  0  0  0  0  0  0  0  0  # atno 10763 bound_to 10752
  154.6690  135.2950  154.9770 H   0  0  0  0  0  0  0  0  0  0  0  0  # atno 10764 bound_to 10752
  154.0594  135.6693  153.4862 H   0  0  0  0  0  0  0  0  0  0  0  0  # atno 10765 bound_to 10752
  139.8779  134.8973  156.4225 H   0  0  0  0  0  0  0  0  0  0  0  0  # atno 11005 bound_to 11000
  144.7169  140.4240  143.7038 LP  0  0  0  0  0  0  0  0  0  0  0  0  # atno 17320 bound_to 7965
  145.6578  139.1576  143.2825 LP  0  0  0  0  0  0  0  0  0  0  0  0  # atno 17321 bound_to 7965
  140.1052  143.4750  152.2402 LP  0  0  0  0  0  0  0  0  0  0  0  0  # atno 17342 bound_to 10162
  139.5801  144.7506  151.3663 LP  0  0  0  0  0  0  0  0  0  0  0  0  # atno 17343 bound_to 10162
  156.9852  130.5542  149.5299 LP  0  0  0  0  0  0  0  0  0  0  0  0  # atno 17370 bound_to 10713
  156.0319  130.5410  150.8557 LP  0  0  0  0  0  0  0  0  0  0  0  0  # atno 17371 bound_to 10713
  140.9124  133.7702  155.9807 LP  0  0  0  0  0  0  0  0  0  0  0  0  # atno 17394 bound_to 11000
  140.8532  134.2929  157.5266 LP  0  0  0  0  0  0  0  0  0  0  0  0  # atno 17395 bound_to 11000

$$$$
