#       Name:                AV-unprocessed.smi:2942
#       Creating user name   scv26
#       Creation time:       Fri Mar 27 16:15:51 2020


#       File generated by GOLD software.
#

@<TRIPOS>MOLECULE
AV-unprocessed.smi:2942
    48    51     1
SMALL
NO_CHARGES


@<TRIPOS>ATOM
      1 ****         1.3544   2.4341  -0.1347 O.2            1 S1                 0.0000
      2 ****         0.9613   1.3444  -0.5533 C.2            1 S1                 0.0000
      3 ****         1.8089   0.3755  -0.9356 N.am           1 S1                 0.0000
      4 ****         3.2644   0.4431  -0.8574 C.3            1 S1                 0.0000
      5 ****         3.8064   0.2819   0.5788 C.3            1 S1                 0.0000
      6 ****         3.2241  -0.9068   1.3275 C.ar           1 S1                 0.0000
      7 ****         3.7612  -2.1995   1.1500 C.ar           1 S1                 0.0000
      8 ****         3.1677  -3.2736   1.8412 C.ar           1 S1                 0.0000
      9 ****         2.0656  -3.0161   2.6791 C.ar           1 S1                 0.0000
     10 ****         1.6041  -1.6894   2.7897 C.ar           1 S1                 0.0000
     11 ****         2.1653  -0.6534   2.1305 N.ar           1 S1                 0.0000
     12 ****        -0.5503   1.0253  -0.6249 C.3            1 S1                 0.0000
     13 ****        -0.9539   0.1985   0.6250 C.3            1 S1                 0.0000
     14 ****        -2.4628  -0.1260   0.5885 C.3            1 S1                 0.0000
     15 ****        -3.2743   1.1859   0.5811 C.3            1 S1                 0.0000
     16 ****        -2.8989   2.0086  -0.6691 C.3            1 S1                 0.0000
     17 ****        -3.2248   1.2004  -1.9415 C.3            1 S1                 0.0000
     18 ****        -2.4150  -0.1119  -1.9294 C.3            1 S1                 0.0000
     19 ****        -2.7867  -0.9411  -0.6816 C.3            1 S1                 0.0000
     20 ****        -0.9056   0.2098  -1.9029 C.3            1 S1                 0.0000
     21 ****        -1.3908   2.3355  -0.6363 C.3            1 S1                 0.0000
     22 ****         1.4119  -0.4918  -1.2669 H              1 S1                 0.0000
     23 ****         3.6540  -0.3639  -1.4783 H              1 S1                 0.0000
     24 ****         3.6256   1.3723  -1.3003 H              1 S1                 0.0000
     25 ****         4.8922   0.1851   0.5509 H              1 S1                 0.0000
     26 ****         3.6038   1.1901   1.1487 H              1 S1                 0.0000
     27 ****         4.6030  -2.3664   0.4945 H              1 S1                 0.0000
     28 ****         3.5492  -4.2776   1.7282 H              1 S1                 0.0000
     29 ****         1.5851  -3.8155   3.2234 H              1 S1                 0.0000
     30 ****         0.7601  -1.4544   3.4212 H              1 S1                 0.0000
     31 ****        -0.3850  -0.7316   0.6658 H              1 S1                 0.0000
     32 ****        -0.7136   0.7432   1.5397 H              1 S1                 0.0000
     33 ****        -2.7272  -0.7102   1.4705 H              1 S1                 0.0000
     34 ****        -4.3432   0.9690   0.5844 H              1 S1                 0.0000
     35 ****        -3.0728   1.7598   1.4865 H              1 S1                 0.0000
     36 ****        -3.4700   2.9374  -0.6751 H              1 S1                 0.0000
     37 ****        -4.2930   0.9854  -1.9902 H              1 S1                 0.0000
     38 ****        -2.9860   1.7839  -2.8316 H              1 S1                 0.0000
     39 ****        -2.6455  -0.6863  -2.8270 H              1 S1                 0.0000
     40 ****        -2.2379  -1.8836  -0.6759 H              1 S1                 0.0000
     41 ****        -3.8456  -1.2015  -0.7030 H              1 S1                 0.0000
     42 ****        -0.6287   0.7670  -2.7992 H              1 S1                 0.0000
     43 ****        -0.3492  -0.7278  -1.9399 H              1 S1                 0.0000
     44 ****        -1.1779   2.9411   0.2463 H              1 S1                 0.0000
     45 ****        -1.1279   2.9491  -1.4995 H              1 S1                 0.0000
     46 ****         2.3346   2.6211  -0.0706 LP             1 S1                 0.0000
     47 ****         0.6932   3.1319   0.1411 LP             1 S1                 0.0000
     48 ****         1.8083   0.2751   2.2330 LP             1 S1                 0.0000
@<TRIPOS>BOND
    1    1    2 2     
    2    2    3 am    
    3    2   12 1     
    4    3    4 1     
    5    3   22 1     
    6    4    5 1     
    7    4   23 1     
    8    4   24 1     
    9    5    6 1     
   10    5   25 1     
   11    5   26 1     
   12    6   11 ar    
   13    6    7 ar    
   14    7    8 ar    
   15    7   27 1     
   16    8    9 ar    
   17    8   28 1     
   18    9   10 ar    
   19    9   29 1     
   20   10   11 ar    
   21   10   30 1     
   22   12   20 1     
   23   12   21 1     
   24   12   13 1     
   25   13   14 1     
   26   13   31 1     
   27   13   32 1     
   28   14   19 1     
   29   14   15 1     
   30   14   33 1     
   31   15   16 1     
   32   15   34 1     
   33   15   35 1     
   34   16   17 1     
   35   16   21 1     
   36   16   36 1     
   37   17   18 1     
   38   17   37 1     
   39   17   38 1     
   40   18   19 1     
   41   18   20 1     
   42   18   39 1     
   43   19   40 1     
   44   19   41 1     
   45   20   42 1     
   46   20   43 1     
   47   21   44 1     
   48   21   45 1     
   49    1   46 1     
   50    1   47 1     
   51   11   48 1     
@<TRIPOS>SUBSTRUCTURE
      1 S1             1
@<TRIPOS>SET
LONE_PAIRS      STATIC     ATOMS    <user>   **** ""
3 46 47 48
DONOR_HYDROGENS      STATIC     ATOMS    <user>   **** ""
1 22
ATOM$BLUE        STATIC     ATOMS    COLORGROUP SYSTEM
3 46 47 48
ATOM$RED        STATIC     ATOMS    COLORGROUP SYSTEM
1 22
