AV-unprocessed.smi:2027|AV-procd|sdf|8210|dock10
  -GOLD-   2272010473D 1   1.00000     0.00000
 Structure written by MMmdl.
 49 51  0  0  0  0  0  0  0  0  1 V2000
  151.7945  144.5822  160.5879 C   0  0  0  0  0  0  0  0  0  0  0  0
  152.5566  143.2711  160.5099 C   0  0  0  0  0  0  0  0  0  0  0  0
  152.3558  142.4243  159.3955 C   0  0  0  0  0  0  0  0  0  0  0  0
  153.0434  141.1954  159.2861 C   0  0  0  0  0  0  0  0  0  0  0  0
  153.0038  140.2222  158.3014 N   0  0  0  0  0  0  0  0  0  0  0  0
  153.8641  139.3241  158.7746 C   0  0  0  0  0  0  0  0  0  0  0  0
  154.4535  139.6011  159.9531 N   0  0  0  0  0  0  0  0  0  0  0  0
  155.4163  138.7974  160.6795 C   0  0  0  0  0  0  0  0  0  0  0  0
  154.7260  137.7757  161.6056 C   0  0  1  0  0  0  0  0  0  0  0  0
  153.6260  137.2106  160.9229 O   0  0  0  0  0  0  0  0  0  0  0  0
  155.6707  136.6398  162.0502 C   0  0  0  0  0  0  0  0  0  0  0  0
  155.0165  135.5301  162.7494 N   0  0  0  0  0  0  0  0  0  0  0  0
  154.2842  136.0223  163.9120 C   0  0  0  0  0  0  0  0  0  0  0  0
  155.9524  134.4687  163.1332 C   0  0  0  0  0  0  0  0  0  0  0  0
  155.2871  133.1245  163.2658 C   0  0  0  0  0  0  0  0  0  0  0  0
  155.4424  131.9842  162.4271 C   0  0  0  0  0  0  0  0  0  0  0  0
  154.6911  130.9619  162.8037 N   0  0  0  0  0  0  0  0  0  0  0  0
  154.0307  131.4126  163.8901 N   0  0  0  0  0  0  0  0  0  0  0  0
  153.0940  130.5439  164.5701 C   0  0  0  0  0  0  0  0  0  0  0  0
  154.3687  132.7135  164.1912 C   0  0  0  0  0  0  0  0  0  0  0  0
  153.9423  140.8361  160.3311 C   0  0  0  0  0  0  0  0  0  0  0  0
  154.1516  141.6692  161.4435 C   0  0  0  0  0  0  0  0  0  0  0  0
  153.4594  142.8937  161.5367 C   0  0  0  0  0  0  0  0  0  0  0  0
  153.6958  143.7849  162.7434 C   0  0  0  0  0  0  0  0  0  0  0  0
  151.0877  144.6816  159.7634 H   0  0  0  0  0  0  0  0  0  0  0  0
  152.4838  145.4258  160.5429 H   0  0  0  0  0  0  0  0  0  0  0  0
  151.2308  144.6436  161.5189 H   0  0  0  0  0  0  0  0  0  0  0  0
  151.6692  142.7125  158.6131 H   0  0  0  0  0  0  0  0  0  0  0  0
  154.0760  138.4119  158.2359 H   0  0  0  0  0  0  0  0  0  0  0  0
  156.0850  138.3024  159.9739 H   0  0  0  0  0  0  0  0  0  0  0  0
  156.0344  139.4838  161.2589 H   0  0  0  0  0  0  0  0  0  0  0  0
  154.3144  138.2846  162.4758 H   0  0  0  0  0  0  0  0  0  0  0  0
  153.5901  137.5827  160.0549 H   0  0  0  0  0  0  0  0  0  0  0  0
  156.2118  136.2525  161.1853 H   0  0  0  0  0  0  0  0  0  0  0  0
  156.4269  137.0780  162.7034 H   0  0  0  0  0  0  0  0  0  0  0  0
  153.7387  135.2177  164.4057 H   0  0  0  0  0  0  0  0  0  0  0  0
  153.5528  136.7760  163.6182 H   0  0  0  0  0  0  0  0  0  0  0  0
  154.9597  136.4723  164.6408 H   0  0  0  0  0  0  0  0  0  0  0  0
  156.7444  134.3772  162.3936 H   0  0  0  0  0  0  0  0  0  0  0  0
  156.4601  134.7471  164.0579 H   0  0  0  0  0  0  0  0  0  0  0  0
  156.0734  131.8716  161.5577 H   0  0  0  0  0  0  0  0  0  0  0  0
  152.8438  130.9581  165.5473 H   0  0  0  0  0  0  0  0  0  0  0  0
  153.5336  129.5552  164.7078 H   0  0  0  0  0  0  0  0  0  0  0  0
  152.1825  130.4533  163.9790 H   0  0  0  0  0  0  0  0  0  0  0  0
  153.9301  133.2382  165.0275 H   0  0  0  0  0  0  0  0  0  0  0  0
  154.8388  141.3659  162.2190 H   0  0  0  0  0  0  0  0  0  0  0  0
  154.4842  143.3867  163.3831 H   0  0  0  0  0  0  0  0  0  0  0  0
  152.7870  143.8656  163.3403 H   0  0  0  0  0  0  0  0  0  0  0  0
  153.9954  144.7851  162.4301 H   0  0  0  0  0  0  0  0  0  0  0  0
  1  2  1  0  0  0  0
  1 25  1  0  0  0  0
  1 26  1  0  0  0  0
  1 27  1  0  0  0  0
  2 23  1  0  0  0  0
  2  3  2  0  0  0  0
  3  4  1  0  0  0  0
  3 28  1  0  0  0  0
  4 21  2  0  0  0  0
  4  5  1  0  0  0  0
  5  6  2  0  0  0  0
  6  7  1  0  0  0  0
  6 29  1  0  0  0  0
  7  8  1  0  0  0  0
  7 21  1  0  0  0  0
  8  9  1  0  0  0  0
  8 30  1  0  0  0  0
  8 31  1  0  0  0  0
  9 10  1  0  0  0  0
  9 11  1  0  0  0  0
  9 32  1  0  0  0  0
 10 33  1  0  0  0  0
 11 12  1  0  0  0  0
 11 34  1  0  0  0  0
 11 35  1  0  0  0  0
 12 13  1  0  0  0  0
 12 14  1  0  0  0  0
 13 36  1  0  0  0  0
 13 37  1  0  0  0  0
 13 38  1  0  0  0  0
 14 15  1  0  0  0  0
 14 39  1  0  0  0  0
 14 40  1  0  0  0  0
 15 20  2  0  0  0  0
 15 16  1  0  0  0  0
 16 17  2  0  0  0  0
 16 41  1  0  0  0  0
 17 18  1  0  0  0  0
 18 19  1  0  0  0  0
 18 20  1  0  0  0  0
 19 42  1  0  0  0  0
 19 43  1  0  0  0  0
 19 44  1  0  0  0  0
 20 45  1  0  0  0  0
 21 22  1  0  0  0  0
 22 23  2  0  0  0  0
 22 46  1  0  0  0  0
 23 24  1  0  0  0  0
 24 47  1  0  0  0  0
 24 48  1  0  0  0  0
 24 49  1  0  0  0  0
M  END
> <s_m_source_file>
AV-unprocessed.smi

> <i_m_source_file_index>
2027

> <i_lp_mmshare_version>
43012

> <i_f3d_flags>
0

> <s_epik_input>
W0NIM11jKFtjSF0xKWMoW0NIM10pW2NIXWMoYzEyKW4oW2NIXW4yKVtDSDJdW0NASF0oW09IXSlbQ0gyXU4oW0NIM10pW0NIMl1jM1tjSF1ubihbQ0gzXSlbY0hdMw==

> <s_epik_cmdline>
J2VwaWtfcHl0aG9uJywgJy1waCcsICc3LjAnLCAnLXRuJywgJzgnLCAnLW1hJywgJzIwMCcsICctbWV0YWxfYmluZGluZycsICctaW1hZScsICc8aW5maWxlLm1hZT4nLCAnLW9tYWUnLCAnPG91dGZpbGUubWFlPic=

> <r_lp_tautomer_probability>
1

> <r_epik_Ionization_Penalty>
0.374241

> <r_epik_Ionization_Penalty_Charging>
0

> <r_epik_Ionization_Penalty_Neutral>
0.374241

> <r_epik_State_Penalty>
0.350767

> <r_epik_Charging_Adjusted_Penalty>
0.350767

> <i_epik_Tot_Q>
0

> <i_epik_Tot_abs_Q>
0

> <r_epik_Metal_State_Penalty>
0.343203

> <b_epik_Metal_Only>
0

> <s_lp_Force_Field>
OPLS_2005

> <r_lp_Energy>
13.5697

> <b_lp_Chiralities_Consistent>
1

> <s_lp_Variant>
AV-unprocessed.smi:2027-2

> <Gold.Version>
5.8.1

> <Gold.Id.Protein>
6NUR|6NUR_protein|mol2

> <Gold.PLP.Fitness>
50.9917

> <Gold.PLP.PLP>
-49.9911

> <Gold.PLP.part.hbond>
-1.0000

> <Gold.PLP.part.metal>
0.0000

> <Gold.PLP.part.buried>
-2.0087

> <Gold.PLP.part.nonpolar>
-47.2254

> <Gold.PLP.part.repulsive>
0.0601

> <Gold.PLP.ligand.clash>
0.0000

> <Gold.PLP.ligand.torsion>
0.8945

> <Gold.PLP.Chemscore.Hbond>
0.8640

> <Gold.PLP.Chemscore.CHOScore>
0.0000

> <Gold.PLP.Chemscore.Metal>
0.0000

> <Gold.PLP.Chemscore.Internal.Correction>
0.1976

> <Gold.Rescore>
     Score         DG    S(hbond)    S(metal)    S(lipo)     H(rot)  DE(clash)    DE(int)     intcor
     17.90     -20.46       0.93        0.00     154.34       2.42       0.57       1.99       ----

> <Gold.Chemscore.Fitness>
17.9034

> <Gold.Chemscore.DG>
-20.4627

> <Gold.Chemscore.ZeroCoef>
-5.4800

> <Gold.Chemscore.Hbond>
0.9340

> <Gold.Chemscore.Metal>
0.0000

> <Gold.Chemscore.Lipo>
154.3408

> <Gold.Chemscore.Internal_Hbond>
0.0000

> <Gold.Chemscore.DEClash>
0.5736

> <Gold.Chemscore.DEInternal>
1.9856

> <Gold.Chemscore.Rot>
2.4198

> <Gold.Chemscore.Internal.Correction>
   9.000000E+99

> <Gold.Chemscore.Hbond.Weighted>
-3.1196

> <Gold.Chemscore.Metal.Weighted>
-0.0000

> <Gold.Chemscore.Lipo.Weighted>
-18.0579

> <Gold.Chemscore.Internal_Hbond.Weighted>
0.0000

> <Gold.Chemscore.DEClash.Weighted>
0.5736

> <Gold.Chemscore.DEInternal.Weighted>
1.9856

> <Gold.Chemscore.Rot.Weighted>
6.1948

> <Gold.Chemscore.Internal.Correction.Weighted>
   9.000000E+99

> <Gold.Protein.RotatedTorsions>
[ 6907 6896 6895 6894 ] final -179.87 input  -60.11 | X-H torsion
[ 7974 7965 7964 7962 ] final -133.14 input  175.53 | X-H torsion
[ 8008 7997 7996 7995 ] final  -90.50 input   59.86 | X-H torsion
[ 10167 10162 10161 10158 ] final  122.38 input  -65.29 | X-H torsion
[ 10718 10713 10712 10709 ] final -118.46 input   66.30 | X-H torsion
[ 10763 10752 10751 10750 ] final  -51.15 input  -60.55 | X-H torsion
[ 11005 11000 10999 10996 ] final -158.96 input  -57.11 | X-H torsion

> <Gold.Protein.ActiveResidues>
 VAL166  LYS551  ARG553  GLY616  TRP617  ASP618  TYR619  PRO620  LYS621  CYS622 
 ASP623  PHE694  ASN695  SER759  ASP760  ASP761  ALA762  ILE779  LEU786  VAL792 
 PHE793  MET794  SER795  GLU796  ALA797  LYS798  CYS799  TRP800  GLU811  SER814 

> <Gold.Protein.RotatedAtoms>
  151.6604  133.3317  159.3172 H   0  0  0  0  0  0  0  0  0  0  0  0  # atno 6907 bound_to 6896
  150.7916  134.6948  159.6526 H   0  0  0  0  0  0  0  0  0  0  0  0  # atno 6908 bound_to 6896
  152.3997  134.6311  160.0127 H   0  0  0  0  0  0  0  0  0  0  0  0  # atno 6909 bound_to 6896
  144.9220  140.7026  143.4959 H   0  0  0  0  0  0  0  0  0  0  0  0  # atno 7974 bound_to 7965
  154.6993  140.0530  157.0442 H   0  0  0  0  0  0  0  0  0  0  0  0  # atno 8008 bound_to 7997
  155.0707  140.3199  155.4612 H   0  0  0  0  0  0  0  0  0  0  0  0  # atno 8009 bound_to 7997
  156.2755  140.2082  156.5834 H   0  0  0  0  0  0  0  0  0  0  0  0  # atno 8010 bound_to 7997
  139.5862  144.7007  151.3403 H   0  0  0  0  0  0  0  0  0  0  0  0  # atno 10167 bound_to 10162
  156.1108  130.6247  150.9293 H   0  0  0  0  0  0  0  0  0  0  0  0  # atno 10718 bound_to 10713
  154.1219  135.6533  153.4904 H   0  0  0  0  0  0  0  0  0  0  0  0  # atno 10763 bound_to 10752
  153.0222  135.5272  154.7088 H   0  0  0  0  0  0  0  0  0  0  0  0  # atno 10764 bound_to 10752
  154.6298  135.2975  155.0199 H   0  0  0  0  0  0  0  0  0  0  0  0  # atno 10765 bound_to 10752
  140.6479  134.4482  157.5234 H   0  0  0  0  0  0  0  0  0  0  0  0  # atno 11005 bound_to 11000
  145.3280  139.1768  143.4552 LP  0  0  0  0  0  0  0  0  0  0  0  0  # atno 17320 bound_to 7965
  146.3209  140.3306  142.8640 LP  0  0  0  0  0  0  0  0  0  0  0  0  # atno 17321 bound_to 7965
  140.7133  143.7332  150.7608 LP  0  0  0  0  0  0  0  0  0  0  0  0  # atno 17342 bound_to 10162
  140.0877  143.4908  152.2496 LP  0  0  0  0  0  0  0  0  0  0  0  0  # atno 17343 bound_to 10162
  157.6288  131.0923  150.8481 LP  0  0  0  0  0  0  0  0  0  0  0  0  # atno 17370 bound_to 10713
  156.8592  130.5107  149.5305 LP  0  0  0  0  0  0  0  0  0  0  0  0  # atno 17371 bound_to 10713
  139.9056  134.8456  156.1719 LP  0  0  0  0  0  0  0  0  0  0  0  0  # atno 17394 bound_to 11000
  141.0558  133.6866  156.1858 LP  0  0  0  0  0  0  0  0  0  0  0  0  # atno 17395 bound_to 11000

$$$$
