AV-unprocessed.smi:481|AV-procd|sdf|2682|dock2
  -GOLD-   2262023103D 1   1.00000     0.00000
 Structure written by MMmdl.
 42 44  0  0  0  0  0  0  0  0  2 V2000
  149.8225  132.0203  157.3468 C   0  0  0  0  0  0  0  0  0  0  0  0
  149.9880  133.2859  157.9619 O   0  0  0  0  0  0  0  0  0  0  0  0
  149.7912  134.3586  157.0561 C   0  0  0  0  0  0  0  0  0  0  0  0
  148.7365  135.3104  157.6334 C   0  0  0  0  0  0  0  0  0  0  0  0
  149.0081  135.6302  159.0316 N   0  0  0  0  0  0  0  0  0  0  0  0
  149.5713  136.7625  159.5242 C   0  0  0  0  0  0  0  0  0  0  0  0
  149.9695  137.7762  158.6529 N   0  0  0  0  0  0  0  0  0  0  0  0
  150.5198  138.8863  159.1125 N   0  0  0  0  0  0  0  0  0  0  0  0
  150.9766  139.6981  158.2280 C   0  0  0  0  0  0  0  0  0  0  0  0
  151.6175  140.9724  158.5859 C   0  0  0  0  0  0  0  0  0  0  0  0
  152.8187  141.0224  159.3326 C   0  0  0  0  0  0  0  0  0  0  0  0
  153.4039  142.2617  159.6584 C   0  0  0  0  0  0  0  0  0  0  0  0
  152.7952  143.4606  159.2417 C   0  0  0  0  0  0  0  0  0  0  0  0
  151.6005  143.4192  158.4985 C   0  0  0  0  0  0  0  0  0  0  0  0
  151.0148  142.1805  158.1721 C   0  0  0  0  0  0  0  0  0  0  0  0
  149.6994  136.7899  160.8548 N   0  0  0  0  0  0  0  0  0  0  0  0
  149.1797  135.5614  161.2364 C   0  0  0  0  0  0  0  0  0  0  0  0
  148.7654  134.8425  160.1595 C   0  0  0  0  0  0  0  0  0  0  0  0
  148.1865  133.4858  160.2484 C   0  0  0  0  0  0  0  0  0  0  0  0
  147.8533  132.8712  159.2369 O   0  0  0  0  0  0  0  0  0  0  0  0
  148.0930  133.0502  161.5449 N   0  5  0  0  0  0  0  0  0  0  0  0
  148.4925  133.7464  162.6665 C   0  0  0  0  0  0  0  0  0  0  0  0
  148.3683  133.2725  163.7961 O   0  0  0  0  0  0  0  0  0  0  0  0
  149.0427  134.9963  162.5320 N   0  0  0  0  0  0  0  0  0  0  0  0
  149.5047  135.7944  163.6718 C   0  0  0  0  0  0  0  0  0  0  0  0
  149.9874  131.2317  158.0807 H   0  0  0  0  0  0  0  0  0  0  0  0
  150.5369  131.8788  156.5348 H   0  0  0  0  0  0  0  0  0  0  0  0
  148.8130  131.9049  156.9500 H   0  0  0  0  0  0  0  0  0  0  0  0
  150.7306  134.8890  156.8929 H   0  0  0  0  0  0  0  0  0  0  0  0
  149.4584  133.9727  156.0912 H   0  0  0  0  0  0  0  0  0  0  0  0
  148.7055  136.2313  157.0508 H   0  0  0  0  0  0  0  0  0  0  0  0
  147.7391  134.8807  157.5484 H   0  0  0  0  0  0  0  0  0  0  0  0
  149.8389  137.6359  157.6615 H   0  0  0  0  0  0  0  0  0  0  0  0
  150.8971  139.4529  157.1666 H   0  0  0  0  0  0  0  0  0  0  0  0
  153.3035  140.1151  159.6633 H   0  0  0  0  0  0  0  0  0  0  0  0
  154.3207  142.2910  160.2290 H   0  0  0  0  0  0  0  0  0  0  0  0
  153.2440  144.4104  159.4921 H   0  0  0  0  0  0  0  0  0  0  0  0
  151.1317  144.3381  158.1783 H   0  0  0  0  0  0  0  0  0  0  0  0
  150.0975  142.1665  157.6014 H   0  0  0  0  0  0  0  0  0  0  0  0
  149.3640  135.3181  164.6425 H   0  0  0  0  0  0  0  0  0  0  0  0
  148.9732  136.7461  163.6976 H   0  0  0  0  0  0  0  0  0  0  0  0
  150.5688  136.0082  163.5664 H   0  0  0  0  0  0  0  0  0  0  0  0
  1  2  1  0  0  0  0
  1 26  1  0  0  0  0
  1 27  1  0  0  0  0
  1 28  1  0  0  0  0
  2  3  1  0  0  0  0
  3  4  1  0  0  0  0
  3 29  1  0  0  0  0
  3 30  1  0  0  0  0
  4  5  1  0  0  0  0
  4 31  1  0  0  0  0
  4 32  1  0  0  0  0
  5 18  1  0  0  0  0
  5  6  1  0  0  0  0
  6  7  1  0  0  0  0
  6 16  2  0  0  0  0
  7  8  1  0  0  0  0
  7 33  1  0  0  0  0
  8  9  2  0  0  0  0
  9 10  1  0  0  0  0
  9 34  1  0  0  0  0
 10 15  1  0  0  0  0
 10 11  2  0  0  0  0
 11 12  1  0  0  0  0
 11 35  1  0  0  0  0
 12 13  2  0  0  0  0
 12 36  1  0  0  0  0
 13 14  1  0  0  0  0
 13 37  1  0  0  0  0
 14 15  2  0  0  0  0
 14 38  1  0  0  0  0
 15 39  1  0  0  0  0
 16 17  1  0  0  0  0
 17 24  1  0  0  0  0
 17 18  2  0  0  0  0
 18 19  1  0  0  0  0
 19 20  2  0  0  0  0
 19 21  1  0  0  0  0
 21 22  1  0  0  0  0
 22 23  2  0  0  0  0
 22 24  1  0  0  0  0
 24 25  1  0  0  0  0
 25 40  1  0  0  0  0
 25 41  1  0  0  0  0
 25 42  1  0  0  0  0
M  CHG  1  21  -1
M  END
> <s_m_source_file>
AV-unprocessed.smi

> <i_m_source_file_index>
481

> <i_lp_mmshare_version>
43012

> <i_f3d_flags>
0

> <s_epik_input>
W0NIM11uMWMoPU8pW25IXWMoPU8pYyhjMTIpbihbQ0gyXVtDSDJdT1tDSDNdKWMobjIpW05IXS9OPVtDSF0vYzNbY0hdW2NIXVtjSF1bY0hdW2NIXTM=

> <s_epik_cmdline>
J2VwaWtfcHl0aG9uJywgJy1waCcsICc3LjAnLCAnLXRuJywgJzgnLCAnLW1hJywgJzIwMCcsICctbWV0YWxfYmluZGluZycsICctaW1hZScsICc8aW5maWxlLm1hZT4nLCAnLW9tYWUnLCAnPG91dGZpbGUubWFlPic=

> <r_epik_Ionization_Penalty>
4.48471

> <r_epik_Ionization_Penalty_Charging>
4.58449e-09

> <r_epik_Ionization_Penalty_Neutral>
4.48471

> <r_epik_State_Penalty>
4.48428

> <r_epik_Charging_Adjusted_Penalty>
4.48428

> <i_epik_Tot_Q>
-1

> <i_epik_Tot_abs_Q>
1

> <r_epik_Metal_State_Penalty>
0.811551

> <b_epik_Metal_Only>
1

> <s_epik_Chemistry_Notes>
This compound has an imine and may undergo hydrolysis.

> <s_lp_Force_Field>
OPLS_2005

> <r_lp_Energy>
36.4971

> <b_lp_Chiralities_Consistent>
1

> <s_lp_Variant>
AV-unprocessed.smi:481-3

> <Gold.Version>
5.8.1

> <Gold.Id.Protein>
6NUR|6NUR_protein|mol2

> <Gold.PLP.Fitness>
47.3778

> <Gold.PLP.PLP>
-44.9167

> <Gold.PLP.part.hbond>
-4.1940

> <Gold.PLP.part.metal>
0.0000

> <Gold.PLP.part.buried>
-6.4292

> <Gold.PLP.part.nonpolar>
-35.0087

> <Gold.PLP.part.repulsive>
0.1527

> <Gold.PLP.ligand.clash>
0.0000

> <Gold.PLP.ligand.torsion>
1.2559

> <Gold.PLP.Chemscore.Hbond>
1.6400

> <Gold.PLP.Chemscore.CHOScore>
0.0000

> <Gold.PLP.Chemscore.Metal>
0.0000

> <Gold.Chemscore.Hbonds>
donor molecule, donor type, donor heavy atom, donor atom, acceptor molecule, acceptor atom, score
      P1  H  6896  6909       L1     2  1.00
      P1  H  6931  6943       L1    16  0.61

> <Gold.PLP.Chemscore.Internal.Correction>
0.0528

> <Gold.Rescore>
     Score         DG    S(hbond)    S(metal)    S(lipo)     H(rot)  DE(clash)    DE(int)     intcor
     15.49     -17.00       1.72        0.00      82.74       1.52       0.03       1.49       ----

> <Gold.Chemscore.Fitness>
15.4856

> <Gold.Chemscore.DG>
-16.9973

> <Gold.Chemscore.ZeroCoef>
-5.4800

> <Gold.Chemscore.Hbond>
1.7172

> <Gold.Chemscore.Metal>
0.0000

> <Gold.Chemscore.Lipo>
82.7413

> <Gold.Chemscore.Internal_Hbond>
0.0000

> <Gold.Chemscore.DEClash>
0.0256

> <Gold.Chemscore.DEInternal>
1.4862

> <Gold.Chemscore.Rot>
1.5230

> <Gold.Chemscore.Internal.Correction>
   9.000000E+99

> <Gold.Chemscore.Hbonds>
donor molecule, donor type, donor heavy atom, donor atom, acceptor molecule, acceptor atom, score
      P1  H  6896  6909       L1     2  0.77
      P1  H  6931  6943       L1    16  0.52

> <Gold.Chemscore.Hbond.Weighted>
-5.7355

> <Gold.Chemscore.Metal.Weighted>
-0.0000

> <Gold.Chemscore.Lipo.Weighted>
-9.6807

> <Gold.Chemscore.Internal_Hbond.Weighted>
0.0000

> <Gold.Chemscore.DEClash.Weighted>
0.0256

> <Gold.Chemscore.DEInternal.Weighted>
1.4862

> <Gold.Chemscore.Rot.Weighted>
3.8989

> <Gold.Chemscore.Internal.Correction.Weighted>
   9.000000E+99

> <Gold.Protein.RotatedTorsions>
[ 6907 6896 6895 6894 ] final   -0.26 input  -60.11 | X-H torsion
[ 7974 7965 7964 7962 ] final -153.52 input  175.53 | X-H torsion
[ 8008 7997 7996 7995 ] final  144.45 input   59.86 | X-H torsion
[ 10167 10162 10161 10158 ] final   89.57 input  -65.29 | X-H torsion
[ 10718 10713 10712 10709 ] final  -90.74 input   66.30 | X-H torsion
[ 10763 10752 10751 10750 ] final -110.12 input  -60.55 | X-H torsion
[ 11005 11000 10999 10996 ] final   42.83 input  -57.11 | X-H torsion

> <Gold.Protein.ActiveResidues>
 VAL166  LYS551  ARG553  GLY616  TRP617  ASP618  TYR619  PRO620  LYS621  CYS622 
 ASP623  PHE694  ASN695  SER759  ASP760  ASP761  ALA762  ILE779  LEU786  VAL792 
 PHE793  MET794  SER795  GLU796  ALA797  LYS798  CYS799  TRP800  GLU811  SER814 

> <Gold.Protein.RotatedAtoms>
  151.5651  135.1064  159.9981 H   0  0  0  0  0  0  0  0  0  0  0  0  # atno 6907 bound_to 6896
  152.4428  133.7476  159.6686 H   0  0  0  0  0  0  0  0  0  0  0  0  # atno 6908 bound_to 6896
  150.8337  133.7980  159.3112 H   0  0  0  0  0  0  0  0  0  0  0  0  # atno 6909 bound_to 6896
  144.7736  140.4514  143.5889 H   0  0  0  0  0  0  0  0  0  0  0  0  # atno 7974 bound_to 7965
  156.2907  140.2235  156.5055 H   0  0  0  0  0  0  0  0  0  0  0  0  # atno 8008 bound_to 7997
  154.7653  140.0470  157.1029 H   0  0  0  0  0  0  0  0  0  0  0  0  # atno 8009 bound_to 7997
  154.9940  140.3093  155.4897 H   0  0  0  0  0  0  0  0  0  0  0  0  # atno 8010 bound_to 7997
  139.8559  144.6569  150.9115 H   0  0  0  0  0  0  0  0  0  0  0  0  # atno 10167 bound_to 10162
  155.9989  130.4921  150.5368 H   0  0  0  0  0  0  0  0  0  0  0  0  # atno 10718 bound_to 10713
  154.8231  135.4576  154.0837 H   0  0  0  0  0  0  0  0  0  0  0  0  # atno 10763 bound_to 10752
  153.2174  135.6889  153.8047 H   0  0  0  0  0  0  0  0  0  0  0  0  # atno 10764 bound_to 10752
  153.7477  135.3303  155.3292 H   0  0  0  0  0  0  0  0  0  0  0  0  # atno 10765 bound_to 10752
  140.1702  134.4231  155.8262 H   0  0  0  0  0  0  0  0  0  0  0  0  # atno 11005 bound_to 11000
  145.6251  139.1529  143.3001 LP  0  0  0  0  0  0  0  0  0  0  0  0  # atno 17320 bound_to 7965
  146.1900  140.6358  142.9150 LP  0  0  0  0  0  0  0  0  0  0  0  0  # atno 17321 bound_to 7965
  140.7781  143.3786  151.1517 LP  0  0  0  0  0  0  0  0  0  0  0  0  # atno 17342 bound_to 10162
  139.7420  143.8909  152.3052 LP  0  0  0  0  0  0  0  0  0  0  0  0  # atno 17343 bound_to 10162
  157.3310  131.0699  151.1861 LP  0  0  0  0  0  0  0  0  0  0  0  0  # atno 17370 bound_to 10713
  157.2742  130.6719  149.6034 LP  0  0  0  0  0  0  0  0  0  0  0  0  # atno 17371 bound_to 10713
  141.2217  133.6953  156.7750 LP  0  0  0  0  0  0  0  0  0  0  0  0  # atno 17394 bound_to 11000
  140.2386  134.8631  157.3550 LP  0  0  0  0  0  0  0  0  0  0  0  0  # atno 17395 bound_to 11000

$$$$
