AV-unprocessed.smi:4|AV-procd|sdf|35|dock10
  -GOLD-   2262015153D 1   1.00000     0.00000
 Structure written by MMmdl.
 43 44  0  0  0  0  0  0  0  0  3 V2000
  152.6642  138.2800  155.6201 C   0  0  0  0  0  0  0  0  0  0  0  0
  151.2127  137.7958  155.3579 C   0  0  0  0  0  0  0  0  0  0  0  0
  150.3102  138.6757  156.2584 C   0  0  0  0  0  0  0  0  0  0  0  0
  150.9460  138.0989  153.8612 C   0  0  0  0  0  0  0  0  0  0  0  0
  150.9863  136.3330  155.6534 N   0  0  0  0  0  0  0  0  0  0  0  0
  150.6076  135.4495  154.6091 C   0  0  0  0  0  0  0  0  0  0  0  0
  150.3764  134.1330  154.7897 C   0  0  0  0  0  0  0  0  0  0  0  0
  149.9592  133.2131  153.6523 C   0  0  0  0  0  0  0  0  0  0  0  0
  148.7509  133.7285  152.9777 N   0  3  0  0  0  0  0  0  0  0  0  0
  148.3628  132.9673  151.7735 C   0  0  0  0  0  0  0  0  0  0  0  0
  147.0692  133.5069  151.1583 C   0  0  0  0  0  0  0  0  0  0  0  0
  147.1842  134.9164  151.1907 O   0  0  0  0  0  0  0  0  0  0  0  0
  146.6196  132.9241  149.8060 C   0  0  0  0  0  0  0  0  0  0  0  0
  145.1849  132.8534  150.3301 C   0  0  0  0  0  0  0  0  0  0  0  0
  145.7477  132.9809  151.7462 C   0  0  0  0  0  0  0  0  0  0  0  0
  150.5202  133.6042  156.1434 C   0  0  0  0  0  0  0  0  0  0  0  0
  150.3090  132.4110  156.3583 O   0  0  0  0  0  0  0  0  0  0  0  0
  150.8965  134.4688  157.1222 N   0  5  0  0  0  0  0  0  0  0  0  0
  151.1355  135.7991  156.9156 C   0  0  0  0  0  0  0  0  0  0  0  0
  151.4824  136.5172  157.8513 O   0  0  0  0  0  0  0  0  0  0  0  0
  152.7771  139.3381  155.3796 H   0  0  0  0  0  0  0  0  0  0  0  0
  153.3902  137.7466  155.0047 H   0  0  0  0  0  0  0  0  0  0  0  0
  152.9493  138.1750  156.6677 H   0  0  0  0  0  0  0  0  0  0  0  0
  150.4596  138.4410  157.3128 H   0  0  0  0  0  0  0  0  0  0  0  0
  149.2485  138.5638  156.0454 H   0  0  0  0  0  0  0  0  0  0  0  0
  150.5350  139.7347  156.1273 H   0  0  0  0  0  0  0  0  0  0  0  0
  151.2219  139.1236  153.6098 H   0  0  0  0  0  0  0  0  0  0  0  0
  149.9004  137.9943  153.5771 H   0  0  0  0  0  0  0  0  0  0  0  0
  151.5291  137.4398  153.2171 H   0  0  0  0  0  0  0  0  0  0  0  0
  150.5024  135.8656  153.6241 H   0  0  0  0  0  0  0  0  0  0  0  0
  150.7790  133.1292  152.9373 H   0  0  0  0  0  0  0  0  0  0  0  0
  149.7609  132.2109  154.0344 H   0  0  0  0  0  0  0  0  0  0  0  0
  147.9792  133.7168  153.6293 H   0  0  0  0  0  0  0  0  0  0  0  0
  149.1765  133.0313  151.0498 H   0  0  0  0  0  0  0  0  0  0  0  0
  148.2600  131.9121  152.0316 H   0  0  0  0  0  0  0  0  0  0  0  0
  148.0655  135.1163  151.4687 H   0  0  0  0  0  0  0  0  0  0  0  0
  146.7508  133.5912  148.9532 H   0  0  0  0  0  0  0  0  0  0  0  0
  147.0425  131.9381  149.6061 H   0  0  0  0  0  0  0  0  0  0  0  0
  144.5847  133.7152  150.0352 H   0  0  0  0  0  0  0  0  0  0  0  0
  144.6722  131.9125  150.1274 H   0  0  0  0  0  0  0  0  0  0  0  0
  145.8553  132.0150  152.2420 H   0  0  0  0  0  0  0  0  0  0  0  0
  145.2109  133.6908  152.3768 H   0  0  0  0  0  0  0  0  0  0  0  0
  148.9293  134.6862  152.7078 H   0  0  0  0  0  0  0  0  0  0  0  0
  1  2  1  0  0  0  0
  1 21  1  0  0  0  0
  1 22  1  0  0  0  0
  1 23  1  0  0  0  0
  2  3  1  0  0  0  0
  2  4  1  0  0  0  0
  2  5  1  0  0  0  0
  3 24  1  0  0  0  0
  3 25  1  0  0  0  0
  3 26  1  0  0  0  0
  4 27  1  0  0  0  0
  4 28  1  0  0  0  0
  4 29  1  0  0  0  0
  5 19  1  0  0  0  0
  5  6  1  0  0  0  0
  6  7  2  0  0  0  0
  6 30  1  0  0  0  0
  7  8  1  0  0  0  0
  7 16  1  0  0  0  0
  8  9  1  0  0  0  0
  8 31  1  0  0  0  0
  8 32  1  0  0  0  0
  9 10  1  0  0  0  0
  9 33  1  0  0  0  0
  9 43  1  0  0  0  0
 10 11  1  0  0  0  0
 10 34  1  0  0  0  0
 10 35  1  0  0  0  0
 11 15  1  0  0  0  0
 11 12  1  0  0  0  0
 11 13  1  0  0  0  0
 12 36  1  0  0  0  0
 13 14  1  0  0  0  0
 13 37  1  0  0  0  0
 13 38  1  0  0  0  0
 14 15  1  0  0  0  0
 14 39  1  0  0  0  0
 14 40  1  0  0  0  0
 15 41  1  0  0  0  0
 15 42  1  0  0  0  0
 16 17  2  0  0  0  0
 16 18  1  0  0  0  0
 18 19  1  0  0  0  0
 19 20  2  0  0  0  0
M  CHG  1   9   1
M  CHG  1  18  -1
M  END
> <s_m_source_file>
AV-unprocessed.smi

> <i_m_source_file_index>
4

> <i_lp_mmshare_version>
43012

> <i_f3d_flags>
0

> <s_epik_input>
W0NIM11DKFtDSDNdKShbQ0gzXSluMVtjSF1jKGMoPU8pW25IXWMxPU8pW0NIMl1bTkhdW0NIMl1DMihbT0hdKVtDSDJdW0NIMl1bQ0gyXTI=

> <s_epik_cmdline>
J2VwaWtfcHl0aG9uJywgJy1waCcsICc3LjAnLCAnLXRuJywgJzgnLCAnLW1hJywgJzIwMCcsICctbWV0YWxfYmluZGluZycsICctaW1hZScsICc8aW5maWxlLm1hZT4nLCAnLW9tYWUnLCAnPG91dGZpbGUubWFlPic=

> <r_lp_tautomer_probability>
0.999537

> <r_epik_Ionization_Penalty>
3.42736

> <r_epik_Ionization_Penalty_Charging>
0.0116785

> <r_epik_Ionization_Penalty_Neutral>
3.41568

> <r_epik_State_Penalty>
3.42726

> <r_epik_Charging_Adjusted_Penalty>
3.43893

> <i_epik_Tot_Q>
0

> <i_epik_Tot_abs_Q>
2

> <r_epik_Metal_State_Penalty>
0.176979

> <b_epik_Metal_Only>
1

> <s_lp_Force_Field>
OPLS_2005

> <r_lp_Energy>
29.0009

> <b_lp_Chiralities_Consistent>
1

> <s_lp_Variant>
AV-unprocessed.smi:4-3

> <Gold.Version>
5.8.1

> <Gold.Id.Protein>
6NUR|6NUR_protein|mol2

> <Gold.PLP.Fitness>
45.7549

> <Gold.PLP.PLP>
-32.7771

> <Gold.PLP.part.hbond>
-3.6591

> <Gold.PLP.part.metal>
0.0000

> <Gold.PLP.part.buried>
-5.2007

> <Gold.PLP.part.nonpolar>
-24.1202

> <Gold.PLP.part.repulsive>
0.0000

> <Gold.PLP.ligand.clash>
0.0000

> <Gold.PLP.ligand.torsion>
0.2726

> <Gold.PLP.Chemscore.Hbond>
3.8000

> <Gold.PLP.Chemscore.CHOScore>
0.6663

> <Gold.PLP.Chemscore.Metal>
0.0000

> <Gold.Chemscore.Hbonds>
donor molecule, donor type, donor heavy atom, donor atom, acceptor molecule, acceptor atom, score
      L1  H     9    43       P1  7948  0.90
      L1  H    12    36       P1  7948  0.49
      P1  H  6896  6908       L1    18  0.45
      L1  C     6    30       P1  7948  0.08
      L1  C     6    30       P1  7949  0.27

> <Gold.PLP.Chemscore.Internal.Correction>
0.1241

> <Gold.Rescore>
     Score         DG    S(hbond)    S(metal)    S(lipo)     H(rot)  DE(clash)    DE(int)     intcor
     14.02     -15.59       2.66        0.00      64.53       2.47       0.00       1.57       ----

> <Gold.Chemscore.Fitness>
14.0189

> <Gold.Chemscore.DG>
-15.5922

> <Gold.Chemscore.ZeroCoef>
-5.4800

> <Gold.Chemscore.Hbond>
2.6599

> <Gold.Chemscore.Metal>
0.0000

> <Gold.Chemscore.Lipo>
64.5292

> <Gold.Chemscore.Internal_Hbond>
0.0000

> <Gold.Chemscore.DEClash>
0.0009

> <Gold.Chemscore.DEInternal>
1.5724

> <Gold.Chemscore.Rot>
2.4694

> <Gold.Chemscore.Internal.Correction>
   9.000000E+99

> <Gold.Chemscore.Hbonds>
donor molecule, donor type, donor heavy atom, donor atom, acceptor molecule, acceptor atom, score
      L1  H     9    43       P1  7948  0.02
      L1  H    12    36       P1  7948  0.07
      P1  H  6896  6908       L1    18  0.19

> <Gold.Chemscore.Hbond.Weighted>
-8.8839

> <Gold.Chemscore.Metal.Weighted>
-0.0000

> <Gold.Chemscore.Lipo.Weighted>
-7.5499

> <Gold.Chemscore.Internal_Hbond.Weighted>
0.0000

> <Gold.Chemscore.DEClash.Weighted>
0.0009

> <Gold.Chemscore.DEInternal.Weighted>
1.5724

> <Gold.Chemscore.Rot.Weighted>
6.3216

> <Gold.Chemscore.Internal.Correction.Weighted>
   9.000000E+99

> <Gold.Protein.RotatedTorsions>
[ 6907 6896 6895 6894 ] final  126.94 input  -60.11 | X-H torsion
[ 7974 7965 7964 7962 ] final  163.81 input  175.53 | X-H torsion
[ 8008 7997 7996 7995 ] final  142.11 input   59.86 | X-H torsion
[ 10167 10162 10161 10158 ] final  166.86 input  -65.29 | X-H torsion
[ 10718 10713 10712 10709 ] final  -87.69 input   66.30 | X-H torsion
[ 10763 10752 10751 10750 ] final -130.55 input  -60.55 | X-H torsion
[ 11005 11000 10999 10996 ] final   80.12 input  -57.11 | X-H torsion

> <Gold.Protein.ActiveResidues>
 VAL166  LYS551  ARG553  GLY616  TRP617  ASP618  TYR619  PRO620  LYS621  CYS622 
 ASP623  PHE694  ASN695  SER759  ASP760  ASP761  ALA762  ILE779  LEU786  VAL792 
 PHE793  MET794  SER795  GLU796  ALA797  LYS798  CYS799  TRP800  GLU811  SER814 

> <Gold.Protein.RotatedAtoms>
  152.3858  133.6609  159.6197 H   0  0  0  0  0  0  0  0  0  0  0  0  # atno 6907 bound_to 6896
  150.7777  133.9038  159.3358 H   0  0  0  0  0  0  0  0  0  0  0  0  # atno 6908 bound_to 6896
  151.6834  135.0959  160.0271 H   0  0  0  0  0  0  0  0  0  0  0  0  # atno 6909 bound_to 6896
  144.7573  139.8236  143.6345 H   0  0  0  0  0  0  0  0  0  0  0  0  # atno 7974 bound_to 7965
  156.2955  140.2297  156.4674 H   0  0  0  0  0  0  0  0  0  0  0  0  # atno 8008 bound_to 7997
  154.7965  140.0451  157.1261 H   0  0  0  0  0  0  0  0  0  0  0  0  # atno 8009 bound_to 7997
  154.9583  140.3051  155.5046 H   0  0  0  0  0  0  0  0  0  0  0  0  # atno 8010 bound_to 7997
  139.4933  144.3983  151.9439 H   0  0  0  0  0  0  0  0  0  0  0  0  # atno 10167 bound_to 10162
  155.9985  130.4809  150.4906 H   0  0  0  0  0  0  0  0  0  0  0  0  # atno 10718 bound_to 10713
  154.8755  135.3859  154.4102 H   0  0  0  0  0  0  0  0  0  0  0  0  # atno 10763 bound_to 10752
  153.4816  135.7030  153.5940 H   0  0  0  0  0  0  0  0  0  0  0  0  # atno 10764 bound_to 10752
  153.4352  135.3869  155.2162 H   0  0  0  0  0  0  0  0  0  0  0  0  # atno 10765 bound_to 10752
  139.9146  134.7895  156.1867 H   0  0  0  0  0  0  0  0  0  0  0  0  # atno 11005 bound_to 11000
  146.1597  139.4708  142.9996 LP  0  0  0  0  0  0  0  0  0  0  0  0  # atno 17320 bound_to 7965
  145.6736  141.0210  143.1644 LP  0  0  0  0  0  0  0  0  0  0  0  0  # atno 17321 bound_to 7965
  140.3421  144.3191  150.5965 LP  0  0  0  0  0  0  0  0  0  0  0  0  # atno 17342 bound_to 10162
  140.5557  143.2199  151.7852 LP  0  0  0  0  0  0  0  0  0  0  0  0  # atno 17343 bound_to 10162
  157.2901  131.0624  151.2139 LP  0  0  0  0  0  0  0  0  0  0  0  0  # atno 17370 bound_to 10713
  157.3155  130.6911  149.6239 LP  0  0  0  0  0  0  0  0  0  0  0  0  # atno 17371 bound_to 10713
  141.0609  133.6842  156.1950 LP  0  0  0  0  0  0  0  0  0  0  0  0  # atno 17394 bound_to 11000
  140.6663  134.4915  157.5585 LP  0  0  0  0  0  0  0  0  0  0  0  0  # atno 17395 bound_to 11000

$$$$
