AV-unprocessed.smi:1514|AV-procd|sdf|6116|dock1
  -GOLD-   22720 6253D 1   1.00000     0.00000
 Structure written by MMmdl.
 47 48  0  0  0  0  0  0  0  0  1 V2000
  143.6984  135.8764  152.1519 C   0  0  0  0  0  0  0  0  0  0  0  0
  145.0604  136.4691  151.7635 C   0  0  0  0  0  0  0  0  0  0  0  0
  145.3909  137.7333  152.4181 N   0  0  0  0  0  0  0  0  0  0  0  0
  146.5326  138.3761  151.7677 C   0  0  0  0  0  0  0  0  0  0  0  0
  146.8843  139.7204  152.4315 C   0  0  0  0  0  0  0  0  0  0  0  0
  147.2013  139.5529  153.8523 N   0  0  0  0  0  0  0  0  0  0  0  0
  147.5257  140.8187  154.5064 C   0  0  0  0  0  0  0  0  0  0  0  0
  148.9496  141.3364  154.2472 C   0  0  0  0  0  0  0  0  0  0  0  0
  149.3909  142.1716  155.3550 N   0  0  0  0  0  0  0  0  0  0  0  0
  150.2966  141.8012  156.2699 C   0  0  0  0  0  0  0  0  0  0  0  0
  150.8608  140.7070  156.2597 O   0  0  0  0  0  0  0  0  0  0  0  0
  150.4961  142.7751  157.1752 N   0  0  0  0  0  0  0  0  0  0  0  0
  151.2997  142.7658  158.2717 C   0  0  0  0  0  0  0  0  0  0  0  0
  151.9640  141.7154  158.8440 C   0  0  0  0  0  0  0  0  0  0  0  0
  152.6192  142.3259  159.9529 C   0  0  0  0  0  0  0  0  0  0  0  0
  153.5065  141.6776  160.9742 C   0  0  0  0  0  0  0  0  0  0  0  0
  152.3745  143.6286  160.0391 N   0  0  0  0  0  0  0  0  0  0  0  0
  151.5559  143.9052  159.0012 N   0  0  0  0  0  0  0  0  0  0  0  0
  151.0813  145.2592  158.7920 C   0  0  0  0  0  0  0  0  0  0  0  0
  146.0602  138.9078  154.5022 C   0  0  0  0  0  0  0  0  0  0  0  0
  145.7097  137.5636  153.8378 C   0  0  0  0  0  0  0  0  0  0  0  0
  143.4781  134.9968  151.5470 H   0  0  0  0  0  0  0  0  0  0  0  0
  142.8960  136.5970  151.9917 H   0  0  0  0  0  0  0  0  0  0  0  0
  143.6711  135.5653  153.1960 H   0  0  0  0  0  0  0  0  0  0  0  0
  145.8451  135.7355  151.9539 H   0  0  0  0  0  0  0  0  0  0  0  0
  145.0516  136.6252  150.6839 H   0  0  0  0  0  0  0  0  0  0  0  0
  147.4008  137.7158  151.7971 H   0  0  0  0  0  0  0  0  0  0  0  0
  146.3079  138.5474  150.7145 H   0  0  0  0  0  0  0  0  0  0  0  0
  147.7335  140.1530  151.9039 H   0  0  0  0  0  0  0  0  0  0  0  0
  146.0530  140.4172  152.3119 H   0  0  0  0  0  0  0  0  0  0  0  0
  146.8004  141.5801  154.2145 H   0  0  0  0  0  0  0  0  0  0  0  0
  147.4111  140.6932  155.5841 H   0  0  0  0  0  0  0  0  0  0  0  0
  149.6355  140.4960  154.1280 H   0  0  0  0  0  0  0  0  0  0  0  0
  148.9927  141.9254  153.3307 H   0  0  0  0  0  0  0  0  0  0  0  0
  148.9740  143.0877  155.4325 H   0  0  0  0  0  0  0  0  0  0  0  0
  149.9693  143.6248  157.0366 H   0  0  0  0  0  0  0  0  0  0  0  0
  151.9883  140.6799  158.5400 H   0  0  0  0  0  0  0  0  0  0  0  0
  153.5093  140.5933  160.8624 H   0  0  0  0  0  0  0  0  0  0  0  0
  153.1722  141.9046  161.9869 H   0  0  0  0  0  0  0  0  0  0  0  0
  154.5354  142.0246  160.8764 H   0  0  0  0  0  0  0  0  0  0  0  0
  149.9930  145.2608  158.7281 H   0  0  0  0  0  0  0  0  0  0  0  0
  151.4941  145.6511  157.8623 H   0  0  0  0  0  0  0  0  0  0  0  0
  151.3869  145.9054  159.6161 H   0  0  0  0  0  0  0  0  0  0  0  0
  146.2856  138.7354  155.5552 H   0  0  0  0  0  0  0  0  0  0  0  0
  145.1910  139.5670  154.4740 H   0  0  0  0  0  0  0  0  0  0  0  0
  144.8612  137.1290  154.3653 H   0  0  0  0  0  0  0  0  0  0  0  0
  146.5419  136.8676  153.9554 H   0  0  0  0  0  0  0  0  0  0  0  0
  1  2  1  0  0  0  0
  1 22  1  0  0  0  0
  1 23  1  0  0  0  0
  1 24  1  0  0  0  0
  2  3  1  0  0  0  0
  2 25  1  0  0  0  0
  2 26  1  0  0  0  0
  3 21  1  0  0  0  0
  3  4  1  0  0  0  0
  4  5  1  0  0  0  0
  4 27  1  0  0  0  0
  4 28  1  0  0  0  0
  5  6  1  0  0  0  0
  5 29  1  0  0  0  0
  5 30  1  0  0  0  0
  6  7  1  0  0  0  0
  6 20  1  0  0  0  0
  7  8  1  0  0  0  0
  7 31  1  0  0  0  0
  7 32  1  0  0  0  0
  8  9  1  0  0  0  0
  8 33  1  0  0  0  0
  8 34  1  0  0  0  0
  9 10  1  0  0  0  0
  9 35  1  0  0  0  0
 10 11  2  0  0  0  0
 10 12  1  0  0  0  0
 12 13  1  0  0  0  0
 12 36  1  0  0  0  0
 13 18  1  0  0  0  0
 13 14  2  0  0  0  0
 14 15  1  0  0  0  0
 14 37  1  0  0  0  0
 15 16  1  0  0  0  0
 15 17  2  0  0  0  0
 16 38  1  0  0  0  0
 16 39  1  0  0  0  0
 16 40  1  0  0  0  0
 17 18  1  0  0  0  0
 18 19  1  0  0  0  0
 19 41  1  0  0  0  0
 19 42  1  0  0  0  0
 19 43  1  0  0  0  0
 20 21  1  0  0  0  0
 20 44  1  0  0  0  0
 20 45  1  0  0  0  0
 21 46  1  0  0  0  0
 21 47  1  0  0  0  0
M  END
> <s_m_source_file>
AV-unprocessed.smi

> <i_m_source_file_index>
1514

> <i_lp_mmshare_version>
43012

> <i_f3d_flags>
0

> <s_epik_input>
W0NIM11bQ0gyXU4xW0NIMl1bQ0gyXU4oW0NIMl1bQ0gyXTEpW0NIMl1bQ0gyXVtOSF1DKD1PKVtOSF1jMltjSF1jKFtDSDNdKW5uMltDSDNd

> <s_epik_cmdline>
J2VwaWtfcHl0aG9uJywgJy1waCcsICc3LjAnLCAnLXRuJywgJzgnLCAnLW1hJywgJzIwMCcsICctbWV0YWxfYmluZGluZycsICctaW1hZScsICc8aW5maWxlLm1hZT4nLCAnLW9tYWUnLCAnPG91dGZpbGUubWFlPic=

> <r_lp_tautomer_probability>
1

> <r_epik_Ionization_Penalty>
2.12169

> <r_epik_Ionization_Penalty_Charging>
0

> <r_epik_Ionization_Penalty_Neutral>
2.12169

> <r_epik_State_Penalty>
1.63644

> <r_epik_Charging_Adjusted_Penalty>
1.63644

> <i_epik_Tot_Q>
0

> <i_epik_Tot_abs_Q>
0

> <r_epik_Metal_State_Penalty>
1.63644

> <b_epik_Metal_Only>
0

> <s_lp_Force_Field>
OPLS_2005

> <r_lp_Energy>
34.6539

> <b_lp_Chiralities_Consistent>
1

> <s_lp_Variant>
AV-unprocessed.smi:1514-3

> <Gold.Version>
5.8.1

> <Gold.Id.Protein>
6NUR|6NUR_protein|mol2

> <Gold.PLP.Fitness>
45.3163

> <Gold.PLP.PLP>
-40.4558

> <Gold.PLP.part.hbond>
-2.0000

> <Gold.PLP.part.metal>
0.0000

> <Gold.PLP.part.buried>
-2.7496

> <Gold.PLP.part.nonpolar>
-36.5142

> <Gold.PLP.part.repulsive>
0.6607

> <Gold.PLP.ligand.clash>
0.0000

> <Gold.PLP.ligand.torsion>
0.5157

> <Gold.PLP.Chemscore.Hbond>
1.9040

> <Gold.PLP.Chemscore.CHOScore>
0.0000

> <Gold.PLP.Chemscore.Metal>
0.0000

> <Gold.Chemscore.Hbonds>
donor molecule, donor type, donor heavy atom, donor atom, acceptor molecule, acceptor atom, score
      L1  H     9    35       P1  8028  1.00
      L1  H    12    36       P1  8028  0.86

> <Gold.PLP.Chemscore.Internal.Correction>
0.1800

> <Gold.Rescore>
     Score         DG    S(hbond)    S(metal)    S(lipo)     H(rot)  DE(clash)    DE(int)     intcor
     16.07     -17.70       1.90        0.00      86.30       1.64       0.04       1.58       ----

> <Gold.Chemscore.Fitness>
16.0749

> <Gold.Chemscore.DG>
-17.7033

> <Gold.Chemscore.ZeroCoef>
-5.4800

> <Gold.Chemscore.Hbond>
1.8959

> <Gold.Chemscore.Metal>
0.0000

> <Gold.Chemscore.Lipo>
86.3036

> <Gold.Chemscore.Internal_Hbond>
0.0000

> <Gold.Chemscore.DEClash>
0.0445

> <Gold.Chemscore.DEInternal>
1.5839

> <Gold.Chemscore.Rot>
1.6432

> <Gold.Chemscore.Internal.Correction>
   9.000000E+99

> <Gold.Chemscore.Hbonds>
donor molecule, donor type, donor heavy atom, donor atom, acceptor molecule, acceptor atom, score
      L1  H     9    35       P1  8028  0.99
      L1  H    12    36       P1  8028  0.78

> <Gold.Chemscore.Hbond.Weighted>
-6.3323

> <Gold.Chemscore.Metal.Weighted>
-0.0000

> <Gold.Chemscore.Lipo.Weighted>
-10.0975

> <Gold.Chemscore.Internal_Hbond.Weighted>
0.0000

> <Gold.Chemscore.DEClash.Weighted>
0.0445

> <Gold.Chemscore.DEInternal.Weighted>
1.5839

> <Gold.Chemscore.Rot.Weighted>
4.2065

> <Gold.Chemscore.Internal.Correction.Weighted>
   9.000000E+99

> <Gold.Protein.RotatedTorsions>
[ 6907 6896 6895 6894 ] final  -84.61 input  -60.11 | X-H torsion
[ 7974 7965 7964 7962 ] final -124.51 input  175.53 | X-H torsion
[ 8008 7997 7996 7995 ] final  155.81 input   59.86 | X-H torsion
[ 10167 10162 10161 10158 ] final   19.99 input  -65.29 | X-H torsion
[ 10718 10713 10712 10709 ] final  -58.39 input   66.30 | X-H torsion
[ 10763 10752 10751 10750 ] final -111.93 input  -60.55 | X-H torsion
[ 11005 11000 10999 10996 ] final   98.16 input  -57.11 | X-H torsion

> <Gold.Protein.ActiveResidues>
 VAL166  LYS551  ARG553  GLY616  TRP617  ASP618  TYR619  PRO620  LYS621  CYS622 
 ASP623  PHE694  ASN695  SER759  ASP760  ASP761  ALA762  ILE779  LEU786  VAL792 
 PHE793  MET794  SER795  GLU796  ALA797  LYS798  CYS799  TRP800  GLU811  SER814 

> <Gold.Protein.RotatedAtoms>
  150.6875  134.3332  159.4835 H   0  0  0  0  0  0  0  0  0  0  0  0  # atno 6907 bound_to 6896
  152.1194  134.9214  160.0573 H   0  0  0  0  0  0  0  0  0  0  0  0  # atno 6908 bound_to 6896
  152.0426  133.3949  159.4380 H   0  0  0  0  0  0  0  0  0  0  0  0  # atno 6909 bound_to 6896
  145.0073  140.7875  143.4459 H   0  0  0  0  0  0  0  0  0  0  0  0  # atno 7974 bound_to 7965
  156.2458  140.1929  156.6858 H   0  0  0  0  0  0  0  0  0  0  0  0  # atno 8008 bound_to 7997
  154.6288  140.0598  156.9733 H   0  0  0  0  0  0  0  0  0  0  0  0  # atno 8009 bound_to 7997
  155.1744  140.3271  155.4389 H   0  0  0  0  0  0  0  0  0  0  0  0  # atno 8010 bound_to 7997
  140.5537  143.9462  150.6595 H   0  0  0  0  0  0  0  0  0  0  0  0  # atno 10167 bound_to 10162
  156.1139  130.4172  150.0571 H   0  0  0  0  0  0  0  0  0  0  0  0  # atno 10718 bound_to 10713
  154.8324  135.4509  154.1115 H   0  0  0  0  0  0  0  0  0  0  0  0  # atno 10763 bound_to 10752
  153.2376  135.6912  153.7826 H   0  0  0  0  0  0  0  0  0  0  0  0  # atno 10764 bound_to 10752
  153.7185  135.3345  155.3238 H   0  0  0  0  0  0  0  0  0  0  0  0  # atno 10765 bound_to 10752
  139.8773  134.9035  156.4414 H   0  0  0  0  0  0  0  0  0  0  0  0  # atno 11005 bound_to 11000
  145.2070  139.2223  143.5163 LP  0  0  0  0  0  0  0  0  0  0  0  0  # atno 17320 bound_to 7965
  146.3463  140.1900  142.8589 LP  0  0  0  0  0  0  0  0  0  0  0  0  # atno 17321 bound_to 7965
  140.2895  143.3334  152.1076 LP  0  0  0  0  0  0  0  0  0  0  0  0  # atno 17342 bound_to 10162
  139.5039  144.6764  151.6118 LP  0  0  0  0  0  0  0  0  0  0  0  0  # atno 17343 bound_to 10162
  156.8527  130.9464  151.3624 LP  0  0  0  0  0  0  0  0  0  0  0  0  # atno 17370 bound_to 10713
  157.6321  130.8737  149.9293 LP  0  0  0  0  0  0  0  0  0  0  0  0  # atno 17371 bound_to 10713
  140.8997  133.7789  155.9665 LP  0  0  0  0  0  0  0  0  0  0  0  0  # atno 17394 bound_to 11000
  140.8665  134.2778  157.5211 LP  0  0  0  0  0  0  0  0  0  0  0  0  # atno 17395 bound_to 11000

$$$$
