AV-unprocessed.smi:158|AV-procd|sdf|1328|dock6
  -GOLD-   2262019 23D 1   1.00000     0.00000
 Structure written by MMmdl.
 31 33  0  0  0  0  0  0  0  0  1 V2000
  153.7066  134.5213  157.6610 N   0  0  0  0  0  0  0  0  0  0  0  0
  153.5798  135.8323  157.9090 C   0  0  0  0  0  0  0  0  0  0  0  0
  154.2371  136.3538  158.9713 N   0  0  0  0  0  0  0  0  0  0  0  0
  154.1390  137.6591  159.2536 C   0  0  0  0  0  0  0  0  0  0  0  0
  155.0193  138.2131  160.6290 Cl  0  0  0  0  0  0  0  0  0  0  0  0
  153.4346  138.5824  158.5897 N   0  0  0  0  0  0  0  0  0  0  0  0
  152.7708  138.0580  157.5196 C   0  0  0  0  0  0  0  0  0  0  0  0
  152.7916  136.6981  157.1123 C   0  0  0  0  0  0  0  0  0  0  0  0
  152.0029  136.5317  155.9821 N   0  0  0  0  0  0  0  0  0  0  0  0
  151.5448  137.7312  155.7385 C   0  0  0  0  0  0  0  0  0  0  0  0
  151.9520  138.7088  156.6236 N   0  0  0  0  0  0  0  0  0  0  0  0
  151.6298  140.1702  156.6448 C   0  0  1  0  0  0  0  0  0  0  0  0
  150.9804  140.4985  155.4524 O   0  0  0  0  0  0  0  0  0  0  0  0
  149.5733  140.5440  155.6718 C   0  0  2  0  0  0  0  0  0  0  0  0
  148.8574  141.3208  154.5537 C   0  0  0  0  0  0  0  0  0  0  0  0
  149.4755  141.0565  153.3124 O   0  0  0  0  0  0  0  0  0  0  0  0
  149.4892  141.1637  157.0721 C   0  0  2  0  0  0  0  0  0  0  0  0
  149.6711  142.5683  157.0116 O   0  0  0  0  0  0  0  0  0  0  0  0
  150.6438  140.4731  157.7845 C   0  0  2  0  0  0  0  0  0  0  0  0
  151.2100  141.2275  158.7283 F   0  0  0  0  0  0  0  0  0  0  0  0
  152.5941  140.6732  156.7264 H   0  0  0  0  0  0  0  0  0  0  0  0
  149.1853  139.5248  155.7260 H   0  0  0  0  0  0  0  0  0  0  0  0
  148.5332  140.9574  157.5543 H   0  0  0  0  0  0  0  0  0  0  0  0
  150.3085  139.5462  158.2530 H   0  0  0  0  0  0  0  0  0  0  0  0
  153.2257  134.1107  156.8734 H   0  0  0  0  0  0  0  0  0  0  0  0
  154.2832  133.9474  158.2591 H   0  0  0  0  0  0  0  0  0  0  0  0
  150.8930  137.9300  154.8999 H   0  0  0  0  0  0  0  0  0  0  0  0
  147.8189  140.9974  154.4765 H   0  0  0  0  0  0  0  0  0  0  0  0
  148.8526  142.3931  154.7521 H   0  0  0  0  0  0  0  0  0  0  0  0
  149.9960  140.2722  153.3963 H   0  0  0  0  0  0  0  0  0  0  0  0
  148.9397  142.9482  156.5495 H   0  0  0  0  0  0  0  0  0  0  0  0
  1  2  1  0  0  0  0
  1 25  1  0  0  0  0
  1 26  1  0  0  0  0
  2  8  1  0  0  0  0
  2  3  2  0  0  0  0
  3  4  1  0  0  0  0
  4  5  1  0  0  0  0
  4  6  2  0  0  0  0
  6  7  1  0  0  0  0
  7 11  1  0  0  0  0
  7  8  2  0  0  0  0
  8  9  1  0  0  0  0
  9 10  2  0  0  0  0
 10 11  1  0  0  0  0
 10 27  1  0  0  0  0
 11 12  1  0  0  0  0
 12 21  1  0  0  0  0
 12 19  1  0  0  0  0
 12 13  1  0  0  0  0
 13 14  1  0  0  0  0
 14 22  1  0  0  0  0
 14 15  1  0  0  0  0
 14 17  1  0  0  0  0
 15 16  1  0  0  0  0
 15 28  1  0  0  0  0
 15 29  1  0  0  0  0
 16 30  1  0  0  0  0
 17 23  1  0  0  0  0
 17 18  1  0  0  0  0
 17 19  1  0  0  0  0
 18 31  1  0  0  0  0
 19 24  1  0  0  0  0
 19 20  1  0  0  0  0
M  END
> <s_m_source_file>
AV-unprocessed.smi

> <i_m_source_file_index>
158

> <i_lp_mmshare_version>
43012

> <i_f3d_flags>
0

> <s_epik_input>
Q2xjKG4xKW5jKFtOSDJdKWMoYzEyKW5bY0hdbjJbQ0BASF0zT1tDQEhdKFtDSDJdW09IXSlbQ0BASF0oW09IXSlbQ0BASF0zRg==

> <s_epik_cmdline>
J2VwaWtfcHl0aG9uJywgJy1waCcsICc3LjAnLCAnLXRuJywgJzgnLCAnLW1hJywgJzIwMCcsICctbWV0YWxfYmluZGluZycsICctaW1hZScsICc8aW5maWxlLm1hZT4nLCAnLW9tYWUnLCAnPG91dGZpbGUubWFlPic=

> <r_lp_tautomer_probability>
1

> <r_epik_Ionization_Penalty>
6.51543e-05

> <r_epik_Ionization_Penalty_Charging>
0

> <r_epik_Ionization_Penalty_Neutral>
6.51543e-05

> <r_epik_State_Penalty>
-0

> <r_epik_Charging_Adjusted_Penalty>
0

> <i_epik_Tot_Q>
0

> <i_epik_Tot_abs_Q>
0

> <r_epik_Metal_State_Penalty>
-0

> <b_epik_Metal_Only>
0

> <s_epik_Chemistry_Notes>
This compound contains an acetal/aminal-like group ( X-CH(R)-Y where X, Y are N, S, or O) that may be acid/base labile, releasing an aldehyde.

> <s_lp_Force_Field>
OPLS_2005

> <r_lp_Energy>
37.0626

> <b_lp_Chiralities_Consistent>
1

> <s_lp_Variant>
AV-unprocessed.smi:158-6

> <Gold.Version>
5.8.1

> <Gold.Id.Protein>
6NUR|6NUR_protein|mol2

> <Gold.PLP.Fitness>
38.5074

> <Gold.PLP.PLP>
-25.8137

> <Gold.PLP.part.hbond>
-6.1294

> <Gold.PLP.part.metal>
0.0000

> <Gold.PLP.part.buried>
-5.2609

> <Gold.PLP.part.nonpolar>
-15.1046

> <Gold.PLP.part.repulsive>
0.2204

> <Gold.PLP.ligand.clash>
0.0000

> <Gold.PLP.ligand.torsion>
0.5387

> <Gold.PLP.Chemscore.Hbond>
4.5840

> <Gold.PLP.Chemscore.CHOScore>
0.0000

> <Gold.PLP.Chemscore.Metal>
0.0000

> <Gold.Chemscore.Hbonds>
donor molecule, donor type, donor heavy atom, donor atom, acceptor molecule, acceptor atom, score
      L1  H    18    31       P1  8028  0.54
      P1  H  7989  7998       L1    13  0.81
      P1  H  7997  8008       L1     6  0.02
      P1  H  8011  8017       L1    16  1.00
      P1  H 10752 10764       L1     9  0.80

> <Gold.PLP.Chemscore.Internal.Correction>
0.0190

> <Gold.Rescore>
     Score         DG    S(hbond)    S(metal)    S(lipo)     H(rot)  DE(clash)    DE(int)     intcor
     12.37     -13.50       3.68        0.00      31.71       3.12       0.06       1.07       ----

> <Gold.Chemscore.Fitness>
12.3711

> <Gold.Chemscore.DG>
-13.5028

> <Gold.Chemscore.ZeroCoef>
-5.4800

> <Gold.Chemscore.Hbond>
3.6850

> <Gold.Chemscore.Metal>
0.0000

> <Gold.Chemscore.Lipo>
31.7089

> <Gold.Chemscore.Internal_Hbond>
0.0000

> <Gold.Chemscore.DEClash>
0.0610

> <Gold.Chemscore.DEInternal>
1.0707

> <Gold.Chemscore.Rot>
3.1230

> <Gold.Chemscore.Internal.Correction>
   9.000000E+99

> <Gold.Chemscore.Hbonds>
donor molecule, donor type, donor heavy atom, donor atom, acceptor molecule, acceptor atom, score
      L1  H    18    31       P1  8028  0.52
      P1  H  7989  7998       L1    13  0.72
      P1  H  8011  8017       L1    16  0.92
      P1  H 10752 10764       L1     9  0.12

> <Gold.Chemscore.Hbond.Weighted>
-12.3078

> <Gold.Chemscore.Metal.Weighted>
-0.0000

> <Gold.Chemscore.Lipo.Weighted>
-3.7099

> <Gold.Chemscore.Internal_Hbond.Weighted>
0.0000

> <Gold.Chemscore.DEClash.Weighted>
0.0610

> <Gold.Chemscore.DEInternal.Weighted>
1.0707

> <Gold.Chemscore.Rot.Weighted>
7.9950

> <Gold.Chemscore.Internal.Correction.Weighted>
   9.000000E+99

> <Gold.Protein.RotatedTorsions>
[ 6907 6896 6895 6894 ] final -169.67 input  -60.11 | X-H torsion
[ 7974 7965 7964 7962 ] final  -82.75 input  175.53 | X-H torsion
[ 8008 7997 7996 7995 ] final -102.65 input   59.86 | X-H torsion
[ 10167 10162 10161 10158 ] final  156.65 input  -65.29 | X-H torsion
[ 10718 10713 10712 10709 ] final    0.62 input   66.30 | X-H torsion
[ 10763 10752 10751 10750 ] final  -27.40 input  -60.55 | X-H torsion
[ 11005 11000 10999 10996 ] final   66.94 input  -57.11 | X-H torsion

> <Gold.Protein.ActiveResidues>
 VAL166  LYS551  ARG553  GLY616  TRP617  ASP618  TYR619  PRO620  LYS621  CYS622 
 ASP623  PHE694  ASN695  SER759  ASP760  ASP761  ALA762  ILE779  LEU786  VAL792 
 PHE793  MET794  SER795  GLU796  ALA797  LYS798  CYS799  TRP800  GLU811  SER814 

> <Gold.Protein.RotatedAtoms>
  151.4954  133.3516  159.2859 H   0  0  0  0  0  0  0  0  0  0  0  0  # atno 6907 bound_to 6896
  150.8807  134.8200  159.7234 H   0  0  0  0  0  0  0  0  0  0  0  0  # atno 6908 bound_to 6896
  152.4761  134.4851  159.9730 H   0  0  0  0  0  0  0  0  0  0  0  0  # atno 6909 bound_to 6896
  145.5292  140.9523  143.1612 H   0  0  0  0  0  0  0  0  0  0  0  0  # atno 7974 bound_to 7965
  154.8597  140.0427  157.1657 H   0  0  0  0  0  0  0  0  0  0  0  0  # atno 8008 bound_to 7997
  154.8853  140.2978  155.5381 H   0  0  0  0  0  0  0  0  0  0  0  0  # atno 8009 bound_to 7997
  156.2998  140.2403  156.3861 H   0  0  0  0  0  0  0  0  0  0  0  0  # atno 8010 bound_to 7997
  139.4821  144.4990  151.8197 H   0  0  0  0  0  0  0  0  0  0  0  0  # atno 10167 bound_to 10162
  156.8362  130.5505  149.5682 H   0  0  0  0  0  0  0  0  0  0  0  0  # atno 10718 bound_to 10713
  153.7315  135.6938  153.4988 H   0  0  0  0  0  0  0  0  0  0  0  0  # atno 10763 bound_to 10752
  153.2133  135.4395  155.0403 H   0  0  0  0  0  0  0  0  0  0  0  0  # atno 10764 bound_to 10752
  154.8251  135.3442  154.6845 H   0  0  0  0  0  0  0  0  0  0  0  0  # atno 10765 bound_to 10752
  139.9801  134.6758  156.0278 H   0  0  0  0  0  0  0  0  0  0  0  0  # atno 11005 bound_to 11000
  144.7635  139.6900  143.7224 LP  0  0  0  0  0  0  0  0  0  0  0  0  # atno 17320 bound_to 7965
  146.2055  139.5377  142.9715 LP  0  0  0  0  0  0  0  0  0  0  0  0  # atno 17321 bound_to 7965
  140.4481  144.1893  150.5895 LP  0  0  0  0  0  0  0  0  0  0  0  0  # atno 17342 bound_to 10162
  140.4613  143.2447  151.9215 LP  0  0  0  0  0  0  0  0  0  0  0  0  # atno 17343 bound_to 10162
  156.0906  130.5893  150.9726 LP  0  0  0  0  0  0  0  0  0  0  0  0  # atno 17370 bound_to 10713
  157.6380  131.0913  150.8308 LP  0  0  0  0  0  0  0  0  0  0  0  0  # atno 17371 bound_to 10713
  141.1474  133.6554  156.3909 LP  0  0  0  0  0  0  0  0  0  0  0  0  # atno 17394 bound_to 11000
  140.5114  134.6392  157.5285 LP  0  0  0  0  0  0  0  0  0  0  0  0  # atno 17395 bound_to 11000

$$$$
