AV-unprocessed.smi:1235|AV-procd|sdf|5178|dock2
  -GOLD-   22720 4253D 1   1.00000     0.00000
 Structure written by MMmdl.
 50 51  0  0  0  0  0  0  0  0  2 V2000
  154.4461  136.0559  157.7508 C   0  0  0  0  0  0  0  0  0  0  0  0
  153.8030  136.4408  156.5484 O   0  0  0  0  0  0  0  0  0  0  0  0
  153.8222  137.8438  156.3484 C   0  0  0  0  0  0  0  0  0  0  0  0
  153.2383  138.1564  154.9622 C   0  0  0  0  0  0  0  0  0  0  0  0
  151.7964  137.8933  154.9136 N   0  0  0  0  0  0  0  0  0  0  0  0
  151.4689  136.5489  154.8504 N   0  0  0  0  0  0  0  0  0  0  0  0
  150.2286  136.1845  154.7936 C   0  0  0  0  0  0  0  0  0  0  0  0
  149.8324  134.7500  154.7291 C   0  0  0  0  0  0  0  0  0  0  0  0
  150.4741  133.8708  155.3069 O   0  0  0  0  0  0  0  0  0  0  0  0
  148.7362  134.4836  153.9957 N   0  0  0  0  0  0  0  0  0  0  0  0
  148.1727  133.1544  153.7874 C   0  0  0  0  0  0  0  0  0  0  0  0
  147.9803  132.8538  152.2855 C   0  0  0  0  0  0  0  0  0  0  0  0
  146.5576  132.9278  151.8424 N   0  3  1  0  0  0  0  0  0  0  0  0
  146.2773  134.1888  151.0951 C   0  0  0  0  0  0  0  0  0  0  0  0
  144.7919  134.3335  150.7365 C   0  0  0  0  0  0  0  0  0  0  0  0
  144.3209  133.1356  149.9138 C   0  0  0  0  0  0  0  0  0  0  0  0
  144.6036  131.8497  150.6926 C   0  0  0  0  0  0  0  0  0  0  0  0
  146.0933  131.7194  151.0819 C   0  0  2  0  0  0  0  0  0  0  0  0
  146.2776  130.3987  151.8594 C   0  0  0  0  0  0  0  0  0  0  0  0
  149.1619  137.1714  154.7936 C   0  0  0  0  0  0  0  0  0  0  0  0
  149.4972  138.4787  154.8539 C   0  0  0  0  0  0  0  0  0  0  0  0
  150.8918  138.9186  154.9170 C   0  0  0  0  0  0  0  0  0  0  0  0
  151.2225  140.1029  154.9643 O   0  0  0  0  0  0  0  0  0  0  0  0
  154.4059  134.9719  157.8567 H   0  0  0  0  0  0  0  0  0  0  0  0
  153.9557  136.4969  158.6197 H   0  0  0  0  0  0  0  0  0  0  0  0
  155.4951  136.3554  157.7513 H   0  0  0  0  0  0  0  0  0  0  0  0
  153.2395  138.3378  157.1276 H   0  0  0  0  0  0  0  0  0  0  0  0
  154.8463  138.2150  156.4163 H   0  0  0  0  0  0  0  0  0  0  0  0
  153.4340  139.2013  154.7147 H   0  0  0  0  0  0  0  0  0  0  0  0
  153.7577  137.5758  154.1976 H   0  0  0  0  0  0  0  0  0  0  0  0
  148.2618  135.2591  153.5547 H   0  0  0  0  0  0  0  0  0  0  0  0
  148.8114  132.4011  154.2520 H   0  0  0  0  0  0  0  0  0  0  0  0
  147.2242  133.1341  154.3213 H   0  0  0  0  0  0  0  0  0  0  0  0
  148.5887  133.5267  151.6791 H   0  0  0  0  0  0  0  0  0  0  0  0
  148.3737  131.8548  152.1189 H   0  0  0  0  0  0  0  0  0  0  0  0
  146.5574  135.0591  151.6851 H   0  0  0  0  0  0  0  0  0  0  0  0
  146.8834  134.2157  150.1882 H   0  0  0  0  0  0  0  0  0  0  0  0
  144.1973  134.4155  151.6474 H   0  0  0  0  0  0  0  0  0  0  0  0
  144.6312  135.2552  150.1765 H   0  0  0  0  0  0  0  0  0  0  0  0
  143.2557  133.2204  149.6962 H   0  0  0  0  0  0  0  0  0  0  0  0
  144.8383  133.1134  148.9537 H   0  0  0  0  0  0  0  0  0  0  0  0
  143.9844  131.8276  151.5909 H   0  0  0  0  0  0  0  0  0  0  0  0
  144.2977  130.9939  150.0895 H   0  0  0  0  0  0  0  0  0  0  0  0
  146.6802  131.6563  150.1638 H   0  0  0  0  0  0  0  0  0  0  0  0
  145.7691  129.5766  151.3546 H   0  0  0  0  0  0  0  0  0  0  0  0
  145.8659  130.4676  152.8666 H   0  0  0  0  0  0  0  0  0  0  0  0
  147.3220  130.0986  151.9349 H   0  0  0  0  0  0  0  0  0  0  0  0
  148.1238  136.8761  154.7470 H   0  0  0  0  0  0  0  0  0  0  0  0
  148.7146  139.2231  154.8552 H   0  0  0  0  0  0  0  0  0  0  0  0
  145.9993  132.9581  152.6836 H   0  0  0  0  0  0  0  0  0  0  0  0
  1  2  1  0  0  0  0
  1 24  1  0  0  0  0
  1 25  1  0  0  0  0
  1 26  1  0  0  0  0
  2  3  1  0  0  0  0
  3  4  1  0  0  0  0
  3 27  1  0  0  0  0
  3 28  1  0  0  0  0
  4  5  1  0  0  0  0
  4 29  1  0  0  0  0
  4 30  1  0  0  0  0
  5 22  1  0  0  0  0
  5  6  1  0  0  0  0
  6  7  2  0  0  0  0
  7  8  1  0  0  0  0
  7 20  1  0  0  0  0
  8  9  2  0  0  0  0
  8 10  1  0  0  0  0
 10 11  1  0  0  0  0
 10 31  1  0  0  0  0
 11 12  1  0  0  0  0
 11 32  1  0  0  0  0
 11 33  1  0  0  0  0
 12 13  1  0  0  0  0
 12 34  1  0  0  0  0
 12 35  1  0  0  0  0
 13 18  1  0  0  0  0
 13 14  1  0  0  0  0
 13 50  1  0  0  0  0
 14 15  1  0  0  0  0
 14 36  1  0  0  0  0
 14 37  1  0  0  0  0
 15 16  1  0  0  0  0
 15 38  1  0  0  0  0
 15 39  1  0  0  0  0
 16 17  1  0  0  0  0
 16 40  1  0  0  0  0
 16 41  1  0  0  0  0
 17 18  1  0  0  0  0
 17 42  1  0  0  0  0
 17 43  1  0  0  0  0
 18 19  1  0  0  0  0
 18 44  1  0  0  0  0
 19 45  1  0  0  0  0
 19 46  1  0  0  0  0
 19 47  1  0  0  0  0
 20 21  2  0  0  0  0
 20 48  1  0  0  0  0
 21 22  1  0  0  0  0
 21 49  1  0  0  0  0
 22 23  2  0  0  0  0
M  CHG  1  13   1
M  END
> <s_m_source_file>
AV-unprocessed.smi

> <i_m_source_file_index>
1235

> <i_lp_mmshare_version>
43012

> <i_f3d_flags>
0

> <s_epik_input>
W0NIM11PW0NIMl1bQ0gyXW4xbmMoW2NIXVtjSF1jMT1PKUMoPU8pW05IXVtDSDJdW0NIMl1OMltDSDJdW0NIMl1bQ0gyXVtDSDJdW0NASF0yW0NIM10=

> <s_epik_cmdline>
J2VwaWtfcHl0aG9uJywgJy1waCcsICc3LjAnLCAnLXRuJywgJzgnLCAnLW1hJywgJzIwMCcsICctbWV0YWxfYmluZGluZycsICctaW1hZScsICc8aW5maWxlLm1hZT4nLCAnLW9tYWUnLCAnPG91dGZpbGUubWFlPic=

> <r_lp_tautomer_probability>
1

> <r_epik_Ionization_Penalty>
0.00271975

> <r_epik_Ionization_Penalty_Charging>
0.00271407

> <r_epik_Ionization_Penalty_Neutral>
5.6803e-06

> <r_epik_State_Penalty>
0.00189271

> <r_epik_Charging_Adjusted_Penalty>
0.00460678

> <i_epik_Tot_Q>
1

> <i_epik_Tot_abs_Q>
1

> <r_epik_Metal_State_Penalty>
-0

> <b_epik_Metal_Only>
0

> <s_lp_Force_Field>
OPLS_2005

> <r_lp_Energy>
40.1633

> <b_lp_Chiralities_Consistent>
1

> <s_lp_Variant>
AV-unprocessed.smi:1235-4

> <Gold.Version>
5.8.1

> <Gold.Id.Protein>
6NUR|6NUR_protein|mol2

> <Gold.PLP.Fitness>
43.8183

> <Gold.PLP.PLP>
-37.8097

> <Gold.PLP.part.hbond>
-4.0000

> <Gold.PLP.part.metal>
0.0000

> <Gold.PLP.part.buried>
-2.8825

> <Gold.PLP.part.nonpolar>
-31.8872

> <Gold.PLP.part.repulsive>
0.2476

> <Gold.PLP.ligand.clash>
0.0000

> <Gold.PLP.ligand.torsion>
1.7004

> <Gold.PLP.Chemscore.Hbond>
3.0450

> <Gold.PLP.Chemscore.CHOScore>
0.0000

> <Gold.PLP.Chemscore.Metal>
0.0000

> <Gold.Chemscore.Hbonds>
donor molecule, donor type, donor heavy atom, donor atom, acceptor molecule, acceptor atom, score
      L1  H    10    31       P1  7948  0.44
      P1  H  7989  7998       L1    23  1.00
      P1  H 10752 10763       L1     6  0.96
      P1  H 10752 10764       L1     2  0.74

> <Gold.PLP.Chemscore.Internal.Correction>
0.2742

> <Gold.Rescore>
     Score         DG    S(hbond)    S(metal)    S(lipo)     H(rot)  DE(clash)    DE(int)     intcor
     14.71     -18.95       2.41        0.00      90.09       2.00       1.35       2.89       ----

> <Gold.Chemscore.Fitness>
14.7145

> <Gold.Chemscore.DG>
-18.9549

> <Gold.Chemscore.ZeroCoef>
-5.4800

> <Gold.Chemscore.Hbond>
2.4131

> <Gold.Chemscore.Metal>
0.0000

> <Gold.Chemscore.Lipo>
90.0876

> <Gold.Chemscore.Internal_Hbond>
0.0000

> <Gold.Chemscore.DEClash>
1.3491

> <Gold.Chemscore.DEInternal>
2.8913

> <Gold.Chemscore.Rot>
2.0020

> <Gold.Chemscore.Internal.Correction>
   9.000000E+99

> <Gold.Chemscore.Hbonds>
donor molecule, donor type, donor heavy atom, donor atom, acceptor molecule, acceptor atom, score
      L1  H    10    31       P1  7948  0.41
      P1  H  7989  7998       L1    23  0.95
      P1  H 10752 10763       L1     6  0.51
      P1  H 10752 10764       L1     2  0.55

> <Gold.Chemscore.Hbond.Weighted>
-8.0598

> <Gold.Chemscore.Metal.Weighted>
-0.0000

> <Gold.Chemscore.Lipo.Weighted>
-10.5403

> <Gold.Chemscore.Internal_Hbond.Weighted>
0.0000

> <Gold.Chemscore.DEClash.Weighted>
1.3491

> <Gold.Chemscore.DEInternal.Weighted>
2.8913

> <Gold.Chemscore.Rot.Weighted>
5.1252

> <Gold.Chemscore.Internal.Correction.Weighted>
   9.000000E+99

> <Gold.Protein.RotatedTorsions>
[ 6907 6896 6895 6894 ] final  -54.72 input  -60.11 | X-H torsion
[ 7974 7965 7964 7962 ] final   50.69 input  175.53 | X-H torsion
[ 8008 7997 7996 7995 ] final -109.82 input   59.86 | X-H torsion
[ 10167 10162 10161 10158 ] final -101.43 input  -65.29 | X-H torsion
[ 10718 10713 10712 10709 ] final   71.39 input   66.30 | X-H torsion
[ 10763 10752 10751 10750 ] final   33.36 input  -60.55 | X-H torsion
[ 11005 11000 10999 10996 ] final  -84.65 input  -57.11 | X-H torsion

> <Gold.Protein.ActiveResidues>
 VAL166  LYS551  ARG553  GLY616  TRP617  ASP618  TYR619  PRO620  LYS621  CYS622 
 ASP623  PHE694  ASN695  SER759  ASP760  ASP761  ALA762  ILE779  LEU786  VAL792 
 PHE793  MET794  SER795  GLU796  ALA797  LYS798  CYS799  TRP800  GLU811  SER814 

> <Gold.Protein.RotatedAtoms>
  150.8314  134.7568  159.6856 H   0  0  0  0  0  0  0  0  0  0  0  0  # atno 6907 bound_to 6896
  152.4418  134.5573  159.9894 H   0  0  0  0  0  0  0  0  0  0  0  0  # atno 6908 bound_to 6896
  151.5733  133.3349  159.3030 H   0  0  0  0  0  0  0  0  0  0  0  0  # atno 6909 bound_to 6896
  145.9987  139.4415  143.0028 H   0  0  0  0  0  0  0  0  0  0  0  0  # atno 7974 bound_to 7965
  154.9651  140.0398  157.2208 H   0  0  0  0  0  0  0  0  0  0  0  0  # atno 8008 bound_to 7997
  154.7853  140.2826  155.6010 H   0  0  0  0  0  0  0  0  0  0  0  0  # atno 8009 bound_to 7997
  156.2942  140.2584  156.2687 H   0  0  0  0  0  0  0  0  0  0  0  0  # atno 8010 bound_to 7997
  140.2414  143.3536  152.0798 H   0  0  0  0  0  0  0  0  0  0  0  0  # atno 10167 bound_to 10162
  157.6449  130.9525  150.0782 H   0  0  0  0  0  0  0  0  0  0  0  0  # atno 10718 bound_to 10713
  153.0216  135.6389  154.1499 H   0  0  0  0  0  0  0  0  0  0  0  0  # atno 10763 bound_to 10752
  154.1233  135.2845  155.3204 H   0  0  0  0  0  0  0  0  0  0  0  0  # atno 10764 bound_to 10752
  154.6247  135.5513  153.7676 H   0  0  0  0  0  0  0  0  0  0  0  0  # atno 10765 bound_to 10752
  141.1648  133.7357  156.8899 H   0  0  0  0  0  0  0  0  0  0  0  0  # atno 11005 bound_to 11000
  145.7521  140.9968  143.1245 LP  0  0  0  0  0  0  0  0  0  0  0  0  # atno 17320 bound_to 7965
  144.6912  139.9227  143.7468 LP  0  0  0  0  0  0  0  0  0  0  0  0  # atno 17321 bound_to 7965
  139.5076  144.6835  151.5948 LP  0  0  0  0  0  0  0  0  0  0  0  0  # atno 17342 bound_to 10162
  140.6111  143.9435  150.6453 LP  0  0  0  0  0  0  0  0  0  0  0  0  # atno 17343 bound_to 10162
  156.1766  130.3648  149.9092 LP  0  0  0  0  0  0  0  0  0  0  0  0  # atno 17370 bound_to 10713
  156.7054  130.8949  151.3604 LP  0  0  0  0  0  0  0  0  0  0  0  0  # atno 17371 bound_to 10713
  140.1656  134.9135  157.2769 LP  0  0  0  0  0  0  0  0  0  0  0  0  # atno 17394 bound_to 11000
  140.2561  134.3626  155.7424 LP  0  0  0  0  0  0  0  0  0  0  0  0  # atno 17395 bound_to 11000

$$$$
