AV-unprocessed.smi:1331|AV-procd|sdf|5487|dock3
  -GOLD-   22720 5 63D 1   1.00000     0.00000
 Structure written by MMmdl.
 38 39  0  0  0  0  0  0  0  0  1 V2000
  151.2042  139.3369  155.3711 C   0  0  0  0  0  0  0  0  0  0  0  0
  150.1228  140.4044  155.5959 C   0  0  2  0  0  0  0  0  0  0  0  0
  149.5247  140.8988  154.2650 C   0  0  0  0  0  0  0  0  0  0  0  0
  148.2032  141.4774  154.4380 N   0  0  0  0  0  0  0  0  0  0  0  0
  147.3296  141.9201  153.4674 C   0  0  0  0  0  0  0  0  0  0  0  0
  146.2086  142.3693  154.1044 C   0  0  0  0  0  0  0  0  0  0  0  0
  146.4944  142.1569  155.4820 C   0  0  0  0  0  0  0  0  0  0  0  0
  147.6893  141.6240  155.6788 N   0  0  0  0  0  0  0  0  0  0  0  0
  150.6847  141.5292  156.3399 N   0  0  0  0  0  0  0  0  0  0  0  0
  151.0258  141.5150  157.6372 C   0  0  0  0  0  0  0  0  0  0  0  0
  150.9407  140.5135  158.3487 O   0  0  0  0  0  0  0  0  0  0  0  0
  151.5348  142.8395  158.2203 C   0  0  0  0  0  0  0  0  0  0  0  0
  151.8300  142.7064  159.7298 C   0  0  0  0  0  0  0  0  0  0  0  0
  152.3236  144.0366  160.3219 C   0  0  0  0  0  0  0  0  0  0  0  0
  151.3172  145.1686  160.0624 C   0  0  0  0  0  0  0  0  0  0  0  0
  151.0102  145.3063  158.5627 C   0  0  0  0  0  0  0  0  0  0  0  0
  150.5200  143.9754  157.9692 C   0  0  0  0  0  0  0  0  0  0  0  0
  150.8023  138.4802  154.8301 H   0  0  0  0  0  0  0  0  0  0  0  0
  151.5987  138.9695  156.3192 H   0  0  0  0  0  0  0  0  0  0  0  0
  152.0397  139.7336  154.7933 H   0  0  0  0  0  0  0  0  0  0  0  0
  149.3163  139.9508  156.1755 H   0  0  0  0  0  0  0  0  0  0  0  0
  150.1808  141.6338  153.7955 H   0  0  0  0  0  0  0  0  0  0  0  0
  149.4354  140.0690  153.5629 H   0  0  0  0  0  0  0  0  0  0  0  0
  147.5750  141.8756  152.4164 H   0  0  0  0  0  0  0  0  0  0  0  0
  145.3192  142.7850  153.6549 H   0  0  0  0  0  0  0  0  0  0  0  0
  145.8732  142.3727  156.3389 H   0  0  0  0  0  0  0  0  0  0  0  0
  150.7856  142.3990  155.8366 H   0  0  0  0  0  0  0  0  0  0  0  0
  152.4672  143.1003  157.7157 H   0  0  0  0  0  0  0  0  0  0  0  0
  150.9327  142.3889  160.2636 H   0  0  0  0  0  0  0  0  0  0  0  0
  152.5795  141.9322  159.8989 H   0  0  0  0  0  0  0  0  0  0  0  0
  152.4914  143.9268  161.3937 H   0  0  0  0  0  0  0  0  0  0  0  0
  153.2879  144.2967  159.8833 H   0  0  0  0  0  0  0  0  0  0  0  0
  150.3939  144.9675  160.6069 H   0  0  0  0  0  0  0  0  0  0  0  0
  151.7071  146.1098  160.4509 H   0  0  0  0  0  0  0  0  0  0  0  0
  150.2591  146.0812  158.4070 H   0  0  0  0  0  0  0  0  0  0  0  0
  151.9064  145.6337  158.0344 H   0  0  0  0  0  0  0  0  0  0  0  0
  150.3492  144.0954  156.8983 H   0  0  0  0  0  0  0  0  0  0  0  0
  149.5540  143.7216  158.4089 H   0  0  0  0  0  0  0  0  0  0  0  0
  1  2  1  0  0  0  0
  1 18  1  0  0  0  0
  1 19  1  0  0  0  0
  1 20  1  0  0  0  0
  2  3  1  0  0  0  0
  2  9  1  0  0  0  0
  2 21  1  0  0  0  0
  3  4  1  0  0  0  0
  3 22  1  0  0  0  0
  3 23  1  0  0  0  0
  4  8  1  0  0  0  0
  4  5  1  0  0  0  0
  5  6  2  0  0  0  0
  5 24  1  0  0  0  0
  6  7  1  0  0  0  0
  6 25  1  0  0  0  0
  7  8  2  0  0  0  0
  7 26  1  0  0  0  0
  9 10  1  0  0  0  0
  9 27  1  0  0  0  0
 10 11  2  0  0  0  0
 10 12  1  0  0  0  0
 12 17  1  0  0  0  0
 12 13  1  0  0  0  0
 12 28  1  0  0  0  0
 13 14  1  0  0  0  0
 13 29  1  0  0  0  0
 13 30  1  0  0  0  0
 14 15  1  0  0  0  0
 14 31  1  0  0  0  0
 14 32  1  0  0  0  0
 15 16  1  0  0  0  0
 15 33  1  0  0  0  0
 15 34  1  0  0  0  0
 16 17  1  0  0  0  0
 16 35  1  0  0  0  0
 16 36  1  0  0  0  0
 17 37  1  0  0  0  0
 17 38  1  0  0  0  0
M  END
> <s_m_source_file>
AV-unprocessed.smi

> <i_m_source_file_index>
1331

> <i_lp_mmshare_version>
43012

> <i_f3d_flags>
0

> <s_epik_input>
bjFbY0hdW2NIXVtjSF1uMVtDSDJdW0NAQEhdKFtDSDNdKVtOSF1DKD1PKVtDSF0yW0NIMl1bQ0gyXVtDSDJdW0NIMl1bQ0gyXTI=

> <s_epik_cmdline>
J2VwaWtfcHl0aG9uJywgJy1waCcsICc3LjAnLCAnLXRuJywgJzgnLCAnLW1hJywgJzIwMCcsICctbWV0YWxfYmluZGluZycsICctaW1hZScsICc8aW5maWxlLm1hZT4nLCAnLW9tYWUnLCAnPG91dGZpbGUubWFlPic=

> <r_lp_tautomer_probability>
1

> <r_epik_Ionization_Penalty>
0.000326658

> <r_epik_Ionization_Penalty_Charging>
0

> <r_epik_Ionization_Penalty_Neutral>
0.000326658

> <r_epik_State_Penalty>
-0

> <r_epik_Charging_Adjusted_Penalty>
0

> <i_epik_Tot_Q>
0

> <i_epik_Tot_abs_Q>
0

> <r_epik_Metal_State_Penalty>
-0

> <b_epik_Metal_Only>
0

> <s_lp_Force_Field>
OPLS_2005

> <r_lp_Energy>
10.6365

> <b_lp_Chiralities_Consistent>
1

> <s_lp_Variant>
AV-unprocessed.smi:1331-1

> <Gold.Version>
5.8.1

> <Gold.Id.Protein>
6NUR|6NUR_protein|mol2

> <Gold.PLP.Fitness>
38.7749

> <Gold.PLP.PLP>
-39.5982

> <Gold.PLP.part.hbond>
0.0000

> <Gold.PLP.part.metal>
0.0000

> <Gold.PLP.part.buried>
-4.6633

> <Gold.PLP.part.nonpolar>
-35.0045

> <Gold.PLP.part.repulsive>
0.2304

> <Gold.PLP.ligand.clash>
0.0000

> <Gold.PLP.ligand.torsion>
0.4309

> <Gold.PLP.Chemscore.Hbond>
0.0000

> <Gold.PLP.Chemscore.CHOScore>
0.0000

> <Gold.PLP.Chemscore.Metal>
0.0000

> <Gold.PLP.Chemscore.Internal.Correction>
0.0386

> <Gold.Rescore>
     Score         DG    S(hbond)    S(metal)    S(lipo)     H(rot)  DE(clash)    DE(int)     intcor
     13.30     -13.95       0.00        0.00     104.98       1.49       0.05       0.60       ----

> <Gold.Chemscore.Fitness>
13.2972

> <Gold.Chemscore.DG>
-13.9481

> <Gold.Chemscore.ZeroCoef>
-5.4800

> <Gold.Chemscore.Hbond>
0.0000

> <Gold.Chemscore.Metal>
0.0000

> <Gold.Chemscore.Lipo>
104.9824

> <Gold.Chemscore.Internal_Hbond>
0.0000

> <Gold.Chemscore.DEClash>
0.0477

> <Gold.Chemscore.DEInternal>
0.6031

> <Gold.Chemscore.Rot>
1.4902

> <Gold.Chemscore.Internal.Correction>
   9.000000E+99

> <Gold.Chemscore.Hbond.Weighted>
-0.0000

> <Gold.Chemscore.Metal.Weighted>
-0.0000

> <Gold.Chemscore.Lipo.Weighted>
-12.2829

> <Gold.Chemscore.Internal_Hbond.Weighted>
0.0000

> <Gold.Chemscore.DEClash.Weighted>
0.0477

> <Gold.Chemscore.DEInternal.Weighted>
0.6031

> <Gold.Chemscore.Rot.Weighted>
3.8149

> <Gold.Chemscore.Internal.Correction.Weighted>
   9.000000E+99

> <Gold.Protein.RotatedTorsions>
[ 6907 6896 6895 6894 ] final -120.64 input  -60.11 | X-H torsion
[ 7974 7965 7964 7962 ] final  -65.24 input  175.53 | X-H torsion
[ 8008 7997 7996 7995 ] final   56.26 input   59.86 | X-H torsion
[ 10167 10162 10161 10158 ] final  -25.58 input  -65.29 | X-H torsion
[ 10718 10713 10712 10709 ] final  147.91 input   66.30 | X-H torsion
[ 10763 10752 10751 10750 ] final  -10.10 input  -60.55 | X-H torsion
[ 11005 11000 10999 10996 ] final    3.29 input  -57.11 | X-H torsion

> <Gold.Protein.ActiveResidues>
 VAL166  LYS551  ARG553  GLY616  TRP617  ASP618  TYR619  PRO620  LYS621  CYS622 
 ASP623  PHE694  ASN695  SER759  ASP760  ASP761  ALA762  ILE779  LEU786  VAL792 
 PHE793  MET794  SER795  GLU796  ALA797  LYS798  CYS799  TRP800  GLU811  SER814 

> <Gold.Protein.RotatedAtoms>
  150.8411  133.7934  159.3060 H   0  0  0  0  0  0  0  0  0  0  0  0  # atno 6907 bound_to 6896
  151.5635  135.1063  159.9988 H   0  0  0  0  0  0  0  0  0  0  0  0  # atno 6908 bound_to 6896
  152.4475  133.7522  159.6756 H   0  0  0  0  0  0  0  0  0  0  0  0  # atno 6909 bound_to 6896
  145.7568  140.8881  143.0451 H   0  0  0  0  0  0  0  0  0  0  0  0  # atno 7974 bound_to 7965
  155.5145  140.3478  155.4395 H   0  0  0  0  0  0  0  0  0  0  0  0  # atno 8008 bound_to 7997
  156.0827  140.1390  156.9719 H   0  0  0  0  0  0  0  0  0  0  0  0  # atno 8009 bound_to 7997
  154.4589  140.0942  156.6812 H   0  0  0  0  0  0  0  0  0  0  0  0  # atno 8010 bound_to 7997
  140.7286  143.4252  151.0888 H   0  0  0  0  0  0  0  0  0  0  0  0  # atno 10167 bound_to 10162
  157.3152  131.0895  151.1285 H   0  0  0  0  0  0  0  0  0  0  0  0  # atno 10718 bound_to 10713
  153.4643  135.7016  153.6031 H   0  0  0  0  0  0  0  0  0  0  0  0  # atno 10763 bound_to 10752
  153.4312  135.3802  155.2172 H   0  0  0  0  0  0  0  0  0  0  0  0  # atno 10764 bound_to 10752
  154.8726  135.3951  154.4073 H   0  0  0  0  0  0  0  0  0  0  0  0  # atno 10765 bound_to 10752
  140.5948  133.9891  155.8105 H   0  0  0  0  0  0  0  0  0  0  0  0  # atno 11005 bound_to 11000
  144.6838  139.9667  143.7481 LP  0  0  0  0  0  0  0  0  0  0  0  0  # atno 17320 bound_to 7965
  146.0303  139.3329  143.0759 LP  0  0  0  0  0  0  0  0  0  0  0  0  # atno 17321 bound_to 7965
  139.7903  143.8229  152.3150 LP  0  0  0  0  0  0  0  0  0  0  0  0  # atno 17342 bound_to 10162
  139.8210  144.7296  150.9573 LP  0  0  0  0  0  0  0  0  0  0  0  0  # atno 17343 bound_to 10162
  157.2591  130.6650  149.5966 LP  0  0  0  0  0  0  0  0  0  0  0  0  # atno 17370 bound_to 10713
  155.9681  130.4514  150.5735 LP  0  0  0  0  0  0  0  0  0  0  0  0  # atno 17371 bound_to 10713
  141.0911  133.9914  157.3235 LP  0  0  0  0  0  0  0  0  0  0  0  0  # atno 17394 bound_to 11000
  139.9258  135.0201  156.8230 LP  0  0  0  0  0  0  0  0  0  0  0  0  # atno 17395 bound_to 11000

$$$$
