#       Name:                AV-unprocessed.smi:2678
#       Creating user name   scv26
#       Creation time:       Fri Mar 27 14:39:46 2020


#       File generated by GOLD software.
#

@<TRIPOS>MOLECULE
AV-unprocessed.smi:2678
    51    52     1
SMALL
NO_CHARGES


@<TRIPOS>ATOM
      1 ****         8.6599   6.3143  -1.6582 C.3            1 S1                 0.0000
      2 ****         8.5634   4.8124  -1.3596 C.3            1 S1                 0.0000
      3 ****         9.8339   4.0650  -1.7949 C.3            1 S1                 0.0000
      4 ****         7.3893   4.2592  -2.0286 N.am           1 S1                 0.0000
      5 ****         6.7217   3.1585  -1.6472 C.2            1 S1                 0.0000
      6 ****         7.0494   2.4850  -0.6703 O.2            1 S1                 0.0000
      7 ****         5.5004   2.7715  -2.5027 C.3            1 S1                 0.0000
      8 ****         5.6791   1.4143  -3.2225 C.3            1 S1                 0.0000
      9 ****         5.4743   0.1975  -2.3017 C.3            1 S1                 0.0000
     10 ****         4.1219   0.2684  -1.5768 C.3            1 S1                 0.0000
     11 ****         3.9875   1.5734  -0.7731 C.3            1 S1                 0.0000
     12 ****         2.6760   1.6151  -0.1228 N.am           1 S1                 0.0000
     13 ****         2.3075   2.3192   0.9634 C.2            1 S1                 0.0000
     14 ****         3.1111   3.0313   1.5612 O.2            1 S1                 0.0000
     15 ****         1.0200   2.1452   1.3213 N.am           1 S1                 0.0000
     16 ****         0.3098   2.7156   2.4111 C.ar           1 S1                 0.0000
     17 ****         0.6955   3.8991   3.0858 C.ar           1 S1                 0.0000
     18 ****        -0.1080   4.3706   4.1420 C.ar           1 S1                 0.0000
     19 ****        -1.2684   3.6473   4.4797 C.ar           1 S1                 0.0000
     20 ****        -1.6547   2.5253   3.8366 N.ar           1 S1                 0.0000
     21 ****        -0.8803   2.0800   2.8242 C.ar           1 S1                 0.0000
     22 ****         4.1806   2.8001  -1.6967 C.3            1 S1                 0.0000
     23 ****         9.5125   6.7605  -1.1453 H              1 S1                 0.0000
     24 ****         7.7641   6.8402  -1.3259 H              1 S1                 0.0000
     25 ****         8.7799   6.5009  -2.7260 H              1 S1                 0.0000
     26 ****         8.4435   4.6962  -0.2808 H              1 S1                 0.0000
     27 ****        10.7152   4.4696  -1.2967 H              1 S1                 0.0000
     28 ****         9.9933   4.1462  -2.8706 H              1 S1                 0.0000
     29 ****         9.7766   3.0048  -1.5462 H              1 S1                 0.0000
     30 ****         7.0554   4.7552  -2.8423 H              1 S1                 0.0000
     31 ****         5.4128   3.5328  -3.2799 H              1 S1                 0.0000
     32 ****         4.9620   1.3571  -4.0423 H              1 S1                 0.0000
     33 ****         6.6645   1.3598  -3.6877 H              1 S1                 0.0000
     34 ****         5.5294  -0.7197  -2.8883 H              1 S1                 0.0000
     35 ****         6.2808   0.1359  -1.5710 H              1 S1                 0.0000
     36 ****         3.3153   0.1966  -2.3079 H              1 S1                 0.0000
     37 ****         4.0166  -0.5917  -0.9145 H              1 S1                 0.0000
     38 ****         4.7575   1.5614  -0.0014 H              1 S1                 0.0000
     39 ****         1.9661   1.0279  -0.5364 H              1 S1                 0.0000
     40 ****         0.5019   1.4725   0.7746 H              1 S1                 0.0000
     41 ****         1.5749   4.4591   2.8098 H              1 S1                 0.0000
     42 ****         0.1578   5.2694   4.6784 H              1 S1                 0.0000
     43 ****        -1.9061   3.9824   5.2843 H              1 S1                 0.0000
     44 ****        -1.2209   1.1812   2.3304 H              1 S1                 0.0000
     45 ****         4.1269   3.7220  -1.1159 H              1 S1                 0.0000
     46 ****         3.3480   2.8485  -2.4000 H              1 S1                 0.0000
     47 ****         7.8432   2.7509  -0.1233 LP             1 S1                 0.0000
     48 ****         6.5218   1.6722  -0.4237 LP             1 S1                 0.0000
     49 ****         4.0567   3.0947   1.2423 LP             1 S1                 0.0000
     50 ****         2.8193   3.5473   2.3665 LP             1 S1                 0.0000
     51 ****        -2.4877   2.0394   4.1014 LP             1 S1                 0.0000
@<TRIPOS>BOND
    1    1    2 1     
    2    1   23 1     
    3    1   24 1     
    4    1   25 1     
    5    2    3 1     
    6    2    4 1     
    7    2   26 1     
    8    3   27 1     
    9    3   28 1     
   10    3   29 1     
   11    4    5 am    
   12    4   30 1     
   13    5    6 2     
   14    5    7 1     
   15    7   22 1     
   16    7    8 1     
   17    7   31 1     
   18    8    9 1     
   19    8   32 1     
   20    8   33 1     
   21    9   10 1     
   22    9   34 1     
   23    9   35 1     
   24   10   11 1     
   25   10   36 1     
   26   10   37 1     
   27   11   12 1     
   28   11   22 1     
   29   11   38 1     
   30   12   13 am    
   31   12   39 1     
   32   13   14 2     
   33   13   15 am    
   34   15   16 1     
   35   15   40 1     
   36   16   21 ar    
   37   16   17 ar    
   38   17   18 ar    
   39   17   41 1     
   40   18   19 ar    
   41   18   42 1     
   42   19   20 ar    
   43   19   43 1     
   44   20   21 ar    
   45   21   44 1     
   46   22   45 1     
   47   22   46 1     
   48    6   47 1     
   49    6   48 1     
   50   14   49 1     
   51   14   50 1     
   52   20   51 1     
@<TRIPOS>SUBSTRUCTURE
      1 S1             1
@<TRIPOS>SET
LONE_PAIRS      STATIC     ATOMS    <user>   **** ""
5 47 48 49 50 51
DONOR_HYDROGENS      STATIC     ATOMS    <user>   **** ""
3 30 39 40
ATOM$BLUE        STATIC     ATOMS    COLORGROUP SYSTEM
5 47 48 49 50 51
ATOM$RED        STATIC     ATOMS    COLORGROUP SYSTEM
3 30 39 40
