#       Name:                AV-unprocessed.smi:1971
#       Creating user name   scv26
#       Creation time:       Fri Mar 27 10:14:02 2020


#       File generated by GOLD software.
#

@<TRIPOS>MOLECULE
AV-unprocessed.smi:1971
    48    49     1
SMALL
NO_CHARGES


@<TRIPOS>ATOM
      1 ****        -4.5402   1.2357  -2.9579 C.3            1 S1                 0.0000
      2 ****        -3.8649   1.8984  -1.7489 C.3            1 S1                 0.0000
      3 ****        -2.4033   1.8873  -1.7758 N.3            1 S1                 0.0000
      4 ****        -1.8574   2.7096  -0.6987 C.3            1 S1                 0.0000
      5 ****        -0.3182   2.7231  -0.7131 C.3            1 S1                 0.0000
      6 ****         0.2460   1.3744  -0.5711 N.3            1 S1                 0.0000
      7 ****         1.7247   1.3731  -0.5591 C.3            1 S1                 0.0000
      8 ****         2.3301   2.2572   0.5545 C.3            1 S1                 0.0000
      9 ****         2.3491  -0.0394  -0.4409 C.3            1 S1                 0.0000
     10 ****         1.8494  -0.7509   0.7301 N.am           1 S1                 0.0000
     11 ****         2.2631  -1.9641   1.1158 C.2            1 S1                 0.0000
     12 ****         3.1377  -2.6006   0.5273 O.2            1 S1                 0.0000
     13 ****         1.5973  -2.3797   2.2073 N.am           1 S1                 0.0000
     14 ****         1.7409  -3.6041   2.9107 C.2            1 S1                 0.0000
     15 ****         2.6353  -4.5509   2.6036 N.2            1 S1                 0.0000
     16 ****         2.5540  -5.6480   3.4651 C.2            1 S1                 0.0000
     17 ****         1.5845  -5.5190   4.4283 C.2            1 S1                 0.0000
     18 ****         0.7326  -4.0039   4.2934 S.3            1 S1                 0.0000
     19 ****        -0.3118   0.5502  -1.6523 C.3            1 S1                 0.0000
     20 ****        -1.8515   0.5392  -1.6381 C.3            1 S1                 0.0000
     21 ****        -5.6210   1.3701  -2.9132 H              1 S1                 0.0000
     22 ****        -4.3498   0.1633  -2.9952 H              1 S1                 0.0000
     23 ****        -4.1913   1.6745  -3.8929 H              1 S1                 0.0000
     24 ****        -4.2077   2.9332  -1.7104 H              1 S1                 0.0000
     25 ****        -4.2230   1.4305  -0.8306 H              1 S1                 0.0000
     26 ****        -2.2231   3.7323  -0.7957 H              1 S1                 0.0000
     27 ****        -2.2097   2.3439   0.2672 H              1 S1                 0.0000
     28 ****         0.0394   3.1846  -1.6351 H              1 S1                 0.0000
     29 ****         0.0076   3.3617   0.1061 H              1 S1                 0.0000
     30 ****         2.0704   1.7861  -1.5080 H              1 S1                 0.0000
     31 ****         3.4138   2.1470   0.6012 H              1 S1                 0.0000
     32 ****         1.9308   1.9959   1.5351 H              1 S1                 0.0000
     33 ****         2.1421   3.3169   0.3853 H              1 S1                 0.0000
     34 ****         2.1560  -0.6308  -1.3362 H              1 S1                 0.0000
     35 ****         3.4358   0.0370  -0.3765 H              1 S1                 0.0000
     36 ****         1.1239  -0.2946   1.2638 H              1 S1                 0.0000
     37 ****         0.8983  -1.7498   2.5725 H              1 S1                 0.0000
     38 ****         3.2269  -6.4800   3.3202 H              1 S1                 0.0000
     39 ****         1.3217  -6.2200   5.2064 H              1 S1                 0.0000
     40 ****         0.0463   0.9076  -2.6191 H              1 S1                 0.0000
     41 ****         0.0202  -0.4822  -1.5565 H              1 S1                 0.0000
     42 ****        -2.2056   0.0809  -0.7134 H              1 S1                 0.0000
     43 ****        -2.1990  -0.0943  -2.4536 H              1 S1                 0.0000
     44 ****        -2.1419   2.2557  -2.6680 LP             1 S1                 0.0000
     45 ****        -0.0084   0.9905   0.3165 LP             1 S1                 0.0000
     46 ****         3.5776  -2.2140  -0.2833 LP             1 S1                 0.0000
     47 ****         3.4080  -3.5041   0.8599 LP             1 S1                 0.0000
     48 ****         3.2852  -4.4815   1.8467 LP             1 S1                 0.0000
@<TRIPOS>BOND
    1    1    2 1     
    2    1   21 1     
    3    1   22 1     
    4    1   23 1     
    5    2    3 1     
    6    2   24 1     
    7    2   25 1     
    8    3   20 1     
    9    3    4 1     
   10    4    5 1     
   11    4   26 1     
   12    4   27 1     
   13    5    6 1     
   14    5   28 1     
   15    5   29 1     
   16    6    7 1     
   17    6   19 1     
   18    7    8 1     
   19    7    9 1     
   20    7   30 1     
   21    8   31 1     
   22    8   32 1     
   23    8   33 1     
   24    9   10 1     
   25    9   34 1     
   26    9   35 1     
   27   10   11 am    
   28   10   36 1     
   29   11   12 2     
   30   11   13 am    
   31   13   14 1     
   32   13   37 1     
   33   14   18 1     
   34   14   15 2     
   35   15   16 1     
   36   16   17 2     
   37   16   38 1     
   38   17   18 1     
   39   17   39 1     
   40   19   20 1     
   41   19   40 1     
   42   19   41 1     
   43   20   42 1     
   44   20   43 1     
   45    3   44 1     
   46    6   45 1     
   47   12   46 1     
   48   12   47 1     
   49   15   48 1     
@<TRIPOS>SUBSTRUCTURE
      1 S1             1
@<TRIPOS>SET
LONE_PAIRS      STATIC     ATOMS    <user>   **** ""
5 44 45 46 47 48
DONOR_HYDROGENS      STATIC     ATOMS    <user>   **** ""
2 36 37
ATOM$BLUE        STATIC     ATOMS    COLORGROUP SYSTEM
5 44 45 46 47 48
ATOM$RED        STATIC     ATOMS    COLORGROUP SYSTEM
2 36 37
