AV-unprocessed.smi:2065|AV-procd|sdf|8417|dock2
  -GOLD-   2272011113D 1   1.00000     0.00000
 Structure written by MMmdl.
 38 39  0  0  0  0  0  0  0  0  1 V2000
  146.9888  142.1428  154.4640 C   0  0  0  0  0  0  0  0  0  0  0  0
  146.8426  140.6525  154.3783 C   0  0  0  0  0  0  0  0  0  0  0  0
  147.1183  139.8067  153.2649 C   0  0  0  0  0  0  0  0  0  0  0  0
  146.8122  138.5640  153.7481 C   0  0  0  0  0  0  0  0  0  0  0  0
  146.8916  137.3599  153.1226 N   0  0  0  0  0  0  0  0  0  0  0  0
  145.9099  136.4762  152.8735 C   0  0  0  0  0  0  0  0  0  0  0  0
  144.7273  136.6141  153.1878 O   0  0  0  0  0  0  0  0  0  0  0  0
  146.3841  135.3987  152.2319 N   0  0  0  0  0  0  0  0  0  0  0  0
  145.5932  134.2508  151.7890 C   0  0  2  0  0  0  0  0  0  0  0  0
  146.5138  133.1300  151.2412 C   0  0  0  0  0  0  0  0  0  0  0  0
  145.8672  132.1520  150.2381 C   0  0  0  0  0  0  0  0  0  0  0  0
  144.5630  131.4793  150.7124 C   0  0  0  0  0  0  0  0  0  0  0  0
  143.4186  132.4189  151.1635 C   0  0  0  0  0  0  0  0  0  0  0  0
  143.4833  133.7659  150.5975 N   0  0  0  0  0  0  0  0  0  0  0  0
  144.4410  134.6727  150.8572 C   0  0  0  0  0  0  0  0  0  0  0  0
  144.4158  135.7954  150.3542 O   0  0  0  0  0  0  0  0  0  0  0  0
  146.3901  138.6851  155.0531 N   0  0  0  0  0  0  0  0  0  0  0  0
  145.9644  137.6564  155.9820 C   0  0  0  0  0  0  0  0  0  0  0  0
  146.4091  139.9794  155.4384 N   0  0  0  0  0  0  0  0  0  0  0  0
  147.4110  142.5506  153.5453 H   0  0  0  0  0  0  0  0  0  0  0  0
  147.6474  142.4268  155.2853 H   0  0  0  0  0  0  0  0  0  0  0  0
  146.0238  142.6231  154.6270 H   0  0  0  0  0  0  0  0  0  0  0  0
  147.4823  140.0855  152.2875 H   0  0  0  0  0  0  0  0  0  0  0  0
  147.8157  137.0959  152.8141 H   0  0  0  0  0  0  0  0  0  0  0  0
  147.3688  135.3729  152.0101 H   0  0  0  0  0  0  0  0  0  0  0  0
  145.1050  133.8614  152.6833 H   0  0  0  0  0  0  0  0  0  0  0  0
  147.3765  133.5803  150.7479 H   0  0  0  0  0  0  0  0  0  0  0  0
  146.9194  132.5652  152.0816 H   0  0  0  0  0  0  0  0  0  0  0  0
  145.6828  132.6690  149.2954 H   0  0  0  0  0  0  0  0  0  0  0  0
  146.5919  131.3745  149.9946 H   0  0  0  0  0  0  0  0  0  0  0  0
  144.1957  130.8630  149.8911 H   0  0  0  0  0  0  0  0  0  0  0  0
  144.7860  130.7819  151.5207 H   0  0  0  0  0  0  0  0  0  0  0  0
  142.4589  131.9784  150.8925 H   0  0  0  0  0  0  0  0  0  0  0  0
  143.4020  132.4911  152.2516 H   0  0  0  0  0  0  0  0  0  0  0  0
  142.7345  134.0365  149.9762 H   0  0  0  0  0  0  0  0  0  0  0  0
  145.1637  137.0670  155.5343 H   0  0  0  0  0  0  0  0  0  0  0  0
  145.5988  138.1017  156.9084 H   0  0  0  0  0  0  0  0  0  0  0  0
  146.8048  137.0007  156.2110 H   0  0  0  0  0  0  0  0  0  0  0  0
  1  2  1  0  0  0  0
  1 20  1  0  0  0  0
  1 21  1  0  0  0  0
  1 22  1  0  0  0  0
  2 19  2  0  0  0  0
  2  3  1  0  0  0  0
  3  4  2  0  0  0  0
  3 23  1  0  0  0  0
  4  5  1  0  0  0  0
  4 17  1  0  0  0  0
  5  6  1  0  0  0  0
  5 24  1  0  0  0  0
  6  7  2  0  0  0  0
  6  8  1  0  0  0  0
  8  9  1  0  0  0  0
  8 25  1  0  0  0  0
  9 15  1  0  0  0  0
  9 10  1  0  0  0  0
  9 26  1  0  0  0  0
 10 11  1  0  0  0  0
 10 27  1  0  0  0  0
 10 28  1  0  0  0  0
 11 12  1  0  0  0  0
 11 29  1  0  0  0  0
 11 30  1  0  0  0  0
 12 13  1  0  0  0  0
 12 31  1  0  0  0  0
 12 32  1  0  0  0  0
 13 14  1  0  0  0  0
 13 33  1  0  0  0  0
 13 34  1  0  0  0  0
 14 15  1  0  0  0  0
 14 35  1  0  0  0  0
 15 16  2  0  0  0  0
 17 18  1  0  0  0  0
 17 19  1  0  0  0  0
 18 36  1  0  0  0  0
 18 37  1  0  0  0  0
 18 38  1  0  0  0  0
M  END
> <s_m_source_file>
AV-unprocessed.smi

> <i_m_source_file_index>
2065

> <i_lp_mmshare_version>
43012

> <i_f3d_flags>
0

> <s_epik_input>
W0NIM11jMVtjSF1jKG4objEpW0NIM10pW05IXUMoPU8pW05IXVtDQEBIXTJbQ0gyXVtDSDJdW0NIMl1bQ0gyXVtOSF1DMj1P

> <s_epik_cmdline>
J2VwaWtfcHl0aG9uJywgJy1waCcsICc3LjAnLCAnLXRuJywgJzgnLCAnLW1hJywgJzIwMCcsICctbWV0YWxfYmluZGluZycsICctaW1hZScsICc8aW5maWxlLm1hZT4nLCAnLW9tYWUnLCAnPG91dGZpbGUubWFlPic=

> <r_lp_tautomer_probability>
1

> <r_epik_Ionization_Penalty>
8.1752e-05

> <r_epik_Ionization_Penalty_Charging>
0

> <r_epik_Ionization_Penalty_Neutral>
8.1752e-05

> <r_epik_State_Penalty>
-0

> <r_epik_Charging_Adjusted_Penalty>
0

> <i_epik_Tot_Q>
0

> <i_epik_Tot_abs_Q>
0

> <r_epik_Metal_State_Penalty>
-0

> <b_epik_Metal_Only>
0

> <s_lp_Force_Field>
OPLS_2005

> <r_lp_Energy>
15.6016

> <b_lp_Chiralities_Consistent>
1

> <s_lp_Variant>
AV-unprocessed.smi:2065-1

> <Gold.Version>
5.8.1

> <Gold.Id.Protein>
6NUR|6NUR_protein|mol2

> <Gold.PLP.Fitness>
37.2780

> <Gold.PLP.PLP>
-29.5872

> <Gold.PLP.part.hbond>
-3.0000

> <Gold.PLP.part.metal>
0.0000

> <Gold.PLP.part.buried>
-5.4920

> <Gold.PLP.part.nonpolar>
-23.4470

> <Gold.PLP.part.repulsive>
2.0453

> <Gold.PLP.ligand.clash>
0.0000

> <Gold.PLP.ligand.torsion>
0.5966

> <Gold.PLP.Chemscore.Hbond>
2.9440

> <Gold.PLP.Chemscore.CHOScore>
0.0000

> <Gold.PLP.Chemscore.Metal>
0.0000

> <Gold.Chemscore.Hbonds>
donor molecule, donor type, donor heavy atom, donor atom, acceptor molecule, acceptor atom, score
      L1  H     5    24       P1  7948  1.00
      L1  H     8    25       P1  7948  1.00
      L1  H    14    35       P1 10186  1.00

> <Gold.PLP.Chemscore.Internal.Correction>
0.0520

> <Gold.Rescore>
     Score         DG    S(hbond)    S(metal)    S(lipo)     H(rot)  DE(clash)    DE(int)     intcor
     18.49     -19.34       2.90        0.00      57.59       1.00       0.19       0.65       ----

> <Gold.Chemscore.Fitness>
18.4944

> <Gold.Chemscore.DG>
-19.3429

> <Gold.Chemscore.ZeroCoef>
-5.4800

> <Gold.Chemscore.Hbond>
2.8995

> <Gold.Chemscore.Metal>
0.0000

> <Gold.Chemscore.Lipo>
57.5946

> <Gold.Chemscore.Internal_Hbond>
0.0000

> <Gold.Chemscore.DEClash>
0.1941

> <Gold.Chemscore.DEInternal>
0.6544

> <Gold.Chemscore.Rot>
1.0000

> <Gold.Chemscore.Internal.Correction>
   9.000000E+99

> <Gold.Chemscore.Hbonds>
donor molecule, donor type, donor heavy atom, donor atom, acceptor molecule, acceptor atom, score
      L1  H     5    24       P1  7948  0.98
      L1  H     8    25       P1  7948  0.95
      L1  H    14    35       P1 10186  0.98

> <Gold.Chemscore.Hbond.Weighted>
-9.6843

> <Gold.Chemscore.Metal.Weighted>
-0.0000

> <Gold.Chemscore.Lipo.Weighted>
-6.7386

> <Gold.Chemscore.Internal_Hbond.Weighted>
0.0000

> <Gold.Chemscore.DEClash.Weighted>
0.1941

> <Gold.Chemscore.DEInternal.Weighted>
0.6544

> <Gold.Chemscore.Rot.Weighted>
2.5600

> <Gold.Chemscore.Internal.Correction.Weighted>
   9.000000E+99

> <Gold.Protein.RotatedTorsions>
[ 6907 6896 6895 6894 ] final  -10.03 input  -60.11 | X-H torsion
[ 7974 7965 7964 7962 ] final  110.27 input  175.53 | X-H torsion
[ 8008 7997 7996 7995 ] final  113.32 input   59.86 | X-H torsion
[ 10167 10162 10161 10158 ] final -153.80 input  -65.29 | X-H torsion
[ 10718 10713 10712 10709 ] final  117.41 input   66.30 | X-H torsion
[ 10763 10752 10751 10750 ] final   39.90 input  -60.55 | X-H torsion
[ 11005 11000 10999 10996 ] final  -12.39 input  -57.11 | X-H torsion

> <Gold.Protein.ActiveResidues>
 VAL166  LYS551  ARG553  GLY616  TRP617  ASP618  TYR619  PRO620  LYS621  CYS622 
 ASP623  PHE694  ASN695  SER759  ASP760  ASP761  ALA762  ILE779  LEU786  VAL792 
 PHE793  MET794  SER795  GLU796  ALA797  LYS798  CYS799  TRP800  GLU811  SER814 

> <Gold.Protein.RotatedAtoms>
  151.4084  135.0981  159.9577 H   0  0  0  0  0  0  0  0  0  0  0  0  # atno 6907 bound_to 6896
  152.5028  133.8821  159.7362 H   0  0  0  0  0  0  0  0  0  0  0  0  # atno 6908 bound_to 6896
  150.9310  133.6710  159.2839 H   0  0  0  0  0  0  0  0  0  0  0  0  # atno 6909 bound_to 6896
  145.2571  139.2717  143.4037 H   0  0  0  0  0  0  0  0  0  0  0  0  # atno 7974 bound_to 7965
  156.2250  140.2982  156.0046 H   0  0  0  0  0  0  0  0  0  0  0  0  # atno 8008 bound_to 7997
  155.2380  140.0421  157.2988 H   0  0  0  0  0  0  0  0  0  0  0  0  # atno 8009 bound_to 7997
  154.5901  140.2399  155.7940 H   0  0  0  0  0  0  0  0  0  0  0  0  # atno 8010 bound_to 7997
  139.7066  143.9176  152.2451 H   0  0  0  0  0  0  0  0  0  0  0  0  # atno 10167 bound_to 10162
  157.6098  131.1037  150.7611 H   0  0  0  0  0  0  0  0  0  0  0  0  # atno 10718 bound_to 10713
  152.9952  135.6207  154.2540 H   0  0  0  0  0  0  0  0  0  0  0  0  # atno 10763 bound_to 10752
  154.2278  135.2793  155.2903 H   0  0  0  0  0  0  0  0  0  0  0  0  # atno 10764 bound_to 10752
  154.5475  135.5743  153.6951 H   0  0  0  0  0  0  0  0  0  0  0  0  # atno 10765 bound_to 10752
  140.7653  133.8482  155.9159 H   0  0  0  0  0  0  0  0  0  0  0  0  # atno 11005 bound_to 11000
  146.3286  140.2977  142.8619 LP  0  0  0  0  0  0  0  0  0  0  0  0  # atno 17320 bound_to 7965
  144.9451  140.8120  143.5606 LP  0  0  0  0  0  0  0  0  0  0  0  0  # atno 17321 bound_to 7965
  139.9033  144.6899  150.8641 LP  0  0  0  0  0  0  0  0  0  0  0  0  # atno 17342 bound_to 10162
  140.7723  143.3497  151.2039 LP  0  0  0  0  0  0  0  0  0  0  0  0  # atno 17343 bound_to 10162
  156.7991  130.4915  149.5372 LP  0  0  0  0  0  0  0  0  0  0  0  0  # atno 17370 bound_to 10713
  156.1197  130.6101  151.0174 LP  0  0  0  0  0  0  0  0  0  0  0  0  # atno 17371 bound_to 10713
  140.9625  134.1637  157.4642 LP  0  0  0  0  0  0  0  0  0  0  0  0  # atno 17394 bound_to 11000
  139.8764  134.9950  156.5721 LP  0  0  0  0  0  0  0  0  0  0  0  0  # atno 17395 bound_to 11000

$$$$
