AV-unprocessed.smi:3304|AV-procd|sdf|12697|dock2
  -GOLD-   2272019 33D 1   1.00000     0.00000
 Structure written by MMmdl.
 46 47  0  0  0  0  0  0  0  0  2 V2000
  155.6862  141.3212  168.1150 C   0  0  0  0  0  0  0  0  0  0  0  0
  155.7520  142.3384  167.0220 C   0  0  0  0  0  0  0  0  0  0  0  0
  156.0990  142.2140  165.7033 C   0  0  0  0  0  0  0  0  0  0  0  0
  156.5287  140.9868  164.9469 C   0  0  0  0  0  0  0  0  0  0  0  0
  155.4167  140.4793  164.0195 C   0  0  0  0  0  0  0  0  0  0  0  0
  155.2214  141.3921  162.8770 N   0  3  0  0  0  0  0  0  0  0  0  0
  154.0100  141.1090  162.0814 C   0  0  0  0  0  0  0  0  0  0  0  0
  153.6149  142.3098  161.2021 C   0  0  2  0  0  0  0  0  0  0  0  0
  152.5569  143.1829  161.9052 C   0  0  0  0  0  0  0  0  0  0  0  0
  152.1504  144.3898  161.0438 C   0  0  0  0  0  0  0  0  0  0  0  0
  151.6351  143.9510  159.6607 C   0  0  1  0  0  0  0  0  0  0  0  0
  151.2394  145.1584  158.7990 C   0  0  0  0  0  0  0  0  0  0  0  0
  152.6850  143.0736  158.9542 C   0  0  0  0  0  0  0  0  0  0  0  0
  153.0908  141.8687  159.8186 C   0  0  0  0  0  0  0  0  0  0  0  0
  155.9631  143.5361  165.1933 C   0  0  0  0  0  0  0  0  0  0  0  0
  155.5715  144.4025  166.1102 N   0  0  0  0  0  0  0  0  0  0  0  0
  155.4410  143.6683  167.2344 N   0  0  0  0  0  0  0  0  0  0  0  0
  155.0179  144.3151  168.4613 C   0  0  0  0  0  0  0  0  0  0  0  0
  155.9531  140.3294  167.7500 H   0  0  0  0  0  0  0  0  0  0  0  0
  154.6802  141.2641  168.5311 H   0  0  0  0  0  0  0  0  0  0  0  0
  156.3729  141.5755  168.9226 H   0  0  0  0  0  0  0  0  0  0  0  0
  157.4249  141.1933  164.3606 H   0  0  0  0  0  0  0  0  0  0  0  0
  156.8074  140.1925  165.6404 H   0  0  0  0  0  0  0  0  0  0  0  0
  155.6679  139.4859  163.6455 H   0  0  0  0  0  0  0  0  0  0  0  0
  154.4794  140.3899  164.5706 H   0  0  0  0  0  0  0  0  0  0  0  0
  155.1632  142.3383  163.2257 H   0  0  0  0  0  0  0  0  0  0  0  0
  154.1742  140.2252  161.4630 H   0  0  0  0  0  0  0  0  0  0  0  0
  153.1974  140.8699  162.7691 H   0  0  0  0  0  0  0  0  0  0  0  0
  154.5035  142.9259  161.0524 H   0  0  0  0  0  0  0  0  0  0  0  0
  151.6732  142.5846  162.1309 H   0  0  0  0  0  0  0  0  0  0  0  0
  152.9407  143.5365  162.8627 H   0  0  0  0  0  0  0  0  0  0  0  0
  151.3825  144.9652  161.5622 H   0  0  0  0  0  0  0  0  0  0  0  0
  153.0061  145.0560  160.9250 H   0  0  0  0  0  0  0  0  0  0  0  0
  150.7386  143.3474  159.8111 H   0  0  0  0  0  0  0  0  0  0  0  0
  152.0943  145.8081  158.6089 H   0  0  0  0  0  0  0  0  0  0  0  0
  150.4701  145.7554  159.2895 H   0  0  0  0  0  0  0  0  0  0  0  0
  150.8432  144.8396  157.8346 H   0  0  0  0  0  0  0  0  0  0  0  0
  152.2937  142.7216  157.9990 H   0  0  0  0  0  0  0  0  0  0  0  0
  153.5694  143.6693  158.7234 H   0  0  0  0  0  0  0  0  0  0  0  0
  153.8501  141.2909  159.2909 H   0  0  0  0  0  0  0  0  0  0  0  0
  152.2324  141.2068  159.9425 H   0  0  0  0  0  0  0  0  0  0  0  0
  156.1395  143.8901  164.1882 H   0  0  0  0  0  0  0  0  0  0  0  0
  154.0942  143.8584  168.8166 H   0  0  0  0  0  0  0  0  0  0  0  0
  154.8439  145.3793  168.2975 H   0  0  0  0  0  0  0  0  0  0  0  0
  155.7898  144.1975  169.2220 H   0  0  0  0  0  0  0  0  0  0  0  0
  156.0252  141.3208  162.2695 H   0  0  0  0  0  0  0  0  0  0  0  0
  1  2  1  0  0  0  0
  1 19  1  0  0  0  0
  1 20  1  0  0  0  0
  1 21  1  0  0  0  0
  2 17  1  0  0  0  0
  2  3  2  0  0  0  0
  3  4  1  0  0  0  0
  3 15  1  0  0  0  0
  4  5  1  0  0  0  0
  4 22  1  0  0  0  0
  4 23  1  0  0  0  0
  5  6  1  0  0  0  0
  5 24  1  0  0  0  0
  5 25  1  0  0  0  0
  6  7  1  0  0  0  0
  6 26  1  0  0  0  0
  6 46  1  0  0  0  0
  7  8  1  0  0  0  0
  7 27  1  0  0  0  0
  7 28  1  0  0  0  0
  8 14  1  0  0  0  0
  8  9  1  0  0  0  0
  8 29  1  0  0  0  0
  9 10  1  0  0  0  0
  9 30  1  0  0  0  0
  9 31  1  0  0  0  0
 10 11  1  0  0  0  0
 10 32  1  0  0  0  0
 10 33  1  0  0  0  0
 11 12  1  0  0  0  0
 11 13  1  0  0  0  0
 11 34  1  0  0  0  0
 12 35  1  0  0  0  0
 12 36  1  0  0  0  0
 12 37  1  0  0  0  0
 13 14  1  0  0  0  0
 13 38  1  0  0  0  0
 13 39  1  0  0  0  0
 14 40  1  0  0  0  0
 14 41  1  0  0  0  0
 15 16  2  0  0  0  0
 15 42  1  0  0  0  0
 16 17  1  0  0  0  0
 17 18  1  0  0  0  0
 18 43  1  0  0  0  0
 18 44  1  0  0  0  0
 18 45  1  0  0  0  0
M  CHG  1   6   1
M  END
> <s_m_source_file>
AV-unprocessed.smi

> <i_m_source_file_index>
3304

> <i_lp_mmshare_version>
43012

> <i_f3d_flags>
0

> <s_epik_input>
W0NIM11uMW5bY0hdYyhjMVtDSDNdKVtDSDJdW0NIMl1bTkhdW0NIMl1bQ0BASF0yW0NIMl1bQ0gyXVtDQEBIXShbQ0gzXSlbQ0gyXVtDSDJdMg==

> <s_epik_cmdline>
J2VwaWtfcHl0aG9uJywgJy1waCcsICc3LjAnLCAnLXRuJywgJzgnLCAnLW1hJywgJzIwMCcsICctbWV0YWxfYmluZGluZycsICctaW1hZScsICc8aW5maWxlLm1hZT4nLCAnLW9tYWUnLCAnPG91dGZpbGUubWFlPic=

> <r_lp_tautomer_probability>
1

> <r_epik_Ionization_Penalty>
0.000505313

> <r_epik_Ionization_Penalty_Charging>
0.000421171

> <r_epik_Ionization_Penalty_Neutral>
8.41424e-05

> <r_epik_State_Penalty>
-0

> <r_epik_Charging_Adjusted_Penalty>
0.000421171

> <i_epik_Tot_Q>
1

> <i_epik_Tot_abs_Q>
1

> <r_epik_Metal_State_Penalty>
-0

> <b_epik_Metal_Only>
0

> <s_lp_Force_Field>
OPLS_2005

> <r_lp_Energy>
10.3881

> <b_lp_Chiralities_Consistent>
1

> <s_lp_Variant>
AV-unprocessed.smi:3304-1

> <Gold.Version>
5.8.1

> <Gold.Id.Protein>
6NUR|6NUR_protein|mol2

> <Gold.PLP.Fitness>
47.2821

> <Gold.PLP.PLP>
-48.8760

> <Gold.PLP.part.hbond>
-1.6101

> <Gold.PLP.part.metal>
0.0000

> <Gold.PLP.part.buried>
-5.8529

> <Gold.PLP.part.nonpolar>
-39.9071

> <Gold.PLP.part.repulsive>
0.0581

> <Gold.PLP.ligand.clash>
0.0000

> <Gold.PLP.ligand.torsion>
0.8098

> <Gold.PLP.Chemscore.Hbond>
0.0000

> <Gold.PLP.Chemscore.CHOScore>
0.0000

> <Gold.PLP.Chemscore.Metal>
0.0000

> <Gold.PLP.Chemscore.Internal.Correction>
0.0256

> <Gold.Rescore>
     Score         DG    S(hbond)    S(metal)    S(lipo)     H(rot)  DE(clash)    DE(int)     intcor
     16.08     -18.51       0.00        0.00     142.72       1.43       1.66       0.76       ----

> <Gold.Chemscore.Fitness>
16.0820

> <Gold.Chemscore.DG>
-18.5099

> <Gold.Chemscore.ZeroCoef>
-5.4800

> <Gold.Chemscore.Hbond>
0.0000

> <Gold.Chemscore.Metal>
0.0000

> <Gold.Chemscore.Lipo>
142.7236

> <Gold.Chemscore.Internal_Hbond>
0.0000

> <Gold.Chemscore.DEClash>
1.6631

> <Gold.Chemscore.DEInternal>
0.7647

> <Gold.Chemscore.Rot>
1.4331

> <Gold.Chemscore.Internal.Correction>
   9.000000E+99

> <Gold.Chemscore.Hbond.Weighted>
-0.0000

> <Gold.Chemscore.Metal.Weighted>
-0.0000

> <Gold.Chemscore.Lipo.Weighted>
-16.6987

> <Gold.Chemscore.Internal_Hbond.Weighted>
0.0000

> <Gold.Chemscore.DEClash.Weighted>
1.6631

> <Gold.Chemscore.DEInternal.Weighted>
0.7647

> <Gold.Chemscore.Rot.Weighted>
3.6688

> <Gold.Chemscore.Internal.Correction.Weighted>
   9.000000E+99

> <Gold.Protein.RotatedTorsions>
[ 6907 6896 6895 6894 ] final   32.27 input  -60.11 | X-H torsion
[ 7974 7965 7964 7962 ] final  -48.26 input  175.53 | X-H torsion
[ 8008 7997 7996 7995 ] final    7.23 input   59.86 | X-H torsion
[ 10167 10162 10161 10158 ] final  -47.70 input  -65.29 | X-H torsion
[ 10718 10713 10712 10709 ] final  155.01 input   66.30 | X-H torsion
[ 10763 10752 10751 10750 ] final   52.31 input  -60.55 | X-H torsion
[ 11005 11000 10999 10996 ] final   -5.86 input  -57.11 | X-H torsion

> <Gold.Protein.ActiveResidues>
 VAL166  LYS551  ARG553  GLY616  TRP617  ASP618  TYR619  PRO620  LYS621  CYS622 
 ASP623  PHE694  ASN695  SER759  ASP760  ASP761  ALA762  ILE779  LEU786  VAL792 
 PHE793  MET794  SER795  GLU796  ALA797  LYS798  CYS799  TRP800  GLU811  SER814 

> <Gold.Protein.RotatedAtoms>
  152.0721  134.9527  160.0574 H   0  0  0  0  0  0  0  0  0  0  0  0  # atno 6907 bound_to 6896
  152.0849  133.4166  159.4526 H   0  0  0  0  0  0  0  0  0  0  0  0  # atno 6908 bound_to 6896
  150.6836  134.2859  159.4690 H   0  0  0  0  0  0  0  0  0  0  0  0  # atno 6909 bound_to 6896
  145.9530  140.7553  142.9495 H   0  0  0  0  0  0  0  0  0  0  0  0  # atno 7974 bound_to 7965
  154.7512  140.2767  155.6291 H   0  0  0  0  0  0  0  0  0  0  0  0  # atno 8008 bound_to 7997
  156.2896  140.2678  156.2193 H   0  0  0  0  0  0  0  0  0  0  0  0  # atno 8009 bound_to 7997
  155.0134  140.0372  157.2398 H   0  0  0  0  0  0  0  0  0  0  0  0  # atno 8010 bound_to 7997
  140.6764  143.2773  151.3964 H   0  0  0  0  0  0  0  0  0  0  0  0  # atno 10167 bound_to 10162
  157.2241  131.0725  151.1894 H   0  0  0  0  0  0  0  0  0  0  0  0  # atno 10718 bound_to 10713
  152.9788  135.5817  154.4558 H   0  0  0  0  0  0  0  0  0  0  0  0  # atno 10763 bound_to 10752
  154.4141  135.2770  155.2020 H   0  0  0  0  0  0  0  0  0  0  0  0  # atno 10764 bound_to 10752
  154.3797  135.6149  153.5838 H   0  0  0  0  0  0  0  0  0  0  0  0  # atno 10765 bound_to 10752
  140.6957  133.9033  155.8648 H   0  0  0  0  0  0  0  0  0  0  0  0  # atno 11005 bound_to 11000
  144.6799  140.2466  143.7337 LP  0  0  0  0  0  0  0  0  0  0  0  0  # atno 17320 bound_to 7965
  145.8145  139.2017  143.1974 LP  0  0  0  0  0  0  0  0  0  0  0  0  # atno 17321 bound_to 7965
  139.6058  144.1199  152.2248 LP  0  0  0  0  0  0  0  0  0  0  0  0  # atno 17342 bound_to 10162
  140.0598  144.5866  150.7272 LP  0  0  0  0  0  0  0  0  0  0  0  0  # atno 17343 bound_to 10162
  157.3546  130.7100  149.6462 LP  0  0  0  0  0  0  0  0  0  0  0  0  # atno 17370 bound_to 10713
  155.9680  130.4243  150.4601 LP  0  0  0  0  0  0  0  0  0  0  0  0  # atno 17371 bound_to 10713
  141.0205  134.0896  157.4126 LP  0  0  0  0  0  0  0  0  0  0  0  0  # atno 17394 bound_to 11000
  139.8911  135.0116  156.6771 LP  0  0  0  0  0  0  0  0  0  0  0  0  # atno 17395 bound_to 11000

$$$$
