#       Name:                AV-unprocessed.smi:3117
#       Creating user name   scv26
#       Creation time:       Fri Mar 27 17:26:45 2020


#       File generated by GOLD software.
#

@<TRIPOS>MOLECULE
AV-unprocessed.smi:3117
    40    40     1
SMALL
NO_CHARGES


@<TRIPOS>ATOM
      1 ****        -1.2908  -0.9370  -1.8624 C.3            1 S1                 0.0000
      2 ****        -0.7389  -0.2375  -0.6069 C.3            1 S1                 0.0000
      3 ****         0.7397  -0.2617  -0.6595 N.4            1 S1                 1.0000
      4 ****         1.3901   1.0654  -0.6039 C.3            1 S1                 0.0000
      5 ****         2.9289   0.9591  -0.5475 C.3            1 S1                 0.0000
      6 ****         3.5623   2.3601  -0.5786 C.3            1 S1                 0.0000
      7 ****         3.4120   0.1821   0.6913 C.3            1 S1                 0.0000
      8 ****         3.3732   0.2822  -1.7075 O.3            1 S1                 0.0000
      9 ****        -1.2377  -0.8718   0.7181 C.3            1 S1                 0.0000
     10 ****        -0.7989  -0.0808   1.9643 C.3            1 S1                 0.0000
     11 ****        -2.6852  -1.0444   0.7253 N.pl3          1 S1                 0.0000
     12 ****        -3.6718  -0.0781   0.7466 C.2            1 S1                 0.0000
     13 ****        -4.8753  -0.7225   0.7310 C.2            1 S1                 0.0000
     14 ****        -4.5206  -2.0998   0.6952 C.2            1 S1                 0.0000
     15 ****        -3.2110  -2.2886   0.6900 N.2            1 S1                 0.0000
     16 ****        -2.3762  -0.8581  -1.9281 H              1 S1                 0.0000
     17 ****        -1.0335  -1.9968  -1.8713 H              1 S1                 0.0000
     18 ****        -0.8842  -0.4890  -2.7696 H              1 S1                 0.0000
     19 ****        -1.0819   0.7982  -0.6434 H              1 S1                 0.0000
     20 ****         1.0771  -0.8189   0.1122 H              1 S1                 0.0000
     21 ****         1.0819   1.6405  -1.4785 H              1 S1                 0.0000
     22 ****         1.0282   1.6049   0.2724 H              1 S1                 0.0000
     23 ****         3.2619   2.9479   0.2897 H              1 S1                 0.0000
     24 ****         3.2625   2.9141  -1.4694 H              1 S1                 0.0000
     25 ****         4.6517   2.3064  -0.5771 H              1 S1                 0.0000
     26 ****         3.0790   0.6642   1.6111 H              1 S1                 0.0000
     27 ****         4.5008   0.1276   0.7258 H              1 S1                 0.0000
     28 ****         3.0364  -0.8415   0.7022 H              1 S1                 0.0000
     29 ****         4.3184   0.2538  -1.6975 H              1 S1                 0.0000
     30 ****        -0.7947  -1.8670   0.7966 H              1 S1                 0.0000
     31 ****         0.2866  -0.0524   2.0589 H              1 S1                 0.0000
     32 ****        -1.1878  -0.5392   2.8742 H              1 S1                 0.0000
     33 ****        -1.1564   0.9489   1.9324 H              1 S1                 0.0000
     34 ****        -3.4384   0.9761   0.7705 H              1 S1                 0.0000
     35 ****        -5.8594  -0.2776   0.7420 H              1 S1                 0.0000
     36 ****        -5.1708  -2.9619   0.6718 H              1 S1                 0.0000
     37 ****         1.0235  -0.7083  -1.5200 H              1 S1                 0.0000
     38 ****         3.0595   0.7694  -2.5226 LP             1 S1                 0.0000
     39 ****         3.0084  -0.6488  -1.7146 LP             1 S1                 0.0000
     40 ****        -2.7194  -3.1590   0.6654 LP             1 S1                 0.0000
@<TRIPOS>BOND
    1    1    2 1     
    2    1   16 1     
    3    1   17 1     
    4    1   18 1     
    5    2    3 1     
    6    2    9 1     
    7    2   19 1     
    8    3    4 1     
    9    3   20 1     
   10    3   37 1     
   11    4    5 1     
   12    4   21 1     
   13    4   22 1     
   14    5    6 1     
   15    5    7 1     
   16    5    8 1     
   17    6   23 1     
   18    6   24 1     
   19    6   25 1     
   20    7   26 1     
   21    7   27 1     
   22    7   28 1     
   23    8   29 1     
   24    9   10 1     
   25    9   11 1     
   26    9   30 1     
   27   10   31 1     
   28   10   32 1     
   29   10   33 1     
   30   11   15 1     
   31   11   12 1     
   32   12   13 2     
   33   12   34 1     
   34   13   14 1     
   35   13   35 1     
   36   14   15 2     
   37   14   36 1     
   38    8   38 1     
   39    8   39 1     
   40   15   40 1     
@<TRIPOS>SUBSTRUCTURE
      1 S1             1
@<TRIPOS>SET
LONE_PAIRS      STATIC     ATOMS    <user>   **** ""
3 38 39 40
DONOR_HYDROGENS      STATIC     ATOMS    <user>   **** ""
3 20 37 29
ATOM$BLUE        STATIC     ATOMS    COLORGROUP SYSTEM
3 38 39 40
ATOM$RED        STATIC     ATOMS    COLORGROUP SYSTEM
3 20 37 29
