AV-unprocessed.smi:609|AV-procd|sdf|3049|dock7
  -GOLD-   2262023573D 1   1.00000     0.00000
 Structure written by MMmdl.
 44 46  0  0  0  0  0  0  0  0  3 V2000
  152.5380  143.4886  160.8694 C   0  0  0  0  0  0  0  0  0  0  0  0
  152.2001  142.6617  159.6404 C   0  0  0  0  0  0  0  0  0  0  0  0
  151.2850  143.1907  158.7022 C   0  0  0  0  0  0  0  0  0  0  0  0
  150.9992  142.4123  157.5869 C   0  0  0  0  0  0  0  0  0  0  0  0
  150.1611  142.6491  156.4950 N   0  3  0  0  0  0  0  0  0  0  0  0
  150.2116  141.5867  155.6444 C   0  0  0  0  0  0  0  0  0  0  0  0
  151.0610  140.6701  156.1836 N   0  0  0  0  0  0  0  0  0  0  0  0
  151.4757  139.3539  155.6811 C   0  0  0  0  0  0  0  0  0  0  0  0
  150.3826  138.2740  155.8184 C   0  0  2  0  0  0  0  0  0  0  0  0
  149.7572  138.4514  157.0724 O   0  0  0  0  0  0  0  0  0  0  0  0
  150.9166  136.8334  155.7142 C   0  0  0  0  0  0  0  0  0  0  0  0
  149.8055  135.6328  156.5009 S   0  0  0  0  0  0  0  0  0  0  0  0
  149.6787  134.2954  155.3552 C   0  0  0  0  0  0  0  0  0  0  0  0
  149.2727  134.4152  154.0886 N   0  3  0  0  0  0  0  0  0  0  0  0
  149.2894  133.1906  153.4771 C   0  0  0  0  0  0  0  0  0  0  0  0
  149.7325  132.2919  154.4148 C   0  0  0  0  0  0  0  0  0  0  0  0
  149.9707  133.0021  155.5643 N   0  0  0  0  0  0  0  0  0  0  0  0
  150.4693  132.4632  156.8319 C   0  0  0  0  0  0  0  0  0  0  0  0
  151.5847  141.1468  157.3896 C   0  0  0  0  0  0  0  0  0  0  0  0
  152.4885  140.6108  158.3030 C   0  0  0  0  0  0  0  0  0  0  0  0
  152.7955  141.3888  159.4422 C   0  0  0  0  0  0  0  0  0  0  0  0
  153.7820  140.8322  160.4548 C   0  0  0  0  0  0  0  0  0  0  0  0
  151.9834  144.4273  160.8839 H   0  0  0  0  0  0  0  0  0  0  0  0
  153.6011  143.7297  160.8870 H   0  0  0  0  0  0  0  0  0  0  0  0
  152.2909  142.9421  161.7798 H   0  0  0  0  0  0  0  0  0  0  0  0
  150.8306  144.1602  158.8449 H   0  0  0  0  0  0  0  0  0  0  0  0
  149.6732  141.4883  154.7126 H   0  0  0  0  0  0  0  0  0  0  0  0
  151.7494  139.4808  154.6325 H   0  0  0  0  0  0  0  0  0  0  0  0
  152.3860  139.0589  156.2054 H   0  0  0  0  0  0  0  0  0  0  0  0
  149.6271  138.4275  155.0474 H   0  0  0  0  0  0  0  0  0  0  0  0
  150.4232  138.6312  157.7187 H   0  0  0  0  0  0  0  0  0  0  0  0
  151.0270  136.5489  154.6693 H   0  0  0  0  0  0  0  0  0  0  0  0
  151.9045  136.7566  156.1701 H   0  0  0  0  0  0  0  0  0  0  0  0
  148.9944  133.0535  152.4469 H   0  0  0  0  0  0  0  0  0  0  0  0
  149.8952  131.2256  154.3484 H   0  0  0  0  0  0  0  0  0  0  0  0
  151.0147  131.5387  156.6405 H   0  0  0  0  0  0  0  0  0  0  0  0
  149.6254  132.2535  157.4890 H   0  0  0  0  0  0  0  0  0  0  0  0
  151.1419  133.1791  157.3050 H   0  0  0  0  0  0  0  0  0  0  0  0
  152.9423  139.6425  158.1507 H   0  0  0  0  0  0  0  0  0  0  0  0
  154.1793  139.8679  160.1365 H   0  0  0  0  0  0  0  0  0  0  0  0
  153.2988  140.6917  161.4219 H   0  0  0  0  0  0  0  0  0  0  0  0
  154.6249  141.5116  160.5832 H   0  0  0  0  0  0  0  0  0  0  0  0
  148.9930  135.2840  153.6507 H   0  0  0  0  0  0  0  0  0  0  0  0
  149.6014  143.4773  156.3360 H   0  0  0  0  0  0  0  0  0  0  0  0
  1  2  1  0  0  0  0
  1 23  1  0  0  0  0
  1 24  1  0  0  0  0
  1 25  1  0  0  0  0
  2 21  1  0  0  0  0
  2  3  2  0  0  0  0
  3  4  1  0  0  0  0
  3 26  1  0  0  0  0
  4 19  2  0  0  0  0
  4  5  1  0  0  0  0
  5  6  2  0  0  0  0
  5 44  1  0  0  0  0
  6  7  1  0  0  0  0
  6 27  1  0  0  0  0
  7  8  1  0  0  0  0
  7 19  1  0  0  0  0
  8  9  1  0  0  0  0
  8 28  1  0  0  0  0
  8 29  1  0  0  0  0
  9 10  1  0  0  0  0
  9 11  1  0  0  0  0
  9 30  1  0  0  0  0
 10 31  1  0  0  0  0
 11 12  1  0  0  0  0
 11 32  1  0  0  0  0
 11 33  1  0  0  0  0
 12 13  1  0  0  0  0
 13 17  1  0  0  0  0
 13 14  2  0  0  0  0
 14 15  1  0  0  0  0
 14 43  1  0  0  0  0
 15 16  2  0  0  0  0
 15 34  1  0  0  0  0
 16 17  1  0  0  0  0
 16 35  1  0  0  0  0
 17 18  1  0  0  0  0
 18 36  1  0  0  0  0
 18 37  1  0  0  0  0
 18 38  1  0  0  0  0
 19 20  1  0  0  0  0
 20 21  2  0  0  0  0
 20 39  1  0  0  0  0
 21 22  1  0  0  0  0
 22 40  1  0  0  0  0
 22 41  1  0  0  0  0
 22 42  1  0  0  0  0
M  CHG  1   5   1
M  CHG  1  14   1
M  END
> <s_m_source_file>
AV-unprocessed.smi

> <i_m_source_file_index>
609

> <i_lp_mmshare_version>
43012

> <i_f3d_flags>
0

> <s_epik_input>
W0NIM11jKFtjSF0xKWMoW0NIM10pW2NIXWMoYzEyKW4oW2NIXW4yKVtDSDJdW0NASF0oW09IXSlbQ0gyXVNjM25bY0hdW2NIXW4zW0NIM10=

> <s_epik_cmdline>
J2VwaWtfcHl0aG9uJywgJy1waCcsICc3LjAnLCAnLXRuJywgJzgnLCAnLW1hJywgJzIwMCcsICctbWV0YWxfYmluZGluZycsICctaW1hZScsICc8aW5maWxlLm1hZT4nLCAnLW9tYWUnLCAnPG91dGZpbGUubWFlPic=

> <r_lp_tautomer_probability>
1

> <r_epik_Ionization_Penalty>
1.19058

> <r_epik_Ionization_Penalty_Charging>
1.07615

> <r_epik_Ionization_Penalty_Neutral>
0.114429

> <r_epik_State_Penalty>
1.23473

> <r_epik_Charging_Adjusted_Penalty>
2.31088

> <i_epik_Tot_Q>
2

> <i_epik_Tot_abs_Q>
2

> <r_epik_Metal_State_Penalty>
4.63867

> <b_epik_Metal_Only>
0

> <s_lp_Force_Field>
OPLS_2005

> <r_lp_Energy>
20.2349

> <b_lp_Chiralities_Consistent>
1

> <s_lp_Variant>
AV-unprocessed.smi:609-5

> <Gold.Version>
5.8.1

> <Gold.Id.Protein>
6NUR|6NUR_protein|mol2

> <Gold.PLP.Fitness>
53.8030

> <Gold.PLP.PLP>
-44.6502

> <Gold.PLP.part.hbond>
-2.0000

> <Gold.PLP.part.metal>
0.0000

> <Gold.PLP.part.buried>
-6.2130

> <Gold.PLP.part.nonpolar>
-37.3161

> <Gold.PLP.part.repulsive>
0.0883

> <Gold.PLP.ligand.clash>
0.0000

> <Gold.PLP.ligand.torsion>
0.8910

> <Gold.PLP.Chemscore.Hbond>
3.6320

> <Gold.PLP.Chemscore.CHOScore>
0.0000

> <Gold.PLP.Chemscore.Metal>
0.0000

> <Gold.Chemscore.Hbonds>
donor molecule, donor type, donor heavy atom, donor atom, acceptor molecule, acceptor atom, score
      L1  H     5    44       P1  8028  2.00
      L1  H    14    43       P1  7948  1.63

> <Gold.PLP.Chemscore.Internal.Correction>
0.0387

> <Gold.Rescore>
     Score         DG    S(hbond)    S(metal)    S(lipo)     H(rot)  DE(clash)    DE(int)     intcor
     16.14     -16.98       1.63        0.00     108.19       2.59       0.03       0.81       ----

> <Gold.Chemscore.Fitness>
16.1430

> <Gold.Chemscore.DG>
-16.9752

> <Gold.Chemscore.ZeroCoef>
-5.4800

> <Gold.Chemscore.Hbond>
1.6342

> <Gold.Chemscore.Metal>
0.0000

> <Gold.Chemscore.Lipo>
108.1865

> <Gold.Chemscore.Internal_Hbond>
0.0000

> <Gold.Chemscore.DEClash>
0.0256

> <Gold.Chemscore.DEInternal>
0.8065

> <Gold.Chemscore.Rot>
2.5863

> <Gold.Chemscore.Internal.Correction>
   9.000000E+99

> <Gold.Chemscore.Hbonds>
donor molecule, donor type, donor heavy atom, donor atom, acceptor molecule, acceptor atom, score
      L1  H     5    44       P1  8028  0.98
      L1  H    14    43       P1  7948  0.48

> <Gold.Chemscore.Hbond.Weighted>
-5.4583

> <Gold.Chemscore.Metal.Weighted>
-0.0000

> <Gold.Chemscore.Lipo.Weighted>
-12.6578

> <Gold.Chemscore.Internal_Hbond.Weighted>
0.0000

> <Gold.Chemscore.DEClash.Weighted>
0.0256

> <Gold.Chemscore.DEInternal.Weighted>
0.8065

> <Gold.Chemscore.Rot.Weighted>
6.6210

> <Gold.Chemscore.Internal.Correction.Weighted>
   9.000000E+99

> <Gold.Protein.RotatedTorsions>
[ 6907 6896 6895 6894 ] final  100.31 input  -60.11 | X-H torsion
[ 7974 7965 7964 7962 ] final -107.65 input  175.53 | X-H torsion
[ 8008 7997 7996 7995 ] final  137.74 input   59.86 | X-H torsion
[ 10167 10162 10161 10158 ] final -106.43 input  -65.29 | X-H torsion
[ 10718 10713 10712 10709 ] final   32.52 input   66.30 | X-H torsion
[ 10763 10752 10751 10750 ] final  -13.41 input  -60.55 | X-H torsion
[ 11005 11000 10999 10996 ] final -105.03 input  -57.11 | X-H torsion

> <Gold.Protein.ActiveResidues>
 VAL166  LYS551  ARG553  GLY616  TRP617  ASP618  TYR619  PRO620  LYS621  CYS622 
 ASP623  PHE694  ASN695  SER759  ASP760  ASP761  ALA762  ILE779  LEU786  VAL792 
 PHE793  MET794  SER795  GLU796  ALA797  LYS798  CYS799  TRP800  GLU811  SER814 

> <Gold.Protein.RotatedAtoms>
  152.5374  134.0296  159.8018 H   0  0  0  0  0  0  0  0  0  0  0  0  # atno 6907 bound_to 6896
  151.0469  133.5650  159.2653 H   0  0  0  0  0  0  0  0  0  0  0  0  # atno 6908 bound_to 6896
  151.2599  135.0658  159.9148 H   0  0  0  0  0  0  0  0  0  0  0  0  # atno 6909 bound_to 6896
  145.2026  140.9063  143.3360 H   0  0  0  0  0  0  0  0  0  0  0  0  # atno 7974 bound_to 7965
  156.3001  140.2411  156.3960 H   0  0  0  0  0  0  0  0  0  0  0  0  # atno 8008 bound_to 7997
  154.8571  140.0421  157.1661 H   0  0  0  0  0  0  0  0  0  0  0  0  # atno 8009 bound_to 7997
  154.8937  140.2967  155.5360 H   0  0  0  0  0  0  0  0  0  0  0  0  # atno 8010 bound_to 7997
  140.1879  143.3915  152.1230 H   0  0  0  0  0  0  0  0  0  0  0  0  # atno 10167 bound_to 10162
  157.2862  130.7280  149.6585 H   0  0  0  0  0  0  0  0  0  0  0  0  # atno 10718 bound_to 10713
  153.5129  135.7016  153.5771 H   0  0  0  0  0  0  0  0  0  0  0  0  # atno 10763 bound_to 10752
  153.3854  135.3909  155.1886 H   0  0  0  0  0  0  0  0  0  0  0  0  # atno 10764 bound_to 10752
  154.8701  135.3845  154.4611 H   0  0  0  0  0  0  0  0  0  0  0  0  # atno 10765 bound_to 10752
  141.1072  133.8774  157.1685 H   0  0  0  0  0  0  0  0  0  0  0  0  # atno 11005 bound_to 11000
  144.9933  139.3668  143.6204 LP  0  0  0  0  0  0  0  0  0  0  0  0  # atno 17320 bound_to 7965
  146.3414  139.9125  142.8778 LP  0  0  0  0  0  0  0  0  0  0  0  0  # atno 17321 bound_to 7965
  139.5268  144.7112  151.5199 LP  0  0  0  0  0  0  0  0  0  0  0  0  # atno 17342 bound_to 10162
  140.6476  143.8763  150.6753 LP  0  0  0  0  0  0  0  0  0  0  0  0  # atno 17343 bound_to 10162
  155.9665  130.4323  150.4956 LP  0  0  0  0  0  0  0  0  0  0  0  0  # atno 17370 bound_to 10713
  157.2909  131.0626  151.2134 LP  0  0  0  0  0  0  0  0  0  0  0  0  # atno 17371 bound_to 10713
  139.9948  135.0051  157.0058 LP  0  0  0  0  0  0  0  0  0  0  0  0  # atno 17394 bound_to 11000
  140.4870  134.1232  155.7226 LP  0  0  0  0  0  0  0  0  0  0  0  0  # atno 17395 bound_to 11000

$$$$
