AV-unprocessed.smi:1128|AV-procd|sdf|4843|dock9
  -GOLD-   22720 3413D 1   1.00000     0.00000
 Structure written by MMmdl.
 38 39  0  0  0  0  0  0  0  0  1 V2000
  150.7309  140.4791  155.2707 O   0  0  0  0  0  0  0  0  0  0  0  0
  150.9975  140.1485  156.4256 C   0  0  0  0  0  0  0  0  0  0  0  0
  151.3558  141.0243  157.3749 N   0  0  0  0  0  0  0  0  0  0  0  0
  151.4698  142.4671  157.1863 C   0  0  0  0  0  0  0  0  0  0  0  0
  151.3857  143.2461  158.5156 C   0  0  1  0  0  0  0  0  0  0  0  0
  152.1108  142.5178  159.6725 C   0  0  0  0  0  0  0  0  0  0  0  0
  152.2886  143.3960  160.8982 C   0  0  0  0  0  0  0  0  0  0  0  0
  152.1235  144.7290  160.8853 C   0  0  0  0  0  0  0  0  0  0  0  0
  151.7482  145.5099  159.6400 C   0  0  0  0  0  0  0  0  0  0  0  0
  151.9268  144.6794  158.3555 C   0  0  0  0  0  0  0  0  0  0  0  0
  150.9887  138.8939  156.9129 N   0  0  0  0  0  0  0  0  0  0  0  0
  150.6720  137.6832  156.2726 C   0  0  0  0  0  0  0  0  0  0  0  0
  149.9326  136.6802  156.8150 C   0  0  0  0  0  0  0  0  0  0  0  0
  149.6459  135.4537  156.0896 C   0  0  0  0  0  0  0  0  0  0  0  0
  148.8668  134.3153  156.7300 C   0  0  0  0  0  0  0  0  0  0  0  0
  149.6013  133.2046  156.8028 F   0  0  0  0  0  0  0  0  0  0  0  0
  148.4748  134.6390  157.9622 F   0  0  0  0  0  0  0  0  0  0  0  0
  147.7803  134.0480  156.0070 F   0  0  0  0  0  0  0  0  0  0  0  0
  150.1737  135.3481  154.8562 C   0  0  0  0  0  0  0  0  0  0  0  0
  150.9319  136.3748  154.2900 N   0  0  0  0  0  0  0  0  0  0  0  0
  151.2235  137.5375  154.9149 C   0  0  0  0  0  0  0  0  0  0  0  0
  151.9081  138.3903  154.3504 O   0  0  0  0  0  0  0  0  0  0  0  0
  151.2847  136.2234  153.3559 H   0  0  0  0  0  0  0  0  0  0  0  0
  151.5645  140.6687  158.2964 H   0  0  0  0  0  0  0  0  0  0  0  0
  152.4239  142.6676  156.6980 H   0  0  0  0  0  0  0  0  0  0  0  0
  150.6962  142.8085  156.4963 H   0  0  0  0  0  0  0  0  0  0  0  0
  150.3321  143.3328  158.7866 H   0  0  0  0  0  0  0  0  0  0  0  0
  151.5530  141.6265  159.9620 H   0  0  0  0  0  0  0  0  0  0  0  0
  153.0992  142.1846  159.3546 H   0  0  0  0  0  0  0  0  0  0  0  0
  152.5719  142.8999  161.8149 H   0  0  0  0  0  0  0  0  0  0  0  0
  152.2489  145.2949  161.7968 H   0  0  0  0  0  0  0  0  0  0  0  0
  150.7108  145.8293  159.7417 H   0  0  0  0  0  0  0  0  0  0  0  0
  152.3554  146.4137  159.5849 H   0  0  0  0  0  0  0  0  0  0  0  0
  152.9859  144.6354  158.0982 H   0  0  0  0  0  0  0  0  0  0  0  0
  151.4307  145.1846  157.5260 H   0  0  0  0  0  0  0  0  0  0  0  0
  151.2774  138.7901  157.8749 H   0  0  0  0  0  0  0  0  0  0  0  0
  149.5346  136.7560  157.8132 H   0  0  0  0  0  0  0  0  0  0  0  0
  150.0636  134.4831  154.2188 H   0  0  0  0  0  0  0  0  0  0  0  0
  1  2  2  0  0  0  0
  2  3  1  0  0  0  0
  2 11  1  0  0  0  0
  3  4  1  0  0  0  0
  3 24  1  0  0  0  0
  4  5  1  0  0  0  0
  4 25  1  0  0  0  0
  4 26  1  0  0  0  0
  5 10  1  0  0  0  0
  5  6  1  0  0  0  0
  5 27  1  0  0  0  0
  6  7  1  0  0  0  0
  6 28  1  0  0  0  0
  6 29  1  0  0  0  0
  7  8  2  0  0  0  0
  7 30  1  0  0  0  0
  8  9  1  0  0  0  0
  8 31  1  0  0  0  0
  9 10  1  0  0  0  0
  9 32  1  0  0  0  0
  9 33  1  0  0  0  0
 10 34  1  0  0  0  0
 10 35  1  0  0  0  0
 11 12  1  0  0  0  0
 11 36  1  0  0  0  0
 12 21  1  0  0  0  0
 12 13  2  0  0  0  0
 13 14  1  0  0  0  0
 13 37  1  0  0  0  0
 14 15  1  0  0  0  0
 14 19  2  0  0  0  0
 15 16  1  0  0  0  0
 15 17  1  0  0  0  0
 15 18  1  0  0  0  0
 19 20  1  0  0  0  0
 19 38  1  0  0  0  0
 20 23  1  0  0  0  0
 20 21  1  0  0  0  0
 21 22  2  0  0  0  0
M  END
> <s_m_source_file>
AV-unprocessed.smi

> <i_m_source_file_index>
1128

> <i_lp_mmshare_version>
43012

> <i_f3d_flags>
0

> <s_epik_input>
Tz1jMVtuSF1bY0hdYyhDKEYpKEYpRilbY0hdYzFbTkhdQyg9TylbTkhdW0NIMl1bQ0BASF0yW0NIMl1bQ0hdPVtDSF1bQ0gyXVtDSDJdMg==

> <s_epik_cmdline>
J2VwaWtfcHl0aG9uJywgJy1waCcsICc3LjAnLCAnLXRuJywgJzgnLCAnLW1hJywgJzIwMCcsICctbWV0YWxfYmluZGluZycsICctaW1hZScsICc8aW5maWxlLm1hZT4nLCAnLW9tYWUnLCAnPG91dGZpbGUubWFlPic=

> <r_lp_tautomer_probability>
1

> <r_epik_Ionization_Penalty>
0.00381734

> <r_epik_Ionization_Penalty_Charging>
0.00379608

> <r_epik_Ionization_Penalty_Neutral>
2.12611e-05

> <r_epik_State_Penalty>
-0

> <r_epik_Charging_Adjusted_Penalty>
0.00379608

> <i_epik_Tot_Q>
0

> <i_epik_Tot_abs_Q>
0

> <r_epik_Metal_State_Penalty>
0.371155

> <b_epik_Metal_Only>
0

> <s_lp_Force_Field>
OPLS_2005

> <r_lp_Energy>
19.5554

> <b_lp_Chiralities_Consistent>
1

> <s_lp_Variant>
AV-unprocessed.smi:1128-2

> <Gold.Version>
5.8.1

> <Gold.Id.Protein>
6NUR|6NUR_protein|mol2

> <Gold.PLP.Fitness>
40.7158

> <Gold.PLP.PLP>
-36.0437

> <Gold.PLP.part.hbond>
-2.6149

> <Gold.PLP.part.metal>
0.0000

> <Gold.PLP.part.buried>
-6.3662

> <Gold.PLP.part.nonpolar>
-28.0745

> <Gold.PLP.part.repulsive>
0.8374

> <Gold.PLP.ligand.clash>
0.0000

> <Gold.PLP.ligand.torsion>
0.6839

> <Gold.PLP.Chemscore.Hbond>
2.0000

> <Gold.PLP.Chemscore.CHOScore>
0.0000

> <Gold.PLP.Chemscore.Metal>
0.0000

> <Gold.Chemscore.Hbonds>
donor molecule, donor type, donor heavy atom, donor atom, acceptor molecule, acceptor atom, score
      L1  H    20    23       P1  7949  1.00
      P1  H  7989  7998       L1     1  1.00

> <Gold.PLP.Chemscore.Internal.Correction>
0.0398

> <Gold.Rescore>
     Score         DG    S(hbond)    S(metal)    S(lipo)     H(rot)  DE(clash)    DE(int)     intcor
     13.99     -19.41       1.75        0.00      97.68       1.30       1.02       4.40       ----

> <Gold.Chemscore.Fitness>
13.9862

> <Gold.Chemscore.DG>
-19.4096

> <Gold.Chemscore.ZeroCoef>
-5.4800

> <Gold.Chemscore.Hbond>
1.7482

> <Gold.Chemscore.Metal>
0.0000

> <Gold.Chemscore.Lipo>
97.6781

> <Gold.Chemscore.Internal_Hbond>
0.0000

> <Gold.Chemscore.DEClash>
1.0245

> <Gold.Chemscore.DEInternal>
4.3990

> <Gold.Chemscore.Rot>
1.3038

> <Gold.Chemscore.Internal.Correction>
   9.000000E+99

> <Gold.Chemscore.Hbonds>
donor molecule, donor type, donor heavy atom, donor atom, acceptor molecule, acceptor atom, score
      L1  H    20    23       P1  7949  0.59
      P1  H  7989  7998       L1     1  0.89

> <Gold.Chemscore.Hbond.Weighted>
-5.8390

> <Gold.Chemscore.Metal.Weighted>
-0.0000

> <Gold.Chemscore.Lipo.Weighted>
-11.4283

> <Gold.Chemscore.Internal_Hbond.Weighted>
0.0000

> <Gold.Chemscore.DEClash.Weighted>
1.0245

> <Gold.Chemscore.DEInternal.Weighted>
4.3990

> <Gold.Chemscore.Rot.Weighted>
3.3377

> <Gold.Chemscore.Internal.Correction.Weighted>
   9.000000E+99

> <Gold.Protein.RotatedTorsions>
[ 6907 6896 6895 6894 ] final -117.47 input  -60.11 | X-H torsion
[ 7974 7965 7964 7962 ] final   32.28 input  175.53 | X-H torsion
[ 8008 7997 7996 7995 ] final    7.86 input   59.86 | X-H torsion
[ 10167 10162 10161 10158 ] final -136.37 input  -65.29 | X-H torsion
[ 10718 10713 10712 10709 ] final  163.94 input   66.30 | X-H torsion
[ 10763 10752 10751 10750 ] final -108.20 input  -60.55 | X-H torsion
[ 11005 11000 10999 10996 ] final   -1.32 input  -57.11 | X-H torsion

> <Gold.Protein.ActiveResidues>
 VAL166  LYS551  ARG553  GLY616  TRP617  ASP618  TYR619  PRO620  LYS621  CYS622 
 ASP623  PHE694  ASN695  SER759  ASP760  ASP761  ALA762  ILE779  LEU786  VAL792 
 PHE793  MET794  SER795  GLU796  ALA797  LYS798  CYS799  TRP800  GLU811  SER814 

> <Gold.Protein.RotatedAtoms>
  150.8140  133.8371  159.3169 H   0  0  0  0  0  0  0  0  0  0  0  0  # atno 6907 bound_to 6896
  151.6148  135.1035  160.0098 H   0  0  0  0  0  0  0  0  0  0  0  0  # atno 6908 bound_to 6896
  152.4231  133.7110  159.6535 H   0  0  0  0  0  0  0  0  0  0  0  0  # atno 6909 bound_to 6896
  146.1496  139.6547  142.9107 H   0  0  0  0  0  0  0  0  0  0  0  0  # atno 7974 bound_to 7965
  154.7593  140.2781  155.6227 H   0  0  0  0  0  0  0  0  0  0  0  0  # atno 8008 bound_to 7997
  156.2912  140.2663  156.2294 H   0  0  0  0  0  0  0  0  0  0  0  0  # atno 8009 bound_to 7997
  155.0038  140.0372  157.2361 H   0  0  0  0  0  0  0  0  0  0  0  0  # atno 8010 bound_to 7997
  139.8685  143.6987  152.2642 H   0  0  0  0  0  0  0  0  0  0  0  0  # atno 10167 bound_to 10162
  157.1014  131.0444  151.2496 H   0  0  0  0  0  0  0  0  0  0  0  0  # atno 10718 bound_to 10713
  154.8121  135.4646  154.0545 H   0  0  0  0  0  0  0  0  0  0  0  0  # atno 10763 bound_to 10752
  153.1967  135.6863  153.8290 H   0  0  0  0  0  0  0  0  0  0  0  0  # atno 10764 bound_to 10752
  153.7789  135.3259  155.3340 H   0  0  0  0  0  0  0  0  0  0  0  0  # atno 10765 bound_to 10752
  140.6461  133.9446  155.8353 H   0  0  0  0  0  0  0  0  0  0  0  0  # atno 11005 bound_to 11000
  145.4854  141.0438  143.2623 LP  0  0  0  0  0  0  0  0  0  0  0  0  # atno 17320 bound_to 7965
  144.7888  139.6370  143.7122 LP  0  0  0  0  0  0  0  0  0  0  0  0  # atno 17321 bound_to 7965
  139.7306  144.7583  151.0808 LP  0  0  0  0  0  0  0  0  0  0  0  0  # atno 17342 bound_to 10162
  140.7764  143.5093  150.9673 LP  0  0  0  0  0  0  0  0  0  0  0  0  # atno 17343 bound_to 10162
  157.4637  130.7668  149.7259 LP  0  0  0  0  0  0  0  0  0  0  0  0  # atno 17370 bound_to 10713
  155.9872  130.3968  150.3173 LP  0  0  0  0  0  0  0  0  0  0  0  0  # atno 17371 bound_to 10713
  141.0571  134.0400  157.3707 LP  0  0  0  0  0  0  0  0  0  0  0  0  # atno 17394 bound_to 11000
  139.9063  135.0180  156.7498 LP  0  0  0  0  0  0  0  0  0  0  0  0  # atno 17395 bound_to 11000

$$$$
