AV-unprocessed.smi:2154|AV-procd|sdf|8777|dock6
  -GOLD-   2272011553D 1   1.00000     0.00000
 Structure written by MMmdl.
 31 32  0  0  0  0  0  0  0  0  2 V2000
  154.2987  141.4942  160.7624 C   0  0  0  0  0  0  0  0  0  0  0  0
  152.8900  142.0459  160.7144 C   0  0  1  0  0  0  0  0  0  0  0  0
  152.5298  143.3025  161.4742 C   0  0  0  0  0  0  0  0  0  0  0  0
  152.5848  143.3237  159.9650 C   0  0  2  0  0  0  0  0  0  0  0  0
  151.3213  143.4514  159.1407 C   0  0  0  0  0  0  0  0  0  0  0  0
  151.4113  142.8187  157.8320 N   0  0  0  0  0  0  0  0  0  0  0  0
  150.5681  141.8947  157.3418 C   0  0  0  0  0  0  0  0  0  0  0  0
  149.5884  141.4858  157.9646 O   0  0  0  0  0  0  0  0  0  0  0  0
  150.8423  141.3357  155.9342 C   0  0  0  0  0  0  0  0  0  0  0  0
  150.9823  139.8694  155.8614 N   0  0  0  0  0  0  0  0  0  0  0  0
  150.2418  139.1949  154.8746 C   0  0  0  0  0  0  0  0  0  0  0  0
  150.3070  137.8580  154.7263 C   0  0  0  0  0  0  0  0  0  0  0  0
  151.1752  137.1058  155.6232 C   0  0  0  0  0  0  0  0  0  0  0  0
  151.2463  135.8844  155.5032 O   0  0  0  0  0  0  0  0  0  0  0  0
  151.8760  137.8056  156.5628 N   0  5  0  0  0  0  0  0  0  0  0  0
  151.8003  139.1655  156.7017 C   0  0  0  0  0  0  0  0  0  0  0  0
  152.4476  139.7781  157.5510 O   0  0  0  0  0  0  0  0  0  0  0  0
  155.0317  142.3016  160.7709 H   0  0  0  0  0  0  0  0  0  0  0  0
  154.4837  140.8664  159.8907 H   0  0  0  0  0  0  0  0  0  0  0  0
  154.4346  140.8920  161.6608 H   0  0  0  0  0  0  0  0  0  0  0  0
  152.1222  141.2750  160.6866 H   0  0  0  0  0  0  0  0  0  0  0  0
  151.5503  143.3403  161.9469 H   0  0  0  0  0  0  0  0  0  0  0  0
  153.3240  143.8193  162.0093 H   0  0  0  0  0  0  0  0  0  0  0  0
  153.4416  143.8327  159.5265 H   0  0  0  0  0  0  0  0  0  0  0  0
  150.5022  143.0261  159.7223 H   0  0  0  0  0  0  0  0  0  0  0  0
  151.0861  144.5066  158.9978 H   0  0  0  0  0  0  0  0  0  0  0  0
  152.1911  143.0903  157.2501 H   0  0  0  0  0  0  0  0  0  0  0  0
  150.0457  141.6721  155.2688 H   0  0  0  0  0  0  0  0  0  0  0  0
  151.7457  141.8141  155.5533 H   0  0  0  0  0  0  0  0  0  0  0  0
  149.6280  139.8262  154.2488 H   0  0  0  0  0  0  0  0  0  0  0  0
  149.7331  137.3557  153.9617 H   0  0  0  0  0  0  0  0  0  0  0  0
  1  2  1  0  0  0  0
  1 18  1  0  0  0  0
  1 19  1  0  0  0  0
  1 20  1  0  0  0  0
  2  4  1  0  0  0  0
  2  3  1  0  0  0  0
  2 21  1  0  0  0  0
  3  4  1  0  0  0  0
  3 22  1  0  0  0  0
  3 23  1  0  0  0  0
  4  5  1  0  0  0  0
  4 24  1  0  0  0  0
  5  6  1  0  0  0  0
  5 25  1  0  0  0  0
  5 26  1  0  0  0  0
  6  7  1  0  0  0  0
  6 27  1  0  0  0  0
  7  8  2  0  0  0  0
  7  9  1  0  0  0  0
  9 10  1  0  0  0  0
  9 28  1  0  0  0  0
  9 29  1  0  0  0  0
 10 16  1  0  0  0  0
 10 11  1  0  0  0  0
 11 12  2  0  0  0  0
 11 30  1  0  0  0  0
 12 13  1  0  0  0  0
 12 31  1  0  0  0  0
 13 14  2  0  0  0  0
 13 15  1  0  0  0  0
 15 16  1  0  0  0  0
 16 17  2  0  0  0  0
M  CHG  1  15  -1
M  END
> <s_m_source_file>
AV-unprocessed.smi

> <i_m_source_file_index>
2154

> <i_lp_mmshare_version>
43012

> <i_f3d_flags>
0

> <s_epik_input>
W0NIM11bQ0BASF0xW0NIMl1bQ0BIXTFbQ0gyXVtOSF1DKD1PKVtDSDJdbjJbY0hdW2NIXWMoPU8pW25IXWMyPU8=

> <s_epik_cmdline>
J2VwaWtfcHl0aG9uJywgJy1waCcsICc3LjAnLCAnLXRuJywgJzgnLCAnLW1hJywgJzIwMCcsICctbWV0YWxfYmluZGluZycsICctaW1hZScsICc8aW5maWxlLm1hZT4nLCAnLW9tYWUnLCAnPG91dGZpbGUubWFlPic=

> <r_lp_tautomer_probability>
0.999537

> <r_epik_Ionization_Penalty>
3.12283

> <r_epik_Ionization_Penalty_Charging>
2.83566e-08

> <r_epik_Ionization_Penalty_Neutral>
3.12283

> <r_epik_State_Penalty>
3.12192

> <r_epik_Charging_Adjusted_Penalty>
3.12192

> <i_epik_Tot_Q>
-1

> <i_epik_Tot_abs_Q>
1

> <r_epik_Metal_State_Penalty>
0.463748

> <b_epik_Metal_Only>
1

> <s_lp_Force_Field>
OPLS_2005

> <r_lp_Energy>
24.2191

> <b_lp_Chiralities_Consistent>
1

> <s_lp_Variant>
AV-unprocessed.smi:2154-8

> <Gold.Version>
5.8.1

> <Gold.Id.Protein>
6NUR|6NUR_protein|mol2

> <Gold.PLP.Fitness>
42.9683

> <Gold.PLP.PLP>
-36.5111

> <Gold.PLP.part.hbond>
-2.0000

> <Gold.PLP.part.metal>
0.0000

> <Gold.PLP.part.buried>
-2.8002

> <Gold.PLP.part.nonpolar>
-31.5149

> <Gold.PLP.part.repulsive>
0.2260

> <Gold.PLP.ligand.clash>
0.0000

> <Gold.PLP.ligand.torsion>
0.4011

> <Gold.PLP.Chemscore.Hbond>
2.0000

> <Gold.PLP.Chemscore.CHOScore>
0.2405

> <Gold.PLP.Chemscore.Metal>
0.0000

> <Gold.Chemscore.Hbonds>
donor molecule, donor type, donor heavy atom, donor atom, acceptor molecule, acceptor atom, score
      P1  H  7997  8010       L1    17  0.63
      P1  H 10752 10763       L1    14  1.00

> <Gold.PLP.Chemscore.Internal.Correction>
0.5381

> <Gold.Rescore>
     Score         DG    S(hbond)    S(metal)    S(lipo)     H(rot)  DE(clash)    DE(int)     intcor
     14.28     -15.56       1.84        0.00      76.49       1.96       0.03       1.24       ----

> <Gold.Chemscore.Fitness>
14.2824

> <Gold.Chemscore.DG>
-15.5556

> <Gold.Chemscore.ZeroCoef>
-5.4800

> <Gold.Chemscore.Hbond>
1.8401

> <Gold.Chemscore.Metal>
0.0000

> <Gold.Chemscore.Lipo>
76.4910

> <Gold.Chemscore.Internal_Hbond>
0.0000

> <Gold.Chemscore.DEClash>
0.0300

> <Gold.Chemscore.DEInternal>
1.2432

> <Gold.Chemscore.Rot>
1.9609

> <Gold.Chemscore.Internal.Correction>
   9.000000E+99

> <Gold.Chemscore.Hbonds>
donor molecule, donor type, donor heavy atom, donor atom, acceptor molecule, acceptor atom, score
      P1  H  7997  8010       L1    17  0.50
      P1  H 10752 10763       L1    14  0.43

> <Gold.Chemscore.Hbond.Weighted>
-6.1461

> <Gold.Chemscore.Metal.Weighted>
-0.0000

> <Gold.Chemscore.Lipo.Weighted>
-8.9494

> <Gold.Chemscore.Internal_Hbond.Weighted>
0.0000

> <Gold.Chemscore.DEClash.Weighted>
0.0300

> <Gold.Chemscore.DEInternal.Weighted>
1.2432

> <Gold.Chemscore.Rot.Weighted>
5.0200

> <Gold.Chemscore.Internal.Correction.Weighted>
   9.000000E+99

> <Gold.Protein.RotatedTorsions>
[ 6907 6896 6895 6894 ] final  127.51 input  -60.11 | X-H torsion
[ 7974 7965 7964 7962 ] final  -32.30 input  175.53 | X-H torsion
[ 8008 7997 7996 7995 ] final   41.14 input   59.86 | X-H torsion
[ 10167 10162 10161 10158 ] final  100.43 input  -65.29 | X-H torsion
[ 10718 10713 10712 10709 ] final  117.16 input   66.30 | X-H torsion
[ 10763 10752 10751 10750 ] final   54.01 input  -60.55 | X-H torsion
[ 11005 11000 10999 10996 ] final -144.47 input  -57.11 | X-H torsion

> <Gold.Protein.ActiveResidues>
 VAL166  LYS551  ARG553  GLY616  TRP617  ASP618  TYR619  PRO620  LYS621  CYS622 
 ASP623  PHE694  ASN695  SER759  ASP760  ASP761  ALA762  ILE779  LEU786  VAL792 
 PHE793  MET794  SER795  GLU796  ALA797  LYS798  CYS799  TRP800  GLU811  SER814 

> <Gold.Protein.RotatedAtoms>
  152.3806  133.6541  159.6157 H   0  0  0  0  0  0  0  0  0  0  0  0  # atno 6907 bound_to 6896
  150.7738  133.9120  159.3381 H   0  0  0  0  0  0  0  0  0  0  0  0  # atno 6908 bound_to 6896
  151.6926  135.0945  160.0288 H   0  0  0  0  0  0  0  0  0  0  0  0  # atno 6909 bound_to 6896
  146.1000  140.5775  142.8825 H   0  0  0  0  0  0  0  0  0  0  0  0  # atno 7974 bound_to 7965
  155.2647  140.3362  155.4270 H   0  0  0  0  0  0  0  0  0  0  0  0  # atno 8008 bound_to 7997
  156.2159  140.1789  156.7632 H   0  0  0  0  0  0  0  0  0  0  0  0  # atno 8009 bound_to 7997
  154.5753  140.0663  156.9010 H   0  0  0  0  0  0  0  0  0  0  0  0  # atno 8010 bound_to 7997
  139.7528  144.6979  151.0407 H   0  0  0  0  0  0  0  0  0  0  0  0  # atno 10167 bound_to 10162
  157.6115  131.1034  150.7575 H   0  0  0  0  0  0  0  0  0  0  0  0  # atno 10718 bound_to 10713
  152.9800  135.5759  154.4835 H   0  0  0  0  0  0  0  0  0  0  0  0  # atno 10763 bound_to 10752
  154.4380  135.2775  155.1869 H   0  0  0  0  0  0  0  0  0  0  0  0  # atno 10764 bound_to 10752
  154.3549  135.6201  153.5715 H   0  0  0  0  0  0  0  0  0  0  0  0  # atno 10765 bound_to 10752
  140.8021  134.2845  157.4974 H   0  0  0  0  0  0  0  0  0  0  0  0  # atno 11005 bound_to 11000
  144.7425  140.4981  143.6859 LP  0  0  0  0  0  0  0  0  0  0  0  0  # atno 17320 bound_to 7965
  145.5872  139.1493  143.3202 LP  0  0  0  0  0  0  0  0  0  0  0  0  # atno 17321 bound_to 7965
  140.7799  143.4789  151.0045 LP  0  0  0  0  0  0  0  0  0  0  0  0  # atno 17342 bound_to 10162
  139.8476  143.7480  152.3179 LP  0  0  0  0  0  0  0  0  0  0  0  0  # atno 17343 bound_to 10162
  156.7951  130.4903  149.5378 LP  0  0  0  0  0  0  0  0  0  0  0  0  # atno 17370 bound_to 10713
  156.1219  130.6116  151.0206 LP  0  0  0  0  0  0  0  0  0  0  0  0  # atno 17371 bound_to 10713
  139.8721  134.9435  156.3855 LP  0  0  0  0  0  0  0  0  0  0  0  0  # atno 17394 bound_to 11000
  140.9284  133.7596  155.9994 LP  0  0  0  0  0  0  0  0  0  0  0  0  # atno 17395 bound_to 11000

$$$$
