AV-unprocessed.smi:1694|AV-procd|sdf|6787|dock7
  -GOLD-   22720 7553D 1   1.00000     0.00000
 Structure written by MMmdl.
 34 35  0  0  0  0  0  0  0  0  1 V2000
  151.5281  144.6722  158.1701 C   0  0  0  0  0  0  0  0  0  0  0  0
  152.0485  143.3500  158.7107 C   0  0  0  0  0  0  0  0  0  0  0  0
  153.0609  143.3597  159.6935 C   0  0  0  0  0  0  0  0  0  0  0  0
  153.5441  142.1386  160.1930 C   0  0  0  0  0  0  0  0  0  0  0  0
  152.9909  140.9519  159.6844 C   0  0  0  0  0  0  0  0  0  0  0  0
  152.0223  140.9341  158.7462 N   0  0  0  0  0  0  0  0  0  0  0  0
  151.5388  142.1041  158.2550 C   0  0  0  0  0  0  0  0  0  0  0  0
  150.5266  142.1755  157.2487 N   0  0  0  0  0  0  0  0  0  0  0  0
  150.3309  141.4592  156.1209 C   0  0  0  0  0  0  0  0  0  0  0  0
  151.1089  140.5641  155.7950 O   0  0  0  0  0  0  0  0  0  0  0  0
  149.2586  141.7928  155.3846 N   0  0  0  0  0  0  0  0  0  0  0  0
  148.8603  141.1661  154.1295 C   0  0  2  0  0  0  0  0  0  0  0  0
  147.3860  141.4756  153.8437 C   0  0  0  0  0  0  0  0  0  0  0  0
  146.9370  140.8443  152.5166 C   0  0  0  0  0  0  0  0  0  0  0  0
  147.3807  139.3829  152.3558 C   0  0  0  0  0  0  0  0  0  0  0  0
  146.8251  138.6714  151.5222 O   0  0  0  0  0  0  0  0  0  0  0  0
  148.3950  138.9218  153.1088 N   0  0  0  0  0  0  0  0  0  0  0  0
  149.0725  139.6402  154.1879 C   0  0  0  0  0  0  0  0  0  0  0  0
  152.0384  145.5189  158.6301 H   0  0  0  0  0  0  0  0  0  0  0  0
  150.4616  144.7734  158.3728 H   0  0  0  0  0  0  0  0  0  0  0  0
  151.6840  144.7330  157.0925 H   0  0  0  0  0  0  0  0  0  0  0  0
  153.4654  144.2910  160.0622 H   0  0  0  0  0  0  0  0  0  0  0  0
  154.3192  142.1126  160.9448 H   0  0  0  0  0  0  0  0  0  0  0  0
  153.3343  139.9910  160.0382 H   0  0  0  0  0  0  0  0  0  0  0  0
  149.8507  142.9111  157.3949 H   0  0  0  0  0  0  0  0  0  0  0  0
  148.6704  142.5394  155.7276 H   0  0  0  0  0  0  0  0  0  0  0  0
  149.4582  141.5807  153.3153 H   0  0  0  0  0  0  0  0  0  0  0  0
  146.7617  141.1015  154.6569 H   0  0  0  0  0  0  0  0  0  0  0  0
  147.2285  142.5543  153.8054 H   0  0  0  0  0  0  0  0  0  0  0  0
  145.8528  140.9093  152.4201 H   0  0  0  0  0  0  0  0  0  0  0  0
  147.3583  141.4101  151.6850 H   0  0  0  0  0  0  0  0  0  0  0  0
  148.6855  137.9668  152.9566 H   0  0  0  0  0  0  0  0  0  0  0  0
  150.1362  139.4024  154.1593 H   0  0  0  0  0  0  0  0  0  0  0  0
  148.6893  139.2458  155.1299 H   0  0  0  0  0  0  0  0  0  0  0  0
  1  2  1  0  0  0  0
  1 19  1  0  0  0  0
  1 20  1  0  0  0  0
  1 21  1  0  0  0  0
  2  7  1  0  0  0  0
  2  3  2  0  0  0  0
  3  4  1  0  0  0  0
  3 22  1  0  0  0  0
  4  5  2  0  0  0  0
  4 23  1  0  0  0  0
  5  6  1  0  0  0  0
  5 24  1  0  0  0  0
  6  7  2  0  0  0  0
  7  8  1  0  0  0  0
  8  9  1  0  0  0  0
  8 25  1  0  0  0  0
  9 10  2  0  0  0  0
  9 11  1  0  0  0  0
 11 12  1  0  0  0  0
 11 26  1  0  0  0  0
 12 18  1  0  0  0  0
 12 13  1  0  0  0  0
 12 27  1  0  0  0  0
 13 14  1  0  0  0  0
 13 28  1  0  0  0  0
 13 29  1  0  0  0  0
 14 15  1  0  0  0  0
 14 30  1  0  0  0  0
 14 31  1  0  0  0  0
 15 16  2  0  0  0  0
 15 17  1  0  0  0  0
 17 18  1  0  0  0  0
 17 32  1  0  0  0  0
 18 33  1  0  0  0  0
 18 34  1  0  0  0  0
M  END
> <s_m_source_file>
AV-unprocessed.smi

> <i_m_source_file_index>
1694

> <i_lp_mmshare_version>
43012

> <i_f3d_flags>
0

> <s_epik_input>
W0NIM11jMVtjSF1bY0hdW2NIXW5jMVtOSF1DKD1PKVtOSF1bQ0BASF0yW0NIMl1bQ0gyXUMoPU8pW05IXVtDSDJdMg==

> <s_epik_cmdline>
J2VwaWtfcHl0aG9uJywgJy1waCcsICc3LjAnLCAnLXRuJywgJzgnLCAnLW1hJywgJzIwMCcsICctbWV0YWxfYmluZGluZycsICctaW1hZScsICc8aW5maWxlLm1hZT4nLCAnLW9tYWUnLCAnPG91dGZpbGUubWFlPic=

> <r_lp_tautomer_probability>
1

> <r_epik_Ionization_Penalty>
5.3746e-05

> <r_epik_Ionization_Penalty_Charging>
0

> <r_epik_Ionization_Penalty_Neutral>
5.3746e-05

> <r_epik_State_Penalty>
-0

> <r_epik_Charging_Adjusted_Penalty>
0

> <i_epik_Tot_Q>
0

> <i_epik_Tot_abs_Q>
0

> <r_epik_Metal_State_Penalty>
-0

> <b_epik_Metal_Only>
0

> <s_lp_Force_Field>
OPLS_2005

> <r_lp_Energy>
12.9813

> <b_lp_Chiralities_Consistent>
1

> <s_lp_Variant>
AV-unprocessed.smi:1694-1

> <Gold.Version>
5.8.1

> <Gold.Id.Protein>
6NUR|6NUR_protein|mol2

> <Gold.PLP.Fitness>
43.3550

> <Gold.PLP.PLP>
-37.9058

> <Gold.PLP.part.hbond>
-4.0803

> <Gold.PLP.part.metal>
0.0000

> <Gold.PLP.part.buried>
0.7354

> <Gold.PLP.part.nonpolar>
-33.8634

> <Gold.PLP.part.repulsive>
0.7536

> <Gold.PLP.ligand.clash>
0.0000

> <Gold.PLP.ligand.torsion>
0.6094

> <Gold.PLP.Chemscore.Hbond>
2.2223

> <Gold.PLP.Chemscore.CHOScore>
0.0000

> <Gold.PLP.Chemscore.Metal>
0.0000

> <Gold.Chemscore.Hbonds>
donor molecule, donor type, donor heavy atom, donor atom, acceptor molecule, acceptor atom, score
      L1  H    11    26       P1  8028  0.40
      L1  H    17    32       P1  7948  0.96
      P1  H  7954  7966       L1    16  0.46
      P1  H  7989  7998       L1    10  0.14

> <Gold.PLP.Chemscore.Internal.Correction>
0.0013

> <Gold.Rescore>
     Score         DG    S(hbond)    S(metal)    S(lipo)     H(rot)  DE(clash)    DE(int)     intcor
     15.30     -18.64       1.55        0.00      90.06       1.00       1.31       2.03       ----

> <Gold.Chemscore.Fitness>
15.3016

> <Gold.Chemscore.DG>
-18.6446

> <Gold.Chemscore.ZeroCoef>
-5.4800

> <Gold.Chemscore.Hbond>
1.5533

> <Gold.Chemscore.Metal>
0.0000

> <Gold.Chemscore.Lipo>
90.0551

> <Gold.Chemscore.Internal_Hbond>
0.0000

> <Gold.Chemscore.DEClash>
1.3111

> <Gold.Chemscore.DEInternal>
2.0319

> <Gold.Chemscore.Rot>
1.0000

> <Gold.Chemscore.Internal.Correction>
   9.000000E+99

> <Gold.Chemscore.Hbonds>
donor molecule, donor type, donor heavy atom, donor atom, acceptor molecule, acceptor atom, score
      L1  H    11    26       P1  8028  0.39
      L1  H    17    32       P1  7948  0.89
      P1  H  7954  7966       L1    16  0.40
      P1  H  7989  7998       L1    10  0.09

> <Gold.Chemscore.Hbond.Weighted>
-5.1881

> <Gold.Chemscore.Metal.Weighted>
-0.0000

> <Gold.Chemscore.Lipo.Weighted>
-10.5365

> <Gold.Chemscore.Internal_Hbond.Weighted>
0.0000

> <Gold.Chemscore.DEClash.Weighted>
1.3111

> <Gold.Chemscore.DEInternal.Weighted>
2.0319

> <Gold.Chemscore.Rot.Weighted>
2.5600

> <Gold.Chemscore.Internal.Correction.Weighted>
   9.000000E+99

> <Gold.Protein.RotatedTorsions>
[ 6907 6896 6895 6894 ] final   34.43 input  -60.11 | X-H torsion
[ 7974 7965 7964 7962 ] final  114.31 input  175.53 | X-H torsion
[ 8008 7997 7996 7995 ] final  103.61 input   59.86 | X-H torsion
[ 10167 10162 10161 10158 ] final   91.54 input  -65.29 | X-H torsion
[ 10718 10713 10712 10709 ] final  -65.29 input   66.30 | X-H torsion
[ 10763 10752 10751 10750 ] final  -42.63 input  -60.55 | X-H torsion
[ 11005 11000 10999 10996 ] final -165.67 input  -57.11 | X-H torsion

> <Gold.Protein.ActiveResidues>
 VAL166  LYS551  ARG553  GLY616  TRP617  ASP618  TYR619  PRO620  LYS621  CYS622 
 ASP623  PHE694  ASN695  SER759  ASP760  ASP761  ALA762  ILE779  LEU786  VAL792 
 PHE793  MET794  SER795  GLU796  ALA797  LYS798  CYS799  TRP800  GLU811  SER814 

> <Gold.Protein.RotatedAtoms>
  152.1023  134.9333  160.0568 H   0  0  0  0  0  0  0  0  0  0  0  0  # atno 6907 bound_to 6896
  152.0543  133.4028  159.4398 H   0  0  0  0  0  0  0  0  0  0  0  0  # atno 6908 bound_to 6896
  150.6840  134.3193  159.4823 H   0  0  0  0  0  0  0  0  0  0  0  0  # atno 6909 bound_to 6896
  145.2060  139.2929  143.4293 H   0  0  0  0  0  0  0  0  0  0  0  0  # atno 7974 bound_to 7965
  156.1499  140.3162  155.8631 H   0  0  0  0  0  0  0  0  0  0  0  0  # atno 8008 bound_to 7997
  155.3991  140.0498  157.3054 H   0  0  0  0  0  0  0  0  0  0  0  0  # atno 8009 bound_to 7997
  154.5049  140.2143  155.9283 H   0  0  0  0  0  0  0  0  0  0  0  0  # atno 8010 bound_to 7997
  139.8365  144.6662  150.9336 H   0  0  0  0  0  0  0  0  0  0  0  0  # atno 10167 bound_to 10162
  156.0678  130.4245  150.1543 H   0  0  0  0  0  0  0  0  0  0  0  0  # atno 10718 bound_to 10713
  153.9823  135.6715  153.4750 H   0  0  0  0  0  0  0  0  0  0  0  0  # atno 10763 bound_to 10752
  153.0743  135.4957  154.8367 H   0  0  0  0  0  0  0  0  0  0  0  0  # atno 10764 bound_to 10752
  154.7157  135.3106  154.9088 H   0  0  0  0  0  0  0  0  0  0  0  0  # atno 10765 bound_to 10752
  140.5731  134.5217  157.5165 H   0  0  0  0  0  0  0  0  0  0  0  0  # atno 11005 bound_to 11000
  146.3407  140.2321  142.8593 LP  0  0  0  0  0  0  0  0  0  0  0  0  # atno 17320 bound_to 7965
  144.9901  140.8539  143.5344 LP  0  0  0  0  0  0  0  0  0  0  0  0  # atno 17321 bound_to 7965
  140.7802  143.3952  151.1241 LP  0  0  0  0  0  0  0  0  0  0  0  0  # atno 17342 bound_to 10162
  139.7602  143.8647  152.3098 LP  0  0  0  0  0  0  0  0  0  0  0  0  # atno 17343 bound_to 10162
  156.9600  130.9802  151.3481 LP  0  0  0  0  0  0  0  0  0  0  0  0  # atno 17370 bound_to 10713
  157.5730  130.8324  149.8418 LP  0  0  0  0  0  0  0  0  0  0  0  0  # atno 17371 bound_to 10713
  139.9352  134.7888  156.0822 LP  0  0  0  0  0  0  0  0  0  0  0  0  # atno 17394 bound_to 11000
  141.1043  133.6665  156.2828 LP  0  0  0  0  0  0  0  0  0  0  0  0  # atno 17395 bound_to 11000

$$$$
