AV-unprocessed.smi:1043|AV-procd|sdf|4541|dock7
  -GOLD-   22720 2563D 1   1.00000     0.00000
 Structure written by MMmdl.
 34 35  0  0  0  0  0  0  0  0  2 V2000
  146.4042  141.7999  157.9982 C   0  0  0  0  0  0  0  0  0  0  0  0
  147.1930  141.5653  156.6887 C   0  0  0  0  0  0  0  0  0  0  0  0
  148.5332  142.1580  156.8167 N   0  0  0  0  0  0  0  0  0  0  0  0
  149.6497  141.6265  157.3424 C   0  0  0  0  0  0  0  0  0  0  0  0
  149.6374  140.4886  157.8165 O   0  0  0  0  0  0  0  0  0  0  0  0
  150.7207  142.4494  157.2722 N   0  5  0  0  0  0  0  0  0  0  0  0
  151.1395  143.1009  158.3694 C   0  0  0  0  0  0  0  0  0  0  0  0
  150.6462  142.8433  159.5913 N   0  0  0  0  0  0  0  0  0  0  0  0
  151.2114  143.6314  160.5850 N   0  0  0  0  0  0  0  0  0  0  0  0
  152.1137  144.4738  160.0826 C   0  0  0  0  0  0  0  0  0  0  0  0
  152.3553  144.3814  158.3512 S   0  0  0  0  0  0  0  0  0  0  0  0
  147.2316  140.0384  156.3881 C   0  0  0  0  0  0  0  0  0  0  0  0
  148.3106  139.4992  155.4220 C   0  0  0  0  0  0  0  0  0  0  0  0
  148.6134  140.3228  154.1584 C   0  0  0  0  0  0  0  0  0  0  0  0
  147.4058  141.0281  153.5267 C   0  0  0  0  0  0  0  0  0  0  0  0
  147.1033  142.3848  154.1826 C   0  0  0  0  0  0  0  0  0  0  0  0
  146.4241  142.3048  155.5617 C   0  0  0  0  0  0  0  0  0  0  0  0
  145.3765  141.4463  157.9080 H   0  0  0  0  0  0  0  0  0  0  0  0
  146.3644  142.8592  158.2555 H   0  0  0  0  0  0  0  0  0  0  0  0
  146.8454  141.2777  158.8471 H   0  0  0  0  0  0  0  0  0  0  0  0
  148.6280  143.0922  156.4469 H   0  0  0  0  0  0  0  0  0  0  0  0
  152.6389  145.1552  160.7349 H   0  0  0  0  0  0  0  0  0  0  0  0
  147.3490  139.4907  157.3242 H   0  0  0  0  0  0  0  0  0  0  0  0
  146.2521  139.7313  156.0200 H   0  0  0  0  0  0  0  0  0  0  0  0
  149.2451  139.3585  155.9661 H   0  0  0  0  0  0  0  0  0  0  0  0
  148.0076  138.4966  155.1184 H   0  0  0  0  0  0  0  0  0  0  0  0
  149.3892  141.0579  154.3761 H   0  0  0  0  0  0  0  0  0  0  0  0
  149.0582  139.6534  153.4213 H   0  0  0  0  0  0  0  0  0  0  0  0
  147.6384  141.2136  152.4775 H   0  0  0  0  0  0  0  0  0  0  0  0
  146.5273  140.3823  153.5285 H   0  0  0  0  0  0  0  0  0  0  0  0
  148.0142  142.9814  154.2438 H   0  0  0  0  0  0  0  0  0  0  0  0
  146.4405  142.9409  153.5194 H   0  0  0  0  0  0  0  0  0  0  0  0
  145.4376  141.8555  155.4394 H   0  0  0  0  0  0  0  0  0  0  0  0
  146.2314  143.3295  155.8833 H   0  0  0  0  0  0  0  0  0  0  0  0
  1  2  1  0  0  0  0
  1 18  1  0  0  0  0
  1 19  1  0  0  0  0
  1 20  1  0  0  0  0
  2 17  1  0  0  0  0
  2  3  1  0  0  0  0
  2 12  1  0  0  0  0
  3  4  1  0  0  0  0
  3 21  1  0  0  0  0
  4  5  2  0  0  0  0
  4  6  1  0  0  0  0
  6  7  1  0  0  0  0
  7 11  1  0  0  0  0
  7  8  2  0  0  0  0
  8  9  1  0  0  0  0
  9 10  2  0  0  0  0
 10 11  1  0  0  0  0
 10 22  1  0  0  0  0
 12 13  1  0  0  0  0
 12 23  1  0  0  0  0
 12 24  1  0  0  0  0
 13 14  1  0  0  0  0
 13 25  1  0  0  0  0
 13 26  1  0  0  0  0
 14 15  1  0  0  0  0
 14 27  1  0  0  0  0
 14 28  1  0  0  0  0
 15 16  1  0  0  0  0
 15 29  1  0  0  0  0
 15 30  1  0  0  0  0
 16 17  1  0  0  0  0
 16 31  1  0  0  0  0
 16 32  1  0  0  0  0
 17 33  1  0  0  0  0
 17 34  1  0  0  0  0
M  CHG  1   6  -1
M  END
> <s_m_source_file>
AV-unprocessed.smi

> <i_m_source_file_index>
1043

> <i_lp_mmshare_version>
43012

> <i_f3d_flags>
0

> <s_epik_input>
W0NIMl0xW0NIMl1bQ0gyXVtDSDJdW0NIMl1bQ0gyXUMxKFtDSDNdKVtOSF1DKD1PKVtOSF1jMm5uW2NIXXMy

> <s_epik_cmdline>
J2VwaWtfcHl0aG9uJywgJy1waCcsICc3LjAnLCAnLXRuJywgJzgnLCAnLW1hJywgJzIwMCcsICctbWV0YWxfYmluZGluZycsICctaW1hZScsICc8aW5maWxlLm1hZT4nLCAnLW9tYWUnLCAnPG91dGZpbGUubWFlPic=

> <r_lp_tautomer_probability>
1

> <r_epik_Ionization_Penalty>
4.55555

> <r_epik_Ionization_Penalty_Charging>
4.50588

> <r_epik_Ionization_Penalty_Neutral>
0.0496753

> <r_epik_State_Penalty>
4.50558

> <r_epik_Charging_Adjusted_Penalty>
9.01146

> <i_epik_Tot_Q>
-1

> <i_epik_Tot_abs_Q>
1

> <r_epik_Metal_State_Penalty>
0.822218

> <b_epik_Metal_Only>
1

> <s_lp_Force_Field>
OPLS_2005

> <r_lp_Energy>
17.5754

> <b_lp_Chiralities_Consistent>
1

> <s_lp_Variant>
AV-unprocessed.smi:1043-2

> <Gold.Version>
5.8.1

> <Gold.Id.Protein>
6NUR|6NUR_protein|mol2

> <Gold.PLP.Fitness>
30.2535

> <Gold.PLP.PLP>
-29.7103

> <Gold.PLP.part.hbond>
-2.2896

> <Gold.PLP.part.metal>
0.0000

> <Gold.PLP.part.buried>
-5.1462

> <Gold.PLP.part.nonpolar>
-23.0534

> <Gold.PLP.part.repulsive>
0.3172

> <Gold.PLP.ligand.clash>
0.0000

> <Gold.PLP.ligand.torsion>
1.2337

> <Gold.PLP.Chemscore.Hbond>
1.0000

> <Gold.PLP.Chemscore.CHOScore>
0.0000

> <Gold.PLP.Chemscore.Metal>
0.0000

> <Gold.Chemscore.Hbonds>
donor molecule, donor type, donor heavy atom, donor atom, acceptor molecule, acceptor atom, score
      L1  H     3    21       P1  8028  1.00

> <Gold.PLP.Chemscore.Internal.Correction>
0.0106

> <Gold.Rescore>
     Score         DG    S(hbond)    S(metal)    S(lipo)     H(rot)  DE(clash)    DE(int)     intcor
     12.17     -12.92       0.93        0.00      58.95       1.00       0.03       0.72       ----

> <Gold.Chemscore.Fitness>
12.1679

> <Gold.Chemscore.DG>
-12.9202

> <Gold.Chemscore.ZeroCoef>
-5.4800

> <Gold.Chemscore.Hbond>
0.9292

> <Gold.Chemscore.Metal>
0.0000

> <Gold.Chemscore.Lipo>
58.9451

> <Gold.Chemscore.Internal_Hbond>
0.0000

> <Gold.Chemscore.DEClash>
0.0329

> <Gold.Chemscore.DEInternal>
0.7194

> <Gold.Chemscore.Rot>
1.0000

> <Gold.Chemscore.Internal.Correction>
   9.000000E+99

> <Gold.Chemscore.Hbonds>
donor molecule, donor type, donor heavy atom, donor atom, acceptor molecule, acceptor atom, score
      L1  H     3    21       P1  8028  0.91

> <Gold.Chemscore.Hbond.Weighted>
-3.1037

> <Gold.Chemscore.Metal.Weighted>
-0.0000

> <Gold.Chemscore.Lipo.Weighted>
-6.8966

> <Gold.Chemscore.Internal_Hbond.Weighted>
0.0000

> <Gold.Chemscore.DEClash.Weighted>
0.0329

> <Gold.Chemscore.DEInternal.Weighted>
0.7194

> <Gold.Chemscore.Rot.Weighted>
2.5600

> <Gold.Chemscore.Internal.Correction.Weighted>
   9.000000E+99

> <Gold.Protein.RotatedTorsions>
[ 6907 6896 6895 6894 ] final   14.67 input  -60.11 | X-H torsion
[ 7974 7965 7964 7962 ] final   17.12 input  175.53 | X-H torsion
[ 8008 7997 7996 7995 ] final   -0.80 input   59.86 | X-H torsion
[ 10167 10162 10161 10158 ] final  162.85 input  -65.29 | X-H torsion
[ 10718 10713 10712 10709 ] final  148.00 input   66.30 | X-H torsion
[ 10763 10752 10751 10750 ] final  170.59 input  -60.55 | X-H torsion
[ 11005 11000 10999 10996 ] final  161.41 input  -57.11 | X-H torsion

> <Gold.Protein.ActiveResidues>
 VAL166  LYS551  ARG553  GLY616  TRP617  ASP618  TYR619  PRO620  LYS621  CYS622 
 ASP623  PHE694  ASN695  SER759  ASP760  ASP761  ALA762  ILE779  LEU786  VAL792 
 PHE793  MET794  SER795  GLU796  ALA797  LYS798  CYS799  TRP800  GLU811  SER814 

> <Gold.Protein.RotatedAtoms>
  151.8059  135.0695  160.0406 H   0  0  0  0  0  0  0  0  0  0  0  0  # atno 6907 bound_to 6896
  152.3055  133.5695  159.5655 H   0  0  0  0  0  0  0  0  0  0  0  0  # atno 6908 bound_to 6896
  150.7294  134.0145  159.3722 H   0  0  0  0  0  0  0  0  0  0  0  0  # atno 6909 bound_to 6896
  146.2228  139.8648  142.8598 H   0  0  0  0  0  0  0  0  0  0  0  0  # atno 7974 bound_to 7965
  154.6540  140.2575  155.7182 H   0  0  0  0  0  0  0  0  0  0  0  0  # atno 8008 bound_to 7997
  156.2588  140.2862  156.0906 H   0  0  0  0  0  0  0  0  0  0  0  0  # atno 8009 bound_to 7997
  155.1408  140.0380  157.2788 H   0  0  0  0  0  0  0  0  0  0  0  0  # atno 8010 bound_to 7997
  139.4866  144.4396  151.8968 H   0  0  0  0  0  0  0  0  0  0  0  0  # atno 10167 bound_to 10162
  157.3140  131.0893  151.1293 H   0  0  0  0  0  0  0  0  0  0  0  0  # atno 10718 bound_to 10713
  154.3997  135.2755  155.2104 H   0  0  0  0  0  0  0  0  0  0  0  0  # atno 10763 bound_to 10752
  154.4135  135.6017  153.5970 H   0  0  0  0  0  0  0  0  0  0  0  0  # atno 10764 bound_to 10752
  152.9831  135.5955  154.4264 H   0  0  0  0  0  0  0  0  0  0  0  0  # atno 10765 bound_to 10752
  140.2155  134.8235  157.3165 H   0  0  0  0  0  0  0  0  0  0  0  0  # atno 11005 bound_to 11000
  145.2667  141.0095  143.3795 LP  0  0  0  0  0  0  0  0  0  0  0  0  # atno 17320 bound_to 7965
  144.9255  139.4360  143.6520 LP  0  0  0  0  0  0  0  0  0  0  0  0  # atno 17321 bound_to 7965
  140.3848  144.2691  150.5905 LP  0  0  0  0  0  0  0  0  0  0  0  0  # atno 17342 bound_to 10162
  140.5200  143.2268  151.8403 LP  0  0  0  0  0  0  0  0  0  0  0  0  # atno 17343 bound_to 10162
  157.2604  130.6656  149.5972 LP  0  0  0  0  0  0  0  0  0  0  0  0  # atno 17370 bound_to 10713
  155.9680  130.4510  150.5720 LP  0  0  0  0  0  0  0  0  0  0  0  0  # atno 17371 bound_to 10713
  140.1905  134.4377  155.7718 LP  0  0  0  0  0  0  0  0  0  0  0  0  # atno 17394 bound_to 11000
  141.2225  133.7025  156.8019 LP  0  0  0  0  0  0  0  0  0  0  0  0  # atno 17395 bound_to 11000

$$$$
