AV-unprocessed.smi:544|AV-procd|sdf|2880|dock5
  -GOLD-   2262023373D 1   1.00000     0.00000
 Structure written by MMmdl.
 48 50  0  0  0  0  0  0  0  0  2 V2000
  147.0411  142.3722  154.0189 C   0  0  0  0  0  0  0  0  0  0  0  0
  147.9211  141.1632  153.6939 C   0  0  0  0  0  0  0  0  0  0  0  0
  149.2577  141.4735  154.0439 O   0  0  0  0  0  0  0  0  0  0  0  0
  149.4813  141.5061  155.4424 C   0  0  0  0  0  0  0  0  0  0  0  0
  150.9548  141.8407  155.7573 C   0  0  0  0  0  0  0  0  0  0  0  0
  151.5459  140.9526  156.7589 N   0  0  0  0  0  0  0  0  0  0  0  0
  152.1171  141.2620  157.9637 C   0  0  0  0  0  0  0  0  0  0  0  0
  152.2098  142.5598  158.4984 N   0  0  0  0  0  0  0  0  0  0  0  0
  151.8173  143.8435  157.9110 C   0  0  0  0  0  0  0  0  0  0  0  0
  150.8238  144.6030  158.8080 C   0  0  0  0  0  0  0  0  0  0  0  0
  151.4382  144.8573  160.1898 C   0  0  0  0  0  0  0  0  0  0  0  0
  151.9757  143.5431  160.7794 C   0  0  2  0  0  0  0  0  0  0  0  0
  152.6896  143.7776  162.1173 C   0  0  0  0  0  0  0  0  0  0  0  0
  152.9014  142.8479  159.7599 C   0  0  0  0  0  0  0  0  0  0  0  0
  152.5524  140.1973  158.6429 N   0  0  0  0  0  0  0  0  0  0  0  0
  152.2262  139.1293  157.8281 C   0  0  0  0  0  0  0  0  0  0  0  0
  151.5919  139.5499  156.7028 C   0  0  0  0  0  0  0  0  0  0  0  0
  151.0609  138.6208  155.6742 C   0  0  0  0  0  0  0  0  0  0  0  0
  150.4279  139.0320  154.7042 O   0  0  0  0  0  0  0  0  0  0  0  0
  151.3499  137.3113  155.9563 N   0  5  0  0  0  0  0  0  0  0  0  0
  152.0081  136.8499  157.0748 C   0  0  0  0  0  0  0  0  0  0  0  0
  152.2272  135.6509  157.2524 O   0  0  0  0  0  0  0  0  0  0  0  0
  152.4361  137.7375  158.0253 N   0  0  0  0  0  0  0  0  0  0  0  0
  153.1231  137.2748  159.2347 C   0  0  0  0  0  0  0  0  0  0  0  0
  145.9991  142.1769  153.7646 H   0  0  0  0  0  0  0  0  0  0  0  0
  147.3644  143.2510  153.4596 H   0  0  0  0  0  0  0  0  0  0  0  0
  147.0877  142.6156  155.0808 H   0  0  0  0  0  0  0  0  0  0  0  0
  147.5780  140.2902  154.2510 H   0  0  0  0  0  0  0  0  0  0  0  0
  147.8547  140.9275  152.6308 H   0  0  0  0  0  0  0  0  0  0  0  0
  148.8084  142.2412  155.8807 H   0  0  0  0  0  0  0  0  0  0  0  0
  149.2291  140.5386  155.8784 H   0  0  0  0  0  0  0  0  0  0  0  0
  151.5561  141.8253  154.8525 H   0  0  0  0  0  0  0  0  0  0  0  0
  151.0357  142.8690  156.1054 H   0  0  0  0  0  0  0  0  0  0  0  0
  152.7135  144.4490  157.7676 H   0  0  0  0  0  0  0  0  0  0  0  0
  151.4039  143.7187  156.9183 H   0  0  0  0  0  0  0  0  0  0  0  0
  150.5491  145.5499  158.3430 H   0  0  0  0  0  0  0  0  0  0  0  0
  149.9023  144.0307  158.9164 H   0  0  0  0  0  0  0  0  0  0  0  0
  152.2502  145.5797  160.0968 H   0  0  0  0  0  0  0  0  0  0  0  0
  150.6980  145.3019  160.8556 H   0  0  0  0  0  0  0  0  0  0  0  0
  151.1282  142.8822  160.9686 H   0  0  0  0  0  0  0  0  0  0  0  0
  153.5496  144.4372  161.9975 H   0  0  0  0  0  0  0  0  0  0  0  0
  153.0474  142.8387  162.5403 H   0  0  0  0  0  0  0  0  0  0  0  0
  152.0186  144.2333  162.8458 H   0  0  0  0  0  0  0  0  0  0  0  0
  153.2777  141.9252  160.2020 H   0  0  0  0  0  0  0  0  0  0  0  0
  153.7785  143.4651  159.5591 H   0  0  0  0  0  0  0  0  0  0  0  0
  152.4930  136.5790  159.7903 H   0  0  0  0  0  0  0  0  0  0  0  0
  153.3809  138.0890  159.9115 H   0  0  0  0  0  0  0  0  0  0  0  0
  154.0498  136.7622  158.9734 H   0  0  0  0  0  0  0  0  0  0  0  0
  1  2  1  0  0  0  0
  1 25  1  0  0  0  0
  1 26  1  0  0  0  0
  1 27  1  0  0  0  0
  2  3  1  0  0  0  0
  2 28  1  0  0  0  0
  2 29  1  0  0  0  0
  3  4  1  0  0  0  0
  4  5  1  0  0  0  0
  4 30  1  0  0  0  0
  4 31  1  0  0  0  0
  5  6  1  0  0  0  0
  5 32  1  0  0  0  0
  5 33  1  0  0  0  0
  6 17  1  0  0  0  0
  6  7  1  0  0  0  0
  7  8  1  0  0  0  0
  7 15  2  0  0  0  0
  8 14  1  0  0  0  0
  8  9  1  0  0  0  0
  9 10  1  0  0  0  0
  9 34  1  0  0  0  0
  9 35  1  0  0  0  0
 10 11  1  0  0  0  0
 10 36  1  0  0  0  0
 10 37  1  0  0  0  0
 11 12  1  0  0  0  0
 11 38  1  0  0  0  0
 11 39  1  0  0  0  0
 12 13  1  0  0  0  0
 12 14  1  0  0  0  0
 12 40  1  0  0  0  0
 13 41  1  0  0  0  0
 13 42  1  0  0  0  0
 13 43  1  0  0  0  0
 14 44  1  0  0  0  0
 14 45  1  0  0  0  0
 15 16  1  0  0  0  0
 16 23  1  0  0  0  0
 16 17  2  0  0  0  0
 17 18  1  0  0  0  0
 18 19  2  0  0  0  0
 18 20  1  0  0  0  0
 20 21  1  0  0  0  0
 21 22  2  0  0  0  0
 21 23  1  0  0  0  0
 23 24  1  0  0  0  0
 24 46  1  0  0  0  0
 24 47  1  0  0  0  0
 24 48  1  0  0  0  0
M  CHG  1  20  -1
M  END
> <s_m_source_file>
AV-unprocessed.smi

> <i_m_source_file_index>
544

> <i_lp_mmshare_version>
43012

> <i_f3d_flags>
0

> <s_epik_input>
W0NIM11uMWMoPU8pW25IXWMoPU8pYyhjMTIpbihbQ0gyXVtDSDJdT1tDSDJdW0NIM10pYyhuMilOM1tDSDJdW0NIMl1bQ0gyXVtDQEBIXShbQ0gzXSlbQ0gyXTM=

> <s_epik_cmdline>
J2VwaWtfcHl0aG9uJywgJy1waCcsICc3LjAnLCAnLXRuJywgJzgnLCAnLW1hJywgJzIwMCcsICctbWV0YWxfYmluZGluZycsICctaW1hZScsICc8aW5maWxlLm1hZT4nLCAnLW9tYWUnLCAnPG91dGZpbGUubWFlPic=

> <r_lp_tautomer_probability>
1

> <r_epik_Ionization_Penalty>
5.1213

> <r_epik_Ionization_Penalty_Charging>
0.0741877

> <r_epik_Ionization_Penalty_Neutral>
5.04711

> <r_epik_State_Penalty>
5.04142

> <r_epik_Charging_Adjusted_Penalty>
5.11561

> <i_epik_Tot_Q>
-1

> <i_epik_Tot_abs_Q>
1

> <r_epik_Metal_State_Penalty>
1.14934

> <b_epik_Metal_Only>
1

> <s_lp_Force_Field>
OPLS_2005

> <r_lp_Energy>
42.4298

> <b_lp_Chiralities_Consistent>
1

> <s_lp_Variant>
AV-unprocessed.smi:544-4

> <Gold.Version>
5.8.1

> <Gold.Id.Protein>
6NUR|6NUR_protein|mol2

> <Gold.PLP.Fitness>
49.0229

> <Gold.PLP.PLP>
-48.4605

> <Gold.PLP.part.hbond>
-3.0000

> <Gold.PLP.part.metal>
0.0000

> <Gold.PLP.part.buried>
-7.5625

> <Gold.PLP.part.nonpolar>
-36.7718

> <Gold.PLP.part.repulsive>
0.3030

> <Gold.PLP.ligand.clash>
0.0031

> <Gold.PLP.ligand.torsion>
0.3954

> <Gold.PLP.Chemscore.Hbond>
0.4371

> <Gold.PLP.Chemscore.CHOScore>
0.0000

> <Gold.PLP.Chemscore.Metal>
0.0000

> <Gold.Chemscore.Hbonds>
donor molecule, donor type, donor heavy atom, donor atom, acceptor molecule, acceptor atom, score
      P1  H  8011  8017       L1     3  0.62

> <Gold.PLP.Chemscore.Internal.Correction>
0.0450

> <Gold.Rescore>
     Score         DG    S(hbond)    S(metal)    S(lipo)     H(rot)  DE(clash)    DE(int)     intcor
     11.95     -14.25       0.05        0.00     107.42       1.55       0.03       2.28       ----

> <Gold.Chemscore.Fitness>
11.9463

> <Gold.Chemscore.DG>
-14.2540

> <Gold.Chemscore.ZeroCoef>
-5.4800

> <Gold.Chemscore.Hbond>
0.0548

> <Gold.Chemscore.Metal>
0.0000

> <Gold.Chemscore.Lipo>
107.4186

> <Gold.Chemscore.Internal_Hbond>
0.0000

> <Gold.Chemscore.DEClash>
0.0279

> <Gold.Chemscore.DEInternal>
2.2799

> <Gold.Chemscore.Rot>
1.5534

> <Gold.Chemscore.Internal.Correction>
   9.000000E+99

> <Gold.Chemscore.Hbonds>
donor molecule, donor type, donor heavy atom, donor atom, acceptor molecule, acceptor atom, score
      P1  H  7989  7998       L1    19  0.01
      P1  H  8011  8017       L1     3  0.11

> <Gold.Chemscore.Hbond.Weighted>
-0.1829

> <Gold.Chemscore.Metal.Weighted>
-0.0000

> <Gold.Chemscore.Lipo.Weighted>
-12.5680

> <Gold.Chemscore.Internal_Hbond.Weighted>
0.0000

> <Gold.Chemscore.DEClash.Weighted>
0.0279

> <Gold.Chemscore.DEInternal.Weighted>
2.2799

> <Gold.Chemscore.Rot.Weighted>
3.9768

> <Gold.Chemscore.Internal.Correction.Weighted>
   9.000000E+99

> <Gold.Protein.RotatedTorsions>
[ 6907 6896 6895 6894 ] final  -92.90 input  -60.11 | X-H torsion
[ 7974 7965 7964 7962 ] final  154.68 input  175.53 | X-H torsion
[ 8008 7997 7996 7995 ] final   16.36 input   59.86 | X-H torsion
[ 10167 10162 10161 10158 ] final -170.42 input  -65.29 | X-H torsion
[ 10718 10713 10712 10709 ] final  138.73 input   66.30 | X-H torsion
[ 10763 10752 10751 10750 ] final   57.32 input  -60.55 | X-H torsion
[ 11005 11000 10999 10996 ] final -118.77 input  -57.11 | X-H torsion

> <Gold.Protein.ActiveResidues>
 VAL166  LYS551  ARG553  GLY616  TRP617  ASP618  TYR619  PRO620  LYS621  CYS622 
 ASP623  PHE694  ASN695  SER759  ASP760  ASP761  ALA762  ILE779  LEU786  VAL792 
 PHE793  MET794  SER795  GLU796  ALA797  LYS798  CYS799  TRP800  GLU811  SER814 

> <Gold.Protein.RotatedAtoms>
  150.6913  134.2051  159.4336 H   0  0  0  0  0  0  0  0  0  0  0  0  # atno 6907 bound_to 6896
  152.0015  134.9923  160.0574 H   0  0  0  0  0  0  0  0  0  0  0  0  # atno 6908 bound_to 6896
  152.1574  133.4525  159.4880 H   0  0  0  0  0  0  0  0  0  0  0  0  # atno 6909 bound_to 6896
  144.8073  139.6967  143.6156 H   0  0  0  0  0  0  0  0  0  0  0  0  # atno 7974 bound_to 7965
  154.8759  140.2965  155.5454 H   0  0  0  0  0  0  0  0  0  0  0  0  # atno 8008 bound_to 7997
  156.3022  140.2451  156.3688 H   0  0  0  0  0  0  0  0  0  0  0  0  # atno 8009 bound_to 7997
  154.8768  140.0399  157.1747 H   0  0  0  0  0  0  0  0  0  0  0  0  # atno 8010 bound_to 7997
  139.5863  144.1312  152.1579 H   0  0  0  0  0  0  0  0  0  0  0  0  # atno 10167 bound_to 10162
  157.4221  131.1040  151.0342 H   0  0  0  0  0  0  0  0  0  0  0  0  # atno 10718 bound_to 10713
  152.9848  135.5646  154.5371 H   0  0  0  0  0  0  0  0  0  0  0  0  # atno 10763 bound_to 10752
  154.4832  135.2789  155.1556 H   0  0  0  0  0  0  0  0  0  0  0  0  # atno 10764 bound_to 10752
  154.3056  135.6298  153.5496 H   0  0  0  0  0  0  0  0  0  0  0  0  # atno 10765 bound_to 10752
  141.0262  134.0050  157.3210 H   0  0  0  0  0  0  0  0  0  0  0  0  # atno 11005 bound_to 11000
  146.2366  139.5918  142.9519 LP  0  0  0  0  0  0  0  0  0  0  0  0  # atno 17320 bound_to 7965
  145.5408  141.0421  143.2332 LP  0  0  0  0  0  0  0  0  0  0  0  0  # atno 17321 bound_to 7965
  140.0876  144.5648  150.7077 LP  0  0  0  0  0  0  0  0  0  0  0  0  # atno 17342 bound_to 10162
  140.7134  143.2524  151.4511 LP  0  0  0  0  0  0  0  0  0  0  0  0  # atno 17343 bound_to 10162
  157.1268  130.6085  149.5519 LP  0  0  0  0  0  0  0  0  0  0  0  0  # atno 17370 bound_to 10713
  155.9884  130.4927  150.7169 LP  0  0  0  0  0  0  0  0  0  0  0  0  # atno 17371 bound_to 10713
  139.9178  135.0198  156.7947 LP  0  0  0  0  0  0  0  0  0  0  0  0  # atno 17394 bound_to 11000
  140.6487  133.9752  155.7744 LP  0  0  0  0  0  0  0  0  0  0  0  0  # atno 17395 bound_to 11000

$$$$
