#       Name:                AV-unprocessed.smi:1284
#       Creating user name   scv26
#       Creation time:       Fri Mar 27 04:50:38 2020


#       File generated by GOLD software.
#

@<TRIPOS>MOLECULE
AV-unprocessed.smi:1284
    44    46     1
SMALL
NO_CHARGES


@<TRIPOS>ATOM
      1 ****        -1.4291   3.5116   1.3143 N.am           1 S1                 0.0000
      2 ****        -2.1714   3.3056   0.2234 C.2            1 S1                 0.0000
      3 ****        -3.3355   3.6917   0.1380 O.2            1 S1                 0.0000
      4 ****        -1.5187   2.5560  -0.9404 C.3            1 S1                 0.0000
      5 ****        -1.8617   1.0964  -0.8979 C.2            1 S1                 0.0000
      6 ****        -3.1215   0.5740  -0.9564 N.pl3          1 S1                 1.0000
      7 ****        -3.0646  -0.8174  -0.8862 C.ar           1 S1                 0.0000
      8 ****        -4.0760  -1.7729  -0.8995 C.ar           1 S1                 0.0000
      9 ****        -3.6731  -3.1214  -0.8084 C.ar           1 S1                 0.0000
     10 ****        -2.3118  -3.4758  -0.7095 C.ar           1 S1                 0.0000
     11 ****        -1.2956  -2.4977  -0.6994 C.ar           1 S1                 0.0000
     12 ****        -1.7026  -1.1666  -0.7902 C.ar           1 S1                 0.0000
     13 ****        -0.9964   0.0416  -0.8113 N.pl3          1 S1                 0.0000
     14 ****         0.4741   0.0020  -0.7441 C.3            1 S1                 0.0000
     15 ****         1.0110  -0.1346   0.6944 C.3            1 S1                 0.0000
     16 ****         0.5361   0.9344   1.4894 O.3            1 S1                 0.0000
     17 ****         2.5281  -0.2316   0.7065 C.ar           1 S1                 0.0000
     18 ****         3.1518  -1.4893   0.8530 C.ar           1 S1                 0.0000
     19 ****         4.5569  -1.5892   0.8556 C.ar           1 S1                 0.0000
     20 ****         5.3461  -0.4323   0.7099 C.ar           1 S1                 0.0000
     21 ****         4.7298   0.8247   0.5597 C.ar           1 S1                 0.0000
     22 ****         3.3250   0.9252   0.5563 C.ar           1 S1                 0.0000
     23 ****        -1.8256   3.9970   2.1064 H              1 S1                 0.0000
     24 ****        -0.4762   3.1773   1.3487 H              1 S1                 0.0000
     25 ****        -1.8682   2.9765  -1.8839 H              1 S1                 0.0000
     26 ****        -0.4389   2.6996  -0.9122 H              1 S1                 0.0000
     27 ****        -5.1193  -1.5030  -0.9745 H              1 S1                 0.0000
     28 ****        -4.4231  -3.8992  -0.8137 H              1 S1                 0.0000
     29 ****        -2.0411  -4.5194  -0.6401 H              1 S1                 0.0000
     30 ****        -0.2561  -2.7801  -0.6223 H              1 S1                 0.0000
     31 ****         0.8227  -0.8242  -1.3650 H              1 S1                 0.0000
     32 ****         0.8601   0.9064  -1.2136 H              1 S1                 0.0000
     33 ****         0.6100  -1.0474   1.1360 H              1 S1                 0.0000
     34 ****         0.8109   0.7861   2.3818 H              1 S1                 0.0000
     35 ****         2.5556  -2.3833   0.9626 H              1 S1                 0.0000
     36 ****         5.0296  -2.5536   0.9689 H              1 S1                 0.0000
     37 ****         6.4234  -0.5092   0.7118 H              1 S1                 0.0000
     38 ****         5.3349   1.7121   0.4461 H              1 S1                 0.0000
     39 ****         2.8617   1.8934   0.4356 H              1 S1                 0.0000
     40 ****        -3.9598   1.1367  -1.0294 H              1 S1                 0.0000
     41 ****        -3.7581   4.1788   0.9023 LP             1 S1                 0.0000
     42 ****        -3.8599   3.5185  -0.6957 LP             1 S1                 0.0000
     43 ****        -0.4623   0.9712   1.4448 LP             1 S1                 0.0000
     44 ****         0.9166   1.7975   1.1575 LP             1 S1                 0.0000
@<TRIPOS>BOND
    1    1    2 am    
    2    1   23 1     
    3    1   24 1     
    4    2    3 2     
    5    2    4 1     
    6    4    5 1     
    7    4   25 1     
    8    4   26 1     
    9    5   13 1     
   10    5    6 2     
   11    6    7 1     
   12    6   40 1     
   13    7   12 ar    
   14    7    8 ar    
   15    8    9 ar    
   16    8   27 1     
   17    9   10 ar    
   18    9   28 1     
   19   10   11 ar    
   20   10   29 1     
   21   11   12 ar    
   22   11   30 1     
   23   12   13 1     
   24   13   14 1     
   25   14   15 1     
   26   14   31 1     
   27   14   32 1     
   28   15   16 1     
   29   15   17 1     
   30   15   33 1     
   31   16   34 1     
   32   17   22 ar    
   33   17   18 ar    
   34   18   19 ar    
   35   18   35 1     
   36   19   20 ar    
   37   19   36 1     
   38   20   21 ar    
   39   20   37 1     
   40   21   22 ar    
   41   21   38 1     
   42   22   39 1     
   43    3   41 1     
   44    3   42 1     
   45   16   43 1     
   46   16   44 1     
@<TRIPOS>SUBSTRUCTURE
      1 S1             1
@<TRIPOS>SET
LONE_PAIRS      STATIC     ATOMS    <user>   **** ""
4 41 42 43 44
DONOR_HYDROGENS      STATIC     ATOMS    <user>   **** ""
4 23 24 40 34
ATOM$BLUE        STATIC     ATOMS    COLORGROUP SYSTEM
4 41 42 43 44
ATOM$RED        STATIC     ATOMS    COLORGROUP SYSTEM
4 23 24 40 34
