AV-unprocessed.smi:62|AV-procd|sdf|605|dock4
  -GOLD-   2262016503D 1   1.00000     0.00000
 Structure written by MMmdl.
 30 31  0  0  0  0  0  0  0  0  2 V2000
  151.0660  144.4712  158.9947 C   0  0  0  0  0  0  0  0  0  0  0  0
  151.4082  143.1862  158.4243 N   0  0  0  0  0  0  0  0  0  0  0  0
  151.0859  142.6804  157.1860 C   0  0  0  0  0  0  0  0  0  0  0  0
  151.6204  141.4256  157.0897 C   0  0  0  0  0  0  0  0  0  0  0  0
  151.4980  140.5008  155.9018 C   0  0  0  0  0  0  0  0  0  0  0  0
  150.1103  140.2641  155.5159 N   0  0  0  0  0  0  0  0  0  0  0  0
  149.4895  141.3762  154.8152 C   0  0  0  0  0  0  0  0  0  0  0  0
  148.2839  140.7989  154.0596 C   0  0  0  0  0  0  0  0  0  0  0  0
  148.5245  139.2804  154.0772 C   0  0  1  0  0  0  0  0  0  0  0  0
  148.3754  138.6858  152.8049 O   0  0  0  0  0  0  0  0  0  0  0  0
  149.9527  139.1494  154.6067 C   0  0  0  0  0  0  0  0  0  0  0  0
  152.2731  141.2527  158.3581 C   0  0  0  0  0  0  0  0  0  0  0  0
  153.0223  139.9973  158.7217 C   0  0  0  0  0  0  0  0  0  0  0  0
  153.2160  139.1083  157.8638 O   0  0  0  0  0  0  0  0  0  0  0  0
  153.4403  139.8876  159.8959 O   0  5  0  0  0  0  0  0  0  0  0  0
  152.1352  142.3125  159.1447 N   0  0  0  0  0  0  0  0  0  0  0  0
  150.5739  145.0936  158.2469 H   0  0  0  0  0  0  0  0  0  0  0  0
  151.9695  144.9765  159.3375 H   0  0  0  0  0  0  0  0  0  0  0  0
  150.3915  144.3301  159.8396 H   0  0  0  0  0  0  0  0  0  0  0  0
  150.5011  143.2479  156.4773 H   0  0  0  0  0  0  0  0  0  0  0  0
  152.0460  140.9028  155.0485 H   0  0  0  0  0  0  0  0  0  0  0  0
  151.9780  139.5460  156.1166 H   0  0  0  0  0  0  0  0  0  0  0  0
  149.2028  142.1714  155.5041 H   0  0  0  0  0  0  0  0  0  0  0  0
  150.1902  141.8003  154.0942 H   0  0  0  0  0  0  0  0  0  0  0  0
  147.3470  141.0441  154.5608 H   0  0  0  0  0  0  0  0  0  0  0  0
  148.2375  141.2045  153.0480 H   0  0  0  0  0  0  0  0  0  0  0  0
  147.8322  138.8092  154.7764 H   0  0  0  0  0  0  0  0  0  0  0  0
  149.0496  139.0257  152.2365 H   0  0  0  0  0  0  0  0  0  0  0  0
  150.6667  139.2371  153.7857 H   0  0  0  0  0  0  0  0  0  0  0  0
  150.1278  138.1954  155.1051 H   0  0  0  0  0  0  0  0  0  0  0  0
  1  2  1  0  0  0  0
  1 17  1  0  0  0  0
  1 18  1  0  0  0  0
  1 19  1  0  0  0  0
  2 16  1  0  0  0  0
  2  3  1  0  0  0  0
  3  4  2  0  0  0  0
  3 20  1  0  0  0  0
  4  5  1  0  0  0  0
  4 12  1  0  0  0  0
  5  6  1  0  0  0  0
  5 21  1  0  0  0  0
  5 22  1  0  0  0  0
  6 11  1  0  0  0  0
  6  7  1  0  0  0  0
  7  8  1  0  0  0  0
  7 23  1  0  0  0  0
  7 24  1  0  0  0  0
  8  9  1  0  0  0  0
  8 25  1  0  0  0  0
  8 26  1  0  0  0  0
  9 10  1  0  0  0  0
  9 11  1  0  0  0  0
  9 27  1  0  0  0  0
 10 28  1  0  0  0  0
 11 29  1  0  0  0  0
 11 30  1  0  0  0  0
 12 13  1  0  0  0  0
 12 16  2  0  0  0  0
 13 14  2  0  0  0  0
 13 15  1  0  0  0  0
M  CHG  1  15  -1
M  END
> <s_m_source_file>
AV-unprocessed.smi

> <i_m_source_file_index>
62

> <i_lp_mmshare_version>
43012

> <i_f3d_flags>
0

> <s_epik_input>
W0NIM11uMVtjSF1jKGMobjEpQyg9TylbT0hdKVtDSDJdTjJbQ0gyXVtDSDJdW0NAQEhdKFtPSF0pW0NIMl0y

> <s_epik_cmdline>
J2VwaWtfcHl0aG9uJywgJy1waCcsICc3LjAnLCAnLXRuJywgJzgnLCAnLW1hJywgJzIwMCcsICctbWV0YWxfYmluZGluZycsICctaW1hZScsICc8aW5maWxlLm1hZT4nLCAnLW9tYWUnLCAnPG91dGZpbGUubWFlPic=

> <r_epik_Ionization_Penalty>
1.46526

> <r_epik_Ionization_Penalty_Charging>
0.000523675

> <r_epik_Ionization_Penalty_Neutral>
1.46474

> <r_epik_State_Penalty>
1.55202

> <r_epik_Charging_Adjusted_Penalty>
1.55254

> <i_epik_Tot_Q>
-1

> <i_epik_Tot_abs_Q>
1

> <r_epik_Metal_State_Penalty>
1.552

> <b_epik_Metal_Only>
0

> <s_lp_Force_Field>
OPLS_2005

> <r_lp_Energy>
37.4644

> <b_lp_Chiralities_Consistent>
1

> <s_lp_Variant>
AV-unprocessed.smi:62-5

> <Gold.Version>
5.8.1

> <Gold.Id.Protein>
6NUR|6NUR_protein|mol2

> <Gold.PLP.Fitness>
42.1456

> <Gold.PLP.PLP>
-30.4436

> <Gold.PLP.part.hbond>
-2.7297

> <Gold.PLP.part.metal>
0.0000

> <Gold.PLP.part.buried>
-4.4694

> <Gold.PLP.part.nonpolar>
-22.9988

> <Gold.PLP.part.repulsive>
0.0463

> <Gold.PLP.ligand.clash>
0.0000

> <Gold.PLP.ligand.torsion>
0.1524

> <Gold.PLP.Chemscore.Hbond>
3.0000

> <Gold.PLP.Chemscore.CHOScore>
1.0000

> <Gold.PLP.Chemscore.Metal>
0.0000

> <Gold.Chemscore.Hbonds>
donor molecule, donor type, donor heavy atom, donor atom, acceptor molecule, acceptor atom, score
      L1  H    10    28       P1  7957  1.00
      P1  H  7997  8009       L1    14  1.90
      L1  C     3    20       P1  8028  1.00

> <Gold.PLP.Chemscore.Internal.Correction>
0.0068

> <Gold.Rescore>
     Score         DG    S(hbond)    S(metal)    S(lipo)     H(rot)  DE(clash)    DE(int)     intcor
     13.76     -15.12       1.97        0.00      64.88       1.77       0.01       1.35       ----

> <Gold.Chemscore.Fitness>
13.7619

> <Gold.Chemscore.DG>
-15.1183

> <Gold.Chemscore.ZeroCoef>
-5.4800

> <Gold.Chemscore.Hbond>
1.9675

> <Gold.Chemscore.Metal>
0.0000

> <Gold.Chemscore.Lipo>
64.8848

> <Gold.Chemscore.Internal_Hbond>
0.0000

> <Gold.Chemscore.DEClash>
0.0073

> <Gold.Chemscore.DEInternal>
1.3491

> <Gold.Chemscore.Rot>
1.7674

> <Gold.Chemscore.Internal.Correction>
   9.000000E+99

> <Gold.Chemscore.Hbonds>
donor molecule, donor type, donor heavy atom, donor atom, acceptor molecule, acceptor atom, score
      L1  H    10    28       P1  7957  0.90
      P1  H  7997  8009       L1    14  0.21

> <Gold.Chemscore.Hbond.Weighted>
-6.5713

> <Gold.Chemscore.Metal.Weighted>
-0.0000

> <Gold.Chemscore.Lipo.Weighted>
-7.5915

> <Gold.Chemscore.Internal_Hbond.Weighted>
0.0000

> <Gold.Chemscore.DEClash.Weighted>
0.0073

> <Gold.Chemscore.DEInternal.Weighted>
1.3491

> <Gold.Chemscore.Rot.Weighted>
4.5245

> <Gold.Chemscore.Internal.Correction.Weighted>
   9.000000E+99

> <Gold.Protein.RotatedTorsions>
[ 6907 6896 6895 6894 ] final  100.30 input  -60.11 | X-H torsion
[ 7974 7965 7964 7962 ] final  -29.47 input  175.53 | X-H torsion
[ 8008 7997 7996 7995 ] final  179.25 input   59.86 | X-H torsion
[ 10167 10162 10161 10158 ] final  176.79 input  -65.29 | X-H torsion
[ 10718 10713 10712 10709 ] final -121.35 input   66.30 | X-H torsion
[ 10763 10752 10751 10750 ] final  174.89 input  -60.55 | X-H torsion
[ 11005 11000 10999 10996 ] final  175.42 input  -57.11 | X-H torsion

> <Gold.Protein.ActiveResidues>
 VAL166  LYS551  ARG553  GLY616  TRP617  ASP618  TYR619  PRO620  LYS621  CYS622 
 ASP623  PHE694  ASN695  SER759  ASP760  ASP761  ALA762  ILE779  LEU786  VAL792 
 PHE793  MET794  SER795  GLU796  ALA797  LYS798  CYS799  TRP800  GLU811  SER814 

> <Gold.Protein.RotatedAtoms>
  152.5375  134.0297  159.8019 H   0  0  0  0  0  0  0  0  0  0  0  0  # atno 6907 bound_to 6896
  151.0470  133.5649  159.2653 H   0  0  0  0  0  0  0  0  0  0  0  0  # atno 6908 bound_to 6896
  151.2597  135.0657  159.9147 H   0  0  0  0  0  0  0  0  0  0  0  0  # atno 6909 bound_to 6896
  146.1214  140.5416  142.8734 H   0  0  0  0  0  0  0  0  0  0  0  0  # atno 7974 bound_to 7965
  156.0455  140.1313  157.0109 H   0  0  0  0  0  0  0  0  0  0  0  0  # atno 8008 bound_to 7997
  154.4410  140.1021  156.6369 H   0  0  0  0  0  0  0  0  0  0  0  0  # atno 8009 bound_to 7997
  155.5603  140.3464  155.4492 H   0  0  0  0  0  0  0  0  0  0  0  0  # atno 8010 bound_to 7997
  139.5228  144.2874  152.0494 H   0  0  0  0  0  0  0  0  0  0  0  0  # atno 10167 bound_to 10162
  156.1330  130.6409  150.9651 H   0  0  0  0  0  0  0  0  0  0  0  0  # atno 10718 bound_to 10713
  154.4601  135.2767  155.1719 H   0  0  0  0  0  0  0  0  0  0  0  0  # atno 10763 bound_to 10752
  154.3510  135.6150  153.5646 H   0  0  0  0  0  0  0  0  0  0  0  0  # atno 10764 bound_to 10752
  152.9854  135.5811  154.4962 H   0  0  0  0  0  0  0  0  0  0  0  0  # atno 10765 bound_to 10752
  140.3620  134.7104  157.4337 H   0  0  0  0  0  0  0  0  0  0  0  0  # atno 11005 bound_to 11000
  144.7601  140.5401  143.6742 LP  0  0  0  0  0  0  0  0  0  0  0  0  # atno 17320 bound_to 7965
  145.5458  139.1476  143.3422 LP  0  0  0  0  0  0  0  0  0  0  0  0  # atno 17321 bound_to 7965
  140.2326  144.4352  150.6293 LP  0  0  0  0  0  0  0  0  0  0  0  0  # atno 17342 bound_to 10162
  140.6345  143.2192  151.6425 LP  0  0  0  0  0  0  0  0  0  0  0  0  # atno 17343 bound_to 10162
  157.6506  131.0897  150.8059 LP  0  0  0  0  0  0  0  0  0  0  0  0  # atno 17370 bound_to 10713
  156.8142  130.4962  149.5352 LP  0  0  0  0  0  0  0  0  0  0  0  0  # atno 17371 bound_to 10713
  140.0619  134.5984  155.8739 LP  0  0  0  0  0  0  0  0  0  0  0  0  # atno 17394 bound_to 11000
  141.1981  133.6600  156.5775 LP  0  0  0  0  0  0  0  0  0  0  0  0  # atno 17395 bound_to 11000

$$$$
