AV-unprocessed.smi:1843|AV-procd|sdf|7503|dock5
  -GOLD-   22720 9203D 1   1.00000     0.00000
 Structure written by MMmdl.
 37 39  0  0  0  0  0  0  0  0  1 V2000
  144.6933  136.4790  152.9548 O   0  0  0  0  0  0  0  0  0  0  0  0
  145.8880  136.4057  152.6665 C   0  0  0  0  0  0  0  0  0  0  0  0
  146.7884  137.3921  152.8232 N   0  0  0  0  0  0  0  0  0  0  0  0
  146.5816  138.6991  153.3381 C   0  0  0  0  0  0  0  0  0  0  0  0
  145.7848  138.9723  154.3802 N   0  0  0  0  0  0  0  0  0  0  0  0
  145.7624  140.3284  154.6737 N   0  0  0  0  0  0  0  0  0  0  0  0
  146.5408  141.0398  153.8493 C   0  0  0  0  0  0  0  0  0  0  0  0
  146.6801  142.5212  153.9670 C   0  0  0  0  0  0  0  0  0  0  0  0
  145.8432  143.3224  154.9405 C   0  0  0  0  0  0  0  0  0  0  0  0
  145.5945  143.4415  153.4584 C   0  0  0  0  0  0  0  0  0  0  0  0
  147.3779  140.0912  152.6247 S   0  0  0  0  0  0  0  0  0  0  0  0
  146.4573  135.3091  152.1461 N   0  0  0  0  0  0  0  0  0  0  0  0
  145.7635  134.0557  151.8551 C   0  0  1  0  0  0  0  0  0  0  0  0
  144.4455  134.3746  151.1147 C   0  0  0  0  0  0  0  0  0  0  0  0
  143.7299  133.1069  150.6261 C   0  0  0  0  0  0  0  0  0  0  0  0
  144.6538  132.2631  149.7383 C   0  0  0  0  0  0  0  0  0  0  0  0
  145.9397  131.8971  150.4911 C   0  0  0  0  0  0  0  0  0  0  0  0
  146.6793  133.1490  150.9995 C   0  0  2  0  0  0  0  0  0  0  0  0
  147.7707  132.7061  151.7816 O   0  0  0  0  0  0  0  0  0  0  0  0
  147.7342  137.1841  152.5394 H   0  0  0  0  0  0  0  0  0  0  0  0
  147.7149  142.8227  153.8169 H   0  0  0  0  0  0  0  0  0  0  0  0
  145.0918  142.7992  155.5286 H   0  0  0  0  0  0  0  0  0  0  0  0
  146.3213  144.1632  155.4386 H   0  0  0  0  0  0  0  0  0  0  0  0
  145.9068  144.3608  152.9671 H   0  0  0  0  0  0  0  0  0  0  0  0
  144.6888  142.9853  153.0630 H   0  0  0  0  0  0  0  0  0  0  0  0
  147.4440  135.3393  151.9354 H   0  0  0  0  0  0  0  0  0  0  0  0
  145.5250  133.5344  152.7849 H   0  0  0  0  0  0  0  0  0  0  0  0
  143.7778  134.9409  151.7656 H   0  0  0  0  0  0  0  0  0  0  0  0
  144.6524  135.0161  150.2567 H   0  0  0  0  0  0  0  0  0  0  0  0
  143.4026  132.5167  151.4831 H   0  0  0  0  0  0  0  0  0  0  0  0
  142.8295  133.3774  150.0739 H   0  0  0  0  0  0  0  0  0  0  0  0
  144.1382  131.3568  149.4195 H   0  0  0  0  0  0  0  0  0  0  0  0
  144.9016  132.8158  148.8312 H   0  0  0  0  0  0  0  0  0  0  0  0
  145.6863  131.2504  151.3329 H   0  0  0  0  0  0  0  0  0  0  0  0
  146.5938  131.3139  149.8419 H   0  0  0  0  0  0  0  0  0  0  0  0
  147.0639  133.7090  150.1458 H   0  0  0  0  0  0  0  0  0  0  0  0
  148.3030  132.1303  151.2545 H   0  0  0  0  0  0  0  0  0  0  0  0
  1  2  2  0  0  0  0
  2  3  1  0  0  0  0
  2 12  1  0  0  0  0
  3  4  1  0  0  0  0
  3 20  1  0  0  0  0
  4 11  1  0  0  0  0
  4  5  2  0  0  0  0
  5  6  1  0  0  0  0
  6  7  2  0  0  0  0
  7  8  1  0  0  0  0
  7 11  1  0  0  0  0
  8 10  1  0  0  0  0
  8  9  1  0  0  0  0
  8 21  1  0  0  0  0
  9 10  1  0  0  0  0
  9 22  1  0  0  0  0
  9 23  1  0  0  0  0
 10 24  1  0  0  0  0
 10 25  1  0  0  0  0
 12 13  1  0  0  0  0
 12 26  1  0  0  0  0
 13 18  1  0  0  0  0
 13 14  1  0  0  0  0
 13 27  1  0  0  0  0
 14 15  1  0  0  0  0
 14 28  1  0  0  0  0
 14 29  1  0  0  0  0
 15 16  1  0  0  0  0
 15 30  1  0  0  0  0
 15 31  1  0  0  0  0
 16 17  1  0  0  0  0
 16 32  1  0  0  0  0
 16 33  1  0  0  0  0
 17 18  1  0  0  0  0
 17 34  1  0  0  0  0
 17 35  1  0  0  0  0
 18 19  1  0  0  0  0
 18 36  1  0  0  0  0
 19 37  1  0  0  0  0
M  END
> <s_m_source_file>
AV-unprocessed.smi

> <i_m_source_file_index>
1843

> <i_lp_mmshare_version>
43012

> <i_f3d_flags>
0

> <s_epik_input>
W09IXVtDQEBIXTFbQ0gyXVtDSDJdW0NIMl1bQ0gyXVtDQEhdMVtOSF1DKD1PKVtOSF1jMm5uYyhzMilbQ0hdM1tDSDJdW0NIMl0z

> <s_epik_cmdline>
J2VwaWtfcHl0aG9uJywgJy1waCcsICc3LjAnLCAnLXRuJywgJzgnLCAnLW1hJywgJzIwMCcsICctbWV0YWxfYmluZGluZycsICctaW1hZScsICc8aW5maWxlLm1hZT4nLCAnLW9tYWUnLCAnPG91dGZpbGUubWFlPic=

> <r_lp_tautomer_probability>
1

> <r_epik_Ionization_Penalty>
0.000257313

> <r_epik_Ionization_Penalty_Charging>
0

> <r_epik_Ionization_Penalty_Neutral>
0.000257313

> <r_epik_State_Penalty>
-0

> <r_epik_Charging_Adjusted_Penalty>
0

> <i_epik_Tot_Q>
0

> <i_epik_Tot_abs_Q>
0

> <r_epik_Metal_State_Penalty>
0.147479

> <b_epik_Metal_Only>
0

> <s_lp_Force_Field>
OPLS_2005

> <r_lp_Energy>
8.53895

> <b_lp_Chiralities_Consistent>
1

> <s_lp_Variant>
AV-unprocessed.smi:1843-4

> <Gold.Version>
5.8.1

> <Gold.Id.Protein>
6NUR|6NUR_protein|mol2

> <Gold.PLP.Fitness>
41.0596

> <Gold.PLP.PLP>
-33.3687

> <Gold.PLP.part.hbond>
-3.0000

> <Gold.PLP.part.metal>
0.0000

> <Gold.PLP.part.buried>
-1.9421

> <Gold.PLP.part.nonpolar>
-28.9866

> <Gold.PLP.part.repulsive>
0.3711

> <Gold.PLP.ligand.clash>
0.0000

> <Gold.PLP.ligand.torsion>
0.7188

> <Gold.PLP.Chemscore.Hbond>
3.0000

> <Gold.PLP.Chemscore.CHOScore>
0.0000

> <Gold.PLP.Chemscore.Metal>
0.0000

> <Gold.Chemscore.Hbonds>
donor molecule, donor type, donor heavy atom, donor atom, acceptor molecule, acceptor atom, score
      L1  H     3    20       P1  7948  1.00
      L1  H    12    26       P1  7948  1.00
      L1  H    19    37       P1 10747  1.00

> <Gold.PLP.Chemscore.Internal.Correction>
0.1285

> <Gold.Rescore>
     Score         DG    S(hbond)    S(metal)    S(lipo)     H(rot)  DE(clash)    DE(int)     intcor
     18.24     -19.92       2.93        0.00      77.72       1.74       0.04       1.64       ----

> <Gold.Chemscore.Fitness>
18.2357

> <Gold.Chemscore.DG>
-19.9195

> <Gold.Chemscore.ZeroCoef>
-5.4800

> <Gold.Chemscore.Hbond>
2.9348

> <Gold.Chemscore.Metal>
0.0000

> <Gold.Chemscore.Lipo>
77.7167

> <Gold.Chemscore.Internal_Hbond>
0.0000

> <Gold.Chemscore.DEClash>
0.0401

> <Gold.Chemscore.DEInternal>
1.6437

> <Gold.Chemscore.Rot>
1.7404

> <Gold.Chemscore.Internal.Correction>
   9.000000E+99

> <Gold.Chemscore.Hbonds>
donor molecule, donor type, donor heavy atom, donor atom, acceptor molecule, acceptor atom, score
      L1  H     3    20       P1  7948  0.98
      L1  H    12    26       P1  7948  0.94
      L1  H    19    37       P1 10747  1.00

> <Gold.Chemscore.Hbond.Weighted>
-9.8021

> <Gold.Chemscore.Metal.Weighted>
-0.0000

> <Gold.Chemscore.Lipo.Weighted>
-9.0929

> <Gold.Chemscore.Internal_Hbond.Weighted>
0.0000

> <Gold.Chemscore.DEClash.Weighted>
0.0401

> <Gold.Chemscore.DEInternal.Weighted>
1.6437

> <Gold.Chemscore.Rot.Weighted>
4.4555

> <Gold.Chemscore.Internal.Correction.Weighted>
   9.000000E+99

> <Gold.Protein.RotatedTorsions>
[ 6907 6896 6895 6894 ] final   42.09 input  -60.11 | X-H torsion
[ 7974 7965 7964 7962 ] final   79.40 input  175.53 | X-H torsion
[ 8008 7997 7996 7995 ] final  -59.58 input   59.86 | X-H torsion
[ 10167 10162 10161 10158 ] final  -94.75 input  -65.29 | X-H torsion
[ 10718 10713 10712 10709 ] final -101.12 input   66.30 | X-H torsion
[ 10763 10752 10751 10750 ] final   48.42 input  -60.55 | X-H torsion
[ 11005 11000 10999 10996 ] final   37.71 input  -57.11 | X-H torsion

> <Gold.Protein.ActiveResidues>
 VAL166  LYS551  ARG553  GLY616  TRP617  ASP618  TYR619  PRO620  LYS621  CYS622 
 ASP623  PHE694  ASN695  SER759  ASP760  ASP761  ALA762  ILE779  LEU786  VAL792 
 PHE793  MET794  SER795  GLU796  ALA797  LYS798  CYS799  TRP800  GLU811  SER814 

> <Gold.Protein.RotatedAtoms>
  152.2034  134.8567  160.0505 H   0  0  0  0  0  0  0  0  0  0  0  0  # atno 6907 bound_to 6896
  151.9412  133.3633  159.3974 H   0  0  0  0  0  0  0  0  0  0  0  0  # atno 6908 bound_to 6896
  150.6960  134.4362  159.5315 H   0  0  0  0  0  0  0  0  0  0  0  0  # atno 6909 bound_to 6896
  145.6647  139.2480  143.1902 H   0  0  0  0  0  0  0  0  0  0  0  0  # atno 7974 bound_to 7965
  154.4359  140.1058  156.6138 H   0  0  0  0  0  0  0  0  0  0  0  0  # atno 8008 bound_to 7997
  155.5781  140.3490  155.4514 H   0  0  0  0  0  0  0  0  0  0  0  0  # atno 8009 bound_to 7997
  156.0339  140.1267  157.0218 H   0  0  0  0  0  0  0  0  0  0  0  0  # atno 8010 bound_to 7997
  140.3112  143.3104  152.0146 H   0  0  0  0  0  0  0  0  0  0  0  0  # atno 10167 bound_to 10162
  156.0184  130.5359  150.6917 H   0  0  0  0  0  0  0  0  0  0  0  0  # atno 10718 bound_to 10713
  152.9792  135.5944  154.3923 H   0  0  0  0  0  0  0  0  0  0  0  0  # atno 10763 bound_to 10752
  154.3577  135.2767  155.2339 H   0  0  0  0  0  0  0  0  0  0  0  0  # atno 10764 bound_to 10752
  154.4350  135.6027  153.6147 H   0  0  0  0  0  0  0  0  0  0  0  0  # atno 10765 bound_to 10752
  140.2198  134.3654  155.8010 H   0  0  0  0  0  0  0  0  0  0  0  0  # atno 11005 bound_to 11000
  146.1096  140.7445  142.9510 LP  0  0  0  0  0  0  0  0  0  0  0  0  # atno 17320 bound_to 7965
  144.7077  140.3917  143.7105 LP  0  0  0  0  0  0  0  0  0  0  0  0  # atno 17321 bound_to 7965
  139.4893  144.6383  151.6930 LP  0  0  0  0  0  0  0  0  0  0  0  0  # atno 17342 bound_to 10162
  140.5566  144.0337  150.6150 LP  0  0  0  0  0  0  0  0  0  0  0  0  # atno 17343 bound_to 10162
  157.4597  131.0882  151.0759 LP  0  0  0  0  0  0  0  0  0  0  0  0  # atno 17370 bound_to 10713
  157.1250  130.6078  149.5515 LP  0  0  0  0  0  0  0  0  0  0  0  0  # atno 17371 bound_to 10713
  141.2223  133.7187  156.8557 LP  0  0  0  0  0  0  0  0  0  0  0  0  # atno 17394 bound_to 11000
  140.1861  134.8998  157.3006 LP  0  0  0  0  0  0  0  0  0  0  0  0  # atno 17395 bound_to 11000

$$$$
