AV-unprocessed.smi:36|AV-procd|sdf|294|dock1
  -GOLD-   2262016 83D 1   1.00000     0.00000
 Structure written by MMmdl.
 64 67  0  0  0  0  0  0  0  0  1 V2000
  160.3733  134.0758  152.4055 C   0  0  0  0  0  0  0  0  0  0  0  0
  159.5028  134.7253  153.4940 C   0  0  0  0  0  0  0  0  0  0  0  0
  160.3420  135.7236  154.3086 C   0  0  0  0  0  0  0  0  0  0  0  0
  158.3123  135.4559  152.8481 C   0  0  0  0  0  0  0  0  0  0  0  0
  158.8318  133.3713  154.6631 Si  0  0  0  0  0  0  0  0  0  0  0  0
  157.7239  132.1552  153.7074 C   0  0  0  0  0  0  0  0  0  0  0  0
  160.2473  132.4161  155.4943 C   0  0  0  0  0  0  0  0  0  0  0  0
  157.9460  134.1494  155.8807 O   0  0  0  0  0  0  0  0  0  0  0  0
  157.3704  133.5093  157.0019 C   0  0  0  0  0  0  0  0  0  0  0  0
  156.5323  134.5387  157.7703 C   0  0  1  0  0  0  0  0  0  0  0  0
  155.4229  134.9531  156.9768 O   0  0  0  0  0  0  0  0  0  0  0  0
  154.3109  135.1942  157.7831 C   0  0  2  0  0  0  0  0  0  0  0  0
  153.8336  136.5895  157.5376 N   0  0  0  0  0  0  0  0  0  0  0  0
  154.5055  137.5516  156.8789 C   0  0  0  0  0  0  0  0  0  0  0  0
  153.8870  138.7264  156.7962 N   0  0  0  0  0  0  0  0  0  0  0  0
  152.6964  138.4914  157.4758 C   0  0  0  0  0  0  0  0  0  0  0  0
  151.5596  139.3971  157.7503 C   0  0  0  0  0  0  0  0  0  0  0  0
  151.6353  140.6123  157.2991 N   0  0  0  0  0  0  0  0  0  0  0  0
  150.5925  141.5040  157.5156 C   0  0  0  0  0  0  0  0  0  0  0  0
  149.4499  141.4836  157.0494 O   0  0  0  0  0  0  0  0  0  0  0  0
  150.9265  142.5762  158.5026 C   0  0  0  0  0  0  0  0  0  0  0  0
  152.1602  142.5515  159.1881 C   0  0  0  0  0  0  0  0  0  0  0  0
  152.4709  143.5604  160.1207 C   0  0  0  0  0  0  0  0  0  0  0  0
  151.5512  144.5973  160.3703 C   0  0  0  0  0  0  0  0  0  0  0  0
  150.3197  144.6250  159.6879 C   0  0  0  0  0  0  0  0  0  0  0  0
  150.0065  143.6156  158.7567 C   0  0  0  0  0  0  0  0  0  0  0  0
  150.5761  138.7186  158.4813 N   0  0  0  0  0  0  0  0  0  0  0  0
  150.6368  137.3798  158.8966 C   0  0  0  0  0  0  0  0  0  0  0  0
  151.6312  136.5685  158.6550 N   0  0  0  0  0  0  0  0  0  0  0  0
  152.6409  137.1928  157.9354 C   0  0  0  0  0  0  0  0  0  0  0  0
  154.7533  135.0040  159.2326 C   0  0  0  0  0  0  0  0  0  0  0  0
  155.8846  134.0129  159.0530 C   0  0  2  0  0  0  0  0  0  0  0  0
  156.7655  134.0460  160.1566 O   0  0  0  0  0  0  0  0  0  0  0  0
  160.7723  134.8235  151.7193 H   0  0  0  0  0  0  0  0  0  0  0  0
  159.8016  133.3602  151.8139 H   0  0  0  0  0  0  0  0  0  0  0  0
  161.2197  133.5428  152.8396 H   0  0  0  0  0  0  0  0  0  0  0  0
  161.2009  135.2371  154.7714 H   0  0  0  0  0  0  0  0  0  0  0  0
  159.7526  136.1784  155.1054 H   0  0  0  0  0  0  0  0  0  0  0  0
  160.7218  136.5289  153.6790 H   0  0  0  0  0  0  0  0  0  0  0  0
  158.6478  136.2511  152.1817 H   0  0  0  0  0  0  0  0  0  0  0  0
  157.6695  135.9090  153.6036 H   0  0  0  0  0  0  0  0  0  0  0  0
  157.6954  134.7753  152.2609 H   0  0  0  0  0  0  0  0  0  0  0  0
  158.2989  131.5828  152.9802 H   0  0  0  0  0  0  0  0  0  0  0  0
  156.9375  132.6707  153.1570 H   0  0  0  0  0  0  0  0  0  0  0  0
  157.2419  131.4386  154.3716 H   0  0  0  0  0  0  0  0  0  0  0  0
  160.8816  131.9199  154.7602 H   0  0  0  0  0  0  0  0  0  0  0  0
  159.8675  131.6478  156.1674 H   0  0  0  0  0  0  0  0  0  0  0  0
  160.8843  133.0753  156.0833 H   0  0  0  0  0  0  0  0  0  0  0  0
  156.7757  132.6431  156.7105 H   0  0  0  0  0  0  0  0  0  0  0  0
  158.1844  133.1448  157.6288 H   0  0  0  0  0  0  0  0  0  0  0  0
  157.1400  135.4138  158.0062 H   0  0  0  0  0  0  0  0  0  0  0  0
  153.4868  134.5426  157.4890 H   0  0  0  0  0  0  0  0  0  0  0  0
  155.4815  137.3858  156.4472 H   0  0  0  0  0  0  0  0  0  0  0  0
  152.8710  141.7589  159.0031 H   0  0  0  0  0  0  0  0  0  0  0  0
  153.4148  143.5388  160.6448 H   0  0  0  0  0  0  0  0  0  0  0  0
  151.7908  145.3708  161.0848 H   0  0  0  0  0  0  0  0  0  0  0  0
  149.6141  145.4199  159.8797 H   0  0  0  0  0  0  0  0  0  0  0  0
  149.0588  143.6436  158.2385 H   0  0  0  0  0  0  0  0  0  0  0  0
  149.7618  137.0489  159.4579 H   0  0  0  0  0  0  0  0  0  0  0  0
  155.1196  135.9498  159.6365 H   0  0  0  0  0  0  0  0  0  0  0  0
  153.9353  134.6393  159.8544 H   0  0  0  0  0  0  0  0  0  0  0  0
  155.4908  133.0057  158.9079 H   0  0  0  0  0  0  0  0  0  0  0  0
  156.5167  133.3619  160.7594 H   0  0  0  0  0  0  0  0  0  0  0  0
  149.7491  139.2418  158.7313 H   0  0  0  0  0  0  0  0  0  0  0  0
  1  2  1  0  0  0  0
  1 34  1  0  0  0  0
  1 35  1  0  0  0  0
  1 36  1  0  0  0  0
  2  3  1  0  0  0  0
  2  4  1  0  0  0  0
  2  5  1  0  0  0  0
  3 37  1  0  0  0  0
  3 38  1  0  0  0  0
  3 39  1  0  0  0  0
  4 40  1  0  0  0  0
  4 41  1  0  0  0  0
  4 42  1  0  0  0  0
  5  6  1  0  0  0  0
  5  7  1  0  0  0  0
  5  8  1  0  0  0  0
  6 43  1  0  0  0  0
  6 44  1  0  0  0  0
  6 45  1  0  0  0  0
  7 46  1  0  0  0  0
  7 47  1  0  0  0  0
  7 48  1  0  0  0  0
  8  9  1  0  0  0  0
  9 10  1  0  0  0  0
  9 49  1  0  0  0  0
  9 50  1  0  0  0  0
 10 32  1  0  0  0  0
 10 11  1  0  0  0  0
 10 51  1  0  0  0  0
 11 12  1  0  0  0  0
 12 13  1  0  0  0  0
 12 31  1  0  0  0  0
 12 52  1  0  0  0  0
 13 30  1  0  0  0  0
 13 14  1  0  0  0  0
 14 15  2  0  0  0  0
 14 53  1  0  0  0  0
 15 16  1  0  0  0  0
 16 30  2  0  0  0  0
 16 17  1  0  0  0  0
 17 18  2  0  0  0  0
 17 27  1  0  0  0  0
 18 19  1  0  0  0  0
 19 20  2  0  0  0  0
 19 21  1  0  0  0  0
 21 26  1  0  0  0  0
 21 22  2  0  0  0  0
 22 23  1  0  0  0  0
 22 54  1  0  0  0  0
 23 24  2  0  0  0  0
 23 55  1  0  0  0  0
 24 25  1  0  0  0  0
 24 56  1  0  0  0  0
 25 26  2  0  0  0  0
 25 57  1  0  0  0  0
 26 58  1  0  0  0  0
 27 28  1  0  0  0  0
 27 64  1  0  0  0  0
 28 29  2  0  0  0  0
 28 59  1  0  0  0  0
 29 30  1  0  0  0  0
 31 32  1  0  0  0  0
 31 60  1  0  0  0  0
 31 61  1  0  0  0  0
 32 33  1  0  0  0  0
 32 62  1  0  0  0  0
 33 63  1  0  0  0  0
M  END
> <s_m_source_file>
AV-unprocessed.smi

> <i_m_source_file_index>
36

> <i_lp_mmshare_version>
43012

> <i_f3d_flags>
0

> <s_epik_input>
W0NIM11DKFtDSDNdKShbQ0gzXSlbU2ldKFtDSDNdKShbQ0gzXSlPW0NIMl1bQ0BASF0xT1tDQEhdKFtDSDJdW0NASF0xW09IXSluKFtjSF1uMiljKGMyMyluW2NIXW5jM1tOSF1DKD1PKWM0W2NIXVtjSF1bY0hdW2NIXVtjSF00

> <s_epik_cmdline>
J2VwaWtfcHl0aG9uJywgJy1waCcsICc3LjAnLCAnLXRuJywgJzgnLCAnLW1hJywgJzIwMCcsICctbWV0YWxfYmluZGluZycsICctaW1hZScsICc8aW5maWxlLm1hZT4nLCAnLW9tYWUnLCAnPG91dGZpbGUubWFlPic=

> <r_epik_Ionization_Penalty>
0.0850405

> <r_epik_Ionization_Penalty_Charging>
0.0850403

> <r_epik_Ionization_Penalty_Neutral>
1.47497e-07

> <r_epik_State_Penalty>
2.6133

> <r_epik_Charging_Adjusted_Penalty>
2.69834

> <i_epik_Tot_Q>
0

> <i_epik_Tot_abs_Q>
0

> <r_epik_Metal_State_Penalty>
2.92945

> <b_epik_Metal_Only>
0

> <s_epik_Chemistry_Notes>
This compound contains an acetal/aminal-like group ( X-CH(R)-Y where X, Y are N, S, or O) that may be acid/base labile, releasing an aldehyde.

> <s_lp_Force_Field>
OPLS_2005

> <r_lp_Energy>
45.0835

> <b_lp_Chiralities_Consistent>
1

> <s_lp_Variant>
AV-unprocessed.smi:36-16

> <Gold.Version>
5.8.1

> <Gold.Id.Protein>
6NUR|6NUR_protein|mol2

> <Gold.PLP.Fitness>
48.4331

> <Gold.PLP.PLP>
-41.6586

> <Gold.PLP.part.hbond>
-2.6384

> <Gold.PLP.part.metal>
0.0000

> <Gold.PLP.part.buried>
-7.0827

> <Gold.PLP.part.nonpolar>
-33.0118

> <Gold.PLP.part.repulsive>
0.2696

> <Gold.PLP.ligand.clash>
0.0000

> <Gold.PLP.ligand.torsion>
1.0437

> <Gold.PLP.Chemscore.Hbond>
2.8080

> <Gold.PLP.Chemscore.CHOScore>
0.0000

> <Gold.PLP.Chemscore.Metal>
0.0000

> <Gold.Chemscore.Hbonds>
donor molecule, donor type, donor heavy atom, donor atom, acceptor molecule, acceptor atom, score
      P1  H  6896  6908       L1    29  0.72
      P1  H  7997  8008       L1    15  0.55
      P1  H 10752 10764       L1    11  0.55

> <Gold.PLP.Chemscore.Internal.Correction>
0.4379

> <Gold.Rescore>
     Score         DG    S(hbond)    S(metal)    S(lipo)     H(rot)  DE(clash)    DE(int)     intcor
     19.43     -20.50       2.50        0.00     116.33       2.70       0.07       1.00       ----

> <Gold.Chemscore.Fitness>
19.4310

> <Gold.Chemscore.DG>
-20.5049

> <Gold.Chemscore.ZeroCoef>
-5.4800

> <Gold.Chemscore.Hbond>
2.4959

> <Gold.Chemscore.Metal>
0.0000

> <Gold.Chemscore.Lipo>
116.3338

> <Gold.Chemscore.Internal_Hbond>
0.0000

> <Gold.Chemscore.DEClash>
0.0692

> <Gold.Chemscore.DEInternal>
1.0047

> <Gold.Chemscore.Rot>
2.7041

> <Gold.Chemscore.Internal.Correction>
   9.000000E+99

> <Gold.Chemscore.Hbonds>
donor molecule, donor type, donor heavy atom, donor atom, acceptor molecule, acceptor atom, score
      P1  H  6896  6908       L1    29  0.43
      P1  H  7997  8008       L1    15  0.54
      P1  H 10752 10764       L1    11  0.03

> <Gold.Chemscore.Hbond.Weighted>
-8.3363

> <Gold.Chemscore.Metal.Weighted>
-0.0000

> <Gold.Chemscore.Lipo.Weighted>
-13.6111

> <Gold.Chemscore.Internal_Hbond.Weighted>
0.0000

> <Gold.Chemscore.DEClash.Weighted>
0.0692

> <Gold.Chemscore.DEInternal.Weighted>
1.0047

> <Gold.Chemscore.Rot.Weighted>
6.9225

> <Gold.Chemscore.Internal.Correction.Weighted>
   9.000000E+99

> <Gold.Protein.RotatedTorsions>
[ 6907 6896 6895 6894 ] final -122.31 input  -60.11 | X-H torsion
[ 7974 7965 7964 7962 ] final   87.86 input  175.53 | X-H torsion
[ 8008 7997 7996 7995 ] final  -69.79 input   59.86 | X-H torsion
[ 10167 10162 10161 10158 ] final   -3.05 input  -65.29 | X-H torsion
[ 10718 10713 10712 10709 ] final  157.00 input   66.30 | X-H torsion
[ 10763 10752 10751 10750 ] final   43.43 input  -60.55 | X-H torsion
[ 11005 11000 10999 10996 ] final  146.57 input  -57.11 | X-H torsion

> <Gold.Protein.ActiveResidues>
 VAL166  LYS551  ARG553  GLY616  TRP617  ASP618  TYR619  PRO620  LYS621  CYS622 
 ASP623  PHE694  ASN695  SER759  ASP760  ASP761  ALA762  ILE779  LEU786  VAL792 
 PHE793  MET794  SER795  GLU796  ALA797  LYS798  CYS799  TRP800  GLU811  SER814 

> <Gold.Protein.RotatedAtoms>
  150.8564  133.7709  159.3007 H   0  0  0  0  0  0  0  0  0  0  0  0  # atno 6907 bound_to 6896
  151.5365  135.1067  159.9925 H   0  0  0  0  0  0  0  0  0  0  0  0  # atno 6908 bound_to 6896
  152.4593  133.7744  159.6872 H   0  0  0  0  0  0  0  0  0  0  0  0  # atno 6909 bound_to 6896
  145.5533  139.2297  143.2500 H   0  0  0  0  0  0  0  0  0  0  0  0  # atno 7974 bound_to 7965
  154.4964  140.0847  156.7706 H   0  0  0  0  0  0  0  0  0  0  0  0  # atno 8008 bound_to 7997
  155.4106  140.3441  155.4245 H   0  0  0  0  0  0  0  0  0  0  0  0  # atno 8009 bound_to 7997
  156.1399  140.1526  156.8924 H   0  0  0  0  0  0  0  0  0  0  0  0  # atno 8010 bound_to 7997
  140.6875  143.6585  150.8287 H   0  0  0  0  0  0  0  0  0  0  0  0  # atno 10167 bound_to 10162
  157.1974  131.0668  151.2045 H   0  0  0  0  0  0  0  0  0  0  0  0  # atno 10718 bound_to 10713
  152.9861  135.6101  154.3111 H   0  0  0  0  0  0  0  0  0  0  0  0  # atno 10763 bound_to 10752
  154.2826  135.2776  155.2692 H   0  0  0  0  0  0  0  0  0  0  0  0  # atno 10764 bound_to 10752
  154.5024  135.5863  153.6598 H   0  0  0  0  0  0  0  0  0  0  0  0  # atno 10765 bound_to 10752
  140.0804  134.9100  157.1491 H   0  0  0  0  0  0  0  0  0  0  0  0  # atno 11005 bound_to 11000
  146.1901  140.6357  142.9149 LP  0  0  0  0  0  0  0  0  0  0  0  0  # atno 17320 bound_to 7965
  144.7518  140.5211  143.6796 LP  0  0  0  0  0  0  0  0  0  0  0  0  # atno 17321 bound_to 7965
  140.0294  143.5459  152.2766 LP  0  0  0  0  0  0  0  0  0  0  0  0  # atno 17342 bound_to 10162
  139.6246  144.7635  151.2665 LP  0  0  0  0  0  0  0  0  0  0  0  0  # atno 17343 bound_to 10162
  157.3801  130.7227  149.6624 LP  0  0  0  0  0  0  0  0  0  0  0  0  # atno 17370 bound_to 10713
  155.9704  130.4175  150.4281 LP  0  0  0  0  0  0  0  0  0  0  0  0  # atno 17371 bound_to 10713
  140.3496  134.2613  155.7200 LP  0  0  0  0  0  0  0  0  0  0  0  0  # atno 17394 bound_to 11000
  141.2044  133.7886  157.0286 LP  0  0  0  0  0  0  0  0  0  0  0  0  # atno 17395 bound_to 11000

$$$$
