AV-unprocessed.smi:1008|AV-procd|sdf|4411|dock2
  -GOLD-   22720 2353D 1   1.00000     0.00000
 Structure written by MMmdl.
 23 23  0  0  0  0  0  0  0  0  1 V2000
  145.1749  136.6509  151.8763 C   0  0  0  0  0  0  0  0  0  0  0  0
  143.7830  136.5958  152.4812 C   0  0  0  0  0  0  0  0  0  0  0  0
  143.1619  137.8258  152.6067 N   0  0  0  0  0  0  0  0  0  0  0  0
  141.8886  137.8791  153.1527 C   0  0  0  0  0  0  0  0  0  0  0  0
  141.3570  139.1492  153.2331 N   0  0  0  0  0  0  0  0  0  0  0  0
  141.2320  136.8356  153.5616 N   0  0  0  0  0  0  0  0  0  0  0  0
  141.8109  135.5607  153.4624 C   0  0  0  0  0  0  0  0  0  0  0  0
  141.1995  134.5660  153.8499 O   0  0  0  0  0  0  0  0  0  0  0  0
  143.1693  135.4578  152.8872 C   0  0  0  0  0  0  0  0  0  0  0  0
  143.8047  134.0759  152.7640 C   0  0  0  0  0  0  0  0  0  0  0  0
  144.0354  133.6730  151.3004 C   0  0  0  0  0  0  0  0  0  0  0  0
  142.8402  133.1630  150.7508 O   0  0  0  0  0  0  0  0  0  0  0  0
  140.4413  139.3540  153.6057 H   0  0  0  0  0  0  0  0  0  0  0  0
  145.9000  136.1899  152.5477 H   0  0  0  0  0  0  0  0  0  0  0  0
  145.4943  137.6775  151.6927 H   0  0  0  0  0  0  0  0  0  0  0  0
  145.1974  136.1189  150.9250 H   0  0  0  0  0  0  0  0  0  0  0  0
  141.8499  139.9740  152.9218 H   0  0  0  0  0  0  0  0  0  0  0  0
  143.6628  138.6439  152.2924 H   0  0  0  0  0  0  0  0  0  0  0  0
  143.1771  133.3304  153.2516 H   0  0  0  0  0  0  0  0  0  0  0  0
  144.7480  134.0592  153.3122 H   0  0  0  0  0  0  0  0  0  0  0  0
  144.3593  134.5311  150.7107 H   0  0  0  0  0  0  0  0  0  0  0  0
  144.8124  132.9116  151.2245 H   0  0  0  0  0  0  0  0  0  0  0  0
  142.3457  133.8820  150.3877 H   0  0  0  0  0  0  0  0  0  0  0  0
  1 14  1  0  0  0  0
  1 15  1  0  0  0  0
  1 16  1  0  0  0  0
  1  2  1  0  0  0  0
  2  9  2  0  0  0  0
  2  3  1  0  0  0  0
  3 18  1  0  0  0  0
  3  4  1  0  0  0  0
  4  5  1  0  0  0  0
  4  6  2  0  0  0  0
  5 17  1  0  0  0  0
  5 13  1  0  0  0  0
  6  7  1  0  0  0  0
  7  8  2  0  0  0  0
  7  9  1  0  0  0  0
  9 10  1  0  0  0  0
 10 11  1  0  0  0  0
 10 19  1  0  0  0  0
 10 20  1  0  0  0  0
 11 12  1  0  0  0  0
 11 21  1  0  0  0  0
 11 22  1  0  0  0  0
 12 23  1  0  0  0  0
M  END
> <s_m_source_file>
AV-unprocessed.smi

> <i_m_source_file_index>
1008

> <i_lp_mmshare_version>
43012

> <i_f3d_flags>
0

> <s_epik_input>
W0NIM11jMW5jKFtOSDJdKVtuSF1jKD1PKWMxW0NIMl1bQ0gyXVtPSF0=

> <s_epik_cmdline>
J2VwaWtfcHl0aG9uJywgJy1waCcsICc3LjAnLCAnLXRuJywgJzgnLCAnLW1hJywgJzIwMCcsICctbWV0YWxfYmluZGluZycsICctaW1hZScsICc8aW5maWxlLm1hZT4nLCAnLW9tYWUnLCAnPG91dGZpbGUubWFlPic=

> <r_lp_tautomer_probability>
0.108277

> <r_epik_Ionization_Penalty>
0.666207

> <r_epik_Ionization_Penalty_Charging>
0.00797854

> <r_epik_Ionization_Penalty_Neutral>
0.658229

> <r_epik_State_Penalty>
1.38976

> <r_epik_Charging_Adjusted_Penalty>
1.39774

> <i_epik_Tot_Q>
0

> <i_epik_Tot_abs_Q>
0

> <r_epik_Metal_State_Penalty>
0.86313

> <b_epik_Metal_Only>
0

> <s_lp_Force_Field>
OPLS_2005

> <r_lp_Energy>
8.84659

> <b_lp_Chiralities_Consistent>
1

> <s_lp_Variant>
AV-unprocessed.smi:1008-2

> <Gold.Version>
5.8.1

> <Gold.Id.Protein>
6NUR|6NUR_protein|mol2

> <Gold.PLP.Fitness>
32.8442

> <Gold.PLP.PLP>
-22.2584

> <Gold.PLP.part.hbond>
-6.2645

> <Gold.PLP.part.metal>
0.0000

> <Gold.PLP.part.buried>
-3.9187

> <Gold.PLP.part.nonpolar>
-12.8480

> <Gold.PLP.part.repulsive>
0.3878

> <Gold.PLP.ligand.clash>
0.0000

> <Gold.PLP.ligand.torsion>
0.1314

> <Gold.PLP.Chemscore.Hbond>
3.6160

> <Gold.PLP.Chemscore.CHOScore>
0.0000

> <Gold.PLP.Chemscore.Metal>
0.0000

> <Gold.Chemscore.Hbonds>
donor molecule, donor type, donor heavy atom, donor atom, acceptor molecule, acceptor atom, score
      L1  H     3    18       P1 10175  0.82
      L1  H     5    17       P1 10175  0.71
      L1  H    12    23       P1 10186  0.99
      P1  H 11000 11005       L1     8  0.94

> <Gold.PLP.Chemscore.Internal.Correction>
0.0006

> <Gold.Rescore>
     Score         DG    S(hbond)    S(metal)    S(lipo)     H(rot)  DE(clash)    DE(int)     intcor
     14.70     -15.00       3.56        0.00      24.86       2.06       0.06       0.24       ----

> <Gold.Chemscore.Fitness>
14.7047

> <Gold.Chemscore.DG>
-15.0001

> <Gold.Chemscore.ZeroCoef>
-5.4800

> <Gold.Chemscore.Hbond>
3.5579

> <Gold.Chemscore.Metal>
0.0000

> <Gold.Chemscore.Lipo>
24.8632

> <Gold.Chemscore.Internal_Hbond>
0.0000

> <Gold.Chemscore.DEClash>
0.0562

> <Gold.Chemscore.DEInternal>
0.2392

> <Gold.Chemscore.Rot>
2.0595

> <Gold.Chemscore.Internal.Correction>
   9.000000E+99

> <Gold.Chemscore.Hbonds>
donor molecule, donor type, donor heavy atom, donor atom, acceptor molecule, acceptor atom, score
      L1  H     3    18       P1 10175  0.81
      L1  H     5    17       P1 10175  0.14
      L1  H    12    23       P1 10186  0.88
      P1  H 11000 11005       L1     8  0.89

> <Gold.Chemscore.Hbond.Weighted>
-11.8834

> <Gold.Chemscore.Metal.Weighted>
-0.0000

> <Gold.Chemscore.Lipo.Weighted>
-2.9090

> <Gold.Chemscore.Internal_Hbond.Weighted>
0.0000

> <Gold.Chemscore.DEClash.Weighted>
0.0562

> <Gold.Chemscore.DEInternal.Weighted>
0.2392

> <Gold.Chemscore.Rot.Weighted>
5.2724

> <Gold.Chemscore.Internal.Correction.Weighted>
   9.000000E+99

> <Gold.Protein.RotatedTorsions>
[ 6907 6896 6895 6894 ] final  -36.31 input  -60.11 | X-H torsion
[ 7974 7965 7964 7962 ] final -147.19 input  175.53 | X-H torsion
[ 8008 7997 7996 7995 ] final  127.59 input   59.86 | X-H torsion
[ 10167 10162 10161 10158 ] final -170.63 input  -65.29 | X-H torsion
[ 10718 10713 10712 10709 ] final   66.91 input   66.30 | X-H torsion
[ 10763 10752 10751 10750 ] final  -21.44 input  -60.55 | X-H torsion
[ 11005 11000 10999 10996 ] final    5.29 input  -57.11 | X-H torsion

> <Gold.Protein.ActiveResidues>
 VAL166  LYS551  ARG553  GLY616  TRP617  ASP618  TYR619  PRO620  LYS621  CYS622 
 ASP623  PHE694  ASN695  SER759  ASP760  ASP761  ALA762  ILE779  LEU786  VAL792 
 PHE793  MET794  SER795  GLU796  ALA797  LYS798  CYS799  TRP800  GLU811  SER814 

> <Gold.Protein.RotatedAtoms>
  151.0288  134.9524  159.8099 H   0  0  0  0  0  0  0  0  0  0  0  0  # atno 6907 bound_to 6896
  152.5341  134.2808  159.9016 H   0  0  0  0  0  0  0  0  0  0  0  0  # atno 6908 bound_to 6896
  151.2816  133.4164  159.2661 H   0  0  0  0  0  0  0  0  0  0  0  0  # atno 6909 bound_to 6896
  144.8110  140.5359  143.5643 H   0  0  0  0  0  0  0  0  0  0  0  0  # atno 7974 bound_to 7965
  156.2894  140.2665  156.2298 H   0  0  0  0  0  0  0  0  0  0  0  0  # atno 8008 bound_to 7997
  155.0084  140.0387  157.2407 H   0  0  0  0  0  0  0  0  0  0  0  0  # atno 8009 bound_to 7997
  154.7540  140.2748  155.6274 H   0  0  0  0  0  0  0  0  0  0  0  0  # atno 8010 bound_to 7997
  139.5850  144.1339  152.1564 H   0  0  0  0  0  0  0  0  0  0  0  0  # atno 10167 bound_to 10162
  157.6198  130.9293  150.0172 H   0  0  0  0  0  0  0  0  0  0  0  0  # atno 10718 bound_to 10713
  153.6362  135.6987  153.5258 H   0  0  0  0  0  0  0  0  0  0  0  0  # atno 10763 bound_to 10752
  153.2819  135.4183  155.1086 H   0  0  0  0  0  0  0  0  0  0  0  0  # atno 10764 bound_to 10752
  154.8510  135.3604  154.5905 H   0  0  0  0  0  0  0  0  0  0  0  0  # atno 10765 bound_to 10752
  140.5724  134.0090  155.8014 H   0  0  0  0  0  0  0  0  0  0  0  0  # atno 11005 bound_to 11000
  145.5325  139.1475  143.3492 LP  0  0  0  0  0  0  0  0  0  0  0  0  # atno 17320 bound_to 7965
  146.2408  140.5465  142.8935 LP  0  0  0  0  0  0  0  0  0  0  0  0  # atno 17321 bound_to 7965
  140.0900  144.5628  150.7061 LP  0  0  0  0  0  0  0  0  0  0  0  0  # atno 17342 bound_to 10162
  140.7123  143.2515  151.4543 LP  0  0  0  0  0  0  0  0  0  0  0  0  # atno 17343 bound_to 10162
  156.1338  130.3643  149.9690 LP  0  0  0  0  0  0  0  0  0  0  0  0  # atno 17370 bound_to 10713
  156.7745  130.9198  151.3645 LP  0  0  0  0  0  0  0  0  0  0  0  0  # atno 17371 bound_to 10713
  141.1048  133.9711  157.3016 LP  0  0  0  0  0  0  0  0  0  0  0  0  # atno 17394 bound_to 11000
  139.9355  135.0197  156.8543 LP  0  0  0  0  0  0  0  0  0  0  0  0  # atno 17395 bound_to 11000

$$$$
