AV-unprocessed.smi:636|AV-procd|sdf|3140|dock8
  -GOLD-   22720 0 63D 1   1.00000     0.00000
 Structure written by MMmdl.
 39 41  0  0  0  0  0  0  0  0  1 V2000
  151.1689  140.4862  155.5007 O   0  0  0  0  0  0  0  0  0  0  0  0
  150.3593  139.8617  156.1848 C   0  0  0  0  0  0  0  0  0  0  0  0
  150.8153  139.2842  157.5363 C   0  0  0  0  0  0  0  0  0  0  0  0
  151.5422  140.2311  158.4019 N   0  0  0  0  0  0  0  0  0  0  0  0
  151.2702  141.5996  158.2155 C   0  0  0  0  0  0  0  0  0  0  0  0
  151.8636  142.5684  158.9367 C   0  0  0  0  0  0  0  0  0  0  0  0
  151.6018  144.0416  158.6660 C   0  0  0  0  0  0  0  0  0  0  0  0
  151.9295  144.3358  157.4090 F   0  0  0  0  0  0  0  0  0  0  0  0
  150.3143  144.3396  158.8406 F   0  0  0  0  0  0  0  0  0  0  0  0
  152.3244  144.8161  159.4759 F   0  0  0  0  0  0  0  0  0  0  0  0
  152.8380  142.1356  159.9179 C   0  0  0  0  0  0  0  0  0  0  0  0
  153.1257  140.8317  160.1045 C   0  0  0  0  0  0  0  0  0  0  0  0
  154.2968  140.3725  161.2883 Cl  0  0  0  0  0  0  0  0  0  0  0  0
  152.4583  139.7887  159.3151 C   0  0  0  0  0  0  0  0  0  0  0  0
  152.7090  138.5910  159.4558 O   0  0  0  0  0  0  0  0  0  0  0  0
  149.0865  139.6563  155.8043 N   0  0  0  0  0  0  0  0  0  0  0  0
  148.4731  140.1230  154.5669 C   0  0  0  0  0  0  0  0  0  0  0  0
  147.2880  141.0415  154.8160 C   0  0  0  0  0  0  0  0  0  0  0  0
  146.7262  141.9164  153.7199 C   0  0  0  0  0  0  0  0  0  0  0  0
  147.4550  142.5412  154.8871 C   0  0  0  0  0  0  0  0  0  0  0  0
  148.0612  138.9591  153.6847 C   0  0  0  0  0  0  0  0  0  0  0  0
  146.9445  139.1018  152.6788 C   0  0  0  0  0  0  0  0  0  0  0  0
  146.7572  138.2280  153.8992 C   0  0  0  0  0  0  0  0  0  0  0  0
  149.9324  138.9099  158.0564 H   0  0  0  0  0  0  0  0  0  0  0  0
  151.4216  138.3968  157.3461 H   0  0  0  0  0  0  0  0  0  0  0  0
  150.5546  141.8118  157.4343 H   0  0  0  0  0  0  0  0  0  0  0  0
  153.3464  142.8750  160.5192 H   0  0  0  0  0  0  0  0  0  0  0  0
  148.4918  139.1300  156.4274 H   0  0  0  0  0  0  0  0  0  0  0  0
  149.2208  140.6922  154.0108 H   0  0  0  0  0  0  0  0  0  0  0  0
  146.5510  140.6177  155.4958 H   0  0  0  0  0  0  0  0  0  0  0  0
  147.2332  141.9205  152.7574 H   0  0  0  0  0  0  0  0  0  0  0  0
  145.6456  142.0365  153.6785 H   0  0  0  0  0  0  0  0  0  0  0  0
  146.8614  143.0767  155.6251 H   0  0  0  0  0  0  0  0  0  0  0  0
  148.4433  142.9543  154.6955 H   0  0  0  0  0  0  0  0  0  0  0  0
  148.8989  138.3394  153.3694 H   0  0  0  0  0  0  0  0  0  0  0  0
  146.4046  140.0463  152.6508 H   0  0  0  0  0  0  0  0  0  0  0  0
  147.0682  138.6064  151.7181 H   0  0  0  0  0  0  0  0  0  0  0  0
  146.7567  137.1500  153.7522 H   0  0  0  0  0  0  0  0  0  0  0  0
  146.0875  138.5932  154.6750 H   0  0  0  0  0  0  0  0  0  0  0  0
  1  2  2  0  0  0  0
  2  3  1  0  0  0  0
  2 16  1  0  0  0  0
  3  4  1  0  0  0  0
  3 24  1  0  0  0  0
  3 25  1  0  0  0  0
  4 14  1  0  0  0  0
  4  5  1  0  0  0  0
  5  6  2  0  0  0  0
  5 26  1  0  0  0  0
  6  7  1  0  0  0  0
  6 11  1  0  0  0  0
  7  8  1  0  0  0  0
  7  9  1  0  0  0  0
  7 10  1  0  0  0  0
 11 12  2  0  0  0  0
 11 27  1  0  0  0  0
 12 13  1  0  0  0  0
 12 14  1  0  0  0  0
 14 15  2  0  0  0  0
 16 17  1  0  0  0  0
 16 28  1  0  0  0  0
 17 18  1  0  0  0  0
 17 21  1  0  0  0  0
 17 29  1  0  0  0  0
 18 20  1  0  0  0  0
 18 19  1  0  0  0  0
 18 30  1  0  0  0  0
 19 20  1  0  0  0  0
 19 31  1  0  0  0  0
 19 32  1  0  0  0  0
 20 33  1  0  0  0  0
 20 34  1  0  0  0  0
 21 23  1  0  0  0  0
 21 22  1  0  0  0  0
 21 35  1  0  0  0  0
 22 23  1  0  0  0  0
 22 36  1  0  0  0  0
 22 37  1  0  0  0  0
 23 38  1  0  0  0  0
 23 39  1  0  0  0  0
M  END
> <s_m_source_file>
AV-unprocessed.smi

> <i_m_source_file_index>
636

> <i_lp_mmshare_version>
43012

> <i_f3d_flags>
0

> <s_epik_input>
W0NIMl0xW0NIMl1bQ0hdMVtDSF0oW0NIXTJbQ0gyXVtDSDJdMilbTkhdQyg9TylbQ0gyXW4zW2NIXWMoQyhGKShGKUYpW2NIXWMoQ2wpYzM9Tw==

> <s_epik_cmdline>
J2VwaWtfcHl0aG9uJywgJy1waCcsICc3LjAnLCAnLXRuJywgJzgnLCAnLW1hJywgJzIwMCcsICctbWV0YWxfYmluZGluZycsICctaW1hZScsICc8aW5maWxlLm1hZT4nLCAnLW9tYWUnLCAnPG91dGZpbGUubWFlPic=

> <r_lp_tautomer_probability>
1

> <r_epik_Ionization_Penalty>
2.07964e-08

> <r_epik_Ionization_Penalty_Charging>
3.83819e-10

> <r_epik_Ionization_Penalty_Neutral>
2.04126e-08

> <r_epik_State_Penalty>
-0

> <r_epik_Charging_Adjusted_Penalty>
3.83819e-10

> <i_epik_Tot_Q>
0

> <i_epik_Tot_abs_Q>
0

> <r_epik_Metal_State_Penalty>
-0

> <b_epik_Metal_Only>
0

> <s_lp_Force_Field>
OPLS_2005

> <r_lp_Energy>
34.6708

> <b_lp_Chiralities_Consistent>
1

> <s_lp_Variant>
AV-unprocessed.smi:636-1

> <Gold.Version>
5.8.1

> <Gold.Id.Protein>
6NUR|6NUR_protein|mol2

> <Gold.PLP.Fitness>
46.8659

> <Gold.PLP.PLP>
-45.2414

> <Gold.PLP.part.hbond>
-1.0000

> <Gold.PLP.part.metal>
0.0000

> <Gold.PLP.part.buried>
-2.2504

> <Gold.PLP.part.nonpolar>
-43.0859

> <Gold.PLP.part.repulsive>
0.0544

> <Gold.PLP.ligand.clash>
0.0000

> <Gold.PLP.ligand.torsion>
1.6052

> <Gold.PLP.Chemscore.Hbond>
0.8800

> <Gold.PLP.Chemscore.CHOScore>
0.0000

> <Gold.PLP.Chemscore.Metal>
0.0000

> <Gold.Chemscore.Hbonds>
donor molecule, donor type, donor heavy atom, donor atom, acceptor molecule, acceptor atom, score
      P1  H  7989  7998       L1     1  0.79

> <Gold.PLP.Chemscore.Internal.Correction>
2.1949

> <Gold.Rescore>
     Score         DG    S(hbond)    S(metal)    S(lipo)     H(rot)  DE(clash)    DE(int)     intcor
     12.50     -15.24       0.98        0.00      97.09       1.90       0.12       2.62       ----

> <Gold.Chemscore.Fitness>
12.4984

> <Gold.Chemscore.DG>
-15.2379

> <Gold.Chemscore.ZeroCoef>
-5.4800

> <Gold.Chemscore.Hbond>
0.9752

> <Gold.Chemscore.Metal>
0.0000

> <Gold.Chemscore.Lipo>
97.0880

> <Gold.Chemscore.Internal_Hbond>
0.0000

> <Gold.Chemscore.DEClash>
0.1191

> <Gold.Chemscore.DEInternal>
2.6204

> <Gold.Chemscore.Rot>
1.8979

> <Gold.Chemscore.Internal.Correction>
   9.000000E+99

> <Gold.Chemscore.Hbonds>
donor molecule, donor type, donor heavy atom, donor atom, acceptor molecule, acceptor atom, score
      P1  H  7989  7998       L1     1  0.75

> <Gold.Chemscore.Hbond.Weighted>
-3.2572

> <Gold.Chemscore.Metal.Weighted>
-0.0000

> <Gold.Chemscore.Lipo.Weighted>
-11.3593

> <Gold.Chemscore.Internal_Hbond.Weighted>
0.0000

> <Gold.Chemscore.DEClash.Weighted>
0.1191

> <Gold.Chemscore.DEInternal.Weighted>
2.6204

> <Gold.Chemscore.Rot.Weighted>
4.8586

> <Gold.Chemscore.Internal.Correction.Weighted>
   9.000000E+99

> <Gold.Protein.RotatedTorsions>
[ 6907 6896 6895 6894 ] final   93.21 input  -60.11 | X-H torsion
[ 7974 7965 7964 7962 ] final  119.93 input  175.53 | X-H torsion
[ 8008 7997 7996 7995 ] final  165.79 input   59.86 | X-H torsion
[ 10167 10162 10161 10158 ] final   20.39 input  -65.29 | X-H torsion
[ 10718 10713 10712 10709 ] final   20.36 input   66.30 | X-H torsion
[ 10763 10752 10751 10750 ] final  137.13 input  -60.55 | X-H torsion
[ 11005 11000 10999 10996 ] final  -20.40 input  -57.11 | X-H torsion

> <Gold.Protein.ActiveResidues>
 VAL166  LYS551  ARG553  GLY616  TRP617  ASP618  TYR619  PRO620  LYS621  CYS622 
 ASP623  PHE694  ASN695  SER759  ASP760  ASP761  ALA762  ILE779  LEU786  VAL792 
 PHE793  MET794  SER795  GLU796  ALA797  LYS798  CYS799  TRP800  GLU811  SER814 

> <Gold.Protein.RotatedAtoms>
  152.5452  134.1383  159.8467 H   0  0  0  0  0  0  0  0  0  0  0  0  # atno 6907 bound_to 6896
  151.1421  133.4957  159.2604 H   0  0  0  0  0  0  0  0  0  0  0  0  # atno 6908 bound_to 6896
  151.1561  135.0261  159.8744 H   0  0  0  0  0  0  0  0  0  0  0  0  # atno 6909 bound_to 6896
  145.1372  139.3290  143.4634 H   0  0  0  0  0  0  0  0  0  0  0  0  # atno 7974 bound_to 7965
  156.1772  140.1660  156.8341 H   0  0  0  0  0  0  0  0  0  0  0  0  # atno 8008 bound_to 7997
  154.5320  140.0755  156.8394 H   0  0  0  0  0  0  0  0  0  0  0  0  # atno 8009 bound_to 7997
  155.3388  140.3383  155.4241 H   0  0  0  0  0  0  0  0  0  0  0  0  # atno 8010 bound_to 7997
  140.5507  143.9513  150.6576 H   0  0  0  0  0  0  0  0  0  0  0  0  # atno 10167 bound_to 10162
  157.1235  130.6560  149.5930 H   0  0  0  0  0  0  0  0  0  0  0  0  # atno 10718 bound_to 10713
  153.8680  135.3059  155.3441 H   0  0  0  0  0  0  0  0  0  0  0  0  # atno 10763 bound_to 10752
  154.7819  135.4831  153.9865 H   0  0  0  0  0  0  0  0  0  0  0  0  # atno 10764 bound_to 10752
  153.1423  135.6826  153.9104 H   0  0  0  0  0  0  0  0  0  0  0  0  # atno 10765 bound_to 10752
  140.8461  133.7891  155.9914 H   0  0  0  0  0  0  0  0  0  0  0  0  # atno 11005 bound_to 11000
  146.3508  140.1395  142.8595 LP  0  0  0  0  0  0  0  0  0  0  0  0  # atno 17320 bound_to 7965
  145.0571  140.9060  143.4961 LP  0  0  0  0  0  0  0  0  0  0  0  0  # atno 17321 bound_to 7965
  140.2939  143.3306  152.1037 LP  0  0  0  0  0  0  0  0  0  0  0  0  # atno 17342 bound_to 10162
  139.5026  144.6739  151.6177 LP  0  0  0  0  0  0  0  0  0  0  0  0  # atno 17343 bound_to 10162
  155.9823  130.4836  150.6875 LP  0  0  0  0  0  0  0  0  0  0  0  0  # atno 17370 bound_to 10713
  157.4456  131.0866  151.0899 LP  0  0  0  0  0  0  0  0  0  0  0  0  # atno 17371 bound_to 10713
  140.8842  134.2574  157.5128 LP  0  0  0  0  0  0  0  0  0  0  0  0  # atno 17394 bound_to 11000
  139.8703  134.9630  156.4447 LP  0  0  0  0  0  0  0  0  0  0  0  0  # atno 17395 bound_to 11000

$$$$
