AV-unprocessed.smi:1667|AV-procd|sdf|6679|dock2
  -GOLD-   22720 7393D 1   1.00000     0.00000
 Structure written by MMmdl.
 46 48  0  0  0  0  0  0  0  0  2 V2000
  155.6885  136.8140  157.0591 C   0  0  0  0  0  0  0  0  0  0  0  0
  154.2060  136.9973  157.3651 C   0  0  0  0  0  0  0  0  0  0  0  0
  153.3720  136.2900  156.8010 O   0  0  0  0  0  0  0  0  0  0  0  0
  153.8942  137.9524  158.2554 N   0  0  0  0  0  0  0  0  0  0  0  0
  152.5440  138.3022  158.6865 C   0  0  1  0  0  0  0  0  0  0  0  0
  152.2299  137.6189  160.0277 C   0  0  0  0  0  0  0  0  0  0  0  0
  152.3698  139.7916  158.7457 C   0  0  0  0  0  0  0  0  0  0  0  0
  153.1271  140.6665  159.4695 N   0  3  0  0  0  0  0  0  0  0  0  0
  152.6694  141.9690  159.2738 C   0  0  0  0  0  0  0  0  0  0  0  0
  153.1092  143.1789  159.8017 C   0  0  0  0  0  0  0  0  0  0  0  0
  152.4137  144.3366  159.3954 C   0  0  0  0  0  0  0  0  0  0  0  0
  151.3301  144.2641  158.4958 C   0  0  0  0  0  0  0  0  0  0  0  0
  150.8958  143.0314  157.9651 C   0  0  0  0  0  0  0  0  0  0  0  0
  151.5871  141.8918  158.3750 C   0  0  0  0  0  0  0  0  0  0  0  0
  151.4416  140.5338  158.0705 N   0  0  0  0  0  0  0  0  0  0  0  0
  150.3795  140.1264  157.1353 C   0  0  0  0  0  0  0  0  0  0  0  0
  150.5957  140.6721  155.7093 C   0  0  1  0  0  0  0  0  0  0  0  0
  151.7450  140.0526  155.1704 O   0  0  0  0  0  0  0  0  0  0  0  0
  149.3677  140.4790  154.8319 C   0  0  0  0  0  0  0  0  0  0  0  0
  148.9940  139.1908  154.3880 C   0  0  0  0  0  0  0  0  0  0  0  0
  147.8323  139.0178  153.6112 C   0  0  0  0  0  0  0  0  0  0  0  0
  147.0395  140.1307  153.2709 C   0  0  0  0  0  0  0  0  0  0  0  0
  147.4087  141.4170  153.7083 C   0  0  0  0  0  0  0  0  0  0  0  0
  146.6443  142.4873  153.3868 F   0  0  0  0  0  0  0  0  0  0  0  0
  148.5696  141.5907  154.4861 C   0  0  0  0  0  0  0  0  0  0  0  0
  151.8183  137.9306  157.9647 H   0  0  0  0  0  0  0  0  0  0  0  0
  156.3059  137.0958  157.9128 H   0  0  0  0  0  0  0  0  0  0  0  0
  155.9746  137.4306  156.2068 H   0  0  0  0  0  0  0  0  0  0  0  0
  155.9023  135.7727  156.8158 H   0  0  0  0  0  0  0  0  0  0  0  0
  154.6516  138.4832  158.6601 H   0  0  0  0  0  0  0  0  0  0  0  0
  151.2111  137.8368  160.3499 H   0  0  0  0  0  0  0  0  0  0  0  0
  152.9097  137.9443  160.8159 H   0  0  0  0  0  0  0  0  0  0  0  0
  152.3189  136.5353  159.9423 H   0  0  0  0  0  0  0  0  0  0  0  0
  153.9395  143.2369  160.4904 H   0  0  0  0  0  0  0  0  0  0  0  0
  152.7170  145.2991  159.7813 H   0  0  0  0  0  0  0  0  0  0  0  0
  150.8212  145.1726  158.2073 H   0  0  0  0  0  0  0  0  0  0  0  0
  150.0639  142.9860  157.2776 H   0  0  0  0  0  0  0  0  0  0  0  0
  150.3370  139.0364  157.1321 H   0  0  0  0  0  0  0  0  0  0  0  0
  149.4228  140.4638  157.5337 H   0  0  0  0  0  0  0  0  0  0  0  0
  150.8208  141.7379  155.7601 H   0  0  0  0  0  0  0  0  0  0  0  0
  151.7804  139.1614  155.4833 H   0  0  0  0  0  0  0  0  0  0  0  0
  149.5872  138.3282  154.6553 H   0  0  0  0  0  0  0  0  0  0  0  0
  147.5466  138.0299  153.2812 H   0  0  0  0  0  0  0  0  0  0  0  0
  146.1474  139.9972  152.6769 H   0  0  0  0  0  0  0  0  0  0  0  0
  148.8385  142.5797  154.8272 H   0  0  0  0  0  0  0  0  0  0  0  0
  153.8982  140.3858  160.0617 H   0  0  0  0  0  0  0  0  0  0  0  0
  1  2  1  0  0  0  0
  1 27  1  0  0  0  0
  1 28  1  0  0  0  0
  1 29  1  0  0  0  0
  2  3  2  0  0  0  0
  2  4  1  0  0  0  0
  4  5  1  0  0  0  0
  4 30  1  0  0  0  0
  5 26  1  0  0  0  0
  5  6  1  0  0  0  0
  5  7  1  0  0  0  0
  6 31  1  0  0  0  0
  6 32  1  0  0  0  0
  6 33  1  0  0  0  0
  7 15  1  0  0  0  0
  7  8  2  0  0  0  0
  8  9  1  0  0  0  0
  8 46  1  0  0  0  0
  9 14  2  0  0  0  0
  9 10  1  0  0  0  0
 10 11  2  0  0  0  0
 10 34  1  0  0  0  0
 11 12  1  0  0  0  0
 11 35  1  0  0  0  0
 12 13  2  0  0  0  0
 12 36  1  0  0  0  0
 13 14  1  0  0  0  0
 13 37  1  0  0  0  0
 14 15  1  0  0  0  0
 15 16  1  0  0  0  0
 16 17  1  0  0  0  0
 16 38  1  0  0  0  0
 16 39  1  0  0  0  0
 17 18  1  0  0  0  0
 17 19  1  0  0  0  0
 17 40  1  0  0  0  0
 18 41  1  0  0  0  0
 19 25  1  0  0  0  0
 19 20  2  0  0  0  0
 20 21  1  0  0  0  0
 20 42  1  0  0  0  0
 21 22  2  0  0  0  0
 21 43  1  0  0  0  0
 22 23  1  0  0  0  0
 22 44  1  0  0  0  0
 23 24  1  0  0  0  0
 23 25  2  0  0  0  0
 25 45  1  0  0  0  0
M  CHG  1   8   1
M  END
> <s_m_source_file>
AV-unprocessed.smi

> <i_m_source_file_index>
1667

> <i_lp_mmshare_version>
43012

> <i_f3d_flags>
0

> <s_epik_input>
W0NIM11DKD1PKVtOSF1bQ0BASF0oW0NIM10pYyhuMSluKGMoYzEyKVtjSF1bY0hdW2NIXVtjSF0yKVtDSDJdW0NASF0oW09IXSljM1tjSF1bY0hdW2NIXWMoRilbY0hdMw==

> <s_epik_cmdline>
J2VwaWtfcHl0aG9uJywgJy1waCcsICc3LjAnLCAnLXRuJywgJzgnLCAnLW1hJywgJzIwMCcsICctbWV0YWxfYmluZGluZycsICctaW1hZScsICc8aW5maWxlLm1hZT4nLCAnLW9tYWUnLCAnPG91dGZpbGUubWFlPic=

> <r_epik_Ionization_Penalty>
0.950383

> <r_epik_Ionization_Penalty_Charging>
0.950379

> <r_epik_Ionization_Penalty_Neutral>
3.60962e-06

> <r_epik_State_Penalty>
0.994584

> <r_epik_Charging_Adjusted_Penalty>
1.94496

> <i_epik_Tot_Q>
1

> <i_epik_Tot_abs_Q>
1

> <r_epik_Metal_State_Penalty>
1.10485

> <b_epik_Metal_Only>
0

> <s_lp_Force_Field>
OPLS_2005

> <r_lp_Energy>
12.894

> <b_lp_Chiralities_Consistent>
1

> <s_lp_Variant>
AV-unprocessed.smi:1667-7

> <Gold.Version>
5.8.1

> <Gold.Id.Protein>
6NUR|6NUR_protein|mol2

> <Gold.PLP.Fitness>
54.5739

> <Gold.PLP.PLP>
-49.9811

> <Gold.PLP.part.hbond>
-2.0000

> <Gold.PLP.part.metal>
0.0000

> <Gold.PLP.part.buried>
-6.7464

> <Gold.PLP.part.nonpolar>
-42.3992

> <Gold.PLP.part.repulsive>
0.2025

> <Gold.PLP.ligand.clash>
0.0000

> <Gold.PLP.ligand.torsion>
0.5950

> <Gold.PLP.Chemscore.Hbond>
1.9040

> <Gold.PLP.Chemscore.CHOScore>
0.0000

> <Gold.PLP.Chemscore.Metal>
0.0000

> <Gold.Chemscore.Hbonds>
donor molecule, donor type, donor heavy atom, donor atom, acceptor molecule, acceptor atom, score
      P1  H  7989  7998       L1    18  0.80
      P1  H 10752 10763       L1     3  1.00

> <Gold.PLP.Chemscore.Internal.Correction>
0.0708

> <Gold.Rescore>
     Score         DG    S(hbond)    S(metal)    S(lipo)     H(rot)  DE(clash)    DE(int)     intcor
     18.96     -19.49       1.74        0.00     125.40       2.53       0.02       0.51       ----

> <Gold.Chemscore.Fitness>
18.9558

> <Gold.Chemscore.DG>
-19.4875

> <Gold.Chemscore.ZeroCoef>
-5.4800

> <Gold.Chemscore.Hbond>
1.7429

> <Gold.Chemscore.Metal>
0.0000

> <Gold.Chemscore.Lipo>
125.4012

> <Gold.Chemscore.Internal_Hbond>
0.0000

> <Gold.Chemscore.DEClash>
0.0237

> <Gold.Chemscore.DEInternal>
0.5080

> <Gold.Chemscore.Rot>
2.5335

> <Gold.Chemscore.Internal.Correction>
   9.000000E+99

> <Gold.Chemscore.Hbonds>
donor molecule, donor type, donor heavy atom, donor atom, acceptor molecule, acceptor atom, score
      P1  H  7989  7998       L1    18  0.13
      P1  H 10752 10763       L1     3  0.97

> <Gold.Chemscore.Hbond.Weighted>
-5.8212

> <Gold.Chemscore.Metal.Weighted>
-0.0000

> <Gold.Chemscore.Lipo.Weighted>
-14.6719

> <Gold.Chemscore.Internal_Hbond.Weighted>
0.0000

> <Gold.Chemscore.DEClash.Weighted>
0.0237

> <Gold.Chemscore.DEInternal.Weighted>
0.5080

> <Gold.Chemscore.Rot.Weighted>
6.4856

> <Gold.Chemscore.Internal.Correction.Weighted>
   9.000000E+99

> <Gold.Protein.RotatedTorsions>
[ 6907 6896 6895 6894 ] final  -11.88 input  -60.11 | X-H torsion
[ 7974 7965 7964 7962 ] final   32.23 input  175.53 | X-H torsion
[ 8008 7997 7996 7995 ] final  106.47 input   59.86 | X-H torsion
[ 10167 10162 10161 10158 ] final -148.14 input  -65.29 | X-H torsion
[ 10718 10713 10712 10709 ] final  -31.59 input   66.30 | X-H torsion
[ 10763 10752 10751 10750 ] final  131.63 input  -60.55 | X-H torsion
[ 11005 11000 10999 10996 ] final   48.30 input  -57.11 | X-H torsion

> <Gold.Protein.ActiveResidues>
 VAL166  LYS551  ARG553  GLY616  TRP617  ASP618  TYR619  PRO620  LYS621  CYS622 
 ASP623  PHE694  ASN695  SER759  ASP760  ASP761  ALA762  ILE779  LEU786  VAL792 
 PHE793  MET794  SER795  GLU796  ALA797  LYS798  CYS799  TRP800  GLU811  SER814 

> <Gold.Protein.RotatedAtoms>
  151.3792  135.0937  159.9490 H   0  0  0  0  0  0  0  0  0  0  0  0  # atno 6907 bound_to 6896
  152.5113  133.9088  159.7488 H   0  0  0  0  0  0  0  0  0  0  0  0  # atno 6908 bound_to 6896
  150.9518  133.6485  159.2799 H   0  0  0  0  0  0  0  0  0  0  0  0  # atno 6909 bound_to 6896
  146.1500  139.6553  142.9105 H   0  0  0  0  0  0  0  0  0  0  0  0  # atno 7974 bound_to 7965
  156.1745  140.3112  155.9035 H   0  0  0  0  0  0  0  0  0  0  0  0  # atno 8008 bound_to 7997
  155.3516  140.0471  157.3063 H   0  0  0  0  0  0  0  0  0  0  0  0  # atno 8009 bound_to 7997
  154.5276  140.2219  155.8872 H   0  0  0  0  0  0  0  0  0  0  0  0  # atno 8010 bound_to 7997
  139.7559  143.8449  152.2597 H   0  0  0  0  0  0  0  0  0  0  0  0  # atno 10167 bound_to 10162
  156.3854  130.4363  149.7436 H   0  0  0  0  0  0  0  0  0  0  0  0  # atno 10718 bound_to 10713
  153.7775  135.3173  155.3361 H   0  0  0  0  0  0  0  0  0  0  0  0  # atno 10763 bound_to 10752
  154.8174  135.4627  154.0684 H   0  0  0  0  0  0  0  0  0  0  0  0  # atno 10764 bound_to 10752
  153.1962  135.6916  153.8374 H   0  0  0  0  0  0  0  0  0  0  0  0  # atno 10765 bound_to 10752
  140.1202  134.4839  155.8603 H   0  0  0  0  0  0  0  0  0  0  0  0  # atno 11005 bound_to 11000
  145.4846  141.0438  143.2627 LP  0  0  0  0  0  0  0  0  0  0  0  0  # atno 17320 bound_to 7965
  144.7892  139.6363  143.7120 LP  0  0  0  0  0  0  0  0  0  0  0  0  # atno 17321 bound_to 7965
  139.8441  144.7196  150.9294 LP  0  0  0  0  0  0  0  0  0  0  0  0  # atno 17342 bound_to 10162
  140.7802  143.3957  151.1234 LP  0  0  0  0  0  0  0  0  0  0  0  0  # atno 17343 bound_to 10162
  156.4511  130.7907  151.2928 LP  0  0  0  0  0  0  0  0  0  0  0  0  # atno 17370 bound_to 10713
  157.7495  131.0095  150.3270 LP  0  0  0  0  0  0  0  0  0  0  0  0  # atno 17371 bound_to 10713
  141.2150  133.6758  156.6875 LP  0  0  0  0  0  0  0  0  0  0  0  0  # atno 17394 bound_to 11000
  140.2975  134.8191  157.4069 LP  0  0  0  0  0  0  0  0  0  0  0  0  # atno 17395 bound_to 11000

$$$$
