AV-unprocessed.smi:1306|AV-procd|sdf|5435|dock1
  -GOLD-   22720 4593D 1   1.00000     0.00000
 Structure written by MMmdl.
 38 39  0  0  0  0  0  0  0  0  2 V2000
  152.5935  136.7656  160.1206 O   0  0  0  0  0  0  0  0  0  0  0  0
  152.9237  137.3771  159.1034 C   0  0  0  0  0  0  0  0  0  0  0  0
  152.8538  136.7048  157.7255 C   0  0  0  0  0  0  0  0  0  0  0  0
  152.2010  137.5463  156.7099 N   0  0  0  0  0  0  0  0  0  0  0  0
  153.0103  138.1094  155.7076 C   0  0  0  0  0  0  0  0  0  0  0  0
  152.4985  138.8874  154.7348 C   0  0  0  0  0  0  0  0  0  0  0  0
  151.0633  139.1419  154.7379 C   0  0  0  0  0  0  0  0  0  0  0  0
  150.5791  139.8527  153.8594 O   0  0  0  0  0  0  0  0  0  0  0  0
  150.3196  138.5707  155.7300 N   0  5  0  0  0  0  0  0  0  0  0  0
  150.8535  137.7795  156.7118 C   0  0  0  0  0  0  0  0  0  0  0  0
  150.1635  137.2722  157.5970 O   0  0  0  0  0  0  0  0  0  0  0  0
  153.3848  138.6352  159.1226 N   0  0  0  0  0  0  0  0  0  0  0  0
  153.5155  139.4479  160.3246 C   0  0  0  0  0  0  0  0  0  0  0  0
  153.6324  140.9365  159.9715 C   0  0  0  0  0  0  0  0  0  0  0  0
  152.8972  141.9993  161.2480 S   0  0  0  0  0  0  0  0  0  0  0  0
  151.9513  143.1516  160.2117 C   0  0  0  0  0  0  0  0  0  0  0  0
  152.7698  143.6861  159.0375 C   0  0  0  0  0  0  0  0  0  0  0  0
  152.0324  144.9563  158.6087 C   0  0  0  0  0  0  0  0  0  0  0  0
  151.3494  145.4955  159.8745 C   0  0  0  0  0  0  0  0  0  0  0  0
  151.5208  144.4192  160.9559 C   0  0  0  0  0  0  0  0  0  0  0  0
  153.8575  136.4310  157.3943 H   0  0  0  0  0  0  0  0  0  0  0  0
  152.3214  135.7594  157.8369 H   0  0  0  0  0  0  0  0  0  0  0  0
  154.0608  137.8671  155.7741 H   0  0  0  0  0  0  0  0  0  0  0  0
  153.1335  139.3100  153.9703 H   0  0  0  0  0  0  0  0  0  0  0  0
  153.6331  139.0675  158.2446 H   0  0  0  0  0  0  0  0  0  0  0  0
  152.6587  139.2822  160.9796 H   0  0  0  0  0  0  0  0  0  0  0  0
  154.4037  139.1302  160.8728 H   0  0  0  0  0  0  0  0  0  0  0  0
  154.6830  141.2064  159.8636 H   0  0  0  0  0  0  0  0  0  0  0  0
  153.1530  141.1336  159.0125 H   0  0  0  0  0  0  0  0  0  0  0  0
  151.0699  142.6390  159.8232 H   0  0  0  0  0  0  0  0  0  0  0  0
  153.7757  143.9451  159.3710 H   0  0  0  0  0  0  0  0  0  0  0  0
  152.8639  142.9625  158.2273 H   0  0  0  0  0  0  0  0  0  0  0  0
  152.7053  145.6863  158.1580 H   0  0  0  0  0  0  0  0  0  0  0  0
  151.2751  144.7067  157.8644 H   0  0  0  0  0  0  0  0  0  0  0  0
  151.7958  146.4369  160.1964 H   0  0  0  0  0  0  0  0  0  0  0  0
  150.2935  145.6861  159.6798 H   0  0  0  0  0  0  0  0  0  0  0  0
  150.6105  144.2707  161.5374 H   0  0  0  0  0  0  0  0  0  0  0  0
  152.3051  144.7286  161.6483 H   0  0  0  0  0  0  0  0  0  0  0  0
  1  2  2  0  0  0  0
  2  3  1  0  0  0  0
  2 12  1  0  0  0  0
  3  4  1  0  0  0  0
  3 21  1  0  0  0  0
  3 22  1  0  0  0  0
  4 10  1  0  0  0  0
  4  5  1  0  0  0  0
  5  6  2  0  0  0  0
  5 23  1  0  0  0  0
  6  7  1  0  0  0  0
  6 24  1  0  0  0  0
  7  8  2  0  0  0  0
  7  9  1  0  0  0  0
  9 10  1  0  0  0  0
 10 11  2  0  0  0  0
 12 13  1  0  0  0  0
 12 25  1  0  0  0  0
 13 14  1  0  0  0  0
 13 26  1  0  0  0  0
 13 27  1  0  0  0  0
 14 15  1  0  0  0  0
 14 28  1  0  0  0  0
 14 29  1  0  0  0  0
 15 16  1  0  0  0  0
 16 20  1  0  0  0  0
 16 17  1  0  0  0  0
 16 30  1  0  0  0  0
 17 18  1  0  0  0  0
 17 31  1  0  0  0  0
 17 32  1  0  0  0  0
 18 19  1  0  0  0  0
 18 33  1  0  0  0  0
 18 34  1  0  0  0  0
 19 20  1  0  0  0  0
 19 35  1  0  0  0  0
 19 36  1  0  0  0  0
 20 37  1  0  0  0  0
 20 38  1  0  0  0  0
M  CHG  1   9  -1
M  END
> <s_m_source_file>
AV-unprocessed.smi

> <i_m_source_file_index>
1306

> <i_lp_mmshare_version>
43012

> <i_f3d_flags>
0

> <s_epik_input>
Tz1jMVtuSF1jKD1PKVtjSF1bY0hdbjFbQ0gyXUMoPU8pW05IXVtDSDJdW0NIMl1TW0NIXTJbQ0gyXVtDSDJdW0NIMl1bQ0gyXTI=

> <s_epik_cmdline>
J2VwaWtfcHl0aG9uJywgJy1waCcsICc3LjAnLCAnLXRuJywgJzgnLCAnLW1hJywgJzIwMCcsICctbWV0YWxfYmluZGluZycsICctaW1hZScsICc8aW5maWxlLm1hZT4nLCAnLW9tYWUnLCAnPG91dGZpbGUubWFlPic=

> <r_lp_tautomer_probability>
0.999537

> <r_epik_Ionization_Penalty>
3.06336

> <r_epik_Ionization_Penalty_Charging>
2.63481e-08

> <r_epik_Ionization_Penalty_Neutral>
3.06336

> <r_epik_State_Penalty>
3.06238

> <r_epik_Charging_Adjusted_Penalty>
3.06238

> <i_epik_Tot_Q>
-1

> <i_epik_Tot_abs_Q>
1

> <r_epik_Metal_State_Penalty>
0.458539

> <b_epik_Metal_Only>
1

> <s_lp_Force_Field>
OPLS_2005

> <r_lp_Energy>
29.7989

> <b_lp_Chiralities_Consistent>
1

> <s_lp_Variant>
AV-unprocessed.smi:1306-2

> <Gold.Version>
5.8.1

> <Gold.Id.Protein>
6NUR|6NUR_protein|mol2

> <Gold.PLP.Fitness>
48.0827

> <Gold.PLP.PLP>
-44.0253

> <Gold.PLP.part.hbond>
-2.0000

> <Gold.PLP.part.metal>
0.0000

> <Gold.PLP.part.buried>
-5.6253

> <Gold.PLP.part.nonpolar>
-37.5960

> <Gold.PLP.part.repulsive>
0.7915

> <Gold.PLP.ligand.clash>
0.0000

> <Gold.PLP.ligand.torsion>
1.0142

> <Gold.PLP.Chemscore.Hbond>
2.0000

> <Gold.PLP.Chemscore.CHOScore>
0.0000

> <Gold.PLP.Chemscore.Metal>
0.0000

> <Gold.Chemscore.Hbonds>
donor molecule, donor type, donor heavy atom, donor atom, acceptor molecule, acceptor atom, score
      P1  H  6896  6908       L1     1  1.00
      P1  H  7989  7998       L1     8  0.91

> <Gold.PLP.Chemscore.Internal.Correction>
0.0858

> <Gold.Rescore>
     Score         DG    S(hbond)    S(metal)    S(lipo)     H(rot)  DE(clash)    DE(int)     intcor
     17.12     -18.36       1.89        0.00     108.04       2.38       0.01       1.23       ----

> <Gold.Chemscore.Fitness>
17.1236

> <Gold.Chemscore.DG>
-18.3628

> <Gold.Chemscore.ZeroCoef>
-5.4800

> <Gold.Chemscore.Hbond>
1.8940

> <Gold.Chemscore.Metal>
0.0000

> <Gold.Chemscore.Lipo>
108.0434

> <Gold.Chemscore.Internal_Hbond>
0.0000

> <Gold.Chemscore.DEClash>
0.0133

> <Gold.Chemscore.DEInternal>
1.2259

> <Gold.Chemscore.Rot>
2.3767

> <Gold.Chemscore.Internal.Correction>
   9.000000E+99

> <Gold.Chemscore.Hbonds>
donor molecule, donor type, donor heavy atom, donor atom, acceptor molecule, acceptor atom, score
      P1  H  6896  6908       L1     1  0.99
      P1  H  7989  7998       L1     8  0.56

> <Gold.Chemscore.Hbond.Weighted>
-6.3260

> <Gold.Chemscore.Metal.Weighted>
-0.0000

> <Gold.Chemscore.Lipo.Weighted>
-12.6411

> <Gold.Chemscore.Internal_Hbond.Weighted>
0.0000

> <Gold.Chemscore.DEClash.Weighted>
0.0133

> <Gold.Chemscore.DEInternal.Weighted>
1.2259

> <Gold.Chemscore.Rot.Weighted>
6.0844

> <Gold.Chemscore.Internal.Correction.Weighted>
   9.000000E+99

> <Gold.Protein.RotatedTorsions>
[ 6907 6896 6895 6894 ] final  -94.43 input  -60.11 | X-H torsion
[ 7974 7965 7964 7962 ] final   -7.34 input  175.53 | X-H torsion
[ 8008 7997 7996 7995 ] final   -9.22 input   59.86 | X-H torsion
[ 10167 10162 10161 10158 ] final   53.47 input  -65.29 | X-H torsion
[ 10718 10713 10712 10709 ] final  -80.03 input   66.30 | X-H torsion
[ 10763 10752 10751 10750 ] final  -32.01 input  -60.55 | X-H torsion
[ 11005 11000 10999 10996 ] final  164.85 input  -57.11 | X-H torsion

> <Gold.Protein.ActiveResidues>
 VAL166  LYS551  ARG553  GLY616  TRP617  ASP618  TYR619  PRO620  LYS621  CYS622 
 ASP623  PHE694  ASN695  SER759  ASP760  ASP761  ALA762  ILE779  LEU786  VAL792 
 PHE793  MET794  SER795  GLU796  ALA797  LYS798  CYS799  TRP800  GLU811  SER814 

> <Gold.Protein.RotatedAtoms>
  150.6942  134.1813  159.4249 H   0  0  0  0  0  0  0  0  0  0  0  0  # atno 6907 bound_to 6896
  151.9787  135.0037  160.0565 H   0  0  0  0  0  0  0  0  0  0  0  0  # atno 6908 bound_to 6896
  152.1775  133.4649  159.4977 H   0  0  0  0  0  0  0  0  0  0  0  0  # atno 6909 bound_to 6896
  146.2309  140.2305  142.8340 H   0  0  0  0  0  0  0  0  0  0  0  0  # atno 7974 bound_to 7965
  154.5667  140.2360  155.8253 H   0  0  0  0  0  0  0  0  0  0  0  0  # atno 8008 bound_to 7997
  156.2074  140.3036  155.9615 H   0  0  0  0  0  0  0  0  0  0  0  0  # atno 8009 bound_to 7997
  155.2788  140.0421  157.3004 H   0  0  0  0  0  0  0  0  0  0  0  0  # atno 8010 bound_to 7997
  140.2405  144.3589  150.6382 H   0  0  0  0  0  0  0  0  0  0  0  0  # atno 10167 bound_to 10162
  156.0079  130.4562  150.3739 H   0  0  0  0  0  0  0  0  0  0  0  0  # atno 10718 bound_to 10713
  153.8068  135.6885  153.4847 H   0  0  0  0  0  0  0  0  0  0  0  0  # atno 10763 bound_to 10752
  153.1654  135.4563  154.9828 H   0  0  0  0  0  0  0  0  0  0  0  0  # atno 10764 bound_to 10752
  154.7984  135.3328  154.7552 H   0  0  0  0  0  0  0  0  0  0  0  0  # atno 10765 bound_to 10752
  140.2502  134.7983  157.3494 H   0  0  0  0  0  0  0  0  0  0  0  0  # atno 11005 bound_to 11000
  144.9561  140.8228  143.5542 LP  0  0  0  0  0  0  0  0  0  0  0  0  # atno 17320 bound_to 7965
  145.2271  139.2132  143.5062 LP  0  0  0  0  0  0  0  0  0  0  0  0  # atno 17321 bound_to 7965
  140.6117  143.2170  151.6872 LP  0  0  0  0  0  0  0  0  0  0  0  0  # atno 17342 bound_to 10162
  139.5079  144.3630  152.0544 LP  0  0  0  0  0  0  0  0  0  0  0  0  # atno 17343 bound_to 10162
  157.1822  131.0395  151.2743 LP  0  0  0  0  0  0  0  0  0  0  0  0  # atno 17370 bound_to 10713
  157.4136  130.7398  149.6858 LP  0  0  0  0  0  0  0  0  0  0  0  0  # atno 17371 bound_to 10713
  140.1566  134.4782  155.7924 LP  0  0  0  0  0  0  0  0  0  0  0  0  # atno 17394 bound_to 11000
  141.2202  133.6884  156.7471 LP  0  0  0  0  0  0  0  0  0  0  0  0  # atno 17395 bound_to 11000

$$$$
