AV-unprocessed.smi:1803|AV-procd|sdf|7287|dock6
  -GOLD-   22720 8543D 1   1.00000     0.00000
 Structure written by MMmdl.
 35 37  0  0  0  0  0  0  0  0  3 V2000
  147.5876  135.1108  156.2232 O   0  0  0  0  0  0  0  0  0  0  0  0
  147.9752  135.7085  155.2202 C   0  0  0  0  0  0  0  0  0  0  0  0
  148.3680  137.0089  155.2299 N   0  5  0  0  0  0  0  0  0  0  0  0
  149.6347  137.3862  154.9752 C   0  0  0  0  0  0  0  0  0  0  0  0
  150.6793  136.5565  155.1288 N   0  0  0  0  0  0  0  0  0  0  0  0
  151.8947  137.1435  154.8047 N   0  0  0  0  0  0  0  0  0  0  0  0
  151.7366  138.4120  154.4272 C   0  0  0  0  0  0  0  0  0  0  0  0
  150.0875  139.0006  154.4216 S   0  0  0  0  0  0  0  0  0  0  0  0
  148.0175  135.0497  154.0470 N   0  0  0  0  0  0  0  0  0  0  0  0
  147.6266  133.6618  153.8328 C   0  0  2  0  0  0  0  0  0  0  0  0
  148.5550  132.6386  154.5061 C   0  0  0  0  0  0  0  0  0  0  0  0
  148.6892  131.4826  153.4957 C   0  0  0  0  0  0  0  0  0  0  0  0
  147.7889  131.8003  152.3633 N   0  3  1  0  0  0  0  0  0  0  0  0
  146.4757  131.1089  152.4807 C   0  0  0  0  0  0  0  0  0  0  0  0
  145.4608  131.6159  151.4474 C   0  0  0  0  0  0  0  0  0  0  0  0
  145.2597  133.1258  151.6004 C   0  0  0  0  0  0  0  0  0  0  0  0
  146.6046  133.8408  151.4308 C   0  0  0  0  0  0  0  0  0  0  0  0
  147.7108  133.2807  152.3529 C   0  0  1  0  0  0  0  0  0  0  0  0
  152.5955  139.0037  154.1483 H   0  0  0  0  0  0  0  0  0  0  0  0
  148.3472  135.5610  153.2413 H   0  0  0  0  0  0  0  0  0  0  0  0
  146.6062  133.5120  154.1893 H   0  0  0  0  0  0  0  0  0  0  0  0
  149.5373  133.0649  154.7153 H   0  0  0  0  0  0  0  0  0  0  0  0
  148.1365  132.3007  155.4547 H   0  0  0  0  0  0  0  0  0  0  0  0
  149.7119  131.4458  153.1185 H   0  0  0  0  0  0  0  0  0  0  0  0
  148.4751  130.5104  153.9418 H   0  0  0  0  0  0  0  0  0  0  0  0
  146.6274  130.0364  152.3548 H   0  0  0  0  0  0  0  0  0  0  0  0
  146.0697  131.2497  153.4839 H   0  0  0  0  0  0  0  0  0  0  0  0
  145.8070  131.3844  150.4391 H   0  0  0  0  0  0  0  0  0  0  0  0
  144.5094  131.0996  151.5772 H   0  0  0  0  0  0  0  0  0  0  0  0
  144.5469  133.4884  150.8595 H   0  0  0  0  0  0  0  0  0  0  0  0
  144.8332  133.3504  152.5786 H   0  0  0  0  0  0  0  0  0  0  0  0
  146.9262  133.7306  150.3943 H   0  0  0  0  0  0  0  0  0  0  0  0
  146.4845  134.9121  151.5946 H   0  0  0  0  0  0  0  0  0  0  0  0
  148.6687  133.6397  151.9706 H   0  0  0  0  0  0  0  0  0  0  0  0
  148.2145  131.4932  151.5006 H   0  0  0  0  0  0  0  0  0  0  0  0
  1  2  2  0  0  0  0
  2  3  1  0  0  0  0
  2  9  1  0  0  0  0
  3  4  1  0  0  0  0
  4  8  1  0  0  0  0
  4  5  2  0  0  0  0
  5  6  1  0  0  0  0
  6  7  2  0  0  0  0
  7  8  1  0  0  0  0
  7 19  1  0  0  0  0
  9 10  1  0  0  0  0
  9 20  1  0  0  0  0
 10 18  1  0  0  0  0
 10 11  1  0  0  0  0
 10 21  1  0  0  0  0
 11 12  1  0  0  0  0
 11 22  1  0  0  0  0
 11 23  1  0  0  0  0
 12 13  1  0  0  0  0
 12 24  1  0  0  0  0
 12 25  1  0  0  0  0
 13 18  1  0  0  0  0
 13 14  1  0  0  0  0
 13 35  1  0  0  0  0
 14 15  1  0  0  0  0
 14 26  1  0  0  0  0
 14 27  1  0  0  0  0
 15 16  1  0  0  0  0
 15 28  1  0  0  0  0
 15 29  1  0  0  0  0
 16 17  1  0  0  0  0
 16 30  1  0  0  0  0
 16 31  1  0  0  0  0
 17 18  1  0  0  0  0
 17 32  1  0  0  0  0
 17 33  1  0  0  0  0
 18 34  1  0  0  0  0
M  CHG  1   3  -1
M  CHG  1  13   1
M  END
> <s_m_source_file>
AV-unprocessed.smi

> <i_m_source_file_index>
1803

> <i_lp_mmshare_version>
43012

> <i_f3d_flags>
0

> <s_epik_input>
czFbY0hdbm5jMVtOSF1DKD1PKVtOSF1bQ0BIXShbQ0gyXVtDSDJdMilbQ0BASF0oTjIzKVtDSDJdW0NIMl1bQ0gyXVtDSDJdMw==

> <s_epik_cmdline>
J2VwaWtfcHl0aG9uJywgJy1waCcsICc3LjAnLCAnLXRuJywgJzgnLCAnLW1hJywgJzIwMCcsICctbWV0YWxfYmluZGluZycsICctaW1hZScsICc8aW5maWxlLm1hZT4nLCAnLW9tYWUnLCAnPG91dGZpbGUubWFlPic=

> <r_lp_tautomer_probability>
1

> <r_epik_Ionization_Penalty>
3.78828

> <r_epik_Ionization_Penalty_Charging>
3.7591

> <r_epik_Ionization_Penalty_Neutral>
0.0291838

> <r_epik_State_Penalty>
3.757

> <r_epik_Charging_Adjusted_Penalty>
7.51609

> <i_epik_Tot_Q>
0

> <i_epik_Tot_abs_Q>
2

> <r_epik_Metal_State_Penalty>
0.558016

> <b_epik_Metal_Only>
1

> <s_lp_Force_Field>
OPLS_2005

> <r_lp_Energy>
31.4386

> <b_lp_Chiralities_Consistent>
1

> <s_lp_Variant>
AV-unprocessed.smi:1803-9

> <Gold.Version>
5.8.1

> <Gold.Id.Protein>
6NUR|6NUR_protein|mol2

> <Gold.PLP.Fitness>
35.4723

> <Gold.PLP.PLP>
-28.0073

> <Gold.PLP.part.hbond>
-3.0000

> <Gold.PLP.part.metal>
0.0000

> <Gold.PLP.part.buried>
-4.3874

> <Gold.PLP.part.nonpolar>
-20.9669

> <Gold.PLP.part.repulsive>
0.3619

> <Gold.PLP.ligand.clash>
0.0000

> <Gold.PLP.ligand.torsion>
0.7737

> <Gold.PLP.Chemscore.Hbond>
3.0000

> <Gold.PLP.Chemscore.CHOScore>
0.0000

> <Gold.PLP.Chemscore.Metal>
0.0000

> <Gold.Chemscore.Hbonds>
donor molecule, donor type, donor heavy atom, donor atom, acceptor molecule, acceptor atom, score
      L1  H     9    20       P1  7948  1.00
      L1  H    13    35       P1 10747  1.00
      P1  H 10752 10765       L1     6  1.00

> <Gold.PLP.Chemscore.Internal.Correction>
0.0125

> <Gold.Rescore>
     Score         DG    S(hbond)    S(metal)    S(lipo)     H(rot)  DE(clash)    DE(int)     intcor
     19.61     -20.30       2.95        0.00      64.25       1.00       0.00       0.69       ----

> <Gold.Chemscore.Fitness>
19.6075

> <Gold.Chemscore.DG>
-20.2977

> <Gold.Chemscore.ZeroCoef>
-5.4800

> <Gold.Chemscore.Hbond>
2.9523

> <Gold.Chemscore.Metal>
0.0000

> <Gold.Chemscore.Lipo>
64.2491

> <Gold.Chemscore.Internal_Hbond>
0.0000

> <Gold.Chemscore.DEClash>
0.0000

> <Gold.Chemscore.DEInternal>
0.6902

> <Gold.Chemscore.Rot>
1.0000

> <Gold.Chemscore.Internal.Correction>
   9.000000E+99

> <Gold.Chemscore.Hbonds>
donor molecule, donor type, donor heavy atom, donor atom, acceptor molecule, acceptor atom, score
      L1  H     9    20       P1  7948  0.99
      L1  H    13    35       P1 10747  0.97
      P1  H 10752 10765       L1     6  0.28

> <Gold.Chemscore.Hbond.Weighted>
-9.8606

> <Gold.Chemscore.Metal.Weighted>
-0.0000

> <Gold.Chemscore.Lipo.Weighted>
-7.5171

> <Gold.Chemscore.Internal_Hbond.Weighted>
0.0000

> <Gold.Chemscore.DEClash.Weighted>
0.0000

> <Gold.Chemscore.DEInternal.Weighted>
0.6902

> <Gold.Chemscore.Rot.Weighted>
2.5600

> <Gold.Chemscore.Internal.Correction.Weighted>
   9.000000E+99

> <Gold.Protein.RotatedTorsions>
[ 6907 6896 6895 6894 ] final  -56.07 input  -60.11 | X-H torsion
[ 7974 7965 7964 7962 ] final -148.71 input  175.53 | X-H torsion
[ 8008 7997 7996 7995 ] final   84.98 input   59.86 | X-H torsion
[ 10167 10162 10161 10158 ] final -127.20 input  -65.29 | X-H torsion
[ 10718 10713 10712 10709 ] final -106.29 input   66.30 | X-H torsion
[ 10763 10752 10751 10750 ] final  172.41 input  -60.55 | X-H torsion
[ 11005 11000 10999 10996 ] final  -50.61 input  -57.11 | X-H torsion

> <Gold.Protein.ActiveResidues>
 VAL166  LYS551  ARG553  GLY616  TRP617  ASP618  TYR619  PRO620  LYS621  CYS622 
 ASP623  PHE694  ASN695  SER759  ASP760  ASP761  ALA762  ILE779  LEU786  VAL792 
 PHE793  MET794  SER795  GLU796  ALA797  LYS798  CYS799  TRP800  GLU811  SER814 

> <Gold.Protein.RotatedAtoms>
  150.8198  134.7400  159.6762 H   0  0  0  0  0  0  0  0  0  0  0  0  # atno 6907 bound_to 6896
  152.4315  134.5766  159.9946 H   0  0  0  0  0  0  0  0  0  0  0  0  # atno 6908 bound_to 6896
  151.5953  133.3325  159.3072 H   0  0  0  0  0  0  0  0  0  0  0  0  # atno 6909 bound_to 6896
  144.8012  140.5160  143.5706 H   0  0  0  0  0  0  0  0  0  0  0  0  # atno 7974 bound_to 7965
  155.9441  140.3406  155.6352 H   0  0  0  0  0  0  0  0  0  0  0  0  # atno 8008 bound_to 7997
  155.7003  140.0759  157.2431 H   0  0  0  0  0  0  0  0  0  0  0  0  # atno 8009 bound_to 7997
  154.4108  140.1641  156.2171 H   0  0  0  0  0  0  0  0  0  0  0  0  # atno 8010 bound_to 7997
  139.9634  143.5925  152.2437 H   0  0  0  0  0  0  0  0  0  0  0  0  # atno 10167 bound_to 10162
  156.0383  130.5605  150.7660 H   0  0  0  0  0  0  0  0  0  0  0  0  # atno 10718 bound_to 10713
  154.4256  135.2758  155.1946 H   0  0  0  0  0  0  0  0  0  0  0  0  # atno 10763 bound_to 10752
  154.3873  135.6074  153.5827 H   0  0  0  0  0  0  0  0  0  0  0  0  # atno 10764 bound_to 10752
  152.9834  135.5895  154.4560 H   0  0  0  0  0  0  0  0  0  0  0  0  # atno 10765 bound_to 10752
  141.0825  133.6650  156.3756 H   0  0  0  0  0  0  0  0  0  0  0  0  # atno 11005 bound_to 11000
  145.5548  139.1477  143.3374 LP  0  0  0  0  0  0  0  0  0  0  0  0  # atno 17320 bound_to 7965
  146.2294  140.5686  142.8982 LP  0  0  0  0  0  0  0  0  0  0  0  0  # atno 17321 bound_to 7965
  139.6536  144.7661  151.2099 LP  0  0  0  0  0  0  0  0  0  0  0  0  # atno 17342 bound_to 10162
  140.7546  143.6121  150.8595 LP  0  0  0  0  0  0  0  0  0  0  0  0  # atno 17343 bound_to 10162
  157.5167  131.0929  151.0131 LP  0  0  0  0  0  0  0  0  0  0  0  0  # atno 17370 bound_to 10713
  157.0472  130.5772  149.5365 LP  0  0  0  0  0  0  0  0  0  0  0  0  # atno 17371 bound_to 10713
  140.5436  134.6096  157.5387 LP  0  0  0  0  0  0  0  0  0  0  0  0  # atno 17394 bound_to 11000
  139.9640  134.7404  156.0176 LP  0  0  0  0  0  0  0  0  0  0  0  0  # atno 17395 bound_to 11000

$$$$
