#       Name:                AV-unprocessed.smi:337
#       Creating user name   scv26
#       Creation time:       Thu Mar 26 22:29:07 2020


#       File generated by GOLD software.
#

@<TRIPOS>MOLECULE
AV-unprocessed.smi:337
    51    52     1
SMALL
NO_CHARGES


@<TRIPOS>ATOM
      1 ****        -3.9392  -0.9523  -0.7029 C.3            1 S1                 0.0000
      2 ****        -3.3897  -1.5071  -2.0278 C.3            1 S1                 0.0000
      3 ****        -3.8701  -2.8797  -2.1797 N.am           1 S1                 0.0000
      4 ****        -3.9195  -3.5540  -3.3379 C.2            1 S1                 0.0000
      5 ****        -4.3756  -4.7971  -3.1823 N.am           1 S1                 0.0000
      6 ****        -3.5841  -3.0939  -4.4276 O.2            1 S1                 0.0000
      7 ****        -1.8548  -1.4734  -1.9561 C.2            1 S1                 0.0000
      8 ****        -1.2340  -2.3520  -1.3552 O.2            1 S1                 0.0000
      9 ****        -1.2576  -0.4332  -2.5573 N.am           1 S1                 0.0000
     10 ****         0.1827  -0.2011  -2.5868 C.3            1 S1                 0.0000
     11 ****         0.7610   0.3190  -1.2781 C.ar           1 S1                 0.0000
     12 ****         0.0218   1.1485  -0.4089 C.ar           1 S1                 0.0000
     13 ****         0.6207   1.5945   0.7844 C.ar           1 S1                 0.0000
     14 ****         1.9496   1.2059   1.0784 C.ar           1 S1                 0.0000
     15 ****         2.5704   1.6404   2.2699 N.3            1 S1                 0.0000
     16 ****         2.5331   3.0797   2.5167 C.3            1 S1                 0.0000
     17 ****         2.9541   3.3865   3.9644 C.3            1 S1                 0.0000
     18 ****         4.2297   2.8125   4.2288 O.3            1 S1                 0.0000
     19 ****         4.2109   1.3958   4.0917 C.3            1 S1                 0.0000
     20 ****         3.8393   1.0204   2.6475 C.3            1 S1                 0.0000
     21 ****         2.6565   0.4096   0.2386 N.ar           1 S1                 0.0000
     22 ****         2.0776  -0.0153  -0.9039 C.ar           1 S1                 0.0000
     23 ****        -3.6131   0.0756  -0.5378 H              1 S1                 0.0000
     24 ****        -3.6135  -1.5456   0.1530 H              1 S1                 0.0000
     25 ****        -5.0296  -0.9490  -0.7051 H              1 S1                 0.0000
     26 ****        -3.7442  -0.8932  -2.8585 H              1 S1                 0.0000
     27 ****        -4.1626  -3.3536  -1.3381 H              1 S1                 0.0000
     28 ****        -4.4651  -5.4102  -3.9791 H              1 S1                 0.0000
     29 ****        -4.6343  -5.1198  -2.2612 H              1 S1                 0.0000
     30 ****        -1.8407   0.2434  -3.0281 H              1 S1                 0.0000
     31 ****         0.6942  -1.1201  -2.8787 H              1 S1                 0.0000
     32 ****         0.3935   0.5300  -3.3673 H              1 S1                 0.0000
     33 ****        -0.9913   1.4402  -0.6436 H              1 S1                 0.0000
     34 ****         0.0515   2.2128   1.4620 H              1 S1                 0.0000
     35 ****         3.2109   3.5735   1.8192 H              1 S1                 0.0000
     36 ****         1.5417   3.4949   2.3423 H              1 S1                 0.0000
     37 ****         3.0125   4.4643   4.1168 H              1 S1                 0.0000
     38 ****         2.2173   3.0044   4.6728 H              1 S1                 0.0000
     39 ****         5.1963   1.0020   4.3398 H              1 S1                 0.0000
     40 ****         3.5059   0.9594   4.8011 H              1 S1                 0.0000
     41 ****         3.7704  -0.0648   2.5637 H              1 S1                 0.0000
     42 ****         4.6210   1.3525   1.9629 H              1 S1                 0.0000
     43 ****         2.6862  -0.6443  -1.5369 H              1 S1                 0.0000
     44 ****        -3.2462  -2.1549  -4.4913 LP             1 S1                 0.0000
     45 ****        -3.6491  -3.6588  -5.2503 LP             1 S1                 0.0000
     46 ****        -1.7288  -3.0970  -0.9078 LP             1 S1                 0.0000
     47 ****        -0.2353  -2.3201  -1.3150 LP             1 S1                 0.0000
     48 ****         1.9336   1.2396   2.9285 LP             1 S1                 0.0000
     49 ****         4.5013   3.0436   5.1630 LP             1 S1                 0.0000
     50 ****         4.8947   3.1911   3.5850 LP             1 S1                 0.0000
     51 ****         3.5934   0.1411   0.4627 LP             1 S1                 0.0000
@<TRIPOS>BOND
    1    1    2 1     
    2    1   23 1     
    3    1   24 1     
    4    1   25 1     
    5    2    3 1     
    6    2    7 1     
    7    2   26 1     
    8    3    4 am    
    9    3   27 1     
   10    4    5 am    
   11    4    6 2     
   12    5   28 1     
   13    5   29 1     
   14    7    8 2     
   15    7    9 am    
   16    9   10 1     
   17    9   30 1     
   18   10   11 1     
   19   10   31 1     
   20   10   32 1     
   21   11   22 ar    
   22   11   12 ar    
   23   12   13 ar    
   24   12   33 1     
   25   13   14 ar    
   26   13   34 1     
   27   14   15 1     
   28   14   21 ar    
   29   15   20 1     
   30   15   16 1     
   31   16   17 1     
   32   16   35 1     
   33   16   36 1     
   34   17   18 1     
   35   17   37 1     
   36   17   38 1     
   37   18   19 1     
   38   19   20 1     
   39   19   39 1     
   40   19   40 1     
   41   20   41 1     
   42   20   42 1     
   43   21   22 ar    
   44   22   43 1     
   45    6   44 1     
   46    6   45 1     
   47    8   46 1     
   48    8   47 1     
   49   15   48 1     
   50   18   49 1     
   51   18   50 1     
   52   21   51 1     
@<TRIPOS>SUBSTRUCTURE
      1 S1             1
@<TRIPOS>SET
LONE_PAIRS      STATIC     ATOMS    <user>   **** ""
8 44 45 46 47 48 49 50 51
DONOR_HYDROGENS      STATIC     ATOMS    <user>   **** ""
4 27 28 29 30
ATOM$BLUE        STATIC     ATOMS    COLORGROUP SYSTEM
8 44 45 46 47 48 49 50 51
ATOM$RED        STATIC     ATOMS    COLORGROUP SYSTEM
4 27 28 29 30
