AV-unprocessed.smi:2792|AV-procd|sdf|10772|dock10
  -GOLD-   2272015213D 1   1.00000     0.00000
 Structure written by MMmdl.
 44 46  0  0  0  0  0  0  0  0  1 V2000
  144.6383  135.4406  152.6103 C   0  0  0  0  0  0  0  0  0  0  0  0
  145.2522  136.7847  152.1829 C   0  0  0  0  0  0  0  0  0  0  0  0
  145.9088  137.6169  153.3117 C   0  0  1  0  0  0  0  0  0  0  0  0
  144.9056  137.9806  154.4272 C   0  0  0  0  0  0  0  0  0  0  0  0
  146.9265  136.8277  153.8980 O   0  0  0  0  0  0  0  0  0  0  0  0
  146.5766  138.8740  152.6944 C   0  0  0  0  0  0  0  0  0  0  0  0
  147.2883  139.7108  153.6495 N   0  0  0  0  0  0  0  0  0  0  0  0
  146.8256  140.8708  154.2312 C   0  0  0  0  0  0  0  0  0  0  0  0
  147.6520  141.4481  155.0604 N   0  0  0  0  0  0  0  0  0  0  0  0
  148.7740  140.6298  155.0390 C   0  0  0  0  0  0  0  0  0  0  0  0
  150.0298  140.6651  155.6980 C   0  0  0  0  0  0  0  0  0  0  0  0
  150.3380  141.6561  156.5636 N   0  0  0  0  0  0  0  0  0  0  0  0
  151.5773  141.6056  157.3330 C   0  0  0  0  0  0  0  0  0  0  0  0
  151.7528  142.7308  158.3407 C   0  0  0  0  0  0  0  0  0  0  0  0
  151.9404  142.4426  159.7098 C   0  0  0  0  0  0  0  0  0  0  0  0
  152.1072  143.4891  160.6376 C   0  0  0  0  0  0  0  0  0  0  0  0
  152.0846  144.8279  160.2013 C   0  0  0  0  0  0  0  0  0  0  0  0
  151.8925  145.1198  158.8370 C   0  0  0  0  0  0  0  0  0  0  0  0
  151.7250  144.0735  157.9089 C   0  0  0  0  0  0  0  0  0  0  0  0
  150.9170  139.6730  155.4221 N   0  0  0  0  0  0  0  0  0  0  0  0
  150.5909  138.7024  154.5630 C   0  0  0  0  0  0  0  0  0  0  0  0
  149.4553  138.5386  153.8803 N   0  0  0  0  0  0  0  0  0  0  0  0
  148.5656  139.5358  154.1530 C   0  0  0  0  0  0  0  0  0  0  0  0
  144.2647  134.8995  151.7407 H   0  0  0  0  0  0  0  0  0  0  0  0
  143.7967  135.5765  153.2888 H   0  0  0  0  0  0  0  0  0  0  0  0
  145.3710  134.8009  153.1023 H   0  0  0  0  0  0  0  0  0  0  0  0
  145.9938  136.5890  151.4070 H   0  0  0  0  0  0  0  0  0  0  0  0
  144.4747  137.3807  151.7033 H   0  0  0  0  0  0  0  0  0  0  0  0
  144.0947  138.5975  154.0391 H   0  0  0  0  0  0  0  0  0  0  0  0
  145.3806  138.5316  155.2390 H   0  0  0  0  0  0  0  0  0  0  0  0
  144.4606  137.0949  154.8797 H   0  0  0  0  0  0  0  0  0  0  0  0
  147.5401  136.5781  153.2238 H   0  0  0  0  0  0  0  0  0  0  0  0
  147.2748  138.5871  151.9065 H   0  0  0  0  0  0  0  0  0  0  0  0
  145.8189  139.4933  152.2122 H   0  0  0  0  0  0  0  0  0  0  0  0
  145.8443  141.2732  154.0250 H   0  0  0  0  0  0  0  0  0  0  0  0
  149.6672  142.3502  156.8601 H   0  0  0  0  0  0  0  0  0  0  0  0
  151.6506  140.6399  157.8349 H   0  0  0  0  0  0  0  0  0  0  0  0
  152.4107  141.6474  156.6316 H   0  0  0  0  0  0  0  0  0  0  0  0
  151.9597  141.4182  160.0519 H   0  0  0  0  0  0  0  0  0  0  0  0
  152.2528  143.2646  161.6841 H   0  0  0  0  0  0  0  0  0  0  0  0
  152.2134  145.6307  160.9123 H   0  0  0  0  0  0  0  0  0  0  0  0
  151.8746  146.1464  158.5018 H   0  0  0  0  0  0  0  0  0  0  0  0
  151.5814  144.3053  156.8636 H   0  0  0  0  0  0  0  0  0  0  0  0
  151.3478  137.9496  154.3997 H   0  0  0  0  0  0  0  0  0  0  0  0
  1  2  1  0  0  0  0
  1 24  1  0  0  0  0
  1 25  1  0  0  0  0
  1 26  1  0  0  0  0
  2  3  1  0  0  0  0
  2 27  1  0  0  0  0
  2 28  1  0  0  0  0
  3  4  1  0  0  0  0
  3  5  1  0  0  0  0
  3  6  1  0  0  0  0
  4 29  1  0  0  0  0
  4 30  1  0  0  0  0
  4 31  1  0  0  0  0
  5 32  1  0  0  0  0
  6  7  1  0  0  0  0
  6 33  1  0  0  0  0
  6 34  1  0  0  0  0
  7 23  1  0  0  0  0
  7  8  1  0  0  0  0
  8  9  2  0  0  0  0
  8 35  1  0  0  0  0
  9 10  1  0  0  0  0
 10 23  2  0  0  0  0
 10 11  1  0  0  0  0
 11 12  1  0  0  0  0
 11 20  2  0  0  0  0
 12 13  1  0  0  0  0
 12 36  1  0  0  0  0
 13 14  1  0  0  0  0
 13 37  1  0  0  0  0
 13 38  1  0  0  0  0
 14 19  1  0  0  0  0
 14 15  2  0  0  0  0
 15 16  1  0  0  0  0
 15 39  1  0  0  0  0
 16 17  2  0  0  0  0
 16 40  1  0  0  0  0
 17 18  1  0  0  0  0
 17 41  1  0  0  0  0
 18 19  2  0  0  0  0
 18 42  1  0  0  0  0
 19 43  1  0  0  0  0
 20 21  1  0  0  0  0
 21 22  2  0  0  0  0
 21 44  1  0  0  0  0
 22 23  1  0  0  0  0
M  END
> <s_m_source_file>
AV-unprocessed.smi

> <i_m_source_file_index>
2792

> <i_lp_mmshare_version>
43012

> <i_f3d_flags>
0

> <s_epik_input>
W0NIM11bQ0gyXVtDQEBdKFtDSDNdKShbT0hdKVtDSDJdbihbY0hdbjEpYyhjMTIpbltjSF1uYzJbTkhdW0NIMl1jM1tjSF1bY0hdW2NIXVtjSF1bY0hdMw==

> <s_epik_cmdline>
J2VwaWtfcHl0aG9uJywgJy1waCcsICc3LjAnLCAnLXRuJywgJzgnLCAnLW1hJywgJzIwMCcsICctbWV0YWxfYmluZGluZycsICctaW1hZScsICc8aW5maWxlLm1hZT4nLCAnLW9tYWUnLCAnPG91dGZpbGUubWFlPic=

> <r_lp_tautomer_probability>
1

> <r_epik_Ionization_Penalty>
0.00163025

> <r_epik_Ionization_Penalty_Charging>
0

> <r_epik_Ionization_Penalty_Neutral>
0.00163025

> <r_epik_State_Penalty>
-0

> <r_epik_Charging_Adjusted_Penalty>
0

> <i_epik_Tot_Q>
0

> <i_epik_Tot_abs_Q>
0

> <r_epik_Metal_State_Penalty>
-0

> <b_epik_Metal_Only>
0

> <s_lp_Force_Field>
OPLS_2005

> <r_lp_Energy>
13.0485

> <b_lp_Chiralities_Consistent>
1

> <s_lp_Variant>
AV-unprocessed.smi:2792-1

> <Gold.Version>
5.8.1

> <Gold.Id.Protein>
6NUR|6NUR_protein|mol2

> <Gold.PLP.Fitness>
49.1758

> <Gold.PLP.PLP>
-45.5860

> <Gold.PLP.part.hbond>
-1.8277

> <Gold.PLP.part.metal>
0.0000

> <Gold.PLP.part.buried>
-5.0356

> <Gold.PLP.part.nonpolar>
-40.8697

> <Gold.PLP.part.repulsive>
2.2340

> <Gold.PLP.ligand.clash>
0.0000

> <Gold.PLP.ligand.torsion>
0.3305

> <Gold.PLP.Chemscore.Hbond>
1.0000

> <Gold.PLP.Chemscore.CHOScore>
0.3685

> <Gold.PLP.Chemscore.Metal>
0.0000

> <Gold.Chemscore.Hbonds>
donor molecule, donor type, donor heavy atom, donor atom, acceptor molecule, acceptor atom, score
      L1  H     5    32       P1  7948  1.00
      P1  H  7989  7998       L1    20  0.02
      L1  C     8    35       P1 10175  0.42

> <Gold.PLP.Chemscore.Internal.Correction>
0.1451

> <Gold.Rescore>
     Score         DG    S(hbond)    S(metal)    S(lipo)     H(rot)  DE(clash)    DE(int)     intcor
     13.88     -14.66       1.00        0.00     105.19       2.52       0.32       0.46       ----

> <Gold.Chemscore.Fitness>
13.8823

> <Gold.Chemscore.DG>
-14.6632

> <Gold.Chemscore.ZeroCoef>
-5.4800

> <Gold.Chemscore.Hbond>
0.9999

> <Gold.Chemscore.Metal>
0.0000

> <Gold.Chemscore.Lipo>
105.1927

> <Gold.Chemscore.Internal_Hbond>
0.0000

> <Gold.Chemscore.DEClash>
0.3227

> <Gold.Chemscore.DEInternal>
0.4582

> <Gold.Chemscore.Rot>
2.5250

> <Gold.Chemscore.Internal.Correction>
   9.000000E+99

> <Gold.Chemscore.Hbonds>
donor molecule, donor type, donor heavy atom, donor atom, acceptor molecule, acceptor atom, score
      L1  H     5    32       P1  7948  0.97

> <Gold.Chemscore.Hbond.Weighted>
-3.3396

> <Gold.Chemscore.Metal.Weighted>
-0.0000

> <Gold.Chemscore.Lipo.Weighted>
-12.3075

> <Gold.Chemscore.Internal_Hbond.Weighted>
0.0000

> <Gold.Chemscore.DEClash.Weighted>
0.3227

> <Gold.Chemscore.DEInternal.Weighted>
0.4582

> <Gold.Chemscore.Rot.Weighted>
6.4639

> <Gold.Chemscore.Internal.Correction.Weighted>
   9.000000E+99

> <Gold.Protein.RotatedTorsions>
[ 6907 6896 6895 6894 ] final -138.86 input  -60.11 | X-H torsion
[ 7974 7965 7964 7962 ] final  -12.57 input  175.53 | X-H torsion
[ 8008 7997 7996 7995 ] final -103.06 input   59.86 | X-H torsion
[ 10167 10162 10161 10158 ] final  103.10 input  -65.29 | X-H torsion
[ 10718 10713 10712 10709 ] final -135.91 input   66.30 | X-H torsion
[ 10763 10752 10751 10750 ] final  -14.02 input  -60.55 | X-H torsion
[ 11005 11000 10999 10996 ] final  -38.88 input  -57.11 | X-H torsion

> <Gold.Protein.ActiveResidues>
 VAL166  LYS551  ARG553  GLY616  TRP617  ASP618  TYR619  PRO620  LYS621  CYS622 
 ASP623  PHE694  ASN695  SER759  ASP760  ASP761  ALA762  ILE779  LEU786  VAL792 
 PHE793  MET794  SER795  GLU796  ALA797  LYS798  CYS799  TRP800  GLU811  SER814 

> <Gold.Protein.RotatedAtoms>
  151.0404  133.5711  159.2651 H   0  0  0  0  0  0  0  0  0  0  0  0  # atno 6907 bound_to 6896
  151.2759  135.0698  159.9161 H   0  0  0  0  0  0  0  0  0  0  0  0  # atno 6908 bound_to 6896
  152.5363  134.0127  159.7999 H   0  0  0  0  0  0  0  0  0  0  0  0  # atno 6909 bound_to 6896
  146.2147  140.3077  142.8380 H   0  0  0  0  0  0  0  0  0  0  0  0  # atno 7974 bound_to 7965
  154.8655  140.0425  157.1692 H   0  0  0  0  0  0  0  0  0  0  0  0  # atno 8008 bound_to 7997
  154.8795  140.2970  155.5413 H   0  0  0  0  0  0  0  0  0  0  0  0  # atno 8009 bound_to 7997
  156.2999  140.2414  156.3795 H   0  0  0  0  0  0  0  0  0  0  0  0  # atno 8010 bound_to 7997
  139.7292  144.7040  151.0749 H   0  0  0  0  0  0  0  0  0  0  0  0  # atno 10167 bound_to 10162
  156.2713  130.7267  151.1235 H   0  0  0  0  0  0  0  0  0  0  0  0  # atno 10718 bound_to 10713
  153.5221  135.7015  153.5726 H   0  0  0  0  0  0  0  0  0  0  0  0  # atno 10763 bound_to 10752
  153.3771  135.3930  155.1830 H   0  0  0  0  0  0  0  0  0  0  0  0  # atno 10764 bound_to 10752
  154.8693  135.3826  154.4710 H   0  0  0  0  0  0  0  0  0  0  0  0  # atno 10765 bound_to 10752
  141.0060  133.6931  156.2112 H   0  0  0  0  0  0  0  0  0  0  0  0  # atno 11005 bound_to 11000
  144.9011  140.7644  143.5866 LP  0  0  0  0  0  0  0  0  0  0  0  0  # atno 17320 bound_to 7965
  145.3003  139.1853  143.4693 LP  0  0  0  0  0  0  0  0  0  0  0  0  # atno 17321 bound_to 7965
  140.7768  143.5065  150.9705 LP  0  0  0  0  0  0  0  0  0  0  0  0  # atno 17342 bound_to 10162
  139.8753  143.7140  152.3162 LP  0  0  0  0  0  0  0  0  0  0  0  0  # atno 17343 bound_to 10162
  157.7284  131.0631  150.5819 LP  0  0  0  0  0  0  0  0  0  0  0  0  # atno 17370 bound_to 10713
  156.5916  130.4330  149.5934 LP  0  0  0  0  0  0  0  0  0  0  0  0  # atno 17371 bound_to 10713
  140.6811  134.4766  157.5589 LP  0  0  0  0  0  0  0  0  0  0  0  0  # atno 17394 bound_to 11000
  139.9064  134.8440  156.1691 LP  0  0  0  0  0  0  0  0  0  0  0  0  # atno 17395 bound_to 11000

$$$$
