#       Name:                AV-unprocessed.smi:2066
#       Creating user name   scv26
#       Creation time:       Fri Mar 27 11:11:20 2020


#       File generated by GOLD software.
#

@<TRIPOS>MOLECULE
AV-unprocessed.smi:2066
    45    46     1
SMALL
NO_CHARGES


@<TRIPOS>ATOM
      1 ****        -1.5452  -1.2259   2.6013 C.3            1 S1                 0.0000
      2 ****        -1.1999  -0.2819   1.4244 C.3            1 S1                 0.0000
      3 ****        -1.9218   1.0644   1.6861 C.3            1 S1                 0.0000
      4 ****         0.3245   0.0162   1.5082 C.3            1 S1                 0.0000
      5 ****         0.7858   0.8585   0.4080 N.am           1 S1                 0.0000
      6 ****         2.0648   1.1472   0.1373 C.2            1 S1                 0.0000
      7 ****         2.9606   0.6989   0.8567 O.2            1 S1                 0.0000
      8 ****         2.2273   1.9338  -0.9508 N.pl3          1 S1                -1.0000
      9 ****         3.4608   2.2895  -1.3442 C.2            1 S1                 0.0000
     10 ****         4.0049   3.4772  -1.0552 N.2            1 S1                 0.0000
     11 ****         5.2934   3.6370  -1.5677 C.2            1 S1                 0.0000
     12 ****         5.7368   2.5498  -2.2731 C.2            1 S1                 0.0000
     13 ****         4.5426   1.2841  -2.3125 S.3            1 S1                 0.0000
     14 ****        -1.5797  -0.8424   0.0972 N.3            1 S1                 0.0000
     15 ****        -3.0176  -1.0584  -0.0974 C.3            1 S1                 0.0000
     16 ****        -3.3443  -1.5178  -1.5288 C.3            1 S1                 0.0000
     17 ****        -2.6146  -2.7006  -1.8322 O.3            1 S1                 0.0000
     18 ****        -1.2092  -2.5144  -1.7143 C.3            1 S1                 0.0000
     19 ****        -0.8642  -2.0656  -0.2846 C.3            1 S1                 0.0000
     20 ****        -1.2525  -0.7842   3.5546 H              1 S1                 0.0000
     21 ****        -1.0269  -2.1816   2.5270 H              1 S1                 0.0000
     22 ****        -2.6134  -1.4312   2.6657 H              1 S1                 0.0000
     23 ****        -1.5271   1.5650   2.5710 H              1 S1                 0.0000
     24 ****        -2.9894   0.9346   1.8629 H              1 S1                 0.0000
     25 ****        -1.8075   1.7518   0.8470 H              1 S1                 0.0000
     26 ****         0.5610   0.5215   2.4462 H              1 S1                 0.0000
     27 ****         0.9028  -0.9083   1.5279 H              1 S1                 0.0000
     28 ****         0.0788   1.2381  -0.2046 H              1 S1                 0.0000
     29 ****         5.8220   4.5603  -1.3831 H              1 S1                 0.0000
     30 ****         6.6862   2.4161  -2.7692 H              1 S1                 0.0000
     31 ****        -3.3846  -1.8074   0.6043 H              1 S1                 0.0000
     32 ****        -3.5774  -0.1443   0.0919 H              1 S1                 0.0000
     33 ****        -4.4103  -1.7228  -1.6264 H              1 S1                 0.0000
     34 ****        -3.1012  -0.7360  -2.2502 H              1 S1                 0.0000
     35 ****        -0.7049  -3.4516  -1.9493 H              1 S1                 0.0000
     36 ****        -0.8690  -1.7763  -2.4424 H              1 S1                 0.0000
     37 ****         0.2132  -1.9175  -0.2378 H              1 S1                 0.0000
     38 ****        -1.1039  -2.8742   0.4060 H              1 S1                 0.0000
     39 ****         2.7308   0.1212   1.6400 LP             1 S1                 0.0000
     40 ****         3.9167   0.9130   0.6567 LP             1 S1                 0.0000
     41 ****         1.4286   2.2505  -1.4624 LP             1 S1                 0.0000
     42 ****         3.5343   4.1816  -0.5239 LP             1 S1                 0.0000
     43 ****        -1.2893  -0.1039  -0.5112 LP             1 S1                 0.0000
     44 ****        -2.8247  -2.9762  -2.7702 LP             1 S1                 0.0000
     45 ****        -2.8971  -3.4233  -1.2013 LP             1 S1                 0.0000
@<TRIPOS>BOND
    1    1    2 1     
    2    1   20 1     
    3    1   21 1     
    4    1   22 1     
    5    2    3 1     
    6    2    4 1     
    7    2   14 1     
    8    3   23 1     
    9    3   24 1     
   10    3   25 1     
   11    4    5 1     
   12    4   26 1     
   13    4   27 1     
   14    5    6 am    
   15    5   28 1     
   16    6    7 2     
   17    6    8 1     
   18    8    9 1     
   19    9   13 1     
   20    9   10 2     
   21   10   11 1     
   22   11   12 2     
   23   11   29 1     
   24   12   13 1     
   25   12   30 1     
   26   14   19 1     
   27   14   15 1     
   28   15   16 1     
   29   15   31 1     
   30   15   32 1     
   31   16   17 1     
   32   16   33 1     
   33   16   34 1     
   34   17   18 1     
   35   18   19 1     
   36   18   35 1     
   37   18   36 1     
   38   19   37 1     
   39   19   38 1     
   40    7   39 1     
   41    7   40 1     
   42    8   41 1     
   43   10   42 1     
   44   14   43 1     
   45   17   44 1     
   46   17   45 1     
@<TRIPOS>SUBSTRUCTURE
      1 S1             1
@<TRIPOS>SET
LONE_PAIRS      STATIC     ATOMS    <user>   **** ""
7 39 40 41 42 43 44 45
DONOR_HYDROGENS      STATIC     ATOMS    <user>   **** ""
1 28
ATOM$BLUE        STATIC     ATOMS    COLORGROUP SYSTEM
7 39 40 41 42 43 44 45
ATOM$RED        STATIC     ATOMS    COLORGROUP SYSTEM
1 28
