AV-unprocessed.smi:158|AV-procd|sdf|1337|dock8
  -GOLD-   2262019 33D 1   1.00000     0.00000
 Structure written by MMmdl.
 31 33  0  0  0  0  0  0  0  0  1 V2000
  151.8718  137.7884  154.2744 N   0  0  0  0  0  0  0  0  0  0  0  0
  152.0357  138.3920  155.4598 C   0  0  0  0  0  0  0  0  0  0  0  0
  152.7781  137.7670  156.4034 N   0  0  0  0  0  0  0  0  0  0  0  0
  152.9670  138.3354  157.6010 C   0  0  0  0  0  0  0  0  0  0  0  0
  153.9286  137.4517  158.7270 Cl  0  0  0  0  0  0  0  0  0  0  0  0
  152.4927  139.5117  158.0240 N   0  0  0  0  0  0  0  0  0  0  0  0
  151.7425  140.1432  157.0755 C   0  0  0  0  0  0  0  0  0  0  0  0
  151.4687  139.6517  155.7716 C   0  0  0  0  0  0  0  0  0  0  0  0
  150.6777  140.5597  155.0800 N   0  0  0  0  0  0  0  0  0  0  0  0
  150.4983  141.5333  155.9329 C   0  0  0  0  0  0  0  0  0  0  0  0
  151.0981  141.3596  157.1609 N   0  0  0  0  0  0  0  0  0  0  0  0
  151.0847  142.2859  158.3308 C   0  0  2  0  0  0  0  0  0  0  0  0
  150.3387  143.4071  157.9821 O   0  0  0  0  0  0  0  0  0  0  0  0
  150.8502  144.5551  158.6499 C   0  0  1  0  0  0  0  0  0  0  0  0
  150.1709  144.6845  160.0282 C   0  0  0  0  0  0  0  0  0  0  0  0
  150.6441  145.8354  160.6944 O   0  0  0  0  0  0  0  0  0  0  0  0
  152.3588  144.2792  158.7528 C   0  0  2  0  0  0  0  0  0  0  0  0
  153.0503  144.8936  157.6833 O   0  0  0  0  0  0  0  0  0  0  0  0
  152.4987  142.7622  158.6839 C   0  0  1  0  0  0  0  0  0  0  0  0
  152.8369  142.2728  159.8774 F   0  0  0  0  0  0  0  0  0  0  0  0
  150.5974  141.7322  159.1346 H   0  0  0  0  0  0  0  0  0  0  0  0
  150.6569  145.4547  158.0627 H   0  0  0  0  0  0  0  0  0  0  0  0
  152.7804  144.6802  159.6755 H   0  0  0  0  0  0  0  0  0  0  0  0
  153.2414  142.4271  157.9576 H   0  0  0  0  0  0  0  0  0  0  0  0
  151.3218  138.2348  153.5546 H   0  0  0  0  0  0  0  0  0  0  0  0
  152.2976  136.8889  154.1034 H   0  0  0  0  0  0  0  0  0  0  0  0
  149.9167  142.4102  155.6879 H   0  0  0  0  0  0  0  0  0  0  0  0
  149.0840  144.7142  159.9491 H   0  0  0  0  0  0  0  0  0  0  0  0
  150.4227  143.8282  160.6541 H   0  0  0  0  0  0  0  0  0  0  0  0
  151.2737  145.5690  161.3469 H   0  0  0  0  0  0  0  0  0  0  0  0
  153.9686  144.6832  157.7572 H   0  0  0  0  0  0  0  0  0  0  0  0
  1  2  1  0  0  0  0
  1 25  1  0  0  0  0
  1 26  1  0  0  0  0
  2  8  1  0  0  0  0
  2  3  2  0  0  0  0
  3  4  1  0  0  0  0
  4  5  1  0  0  0  0
  4  6  2  0  0  0  0
  6  7  1  0  0  0  0
  7 11  1  0  0  0  0
  7  8  2  0  0  0  0
  8  9  1  0  0  0  0
  9 10  2  0  0  0  0
 10 11  1  0  0  0  0
 10 27  1  0  0  0  0
 11 12  1  0  0  0  0
 12 21  1  0  0  0  0
 12 19  1  0  0  0  0
 12 13  1  0  0  0  0
 13 14  1  0  0  0  0
 14 22  1  0  0  0  0
 14 15  1  0  0  0  0
 14 17  1  0  0  0  0
 15 16  1  0  0  0  0
 15 28  1  0  0  0  0
 15 29  1  0  0  0  0
 16 30  1  0  0  0  0
 17 23  1  0  0  0  0
 17 18  1  0  0  0  0
 17 19  1  0  0  0  0
 18 31  1  0  0  0  0
 19 24  1  0  0  0  0
 19 20  1  0  0  0  0
M  END
> <s_m_source_file>
AV-unprocessed.smi

> <i_m_source_file_index>
158

> <i_lp_mmshare_version>
43012

> <i_f3d_flags>
0

> <s_epik_input>
Q2xjKG4xKW5jKFtOSDJdKWMoYzEyKW5bY0hdbjJbQ0BASF0zT1tDQEhdKFtDSDJdW09IXSlbQ0BASF0oW09IXSlbQ0BASF0zRg==

> <s_epik_cmdline>
J2VwaWtfcHl0aG9uJywgJy1waCcsICc3LjAnLCAnLXRuJywgJzgnLCAnLW1hJywgJzIwMCcsICctbWV0YWxfYmluZGluZycsICctaW1hZScsICc8aW5maWxlLm1hZT4nLCAnLW9tYWUnLCAnPG91dGZpbGUubWFlPic=

> <r_lp_tautomer_probability>
1

> <r_epik_Ionization_Penalty>
6.51543e-05

> <r_epik_Ionization_Penalty_Charging>
0

> <r_epik_Ionization_Penalty_Neutral>
6.51543e-05

> <r_epik_State_Penalty>
-0

> <r_epik_Charging_Adjusted_Penalty>
0

> <i_epik_Tot_Q>
0

> <i_epik_Tot_abs_Q>
0

> <r_epik_Metal_State_Penalty>
-0

> <b_epik_Metal_Only>
0

> <s_epik_Chemistry_Notes>
This compound contains an acetal/aminal-like group ( X-CH(R)-Y where X, Y are N, S, or O) that may be acid/base labile, releasing an aldehyde.

> <s_lp_Force_Field>
OPLS_2005

> <r_lp_Energy>
33.5879

> <b_lp_Chiralities_Consistent>
1

> <s_lp_Variant>
AV-unprocessed.smi:158-15

> <Gold.Version>
5.8.1

> <Gold.Id.Protein>
6NUR|6NUR_protein|mol2

> <Gold.PLP.Fitness>
41.3570

> <Gold.PLP.PLP>
-35.4444

> <Gold.PLP.part.hbond>
-3.0000

> <Gold.PLP.part.metal>
0.0000

> <Gold.PLP.part.buried>
-4.5864

> <Gold.PLP.part.nonpolar>
-28.9200

> <Gold.PLP.part.repulsive>
1.0881

> <Gold.PLP.ligand.clash>
0.0000

> <Gold.PLP.ligand.torsion>
0.0141

> <Gold.PLP.Chemscore.Hbond>
0.9760

> <Gold.PLP.Chemscore.CHOScore>
1.0000

> <Gold.PLP.Chemscore.Metal>
0.0000

> <Gold.Chemscore.Hbonds>
donor molecule, donor type, donor heavy atom, donor atom, acceptor molecule, acceptor atom, score
      P1  H  7989  7998       L1     9  0.98
      L1  C    10    27       P1  8028  1.00

> <Gold.PLP.Chemscore.Internal.Correction>
0.0128

> <Gold.Rescore>
     Score         DG    S(hbond)    S(metal)    S(lipo)     H(rot)  DE(clash)    DE(int)     intcor
      5.74      -8.37       1.44        0.00      51.96       3.12       2.56       0.07       ----

> <Gold.Chemscore.Fitness>
5.7411

> <Gold.Chemscore.DG>
-8.3681

> <Gold.Chemscore.ZeroCoef>
-5.4800

> <Gold.Chemscore.Hbond>
1.4382

> <Gold.Chemscore.Metal>
0.0000

> <Gold.Chemscore.Lipo>
51.9625

> <Gold.Chemscore.Internal_Hbond>
0.0000

> <Gold.Chemscore.DEClash>
2.5603

> <Gold.Chemscore.DEInternal>
0.0667

> <Gold.Chemscore.Rot>
3.1230

> <Gold.Chemscore.Internal.Correction>
   9.000000E+99

> <Gold.Chemscore.Hbonds>
donor molecule, donor type, donor heavy atom, donor atom, acceptor molecule, acceptor atom, score
      P1  H  7989  7998       L1     9  0.40

> <Gold.Chemscore.Hbond.Weighted>
-4.8035

> <Gold.Chemscore.Metal.Weighted>
-0.0000

> <Gold.Chemscore.Lipo.Weighted>
-6.0796

> <Gold.Chemscore.Internal_Hbond.Weighted>
0.0000

> <Gold.Chemscore.DEClash.Weighted>
2.5603

> <Gold.Chemscore.DEInternal.Weighted>
0.0667

> <Gold.Chemscore.Rot.Weighted>
7.9950

> <Gold.Chemscore.Internal.Correction.Weighted>
   9.000000E+99

> <Gold.Protein.RotatedTorsions>
[ 6907 6896 6895 6894 ] final   18.55 input  -60.11 | X-H torsion
[ 7974 7965 7964 7962 ] final  115.69 input  175.53 | X-H torsion
[ 8008 7997 7996 7995 ] final  131.54 input   59.86 | X-H torsion
[ 10167 10162 10161 10158 ] final  129.11 input  -65.29 | X-H torsion
[ 10718 10713 10712 10709 ] final -156.54 input   66.30 | X-H torsion
[ 10763 10752 10751 10750 ] final -174.27 input  -60.55 | X-H torsion
[ 11005 11000 10999 10996 ] final   32.51 input  -57.11 | X-H torsion

> <Gold.Protein.ActiveResidues>
 VAL166  LYS551  ARG553  GLY616  TRP617  ASP618  TYR619  PRO620  LYS621  CYS622 
 ASP623  PHE694  ASN695  SER759  ASP760  ASP761  ALA762  ILE779  LEU786  VAL792 
 PHE793  MET794  SER795  GLU796  ALA797  LYS798  CYS799  TRP800  GLU811  SER814 

> <Gold.Protein.RotatedAtoms>
  151.8670  135.0503  160.0475 H   0  0  0  0  0  0  0  0  0  0  0  0  # atno 6907 bound_to 6896
  152.2618  133.5299  159.5394 H   0  0  0  0  0  0  0  0  0  0  0  0  # atno 6908 bound_to 6896
  150.7119  134.0736  159.3915 H   0  0  0  0  0  0  0  0  0  0  0  0  # atno 6909 bound_to 6896
  145.1889  139.3011  143.4379 H   0  0  0  0  0  0  0  0  0  0  0  0  # atno 7974 bound_to 7965
  156.2971  140.2569  156.2941 H   0  0  0  0  0  0  0  0  0  0  0  0  # atno 8008 bound_to 7997
  154.9480  140.0395  157.2149 H   0  0  0  0  0  0  0  0  0  0  0  0  # atno 8009 bound_to 7997
  154.8063  140.2836  155.5890 H   0  0  0  0  0  0  0  0  0  0  0  0  # atno 8010 bound_to 7997
  139.5494  144.6800  151.4372 H   0  0  0  0  0  0  0  0  0  0  0  0  # atno 10167 bound_to 10162
  156.5279  130.8507  151.2705 H   0  0  0  0  0  0  0  0  0  0  0  0  # atno 10718 bound_to 10713
  154.5981  135.2852  155.0564 H   0  0  0  0  0  0  0  0  0  0  0  0  # atno 10763 bound_to 10752
  154.1839  135.6452  153.5045 H   0  0  0  0  0  0  0  0  0  0  0  0  # atno 10764 bound_to 10752
  153.0146  135.5430  154.6691 H   0  0  0  0  0  0  0  0  0  0  0  0  # atno 10765 bound_to 10752
  140.2727  134.3063  155.7823 H   0  0  0  0  0  0  0  0  0  0  0  0  # atno 11005 bound_to 11000
  146.3440  140.2094  142.8590 LP  0  0  0  0  0  0  0  0  0  0  0  0  # atno 17320 bound_to 7965
  145.0061  140.8674  143.5252 LP  0  0  0  0  0  0  0  0  0  0  0  0  # atno 17321 bound_to 7965
  140.6752  143.8206  150.7049 LP  0  0  0  0  0  0  0  0  0  0  0  0  # atno 17342 bound_to 10162
  140.1642  143.4249  152.2045 LP  0  0  0  0  0  0  0  0  0  0  0  0  # atno 17343 bound_to 10162
  157.7426  130.9895  150.2532 LP  0  0  0  0  0  0  0  0  0  0  0  0  # atno 17370 bound_to 10713
  156.3088  130.3769  149.7681 LP  0  0  0  0  0  0  0  0  0  0  0  0  # atno 17371 bound_to 10713
  141.2175  133.7477  156.9360 LP  0  0  0  0  0  0  0  0  0  0  0  0  # atno 17394 bound_to 11000
  140.1357  134.9326  157.2399 LP  0  0  0  0  0  0  0  0  0  0  0  0  # atno 17395 bound_to 11000

$$$$
