#       Name:                AV-unprocessed.smi:1036
#       Creating user name   scv26
#       Creation time:       Fri Mar 27 02:53:24 2020


#       File generated by GOLD software.
#

@<TRIPOS>MOLECULE
AV-unprocessed.smi:1036
    46    48     1
SMALL
NO_CHARGES


@<TRIPOS>ATOM
      1 ****        -3.1751  -0.2873  -3.3742 O.3            1 S1                 0.0000
      2 ****        -2.2530  -0.7114  -2.3928 C.3            1 S1                 0.0000
      3 ****        -2.4599   0.0865  -1.0977 C.3            1 S1                 0.0000
      4 ****        -1.7906   1.3734  -1.1402 N.pl3          1 S1                 0.0000
      5 ****        -0.4564   1.7381  -1.0056 C.2            1 S1                 0.0000
      6 ****        -0.0202   2.9952  -1.0673 N.2            1 S1                 0.0000
      7 ****         1.3396   2.8437  -0.8702 C.ar           1 S1                 0.0000
      8 ****         2.3735   3.8063  -0.8230 C.ar           1 S1                 0.0000
      9 ****         3.7091   3.4098  -0.6036 C.ar           1 S1                 0.0000
     10 ****         4.0303   2.0481  -0.4278 C.ar           1 S1                 0.0000
     11 ****         3.0163   1.0719  -0.4715 C.ar           1 S1                 0.0000
     12 ****         1.6850   1.4723  -0.6924 C.ar           1 S1                 0.0000
     13 ****         0.4803   0.7834  -0.7905 N.pl3          1 S1                 0.0000
     14 ****         0.3023  -0.6585  -0.6747 C.3            1 S1                 0.0000
     15 ****         0.2091  -1.1272   0.7905 C.3            1 S1                 0.0000
     16 ****        -0.8810  -0.4924   1.4324 O.3            1 S1                 0.0000
     17 ****         0.1325  -2.6457   0.8764 C.ar           1 S1                 0.0000
     18 ****        -1.1093  -3.3092   0.7519 C.ar           1 S1                 0.0000
     19 ****        -1.1766  -4.7141   0.8226 C.ar           1 S1                 0.0000
     20 ****        -2.3707  -5.3414   0.7041 F              1 S1                 0.0000
     21 ****        -0.0027  -5.4666   1.0140 C.ar           1 S1                 0.0000
     22 ****         1.2388  -4.8133   1.1306 C.ar           1 S1                 0.0000
     23 ****         1.3087  -3.4080   1.0599 C.ar           1 S1                 0.0000
     24 ****         2.5132  -2.7967   1.1643 F              1 S1                 0.0000
     25 ****        -3.0311  -0.7930  -4.1592 H              1 S1                 0.0000
     26 ****        -2.4381  -1.7689  -2.2041 H              1 S1                 0.0000
     27 ****        -1.2312  -0.6262  -2.7646 H              1 S1                 0.0000
     28 ****        -3.5202   0.2234  -0.8839 H              1 S1                 0.0000
     29 ****        -2.0414  -0.4717  -0.2597 H              1 S1                 0.0000
     30 ****        -2.4078   2.1366  -1.3779 H              1 S1                 0.0000
     31 ****         2.1382   4.8521  -0.9557 H              1 S1                 0.0000
     32 ****         4.4909   4.1543  -0.5693 H              1 S1                 0.0000
     33 ****         5.0557   1.7530  -0.2596 H              1 S1                 0.0000
     34 ****         3.2591   0.0283  -0.3366 H              1 S1                 0.0000
     35 ****        -0.5811  -0.9654  -1.2358 H              1 S1                 0.0000
     36 ****         1.1504  -1.1399  -1.1633 H              1 S1                 0.0000
     37 ****         1.1032  -0.7973   1.3208 H              1 S1                 0.0000
     38 ****        -0.8518  -0.7039   2.3530 H              1 S1                 0.0000
     39 ****        -2.0169  -2.7440   0.5979 H              1 S1                 0.0000
     40 ****        -0.0538  -6.5440   1.0680 H              1 S1                 0.0000
     41 ****         2.1401  -5.3912   1.2723 H              1 S1                 0.0000
     42 ****        -3.0379   0.6839  -3.5687 LP             1 S1                 0.0000
     43 ****        -4.1083  -0.4329  -3.0456 LP             1 S1                 0.0000
     44 ****        -0.5429   3.8343  -1.2178 LP             1 S1                 0.0000
     45 ****        -1.7405  -0.8182   1.0386 LP             1 S1                 0.0000
     46 ****        -0.8133   0.4980   1.3116 LP             1 S1                 0.0000
@<TRIPOS>BOND
    1    1    2 1     
    2    1   25 1     
    3    2    3 1     
    4    2   26 1     
    5    2   27 1     
    6    3    4 1     
    7    3   28 1     
    8    3   29 1     
    9    4    5 1     
   10    4   30 1     
   11    5   13 1     
   12    5    6 2     
   13    6    7 1     
   14    7   12 ar    
   15    7    8 ar    
   16    8    9 ar    
   17    8   31 1     
   18    9   10 ar    
   19    9   32 1     
   20   10   11 ar    
   21   10   33 1     
   22   11   12 ar    
   23   11   34 1     
   24   12   13 1     
   25   13   14 1     
   26   14   15 1     
   27   14   35 1     
   28   14   36 1     
   29   15   16 1     
   30   15   17 1     
   31   15   37 1     
   32   16   38 1     
   33   17   23 ar    
   34   17   18 ar    
   35   18   19 ar    
   36   18   39 1     
   37   19   20 1     
   38   19   21 ar    
   39   21   22 ar    
   40   21   40 1     
   41   22   23 ar    
   42   22   41 1     
   43   23   24 1     
   44    1   42 1     
   45    1   43 1     
   46    6   44 1     
   47   16   45 1     
   48   16   46 1     
@<TRIPOS>SUBSTRUCTURE
      1 S1             1
@<TRIPOS>SET
LONE_PAIRS      STATIC     ATOMS    <user>   **** ""
5 42 43 44 45 46
DONOR_HYDROGENS      STATIC     ATOMS    <user>   **** ""
3 25 30 38
ATOM$BLUE        STATIC     ATOMS    COLORGROUP SYSTEM
5 42 43 44 45 46
ATOM$RED        STATIC     ATOMS    COLORGROUP SYSTEM
3 25 30 38
