#       Name:                AV-unprocessed.smi:21
#       Creating user name   scv26
#       Creation time:       Thu Mar 26 15:35:08 2020


#       File generated by GOLD software.
#

@<TRIPOS>MOLECULE
AV-unprocessed.smi:21
    71    74     1
SMALL
NO_CHARGES


@<TRIPOS>ATOM
      1 ****        -2.5363  -3.2873  -2.4156 C.3            1 S1                 0.0000
      2 ****        -2.5368  -2.2389  -1.4595 O.3            1 S1                 0.0000
      3 ****        -2.1983  -2.6613  -0.1449 C.3            1 S1                 0.0000
      4 ****        -1.8103  -1.4330   0.6676 C.3            1 S1                 0.0000
      5 ****        -3.1539  -0.8723   1.1435 C.3            1 S1                 0.0000
      6 ****        -3.0570   0.0094   2.4066 C.3            1 S1                 0.0000
      7 ****        -2.3216   1.2533   2.1761 N.pl3          1 S1                 0.0000
      8 ****        -2.9666   2.3096   1.4069 C.3            1 S1                 0.0000
      9 ****        -0.9652   1.2286   2.2671 C.ar           1 S1                 0.0000
     10 ****        -0.4136   0.5883   3.3310 N.ar           1 S1                 0.0000
     11 ****         0.9127   0.5194   3.4700 C.ar           1 S1                 0.0000
     12 ****         1.8596   1.0025   2.6662 N.ar           1 S1                 0.0000
     13 ****         1.3196   1.6357   1.5865 C.ar           1 S1                 0.0000
     14 ****        -0.0695   1.8031   1.3154 C.ar           1 S1                 0.0000
     15 ****        -0.2280   2.4969   0.1212 N.2            1 S1                 0.0000
     16 ****         0.9894   2.7324  -0.2822 C.2            1 S1                 0.0000
     17 ****         1.9837   2.2306   0.5263 N.pl3          1 S1                 0.0000
     18 ****         3.4208   2.3341   0.3110 C.3            1 S1                 0.0000
     19 ****         4.0284   1.1863  -0.5431 C.3            1 S1                 0.0000
     20 ****         3.8658  -0.1952   0.1336 C.3            1 S1                 0.0000
     21 ****         4.5527  -0.2347   1.3669 O.3            1 S1                 0.0000
     22 ****         3.4807   1.1741  -1.9950 C.3            1 S1                 0.0000
     23 ****         4.1115   0.1411  -2.9145 C.3            1 S1                 0.0000
     24 ****         3.7695   0.6744  -4.3030 C.3            1 S1                 0.0000
     25 ****         3.6511   2.0859  -4.1634 O.3            1 S1                 0.0000
     26 ****         3.7769   2.4477  -2.7936 C.3            1 S1                 0.0000
     27 ****        -3.9967  -2.0673   1.3784 N.4            1 S1                 1.0000
     28 ****        -5.4412  -1.8445   1.1495 C.3            1 S1                 0.0000
     29 ****        -3.4367  -3.1936   0.5924 C.3            1 S1                 0.0000
     30 ****        -1.3812  -3.3846  -0.1699 H              1 S1                 0.0000
     31 ****        -3.5923  -0.3005   0.3234 H              1 S1                 0.0000
     32 ****        -2.8146  -2.8888  -3.3911 H              1 S1                 0.0000
     33 ****        -3.2489  -4.0716  -2.1602 H              1 S1                 0.0000
     34 ****        -1.5455  -3.7339  -2.5082 H              1 S1                 0.0000
     35 ****        -1.2078  -1.7399   1.5238 H              1 S1                 0.0000
     36 ****        -1.2272  -0.7140   0.0912 H              1 S1                 0.0000
     37 ****        -4.0602   0.2807   2.7360 H              1 S1                 0.0000
     38 ****        -2.6282  -0.5607   3.2311 H              1 S1                 0.0000
     39 ****        -2.4947   3.2747   1.5947 H              1 S1                 0.0000
     40 ****        -4.0168   2.3962   1.6862 H              1 S1                 0.0000
     41 ****        -2.9182   2.0969   0.3386 H              1 S1                 0.0000
     42 ****         1.2656   0.0004   4.3491 H              1 S1                 0.0000
     43 ****         1.1917   3.2747  -1.1935 H              1 S1                 0.0000
     44 ****         3.6251   3.2997  -0.1517 H              1 S1                 0.0000
     45 ****         3.9081   2.3746   1.2857 H              1 S1                 0.0000
     46 ****         5.1001   1.3804  -0.6110 H              1 S1                 0.0000
     47 ****         2.8158  -0.4435   0.2873 H              1 S1                 0.0000
     48 ****         4.2877  -0.9864  -0.4848 H              1 S1                 0.0000
     49 ****         4.4292  -1.0878   1.7542 H              1 S1                 0.0000
     50 ****         2.4035   1.0019  -1.9859 H              1 S1                 0.0000
     51 ****         5.1941   0.1222  -2.7792 H              1 S1                 0.0000
     52 ****         3.7306  -0.8684  -2.7573 H              1 S1                 0.0000
     53 ****         4.5241   0.4100  -5.0442 H              1 S1                 0.0000
     54 ****         2.8105   0.2786  -4.6393 H              1 S1                 0.0000
     55 ****         3.1104   3.2734  -2.5485 H              1 S1                 0.0000
     56 ****         4.8007   2.7818  -2.6198 H              1 S1                 0.0000
     57 ****        -5.6378  -1.5855   0.1082 H              1 S1                 0.0000
     58 ****        -5.8135  -1.0367   1.7797 H              1 S1                 0.0000
     59 ****        -6.0074  -2.7446   1.3908 H              1 S1                 0.0000
     60 ****        -4.1671  -3.6359  -0.0859 H              1 S1                 0.0000
     61 ****        -3.1435  -3.9720   1.2974 H              1 S1                 0.0000
     62 ****        -3.8802  -2.3171   2.3501 H              1 S1                 0.0000
     63 ****        -3.4512  -1.8347  -1.4352 LP             1 S1                 0.0000
     64 ****        -1.8746  -1.5478  -1.7490 LP             1 S1                 0.0000
     65 ****        -1.0063   0.1648   4.0162 LP             1 S1                 0.0000
     66 ****         2.8413   0.9120   2.8338 LP             1 S1                 0.0000
     67 ****        -1.0831   2.7568  -0.3274 LP             1 S1                 0.0000
     68 ****         4.1886   0.4684   1.9778 LP             1 S1                 0.0000
     69 ****         5.5275  -0.0718   1.2148 LP             1 S1                 0.0000
     70 ****         2.7575   2.3792  -4.5033 LP             1 S1                 0.0000
     71 ****         4.3722   2.5333  -4.6923 LP             1 S1                 0.0000
@<TRIPOS>BOND
    1    1    2 1     
    2    1   32 1     
    3    1   33 1     
    4    1   34 1     
    5    2    3 1     
    6    3   30 1     
    7    3   29 1     
    8    3    4 1     
    9    4    5 1     
   10    4   35 1     
   11    4   36 1     
   12    5   31 1     
   13    5    6 1     
   14    5   27 1     
   15    6    7 1     
   16    6   37 1     
   17    6   38 1     
   18    7    8 1     
   19    7    9 1     
   20    8   39 1     
   21    8   40 1     
   22    8   41 1     
   23    9   14 ar    
   24    9   10 ar    
   25   10   11 ar    
   26   11   12 ar    
   27   11   42 1     
   28   12   13 ar    
   29   13   17 1     
   30   13   14 ar    
   31   14   15 1     
   32   15   16 2     
   33   16   17 1     
   34   16   43 1     
   35   17   18 1     
   36   18   19 1     
   37   18   44 1     
   38   18   45 1     
   39   19   20 1     
   40   19   22 1     
   41   19   46 1     
   42   20   21 1     
   43   20   47 1     
   44   20   48 1     
   45   21   49 1     
   46   22   26 1     
   47   22   23 1     
   48   22   50 1     
   49   23   24 1     
   50   23   51 1     
   51   23   52 1     
   52   24   25 1     
   53   24   53 1     
   54   24   54 1     
   55   25   26 1     
   56   26   55 1     
   57   26   56 1     
   58   27   28 1     
   59   27   29 1     
   60   27   62 1     
   61   28   57 1     
   62   28   58 1     
   63   28   59 1     
   64   29   60 1     
   65   29   61 1     
   66    2   63 1     
   67    2   64 1     
   68   10   65 1     
   69   12   66 1     
   70   15   67 1     
   71   21   68 1     
   72   21   69 1     
   73   25   70 1     
   74   25   71 1     
@<TRIPOS>SUBSTRUCTURE
      1 S1             1
@<TRIPOS>SET
LONE_PAIRS      STATIC     ATOMS    <user>   **** ""
9 63 64 65 66 67 68 69 70 71
DONOR_HYDROGENS      STATIC     ATOMS    <user>   **** ""
2 49 62
ATOM$BLUE        STATIC     ATOMS    COLORGROUP SYSTEM
9 63 64 65 66 67 68 69 70 71
ATOM$RED        STATIC     ATOMS    COLORGROUP SYSTEM
2 49 62
