AV-unprocessed.smi:657|AV-procd|sdf|3228|dock1
  -GOLD-   22720 0173D 1   1.00000     0.00000
 Structure written by MMmdl.
 46 47  0  0  0  0  0  0  0  0  3 V2000
  145.6996  137.7951  153.3457 C   0  0  0  0  0  0  0  0  0  0  0  0
  146.9529  138.6889  153.2323 C   0  0  0  0  0  0  0  0  0  0  0  0
  147.0815  139.1481  151.7643 C   0  0  0  0  0  0  0  0  0  0  0  0
  148.2055  138.0140  153.7216 N   0  3  2  0  0  0  0  0  0  0  0  0
  148.0512  137.2561  155.0015 C   0  0  0  0  0  0  0  0  0  0  0  0
  149.2983  136.4177  155.3281 C   0  0  0  0  0  0  0  0  0  0  0  0
  150.5609  137.2790  155.3836 C   0  0  0  0  0  0  0  0  0  0  0  0
  150.7031  138.0628  154.0729 C   0  0  0  0  0  0  0  0  0  0  0  0
  149.4381  138.8755  153.7061 C   0  0  2  0  0  0  0  0  0  0  0  0
  149.3152  140.1799  154.5360 C   0  0  0  0  0  0  0  0  0  0  0  0
  149.3617  141.2699  153.9564 O   0  0  0  0  0  0  0  0  0  0  0  0
  149.1809  139.9047  155.8618 N   0  5  0  0  0  0  0  0  0  0  0  0
  150.0334  140.4757  156.9018 C   0  0  0  0  0  0  0  0  0  0  0  0
  150.3145  141.9645  156.6109 C   0  0  0  0  0  0  0  0  0  0  0  0
  151.1312  142.6538  157.6802 C   0  0  0  0  0  0  0  0  0  0  0  0
  151.3798  144.0495  157.8332 C   0  0  0  0  0  0  0  0  0  0  0  0
  152.1291  144.3292  158.8874 N   0  0  0  0  0  0  0  0  0  0  0  0
  152.3801  143.1284  159.4477 N   0  0  0  0  0  0  0  0  0  0  0  0
  153.1896  143.0540  160.6450 C   0  0  0  0  0  0  0  0  0  0  0  0
  151.7898  142.1010  158.7440 C   0  0  0  0  0  0  0  0  0  0  0  0
  144.8409  138.2608  152.8611 H   0  0  0  0  0  0  0  0  0  0  0  0
  145.4033  137.6316  154.3816 H   0  0  0  0  0  0  0  0  0  0  0  0
  145.8558  136.8247  152.8731 H   0  0  0  0  0  0  0  0  0  0  0  0
  146.7647  139.5696  153.8474 H   0  0  0  0  0  0  0  0  0  0  0  0
  146.1388  139.5540  151.3964 H   0  0  0  0  0  0  0  0  0  0  0  0
  147.3588  138.3189  151.1128 H   0  0  0  0  0  0  0  0  0  0  0  0
  147.8179  139.9396  151.6345 H   0  0  0  0  0  0  0  0  0  0  0  0
  147.8156  137.9349  155.8210 H   0  0  0  0  0  0  0  0  0  0  0  0
  147.2244  136.5517  154.9383 H   0  0  0  0  0  0  0  0  0  0  0  0
  149.1604  135.9022  156.2791 H   0  0  0  0  0  0  0  0  0  0  0  0
  149.4213  135.6407  154.5725 H   0  0  0  0  0  0  0  0  0  0  0  0
  150.5178  137.9539  156.2379 H   0  0  0  0  0  0  0  0  0  0  0  0
  151.4370  136.6488  155.5380 H   0  0  0  0  0  0  0  0  0  0  0  0
  151.5727  138.7196  154.1276 H   0  0  0  0  0  0  0  0  0  0  0  0
  150.9143  137.3592  153.2664 H   0  0  0  0  0  0  0  0  0  0  0  0
  149.6083  139.1463  152.6633 H   0  0  0  0  0  0  0  0  0  0  0  0
  149.5550  140.4029  157.8792 H   0  0  0  0  0  0  0  0  0  0  0  0
  150.9803  139.9426  156.9949 H   0  0  0  0  0  0  0  0  0  0  0  0
  150.8023  142.0550  155.6394 H   0  0  0  0  0  0  0  0  0  0  0  0
  149.3570  142.4727  156.4944 H   0  0  0  0  0  0  0  0  0  0  0  0
  151.0397  144.8619  157.2080 H   0  0  0  0  0  0  0  0  0  0  0  0
  153.0961  142.0662  161.0973 H   0  0  0  0  0  0  0  0  0  0  0  0
  152.8611  143.8043  161.3652 H   0  0  0  0  0  0  0  0  0  0  0  0
  154.2351  143.2324  160.3923 H   0  0  0  0  0  0  0  0  0  0  0  0
  151.8861  141.0703  159.0521 H   0  0  0  0  0  0  0  0  0  0  0  0
  148.3917  137.2998  153.0332 H   0  0  0  0  0  0  0  0  0  0  0  0
  1  2  1  0  0  0  0
  1 21  1  0  0  0  0
  1 22  1  0  0  0  0
  1 23  1  0  0  0  0
  2  3  1  0  0  0  0
  2  4  1  0  0  0  0
  2 24  1  0  0  0  0
  3 25  1  0  0  0  0
  3 26  1  0  0  0  0
  3 27  1  0  0  0  0
  4  9  1  0  0  0  0
  4  5  1  0  0  0  0
  4 46  1  0  0  0  0
  5  6  1  0  0  0  0
  5 28  1  0  0  0  0
  5 29  1  0  0  0  0
  6  7  1  0  0  0  0
  6 30  1  0  0  0  0
  6 31  1  0  0  0  0
  7  8  1  0  0  0  0
  7 32  1  0  0  0  0
  7 33  1  0  0  0  0
  8  9  1  0  0  0  0
  8 34  1  0  0  0  0
  8 35  1  0  0  0  0
  9 10  1  0  0  0  0
  9 36  1  0  0  0  0
 10 11  2  0  0  0  0
 10 12  1  0  0  0  0
 12 13  1  0  0  0  0
 13 14  1  0  0  0  0
 13 37  1  0  0  0  0
 13 38  1  0  0  0  0
 14 15  1  0  0  0  0
 14 39  1  0  0  0  0
 14 40  1  0  0  0  0
 15 20  2  0  0  0  0
 15 16  1  0  0  0  0
 16 17  2  0  0  0  0
 16 41  1  0  0  0  0
 17 18  1  0  0  0  0
 18 19  1  0  0  0  0
 18 20  1  0  0  0  0
 19 42  1  0  0  0  0
 19 43  1  0  0  0  0
 19 44  1  0  0  0  0
 20 45  1  0  0  0  0
M  CHG  1   4   1
M  CHG  1  12  -1
M  END
> <s_m_source_file>
AV-unprocessed.smi

> <i_m_source_file_index>
657

> <i_lp_mmshare_version>
43012

> <i_f3d_flags>
0

> <s_epik_input>
W0NIM11bQ0hdKFtDSDNdKU4xW0NIMl1bQ0gyXVtDSDJdW0NIMl1bQ0BIXTFDKD1PKVtOSF1bQ0gyXVtDSDJdYzJbY0hdbm4oW0NIM10pW2NIXTI=

> <s_epik_cmdline>
J2VwaWtfcHl0aG9uJywgJy1waCcsICc3LjAnLCAnLXRuJywgJzgnLCAnLW1hJywgJzIwMCcsICctbWV0YWxfYmluZGluZycsICctaW1hZScsICc8aW5maWxlLm1hZT4nLCAnLW9tYWUnLCAnPG91dGZpbGUubWFlPic=

> <r_lp_tautomer_probability>
1

> <r_epik_Ionization_Penalty>
6.1622

> <r_epik_Ionization_Penalty_Charging>
6.16146

> <r_epik_Ionization_Penalty_Neutral>
0.00073675

> <r_epik_State_Penalty>
6.18018

> <r_epik_Charging_Adjusted_Penalty>
12.3416

> <i_epik_Tot_Q>
0

> <i_epik_Tot_abs_Q>
2

> <r_epik_Metal_State_Penalty>
2.12232

> <b_epik_Metal_Only>
1

> <s_lp_Force_Field>
OPLS_2005

> <r_lp_Energy>
13.854

> <b_lp_Chiralities_Consistent>
1

> <s_lp_Variant>
AV-unprocessed.smi:657-9

> <Gold.Version>
5.8.1

> <Gold.Id.Protein>
6NUR|6NUR_protein|mol2

> <Gold.PLP.Fitness>
43.9877

> <Gold.PLP.PLP>
-34.3567

> <Gold.PLP.part.hbond>
-3.0000

> <Gold.PLP.part.metal>
0.0000

> <Gold.PLP.part.buried>
1.3229

> <Gold.PLP.part.nonpolar>
-33.7550

> <Gold.PLP.part.repulsive>
0.6013

> <Gold.PLP.ligand.clash>
0.0000

> <Gold.PLP.ligand.torsion>
0.8733

> <Gold.PLP.Chemscore.Hbond>
2.8321

> <Gold.PLP.Chemscore.CHOScore>
0.8465

> <Gold.PLP.Chemscore.Metal>
0.0000

> <Gold.Chemscore.Hbonds>
donor molecule, donor type, donor heavy atom, donor atom, acceptor molecule, acceptor atom, score
      L1  H     4    46       P1  7948  2.00
      P1  H  7989  7998       L1    11  0.04
      P1  H  8011  8017       L1    11  0.79
      L1  C    16    41       P1  8028  0.71

> <Gold.PLP.Chemscore.Internal.Correction>
0.3417

> <Gold.Rescore>
     Score         DG    S(hbond)    S(metal)    S(lipo)     H(rot)  DE(clash)    DE(int)     intcor
     12.96     -18.84       1.77        0.00      97.98       1.57       1.84       4.04       ----

> <Gold.Chemscore.Fitness>
12.9632

> <Gold.Chemscore.DG>
-18.8376

> <Gold.Chemscore.ZeroCoef>
-5.4800

> <Gold.Chemscore.Hbond>
1.7735

> <Gold.Chemscore.Metal>
0.0000

> <Gold.Chemscore.Lipo>
97.9800

> <Gold.Chemscore.Internal_Hbond>
0.0000

> <Gold.Chemscore.DEClash>
1.8353

> <Gold.Chemscore.DEInternal>
4.0390

> <Gold.Chemscore.Rot>
1.5741

> <Gold.Chemscore.Internal.Correction>
   9.000000E+99

> <Gold.Chemscore.Hbonds>
donor molecule, donor type, donor heavy atom, donor atom, acceptor molecule, acceptor atom, score
      L1  H     4    46       P1  7948  1.00
      P1  H  8011  8017       L1    11  0.73

> <Gold.Chemscore.Hbond.Weighted>
-5.9236

> <Gold.Chemscore.Metal.Weighted>
-0.0000

> <Gold.Chemscore.Lipo.Weighted>
-11.4637

> <Gold.Chemscore.Internal_Hbond.Weighted>
0.0000

> <Gold.Chemscore.DEClash.Weighted>
1.8353

> <Gold.Chemscore.DEInternal.Weighted>
4.0390

> <Gold.Chemscore.Rot.Weighted>
4.0297

> <Gold.Chemscore.Internal.Correction.Weighted>
   9.000000E+99

> <Gold.Protein.RotatedTorsions>
[ 6907 6896 6895 6894 ] final  159.04 input  -60.11 | X-H torsion
[ 7974 7965 7964 7962 ] final -165.44 input  175.53 | X-H torsion
[ 8008 7997 7996 7995 ] final  -37.98 input   59.86 | X-H torsion
[ 10167 10162 10161 10158 ] final  -51.59 input  -65.29 | X-H torsion
[ 10718 10713 10712 10709 ] final  164.14 input   66.30 | X-H torsion
[ 10763 10752 10751 10750 ] final -129.46 input  -60.55 | X-H torsion
[ 11005 11000 10999 10996 ] final   86.96 input  -57.11 | X-H torsion

> <Gold.Protein.ActiveResidues>
 VAL166  LYS551  ARG553  GLY616  TRP617  ASP618  TYR619  PRO620  LYS621  CYS622 
 ASP623  PHE694  ASN695  SER759  ASP760  ASP761  ALA762  ILE779  LEU786  VAL792 
 PHE793  MET794  SER795  GLU796  ALA797  LYS798  CYS799  TRP800  GLU811  SER814 

> <Gold.Protein.RotatedAtoms>
  151.9915  133.3792  159.4145 H   0  0  0  0  0  0  0  0  0  0  0  0  # atno 6907 bound_to 6896
  150.6921  134.3932  159.5095 H   0  0  0  0  0  0  0  0  0  0  0  0  # atno 6908 bound_to 6896
  152.1665  134.8869  160.0588 H   0  0  0  0  0  0  0  0  0  0  0  0  # atno 6909 bound_to 6896
  144.7270  140.2814  143.6235 H   0  0  0  0  0  0  0  0  0  0  0  0  # atno 7974 bound_to 7965
  154.4044  140.1590  156.2625 H   0  0  0  0  0  0  0  0  0  0  0  0  # atno 8008 bound_to 7997
  155.9024  140.3432  155.6014 H   0  0  0  0  0  0  0  0  0  0  0  0  # atno 8009 bound_to 7997
  155.7432  140.0795  157.2226 H   0  0  0  0  0  0  0  0  0  0  0  0  # atno 8010 bound_to 7997
  140.6580  143.2614  151.4526 H   0  0  0  0  0  0  0  0  0  0  0  0  # atno 10167 bound_to 10162
  157.0986  131.0437  151.2507 H   0  0  0  0  0  0  0  0  0  0  0  0  # atno 10718 bound_to 10713
  154.8757  135.3894  154.3924 H   0  0  0  0  0  0  0  0  0  0  0  0  # atno 10763 bound_to 10752
  153.4658  135.7029  153.6028 H   0  0  0  0  0  0  0  0  0  0  0  0  # atno 10764 bound_to 10752
  153.4507  135.3834  155.2250 H   0  0  0  0  0  0  0  0  0  0  0  0  # atno 10765 bound_to 10752
  139.8931  134.8391  156.2794 H   0  0  0  0  0  0  0  0  0  0  0  0  # atno 11005 bound_to 11000
  145.7945  139.1940  143.2083 LP  0  0  0  0  0  0  0  0  0  0  0  0  # atno 17320 bound_to 7965
  146.0728  140.7850  142.9680 LP  0  0  0  0  0  0  0  0  0  0  0  0  # atno 17321 bound_to 7965
  139.5807  144.1716  152.1964 LP  0  0  0  0  0  0  0  0  0  0  0  0  # atno 17342 bound_to 10162
  140.1040  144.5515  150.6969 LP  0  0  0  0  0  0  0  0  0  0  0  0  # atno 17343 bound_to 10162
  157.4660  130.7681  149.7279 LP  0  0  0  0  0  0  0  0  0  0  0  0  # atno 17370 bound_to 10713
  155.9879  130.3963  150.3142 LP  0  0  0  0  0  0  0  0  0  0  0  0  # atno 17371 bound_to 10713
  141.0049  133.7130  156.1018 LP  0  0  0  0  0  0  0  0  0  0  0  0  # atno 17394 bound_to 11000
  140.7448  134.4110  157.5550 LP  0  0  0  0  0  0  0  0  0  0  0  0  # atno 17395 bound_to 11000

$$$$
