AV-unprocessed.smi:1554|AV-procd|sdf|6253|dock2
  -GOLD-   22720 6433D 1   1.00000     0.00000
 Structure written by MMmdl.
 48 50  0  0  0  0  0  0  0  0  2 V2000
  151.9589  144.8292  160.8621 C   0  0  0  0  0  0  0  0  0  0  0  0
  151.8089  143.7146  159.8405 C   0  0  0  0  0  0  0  0  0  0  0  0
  151.0394  143.9616  158.6815 C   0  0  0  0  0  0  0  0  0  0  0  0
  150.9208  142.9226  157.7659 C   0  0  0  0  0  0  0  0  0  0  0  0
  150.2361  142.8473  156.5518 N   0  3  0  0  0  0  0  0  0  0  0  0
  150.4089  141.6106  156.0091 C   0  0  0  0  0  0  0  0  0  0  0  0
  151.2114  140.8984  156.8499 N   0  0  0  0  0  0  0  0  0  0  0  0
  151.7018  139.5105  156.7807 C   0  0  0  0  0  0  0  0  0  0  0  0
  151.1967  138.7229  155.5543 C   0  0  1  0  0  0  0  0  0  0  0  0
  151.8120  139.2377  154.3893 O   0  0  0  0  0  0  0  0  0  0  0  0
  151.5452  137.2247  155.6626 C   0  0  0  0  0  0  0  0  0  0  0  0
  150.5297  136.3854  156.3020 N   0  0  0  0  0  0  0  0  0  0  0  0
  150.9372  134.9845  156.2977 C   0  0  0  0  0  0  0  0  0  0  0  0
  149.8850  134.0772  156.9564 C   0  0  0  0  0  0  0  0  0  0  0  0
  149.6358  134.5262  158.2841 O   0  0  0  0  0  0  0  0  0  0  0  0
  149.1877  135.8776  158.3385 C   0  0  1  0  0  0  0  0  0  0  0  0
  148.9404  136.2457  159.8054 C   0  0  0  0  0  0  0  0  0  0  0  0
  150.2418  136.7884  157.6778 C   0  0  0  0  0  0  0  0  0  0  0  0
  151.5389  141.6734  157.9678 C   0  0  0  0  0  0  0  0  0  0  0  0
  152.2967  141.4118  159.1067 C   0  0  0  0  0  0  0  0  0  0  0  0
  152.4280  142.4551  160.0513 C   0  0  0  0  0  0  0  0  0  0  0  0
  153.2503  142.1995  161.3029 C   0  0  0  0  0  0  0  0  0  0  0  0
  151.4377  145.7334  160.5459 H   0  0  0  0  0  0  0  0  0  0  0  0
  153.0101  145.0829  161.0012 H   0  0  0  0  0  0  0  0  0  0  0  0
  151.5448  144.5254  161.8238 H   0  0  0  0  0  0  0  0  0  0  0  0
  150.5628  144.9168  158.5157 H   0  0  0  0  0  0  0  0  0  0  0  0
  149.9896  141.2636  155.0758 H   0  0  0  0  0  0  0  0  0  0  0  0
  152.7926  139.5351  156.7697 H   0  0  0  0  0  0  0  0  0  0  0  0
  151.3973  139.0128  157.7024 H   0  0  0  0  0  0  0  0  0  0  0  0
  150.1193  138.8599  155.4729 H   0  0  0  0  0  0  0  0  0  0  0  0
  151.7448  138.5870  153.7066 H   0  0  0  0  0  0  0  0  0  0  0  0
  151.7364  136.8512  154.6551 H   0  0  0  0  0  0  0  0  0  0  0  0
  152.4881  137.1138  156.2004 H   0  0  0  0  0  0  0  0  0  0  0  0
  151.1066  134.6509  155.2733 H   0  0  0  0  0  0  0  0  0  0  0  0
  151.8872  134.8732  156.8229 H   0  0  0  0  0  0  0  0  0  0  0  0
  148.9571  134.0804  156.3822 H   0  0  0  0  0  0  0  0  0  0  0  0
  150.2389  133.0467  156.9889 H   0  0  0  0  0  0  0  0  0  0  0  0
  148.2448  135.9585  157.7947 H   0  0  0  0  0  0  0  0  0  0  0  0
  148.5794  137.2703  159.8977 H   0  0  0  0  0  0  0  0  0  0  0  0
  149.8542  136.1578  160.3940 H   0  0  0  0  0  0  0  0  0  0  0  0
  148.1927  135.5890  160.2509 H   0  0  0  0  0  0  0  0  0  0  0  0
  151.1600  136.7692  158.2671 H   0  0  0  0  0  0  0  0  0  0  0  0
  149.8747  137.8132  157.7046 H   0  0  0  0  0  0  0  0  0  0  0  0
  152.7692  140.4539  159.2661 H   0  0  0  0  0  0  0  0  0  0  0  0
  153.6443  141.1828  161.3208 H   0  0  0  0  0  0  0  0  0  0  0  0
  152.6406  142.3356  162.1966 H   0  0  0  0  0  0  0  0  0  0  0  0
  154.0963  142.8855  161.3520 H   0  0  0  0  0  0  0  0  0  0  0  0
  149.6874  143.5821  156.1243 H   0  0  0  0  0  0  0  0  0  0  0  0
  1  2  1  0  0  0  0
  1 23  1  0  0  0  0
  1 24  1  0  0  0  0
  1 25  1  0  0  0  0
  2 21  1  0  0  0  0
  2  3  2  0  0  0  0
  3  4  1  0  0  0  0
  3 26  1  0  0  0  0
  4 19  2  0  0  0  0
  4  5  1  0  0  0  0
  5  6  2  0  0  0  0
  5 48  1  0  0  0  0
  6  7  1  0  0  0  0
  6 27  1  0  0  0  0
  7  8  1  0  0  0  0
  7 19  1  0  0  0  0
  8  9  1  0  0  0  0
  8 28  1  0  0  0  0
  8 29  1  0  0  0  0
  9 10  1  0  0  0  0
  9 11  1  0  0  0  0
  9 30  1  0  0  0  0
 10 31  1  0  0  0  0
 11 12  1  0  0  0  0
 11 32  1  0  0  0  0
 11 33  1  0  0  0  0
 12 18  1  0  0  0  0
 12 13  1  0  0  0  0
 13 14  1  0  0  0  0
 13 34  1  0  0  0  0
 13 35  1  0  0  0  0
 14 15  1  0  0  0  0
 14 36  1  0  0  0  0
 14 37  1  0  0  0  0
 15 16  1  0  0  0  0
 16 17  1  0  0  0  0
 16 18  1  0  0  0  0
 16 38  1  0  0  0  0
 17 39  1  0  0  0  0
 17 40  1  0  0  0  0
 17 41  1  0  0  0  0
 18 42  1  0  0  0  0
 18 43  1  0  0  0  0
 19 20  1  0  0  0  0
 20 21  2  0  0  0  0
 20 44  1  0  0  0  0
 21 22  1  0  0  0  0
 22 45  1  0  0  0  0
 22 46  1  0  0  0  0
 22 47  1  0  0  0  0
M  CHG  1   5   1
M  END
> <s_m_source_file>
AV-unprocessed.smi

> <i_m_source_file_index>
1554

> <i_lp_mmshare_version>
43012

> <i_f3d_flags>
0

> <s_epik_input>
W0NIM11jKFtjSF0xKWMoW0NIM10pW2NIXWMoYzEyKW4oW2NIXW4yKVtDSDJdW0NASF0oW09IXSlbQ0gyXU4zW0NIMl1bQ0gyXU9bQ0BASF0oW0NIM10pW0NIMl0z

> <s_epik_cmdline>
J2VwaWtfcHl0aG9uJywgJy1waCcsICc3LjAnLCAnLXRuJywgJzgnLCAnLW1hJywgJzIwMCcsICctbWV0YWxfYmluZGluZycsICctaW1hZScsICc8aW5maWxlLm1hZT4nLCAnLW9tYWUnLCAnPG91dGZpbGUubWFlPic=

> <r_epik_Ionization_Penalty>
1.42504

> <r_epik_Ionization_Penalty_Charging>
1.21068

> <r_epik_Ionization_Penalty_Neutral>
0.214359

> <r_epik_State_Penalty>
1.46962

> <r_epik_Charging_Adjusted_Penalty>
2.6803

> <i_epik_Tot_Q>
1

> <i_epik_Tot_abs_Q>
1

> <r_epik_Metal_State_Penalty>
5.48754

> <b_epik_Metal_Only>
0

> <s_lp_Force_Field>
OPLS_2005

> <r_lp_Energy>
36.3239

> <b_lp_Chiralities_Consistent>
1

> <s_lp_Variant>
AV-unprocessed.smi:1554-14

> <Gold.Version>
5.8.1

> <Gold.Id.Protein>
6NUR|6NUR_protein|mol2

> <Gold.PLP.Fitness>
53.3736

> <Gold.PLP.PLP>
-42.4341

> <Gold.PLP.part.hbond>
-2.9027

> <Gold.PLP.part.metal>
0.0000

> <Gold.PLP.part.buried>
-5.6414

> <Gold.PLP.part.nonpolar>
-34.1369

> <Gold.PLP.part.repulsive>
0.1040

> <Gold.PLP.ligand.clash>
0.0000

> <Gold.PLP.ligand.torsion>
0.4531

> <Gold.PLP.Chemscore.Hbond>
3.9360

> <Gold.PLP.Chemscore.CHOScore>
0.0000

> <Gold.PLP.Chemscore.Metal>
0.0000

> <Gold.Chemscore.Hbonds>
donor molecule, donor type, donor heavy atom, donor atom, acceptor molecule, acceptor atom, score
      L1  H     5    48       P1  8028  1.69
      P1  H  6896  6909       L1    15  1.00
      P1  H  7989  7998       L1    10  0.96

> <Gold.PLP.Chemscore.Internal.Correction>
0.0377

> <Gold.Rescore>
     Score         DG    S(hbond)    S(metal)    S(lipo)     H(rot)  DE(clash)    DE(int)     intcor
     21.11     -22.81       2.70        0.00     115.62       2.04       1.22       0.48       ----

> <Gold.Chemscore.Fitness>
21.1075

> <Gold.Chemscore.DG>
-22.8075

> <Gold.Chemscore.ZeroCoef>
-5.4800

> <Gold.Chemscore.Hbond>
2.7035

> <Gold.Chemscore.Metal>
0.0000

> <Gold.Chemscore.Lipo>
115.6176

> <Gold.Chemscore.Internal_Hbond>
0.0000

> <Gold.Chemscore.DEClash>
1.2236

> <Gold.Chemscore.DEInternal>
0.4763

> <Gold.Chemscore.Rot>
2.0427

> <Gold.Chemscore.Internal.Correction>
   9.000000E+99

> <Gold.Chemscore.Hbonds>
donor molecule, donor type, donor heavy atom, donor atom, acceptor molecule, acceptor atom, score
      L1  H     5    48       P1  8028  0.82
      P1  H  6896  6909       L1    15  0.78
      P1  H  7989  7998       L1    10  0.41

> <Gold.Chemscore.Hbond.Weighted>
-9.0296

> <Gold.Chemscore.Metal.Weighted>
-0.0000

> <Gold.Chemscore.Lipo.Weighted>
-13.5273

> <Gold.Chemscore.Internal_Hbond.Weighted>
0.0000

> <Gold.Chemscore.DEClash.Weighted>
1.2236

> <Gold.Chemscore.DEInternal.Weighted>
0.4763

> <Gold.Chemscore.Rot.Weighted>
5.2294

> <Gold.Chemscore.Internal.Correction.Weighted>
   9.000000E+99

> <Gold.Protein.RotatedTorsions>
[ 6907 6896 6895 6894 ] final   11.77 input  -60.11 | X-H torsion
[ 7974 7965 7964 7962 ] final  -18.07 input  175.53 | X-H torsion
[ 8008 7997 7996 7995 ] final   16.01 input   59.86 | X-H torsion
[ 10167 10162 10161 10158 ] final -120.09 input  -65.29 | X-H torsion
[ 10718 10713 10712 10709 ] final    4.10 input   66.30 | X-H torsion
[ 10763 10752 10751 10750 ] final   -6.35 input  -60.55 | X-H torsion
[ 11005 11000 10999 10996 ] final  -47.16 input  -57.11 | X-H torsion

> <Gold.Protein.ActiveResidues>
 VAL166  LYS551  ARG553  GLY616  TRP617  ASP618  TYR619  PRO620  LYS621  CYS622 
 ASP623  PHE694  ASN695  SER759  ASP760  ASP761  ALA762  ILE779  LEU786  VAL792 
 PHE793  MET794  SER795  GLU796  ALA797  LYS798  CYS799  TRP800  GLU811  SER814 

> <Gold.Protein.RotatedAtoms>
  151.7596  135.0813  160.0343 H   0  0  0  0  0  0  0  0  0  0  0  0  # atno 6907 bound_to 6896
  152.3362  133.6010  159.5852 H   0  0  0  0  0  0  0  0  0  0  0  0  # atno 6908 bound_to 6896
  150.7452  133.9708  159.3587 H   0  0  0  0  0  0  0  0  0  0  0  0  # atno 6909 bound_to 6896
  146.1910  140.3869  142.8458 H   0  0  0  0  0  0  0  0  0  0  0  0  # atno 7974 bound_to 7965
  154.8708  140.2958  155.5482 H   0  0  0  0  0  0  0  0  0  0  0  0  # atno 8008 bound_to 7997
  156.3021  140.2460  156.3630 H   0  0  0  0  0  0  0  0  0  0  0  0  # atno 8009 bound_to 7997
  154.8819  140.0397  157.1776 H   0  0  0  0  0  0  0  0  0  0  0  0  # atno 8010 bound_to 7997
  140.0396  143.5166  152.2136 H   0  0  0  0  0  0  0  0  0  0  0  0  # atno 10167 bound_to 10162
  156.8877  130.5676  149.5651 H   0  0  0  0  0  0  0  0  0  0  0  0  # atno 10718 bound_to 10713
  153.4112  135.7007  153.6358 H   0  0  0  0  0  0  0  0  0  0  0  0  # atno 10763 bound_to 10752
  153.4851  135.3685  155.2463 H   0  0  0  0  0  0  0  0  0  0  0  0  # atno 10764 bound_to 10752
  154.8717  135.4075  154.3464 H   0  0  0  0  0  0  0  0  0  0  0  0  # atno 10765 bound_to 10752
  141.0624  133.6705  156.3258 H   0  0  0  0  0  0  0  0  0  0  0  0  # atno 11005 bound_to 11000
  144.8487  140.6968  143.6182 LP  0  0  0  0  0  0  0  0  0  0  0  0  # atno 17320 bound_to 7965
  145.3792  139.1640  143.4289 LP  0  0  0  0  0  0  0  0  0  0  0  0  # atno 17321 bound_to 7965
  139.6022  144.7586  151.3145 LP  0  0  0  0  0  0  0  0  0  0  0  0  # atno 17342 bound_to 10162
  140.7266  143.6986  150.7863 LP  0  0  0  0  0  0  0  0  0  0  0  0  # atno 17343 bound_to 10162
  156.0645  130.5691  150.9260 LP  0  0  0  0  0  0  0  0  0  0  0  0  # atno 17370 bound_to 10713
  157.6103  131.0937  150.8807 LP  0  0  0  0  0  0  0  0  0  0  0  0  # atno 17371 bound_to 10713
  140.5842  134.5715  157.5486 LP  0  0  0  0  0  0  0  0  0  0  0  0  # atno 17394 bound_to 11000
  139.9444  134.7728  156.0597 LP  0  0  0  0  0  0  0  0  0  0  0  0  # atno 17395 bound_to 11000

$$$$
