AV-unprocessed.smi:2357|AV-procd|sdf|9402|dock1
  -GOLD-   2272013 33D 1   1.00000     0.00000
 Structure written by MMmdl.
 37 38  0  0  0  0  0  0  0  0  1 V2000
  151.1675  140.6379  156.1361 C   0  0  0  0  0  0  0  0  0  0  0  0
  151.0083  139.1613  155.8243 C   0  0  0  0  0  0  0  0  0  0  0  0
  150.0298  138.7275  154.8489 C   0  0  0  0  0  0  0  0  0  0  0  0
  149.9022  137.4187  154.5851 C   0  0  0  0  0  0  0  0  0  0  0  0
  150.6919  136.4492  155.2280 N   0  0  0  0  0  0  0  0  0  0  0  0
  150.4642  135.0451  154.8456 C   0  0  0  0  0  0  0  0  0  0  0  0
  149.0274  134.5642  155.0972 C   0  0  0  0  0  0  0  0  0  0  0  0
  148.7271  133.9654  156.1314 O   0  0  0  0  0  0  0  0  0  0  0  0
  148.1425  134.8374  154.1267 N   0  0  0  0  0  0  0  0  0  0  0  0
  146.7318  134.4676  154.1486 C   0  0  0  0  0  0  0  0  0  0  0  0
  146.2215  134.0764  152.7514 C   0  0  1  0  0  0  0  0  0  0  0  0
  146.9460  132.8785  152.1455 C   0  0  0  0  0  0  0  0  0  0  0  0
  145.9510  132.4218  151.1021 C   0  0  0  0  0  0  0  0  0  0  0  0
  144.6080  132.6992  151.7788 C   0  0  0  0  0  0  0  0  0  0  0  0
  144.8631  133.6549  152.8065 O   0  0  0  0  0  0  0  0  0  0  0  0
  151.6385  136.7858  156.1553 C   0  0  0  0  0  0  0  0  0  0  0  0
  152.3332  135.9322  156.7101 O   0  0  0  0  0  0  0  0  0  0  0  0
  151.7690  138.2241  156.4392 C   0  0  0  0  0  0  0  0  0  0  0  0
  152.7552  138.5758  157.4095 C   0  0  0  0  0  0  0  0  0  0  0  0
  153.5556  138.8829  158.1876 N   0  0  0  0  0  0  0  0  0  0  0  0
  150.4635  141.2404  155.5615 H   0  0  0  0  0  0  0  0  0  0  0  0
  152.1764  140.9718  155.8917 H   0  0  0  0  0  0  0  0  0  0  0  0
  150.9878  140.8267  157.1950 H   0  0  0  0  0  0  0  0  0  0  0  0
  149.4098  139.4461  154.3329 H   0  0  0  0  0  0  0  0  0  0  0  0
  149.1965  137.0329  153.8636 H   0  0  0  0  0  0  0  0  0  0  0  0
  150.7066  134.8882  153.7930 H   0  0  0  0  0  0  0  0  0  0  0  0
  151.1483  134.3949  155.3932 H   0  0  0  0  0  0  0  0  0  0  0  0
  148.4701  135.3311  153.3091 H   0  0  0  0  0  0  0  0  0  0  0  0
  146.5795  133.6455  154.8498 H   0  0  0  0  0  0  0  0  0  0  0  0
  146.1604  135.3126  154.5336 H   0  0  0  0  0  0  0  0  0  0  0  0
  146.2923  134.9202  152.0627 H   0  0  0  0  0  0  0  0  0  0  0  0
  147.9187  133.1367  151.7256 H   0  0  0  0  0  0  0  0  0  0  0  0
  147.0902  132.0971  152.8930 H   0  0  0  0  0  0  0  0  0  0  0  0
  146.0497  133.0334  150.2041 H   0  0  0  0  0  0  0  0  0  0  0  0
  146.0780  131.3769  150.8172 H   0  0  0  0  0  0  0  0  0  0  0  0
  143.8698  133.0757  151.0703 H   0  0  0  0  0  0  0  0  0  0  0  0
  144.2072  131.7943  152.2362 H   0  0  0  0  0  0  0  0  0  0  0  0
  1  2  1  0  0  0  0
  1 21  1  0  0  0  0
  1 22  1  0  0  0  0
  1 23  1  0  0  0  0
  2 18  2  0  0  0  0
  2  3  1  0  0  0  0
  3  4  2  0  0  0  0
  3 24  1  0  0  0  0
  4  5  1  0  0  0  0
  4 25  1  0  0  0  0
  5  6  1  0  0  0  0
  5 16  1  0  0  0  0
  6  7  1  0  0  0  0
  6 26  1  0  0  0  0
  6 27  1  0  0  0  0
  7  8  2  0  0  0  0
  7  9  1  0  0  0  0
  9 10  1  0  0  0  0
  9 28  1  0  0  0  0
 10 11  1  0  0  0  0
 10 29  1  0  0  0  0
 10 30  1  0  0  0  0
 11 15  1  0  0  0  0
 11 12  1  0  0  0  0
 11 31  1  0  0  0  0
 12 13  1  0  0  0  0
 12 32  1  0  0  0  0
 12 33  1  0  0  0  0
 13 14  1  0  0  0  0
 13 34  1  0  0  0  0
 13 35  1  0  0  0  0
 14 15  1  0  0  0  0
 14 36  1  0  0  0  0
 14 37  1  0  0  0  0
 16 17  2  0  0  0  0
 16 18  1  0  0  0  0
 18 19  1  0  0  0  0
 19 20  3  0  0  0  0
M  END
> <s_m_source_file>
AV-unprocessed.smi

> <i_m_source_file_index>
2357

> <i_lp_mmshare_version>
43012

> <i_f3d_flags>
0

> <s_epik_input>
W0NIM11jMVtjSF1bY0hdbihjKD1PKWMxQyNOKVtDSDJdQyg9TylbTkhdW0NIMl1bQ0BASF0yW0NIMl1bQ0gyXVtDSDJdTzI=

> <s_epik_cmdline>
J2VwaWtfcHl0aG9uJywgJy1waCcsICc3LjAnLCAnLXRuJywgJzgnLCAnLW1hJywgJzIwMCcsICctbWV0YWxfYmluZGluZycsICctaW1hZScsICc8aW5maWxlLm1hZT4nLCAnLW9tYWUnLCAnPG91dGZpbGUubWFlPic=

> <r_lp_tautomer_probability>
1

> <r_epik_Ionization_Penalty>
2.71597e-08

> <r_epik_Ionization_Penalty_Charging>
3.00645e-10

> <r_epik_Ionization_Penalty_Neutral>
2.6859e-08

> <r_epik_State_Penalty>
-0

> <r_epik_Charging_Adjusted_Penalty>
3.00645e-10

> <i_epik_Tot_Q>
0

> <i_epik_Tot_abs_Q>
0

> <r_epik_Metal_State_Penalty>
-0

> <b_epik_Metal_Only>
0

> <s_lp_Force_Field>
OPLS_2005

> <r_lp_Energy>
27.3149

> <b_lp_Chiralities_Consistent>
1

> <s_lp_Variant>
AV-unprocessed.smi:2357-2

> <Gold.Version>
5.8.1

> <Gold.Id.Protein>
6NUR|6NUR_protein|mol2

> <Gold.PLP.Fitness>
38.7182

> <Gold.PLP.PLP>
-27.7257

> <Gold.PLP.part.hbond>
-3.0000

> <Gold.PLP.part.metal>
0.0000

> <Gold.PLP.part.buried>
-1.5154

> <Gold.PLP.part.nonpolar>
-23.3580

> <Gold.PLP.part.repulsive>
0.0965

> <Gold.PLP.ligand.clash>
0.0000

> <Gold.PLP.ligand.torsion>
0.5151

> <Gold.PLP.Chemscore.Hbond>
3.0000

> <Gold.PLP.Chemscore.CHOScore>
1.0000

> <Gold.PLP.Chemscore.Metal>
0.0000

> <Gold.Chemscore.Hbonds>
donor molecule, donor type, donor heavy atom, donor atom, acceptor molecule, acceptor atom, score
      L1  H     9    28       P1  7948  1.00
      P1  H  7997  8010       L1    20  1.00
      P1  H 10752 10763       L1    17  0.85
      L1  C     4    25       P1  7948  1.00

> <Gold.PLP.Chemscore.Internal.Correction>
0.0227

> <Gold.Rescore>
     Score         DG    S(hbond)    S(metal)    S(lipo)     H(rot)  DE(clash)    DE(int)     intcor
     16.71     -17.59       2.78        0.00      62.50       1.76       0.42       0.46       ----

> <Gold.Chemscore.Fitness>
16.7144

> <Gold.Chemscore.DG>
-17.5906

> <Gold.Chemscore.ZeroCoef>
-5.4800

> <Gold.Chemscore.Hbond>
2.7838

> <Gold.Chemscore.Metal>
0.0000

> <Gold.Chemscore.Lipo>
62.4992

> <Gold.Chemscore.Internal_Hbond>
0.0000

> <Gold.Chemscore.DEClash>
0.4180

> <Gold.Chemscore.DEInternal>
0.4582

> <Gold.Chemscore.Rot>
1.7577

> <Gold.Chemscore.Internal.Correction>
   9.000000E+99

> <Gold.Chemscore.Hbonds>
donor molecule, donor type, donor heavy atom, donor atom, acceptor molecule, acceptor atom, score
      L1  H     9    28       P1  7948  0.96
      P1  H  7997  8010       L1    20  0.39
      P1  H 10752 10763       L1    17  0.15

> <Gold.Chemscore.Hbond.Weighted>
-9.2980

> <Gold.Chemscore.Metal.Weighted>
-0.0000

> <Gold.Chemscore.Lipo.Weighted>
-7.3124

> <Gold.Chemscore.Internal_Hbond.Weighted>
0.0000

> <Gold.Chemscore.DEClash.Weighted>
0.4180

> <Gold.Chemscore.DEInternal.Weighted>
0.4582

> <Gold.Chemscore.Rot.Weighted>
4.4998

> <Gold.Chemscore.Internal.Correction.Weighted>
   9.000000E+99

> <Gold.Protein.RotatedTorsions>
[ 6907 6896 6895 6894 ] final -101.11 input  -60.11 | X-H torsion
[ 7974 7965 7964 7962 ] final  109.20 input  175.53 | X-H torsion
[ 8008 7997 7996 7995 ] final   22.26 input   59.86 | X-H torsion
[ 10167 10162 10161 10158 ] final  -52.51 input  -65.29 | X-H torsion
[ 10718 10713 10712 10709 ] final  122.55 input   66.30 | X-H torsion
[ 10763 10752 10751 10750 ] final  102.19 input  -60.55 | X-H torsion
[ 11005 11000 10999 10996 ] final   46.46 input  -57.11 | X-H torsion

> <Gold.Protein.ActiveResidues>
 VAL166  LYS551  ARG553  GLY616  TRP617  ASP618  TYR619  PRO620  LYS621  CYS622 
 ASP623  PHE694  ASN695  SER759  ASP760  ASP761  ALA762  ILE779  LEU786  VAL792 
 PHE793  MET794  SER795  GLU796  ALA797  LYS798  CYS799  TRP800  GLU811  SER814 

> <Gold.Protein.RotatedAtoms>
  150.7141  134.0785  159.3889 H   0  0  0  0  0  0  0  0  0  0  0  0  # atno 6907 bound_to 6896
  151.8768  135.0466  160.0494 H   0  0  0  0  0  0  0  0  0  0  0  0  # atno 6908 bound_to 6896
  152.2599  133.5253  159.5412 H   0  0  0  0  0  0  0  0  0  0  0  0  # atno 6909 bound_to 6896
  145.2708  139.2667  143.3967 H   0  0  0  0  0  0  0  0  0  0  0  0  # atno 7974 bound_to 7965
  154.9631  140.3080  155.5022 H   0  0  0  0  0  0  0  0  0  0  0  0  # atno 8008 bound_to 7997
  156.2975  140.2298  156.4656 H   0  0  0  0  0  0  0  0  0  0  0  0  # atno 8009 bound_to 7997
  154.7947  140.0437  157.1216 H   0  0  0  0  0  0  0  0  0  0  0  0  # atno 8010 bound_to 7997
  140.6533  143.2581  151.4659 H   0  0  0  0  0  0  0  0  0  0  0  0  # atno 10167 bound_to 10162
  157.5733  131.1081  150.8326 H   0  0  0  0  0  0  0  0  0  0  0  0  # atno 10718 bound_to 10713
  153.3364  135.4019  155.1537 H   0  0  0  0  0  0  0  0  0  0  0  0  # atno 10763 bound_to 10752
  154.8634  135.3623  154.5403 H   0  0  0  0  0  0  0  0  0  0  0  0  # atno 10764 bound_to 10752
  153.5845  135.7075  153.5508 H   0  0  0  0  0  0  0  0  0  0  0  0  # atno 10765 bound_to 10752
  140.1367  134.4635  155.8480 H   0  0  0  0  0  0  0  0  0  0  0  0  # atno 11005 bound_to 11000
  146.3247  140.3150  142.8629 LP  0  0  0  0  0  0  0  0  0  0  0  0  # atno 17320 bound_to 7965
  144.9336  140.8002  143.5674 LP  0  0  0  0  0  0  0  0  0  0  0  0  # atno 17321 bound_to 7965
  139.5752  144.1837  152.1892 LP  0  0  0  0  0  0  0  0  0  0  0  0  # atno 17342 bound_to 10162
  140.1145  144.5428  150.6903 LP  0  0  0  0  0  0  0  0  0  0  0  0  # atno 17343 bound_to 10162
  156.8791  130.5173  149.5292 LP  0  0  0  0  0  0  0  0  0  0  0  0  # atno 17370 bound_to 10713
  156.0778  130.5796  150.9507 LP  0  0  0  0  0  0  0  0  0  0  0  0  # atno 17371 bound_to 10713
  141.2179  133.6817  156.7171 LP  0  0  0  0  0  0  0  0  0  0  0  0  # atno 17394 bound_to 11000
  140.2773  134.8344  157.3902 LP  0  0  0  0  0  0  0  0  0  0  0  0  # atno 17395 bound_to 11000

$$$$
