AV-unprocessed.smi:389|AV-procd|sdf|2477|dock10
  -GOLD-   2262022413D 1   1.00000     0.00000
 Structure written by MMmdl.
 33 33  0  0  0  0  0  0  0  0  2 V2000
  153.0795  141.8743  159.4972 C   0  0  0  0  0  0  0  0  0  0  0  0
  151.9039  142.6067  158.8285 C   0  0  0  0  0  0  0  0  0  0  0  0
  151.6998  142.0928  157.3949 C   0  0  0  0  0  0  0  0  0  0  0  0
  152.0799  144.1388  158.8397 C   0  0  0  0  0  0  0  0  0  0  0  0
  151.7641  144.7957  160.1970 C   0  0  0  0  0  0  0  0  0  0  0  0
  150.3579  145.1664  160.3021 N   0  0  0  0  0  0  0  0  0  0  0  0
  149.4346  144.4982  161.0099 C   0  0  0  0  0  0  0  0  0  0  0  0
  149.6843  143.4700  161.6412 O   0  0  0  0  0  0  0  0  0  0  0  0
  148.0115  145.0724  160.9684 C   0  0  0  0  0  0  0  0  0  0  0  0
  146.9675  144.0351  160.9480 N   0  0  0  0  0  0  0  0  0  0  0  0
  146.2281  143.8302  162.1262 C   0  0  0  0  0  0  0  0  0  0  0  0
  145.2503  142.9074  162.2000 C   0  0  0  0  0  0  0  0  0  0  0  0
  144.9649  142.1079  161.0150 C   0  0  0  0  0  0  0  0  0  0  0  0
  144.0790  141.2569  161.0657 O   0  0  0  0  0  0  0  0  0  0  0  0
  145.7062  142.3481  159.8939 N   0  5  0  0  0  0  0  0  0  0  0  0
  146.6953  143.2931  159.8323 C   0  0  0  0  0  0  0  0  0  0  0  0
  147.3493  143.4969  158.8087 O   0  0  0  0  0  0  0  0  0  0  0  0
  154.0237  142.1099  159.0051 H   0  0  0  0  0  0  0  0  0  0  0  0
  152.9440  140.7933  159.4520 H   0  0  0  0  0  0  0  0  0  0  0  0
  153.1748  142.1397  160.5496 H   0  0  0  0  0  0  0  0  0  0  0  0
  150.9981  142.3677  159.3872 H   0  0  0  0  0  0  0  0  0  0  0  0
  152.5715  142.2968  156.7722 H   0  0  0  0  0  0  0  0  0  0  0  0
  150.8371  142.5662  156.9252 H   0  0  0  0  0  0  0  0  0  0  0  0
  151.5273  141.0163  157.3838 H   0  0  0  0  0  0  0  0  0  0  0  0
  153.0950  144.3953  158.5330 H   0  0  0  0  0  0  0  0  0  0  0  0
  151.4214  144.5693  158.0840 H   0  0  0  0  0  0  0  0  0  0  0  0
  152.0358  144.1307  161.0186 H   0  0  0  0  0  0  0  0  0  0  0  0
  152.3498  145.7053  160.3253 H   0  0  0  0  0  0  0  0  0  0  0  0
  150.0666  145.9998  159.8120 H   0  0  0  0  0  0  0  0  0  0  0  0
  147.8620  145.7397  161.8194 H   0  0  0  0  0  0  0  0  0  0  0  0
  147.9282  145.7100  160.0873 H   0  0  0  0  0  0  0  0  0  0  0  0
  146.4975  144.4688  162.9547 H   0  0  0  0  0  0  0  0  0  0  0  0
  144.6887  142.7654  163.1117 H   0  0  0  0  0  0  0  0  0  0  0  0
  1  2  1  0  0  0  0
  1 18  1  0  0  0  0
  1 19  1  0  0  0  0
  1 20  1  0  0  0  0
  2  3  1  0  0  0  0
  2  4  1  0  0  0  0
  2 21  1  0  0  0  0
  3 22  1  0  0  0  0
  3 23  1  0  0  0  0
  3 24  1  0  0  0  0
  4  5  1  0  0  0  0
  4 25  1  0  0  0  0
  4 26  1  0  0  0  0
  5  6  1  0  0  0  0
  5 27  1  0  0  0  0
  5 28  1  0  0  0  0
  6  7  1  0  0  0  0
  6 29  1  0  0  0  0
  7  8  2  0  0  0  0
  7  9  1  0  0  0  0
  9 10  1  0  0  0  0
  9 30  1  0  0  0  0
  9 31  1  0  0  0  0
 10 16  1  0  0  0  0
 10 11  1  0  0  0  0
 11 12  2  0  0  0  0
 11 32  1  0  0  0  0
 12 13  1  0  0  0  0
 12 33  1  0  0  0  0
 13 14  2  0  0  0  0
 13 15  1  0  0  0  0
 15 16  1  0  0  0  0
 16 17  2  0  0  0  0
M  CHG  1  15  -1
M  END
> <s_m_source_file>
AV-unprocessed.smi

> <i_m_source_file_index>
389

> <i_lp_mmshare_version>
43012

> <i_f3d_flags>
0

> <s_epik_input>
W0NIM11bQ0hdKFtDSDNdKVtDSDJdW0NIMl1bTkhdQyg9TylbQ0gyXW4xW2NIXVtjSF1jKD1PKVtuSF1jMT1P

> <s_epik_cmdline>
J2VwaWtfcHl0aG9uJywgJy1waCcsICc3LjAnLCAnLXRuJywgJzgnLCAnLW1hJywgJzIwMCcsICctbWV0YWxfYmluZGluZycsICctaW1hZScsICc8aW5maWxlLm1hZT4nLCAnLW9tYWUnLCAnPG91dGZpbGUubWFlPic=

> <r_lp_tautomer_probability>
0.999537

> <r_epik_Ionization_Penalty>
3.12283

> <r_epik_Ionization_Penalty_Charging>
2.83566e-08

> <r_epik_Ionization_Penalty_Neutral>
3.12283

> <r_epik_State_Penalty>
3.12192

> <r_epik_Charging_Adjusted_Penalty>
3.12192

> <i_epik_Tot_Q>
-1

> <i_epik_Tot_abs_Q>
1

> <r_epik_Metal_State_Penalty>
0.463748

> <b_epik_Metal_Only>
1

> <s_lp_Force_Field>
OPLS_2005

> <r_lp_Energy>
12.9702

> <b_lp_Chiralities_Consistent>
1

> <s_lp_Variant>
AV-unprocessed.smi:389-2

> <Gold.Version>
5.8.1

> <Gold.Id.Protein>
6NUR|6NUR_protein|mol2

> <Gold.PLP.Fitness>
39.7665

> <Gold.PLP.PLP>
-34.2034

> <Gold.PLP.part.hbond>
-4.9565

> <Gold.PLP.part.metal>
0.0000

> <Gold.PLP.part.buried>
-2.7272

> <Gold.PLP.part.nonpolar>
-28.1850

> <Gold.PLP.part.repulsive>
0.6268

> <Gold.PLP.ligand.clash>
0.0000

> <Gold.PLP.ligand.torsion>
0.9751

> <Gold.PLP.Chemscore.Hbond>
2.5008

> <Gold.PLP.Chemscore.CHOScore>
0.0000

> <Gold.PLP.Chemscore.Metal>
0.0000

> <Gold.Chemscore.Hbonds>
donor molecule, donor type, donor heavy atom, donor atom, acceptor molecule, acceptor atom, score
      P1  H  6934  6946       L1    15  0.14

> <Gold.PLP.Chemscore.Internal.Correction>
0.0110

> <Gold.Rescore>
     Score         DG    S(hbond)    S(metal)    S(lipo)     H(rot)  DE(clash)    DE(int)     intcor
     11.02     -13.19       1.69        0.00      65.39       2.18       1.17       1.00       ----

> <Gold.Chemscore.Fitness>
11.0184

> <Gold.Chemscore.DG>
-13.1927

> <Gold.Chemscore.ZeroCoef>
-5.4800

> <Gold.Chemscore.Hbond>
1.6922

> <Gold.Chemscore.Metal>
0.0000

> <Gold.Chemscore.Lipo>
65.3860

> <Gold.Chemscore.Internal_Hbond>
0.0000

> <Gold.Chemscore.DEClash>
1.1730

> <Gold.Chemscore.DEInternal>
1.0013

> <Gold.Chemscore.Rot>
2.1834

> <Gold.Chemscore.Internal.Correction>
   9.000000E+99

> <Gold.Chemscore.Hbonds>
donor molecule, donor type, donor heavy atom, donor atom, acceptor molecule, acceptor atom, score
      P1  H  6933  6944       L1     8  0.03

> <Gold.Chemscore.Hbond.Weighted>
-5.6520

> <Gold.Chemscore.Metal.Weighted>
-0.0000

> <Gold.Chemscore.Lipo.Weighted>
-7.6502

> <Gold.Chemscore.Internal_Hbond.Weighted>
0.0000

> <Gold.Chemscore.DEClash.Weighted>
1.1730

> <Gold.Chemscore.DEInternal.Weighted>
1.0013

> <Gold.Chemscore.Rot.Weighted>
5.5895

> <Gold.Chemscore.Internal.Correction.Weighted>
   9.000000E+99

> <Gold.Protein.RotatedTorsions>
[ 6907 6896 6895 6894 ] final -117.07 input  -60.11 | X-H torsion
[ 7974 7965 7964 7962 ] final   49.41 input  175.53 | X-H torsion
[ 8008 7997 7996 7995 ] final  -39.86 input   59.86 | X-H torsion
[ 10167 10162 10161 10158 ] final  -29.16 input  -65.29 | X-H torsion
[ 10718 10713 10712 10709 ] final  165.95 input   66.30 | X-H torsion
[ 10763 10752 10751 10750 ] final   65.63 input  -60.55 | X-H torsion
[ 11005 11000 10999 10996 ] final  109.37 input  -57.11 | X-H torsion

> <Gold.Protein.ActiveResidues>
 VAL166  LYS551  ARG553  GLY616  TRP617  ASP618  TYR619  PRO620  LYS621  CYS622 
 ASP623  PHE694  ASN695  SER759  ASP760  ASP761  ALA762  ILE779  LEU786  VAL792 
 PHE793  MET794  SER795  GLU796  ALA797  LYS798  CYS799  TRP800  GLU811  SER814 

> <Gold.Protein.RotatedAtoms>
  150.8107  133.8428  159.3183 H   0  0  0  0  0  0  0  0  0  0  0  0  # atno 6907 bound_to 6896
  151.6214  135.1030  160.0112 H   0  0  0  0  0  0  0  0  0  0  0  0  # atno 6908 bound_to 6896
  152.4198  133.7058  159.6507 H   0  0  0  0  0  0  0  0  0  0  0  0  # atno 6909 bound_to 6896
  146.0112  139.4545  142.9955 H   0  0  0  0  0  0  0  0  0  0  0  0  # atno 7974 bound_to 7965
  154.4018  140.1540  156.2933 H   0  0  0  0  0  0  0  0  0  0  0  0  # atno 8008 bound_to 7997
  155.8766  140.3446  155.5836 H   0  0  0  0  0  0  0  0  0  0  0  0  # atno 8009 bound_to 7997
  155.7714  140.0831  157.2096 H   0  0  0  0  0  0  0  0  0  0  0  0  # atno 8010 bound_to 7997
  140.7263  143.3951  151.1362 H   0  0  0  0  0  0  0  0  0  0  0  0  # atno 10167 bound_to 10162
  157.0729  131.0371  151.2605 H   0  0  0  0  0  0  0  0  0  0  0  0  # atno 10718 bound_to 10713
  153.0104  135.5350  154.6697 H   0  0  0  0  0  0  0  0  0  0  0  0  # atno 10763 bound_to 10752
  154.5884  135.2856  155.0663 H   0  0  0  0  0  0  0  0  0  0  0  0  # atno 10764 bound_to 10752
  154.1765  135.6523  153.5075 H   0  0  0  0  0  0  0  0  0  0  0  0  # atno 10765 bound_to 10752
  139.8861  134.9456  156.6114 H   0  0  0  0  0  0  0  0  0  0  0  0  # atno 11005 bound_to 11000
  145.7339  141.0032  143.1337 LP  0  0  0  0  0  0  0  0  0  0  0  0  # atno 17320 bound_to 7965
  144.6954  139.9018  143.7459 LP  0  0  0  0  0  0  0  0  0  0  0  0  # atno 17321 bound_to 7965
  139.7562  143.8704  152.3089 LP  0  0  0  0  0  0  0  0  0  0  0  0  # atno 17342 bound_to 10162
  139.8574  144.7134  150.9141 LP  0  0  0  0  0  0  0  0  0  0  0  0  # atno 17343 bound_to 10162
  157.4863  130.7795  149.7463 LP  0  0  0  0  0  0  0  0  0  0  0  0  # atno 17370 bound_to 10713
  155.9945  130.3917  150.2855 LP  0  0  0  0  0  0  0  0  0  0  0  0  # atno 17371 bound_to 10713
  140.7808  133.8661  155.8566 LP  0  0  0  0  0  0  0  0  0  0  0  0  # atno 17394 bound_to 11000
  140.9762  134.1466  157.4534 LP  0  0  0  0  0  0  0  0  0  0  0  0  # atno 17395 bound_to 11000

$$$$
