AV-unprocessed.smi:1706|AV-procd|sdf|6886|dock9
  -GOLD-   22720 8 93D 1   1.00000     0.00000
 Structure written by MMmdl.
 35 36  0  0  0  0  0  0  0  0  1 V2000
  145.8512  132.7032  151.1391 C   0  0  0  0  0  0  0  0  0  0  0  0
  146.8271  132.4923  152.1866 N   0  0  0  0  0  0  0  0  0  0  0  0
  147.7017  133.4010  152.7417 C   0  0  0  0  0  0  0  0  0  0  0  0
  148.4379  132.7389  153.6836 C   0  0  0  0  0  0  0  0  0  0  0  0
  149.5439  133.2682  154.5583 C   0  0  0  0  0  0  0  0  0  0  0  0
  149.0530  134.3627  155.5206 C   0  0  0  0  0  0  0  0  0  0  0  0
  149.4128  135.6896  155.0315 N   0  0  0  0  0  0  0  0  0  0  0  0
  150.5468  136.3502  155.3156 C   0  0  0  0  0  0  0  0  0  0  0  0
  151.3961  135.8975  156.0841 O   0  0  0  0  0  0  0  0  0  0  0  0
  150.6947  137.5244  154.6531 N   0  0  0  0  0  0  0  0  0  0  0  0
  149.6200  138.4040  154.1686 C   0  0  0  0  0  0  0  0  0  0  0  0
  149.6464  139.7014  154.9965 C   0  0  0  0  0  0  0  0  0  0  0  0
  150.9261  140.3189  154.8804 O   0  0  0  0  0  0  0  0  0  0  0  0
  151.9937  139.4795  155.3140 C   0  0  0  0  0  0  0  0  0  0  0  0
  151.9958  138.1789  154.4908 C   0  0  0  0  0  0  0  0  0  0  0  0
  147.9243  131.4115  153.6312 C   0  0  0  0  0  0  0  0  0  0  0  0
  146.9622  131.2672  152.7345 N   0  0  0  0  0  0  0  0  0  0  0  0
  145.7040  133.7710  150.9755 H   0  0  0  0  0  0  0  0  0  0  0  0
  144.8982  132.2538  151.4205 H   0  0  0  0  0  0  0  0  0  0  0  0
  146.2036  132.2472  150.2135 H   0  0  0  0  0  0  0  0  0  0  0  0
  147.7353  134.4310  152.4178 H   0  0  0  0  0  0  0  0  0  0  0  0
  149.9887  132.4596  155.1393 H   0  0  0  0  0  0  0  0  0  0  0  0
  150.3547  133.6697  153.9498 H   0  0  0  0  0  0  0  0  0  0  0  0
  147.9701  134.3063  155.6356 H   0  0  0  0  0  0  0  0  0  0  0  0
  149.4856  134.1891  156.5076 H   0  0  0  0  0  0  0  0  0  0  0  0
  148.7689  136.1231  154.3864 H   0  0  0  0  0  0  0  0  0  0  0  0
  149.7907  138.6303  153.1151 H   0  0  0  0  0  0  0  0  0  0  0  0
  148.6245  137.9629  154.2178 H   0  0  0  0  0  0  0  0  0  0  0  0
  148.8862  140.3947  154.6366 H   0  0  0  0  0  0  0  0  0  0  0  0
  149.4236  139.4984  156.0452 H   0  0  0  0  0  0  0  0  0  0  0  0
  152.9361  140.0111  155.1827 H   0  0  0  0  0  0  0  0  0  0  0  0
  151.8917  139.2655  156.3791 H   0  0  0  0  0  0  0  0  0  0  0  0
  152.8304  137.5468  154.7971 H   0  0  0  0  0  0  0  0  0  0  0  0
  152.1599  138.4014  153.4354 H   0  0  0  0  0  0  0  0  0  0  0  0
  148.2269  130.5515  154.2103 H   0  0  0  0  0  0  0  0  0  0  0  0
  1  2  1  0  0  0  0
  1 18  1  0  0  0  0
  1 19  1  0  0  0  0
  1 20  1  0  0  0  0
  2 17  1  0  0  0  0
  2  3  1  0  0  0  0
  3  4  2  0  0  0  0
  3 21  1  0  0  0  0
  4  5  1  0  0  0  0
  4 16  1  0  0  0  0
  5  6  1  0  0  0  0
  5 22  1  0  0  0  0
  5 23  1  0  0  0  0
  6  7  1  0  0  0  0
  6 24  1  0  0  0  0
  6 25  1  0  0  0  0
  7  8  1  0  0  0  0
  7 26  1  0  0  0  0
  8  9  2  0  0  0  0
  8 10  1  0  0  0  0
 10 15  1  0  0  0  0
 10 11  1  0  0  0  0
 11 12  1  0  0  0  0
 11 27  1  0  0  0  0
 11 28  1  0  0  0  0
 12 13  1  0  0  0  0
 12 29  1  0  0  0  0
 12 30  1  0  0  0  0
 13 14  1  0  0  0  0
 14 15  1  0  0  0  0
 14 31  1  0  0  0  0
 14 32  1  0  0  0  0
 15 33  1  0  0  0  0
 15 34  1  0  0  0  0
 16 17  2  0  0  0  0
 16 35  1  0  0  0  0
M  END
> <s_m_source_file>
AV-unprocessed.smi

> <i_m_source_file_index>
1706

> <i_lp_mmshare_version>
43012

> <i_f3d_flags>
0

> <s_epik_input>
W0NIM11uMVtjSF1jKFtjSF1uMSlbQ0gyXVtDSDJdW05IXUMoPU8pTjJbQ0gyXVtDSDJdT1tDSDJdW0NIMl0y

> <s_epik_cmdline>
J2VwaWtfcHl0aG9uJywgJy1waCcsICc3LjAnLCAnLXRuJywgJzgnLCAnLW1hJywgJzIwMCcsICctbWV0YWxfYmluZGluZycsICctaW1hZScsICc8aW5maWxlLm1hZT4nLCAnLW9tYWUnLCAnPG91dGZpbGUubWFlPic=

> <r_lp_tautomer_probability>
1

> <r_epik_Ionization_Penalty>
0.000534981

> <r_epik_Ionization_Penalty_Charging>
0

> <r_epik_Ionization_Penalty_Neutral>
0.000534981

> <r_epik_State_Penalty>
-0

> <r_epik_Charging_Adjusted_Penalty>
0

> <i_epik_Tot_Q>
0

> <i_epik_Tot_abs_Q>
0

> <r_epik_Metal_State_Penalty>
-0

> <b_epik_Metal_Only>
0

> <s_lp_Force_Field>
OPLS_2005

> <r_lp_Energy>
25.9186

> <b_lp_Chiralities_Consistent>
1

> <s_lp_Variant>
AV-unprocessed.smi:1706-1

> <Gold.Version>
5.8.1

> <Gold.Id.Protein>
6NUR|6NUR_protein|mol2

> <Gold.PLP.Fitness>
40.4121

> <Gold.PLP.PLP>
-32.8302

> <Gold.PLP.part.hbond>
-2.0000

> <Gold.PLP.part.metal>
0.0000

> <Gold.PLP.part.buried>
-3.1775

> <Gold.PLP.part.nonpolar>
-28.8905

> <Gold.PLP.part.repulsive>
0.2238

> <Gold.PLP.ligand.clash>
0.0000

> <Gold.PLP.ligand.torsion>
0.7218

> <Gold.PLP.Chemscore.Hbond>
2.0000

> <Gold.PLP.Chemscore.CHOScore>
1.0000

> <Gold.PLP.Chemscore.Metal>
0.0000

> <Gold.Chemscore.Hbonds>
donor molecule, donor type, donor heavy atom, donor atom, acceptor molecule, acceptor atom, score
      P1  H  7989  7998       L1    13  0.90
      P1  H 10752 10765       L1     9  0.71
      L1  C     3    21       P1  7948  1.00

> <Gold.PLP.Chemscore.Internal.Correction>
0.0254

> <Gold.Rescore>
     Score         DG    S(hbond)    S(metal)    S(lipo)     H(rot)  DE(clash)    DE(int)     intcor
     13.90     -14.69       1.62        0.00      63.87       1.44       0.10       0.70       ----

> <Gold.Chemscore.Fitness>
13.9007

> <Gold.Chemscore.DG>
-14.6923

> <Gold.Chemscore.ZeroCoef>
-5.4800

> <Gold.Chemscore.Hbond>
1.6224

> <Gold.Chemscore.Metal>
0.0000

> <Gold.Chemscore.Lipo>
63.8689

> <Gold.Chemscore.Internal_Hbond>
0.0000

> <Gold.Chemscore.DEClash>
0.0956

> <Gold.Chemscore.DEInternal>
0.6960

> <Gold.Chemscore.Rot>
1.4371

> <Gold.Chemscore.Internal.Correction>
   9.000000E+99

> <Gold.Chemscore.Hbonds>
donor molecule, donor type, donor heavy atom, donor atom, acceptor molecule, acceptor atom, score
      P1  H  7989  7998       L1    13  0.18
      P1  H 10752 10765       L1     9  0.61

> <Gold.Chemscore.Hbond.Weighted>
-5.4187

> <Gold.Chemscore.Metal.Weighted>
-0.0000

> <Gold.Chemscore.Lipo.Weighted>
-7.4727

> <Gold.Chemscore.Internal_Hbond.Weighted>
0.0000

> <Gold.Chemscore.DEClash.Weighted>
0.0956

> <Gold.Chemscore.DEInternal.Weighted>
0.6960

> <Gold.Chemscore.Rot.Weighted>
3.6790

> <Gold.Chemscore.Internal.Correction.Weighted>
   9.000000E+99

> <Gold.Protein.RotatedTorsions>
[ 6907 6896 6895 6894 ] final  174.51 input  -60.11 | X-H torsion
[ 7974 7965 7964 7962 ] final  -81.00 input  175.53 | X-H torsion
[ 8008 7997 7996 7995 ] final  -39.49 input   59.86 | X-H torsion
[ 10167 10162 10161 10158 ] final -162.00 input  -65.29 | X-H torsion
[ 10718 10713 10712 10709 ] final  158.22 input   66.30 | X-H torsion
[ 10763 10752 10751 10750 ] final -137.13 input  -60.55 | X-H torsion
[ 11005 11000 10999 10996 ] final  110.44 input  -57.11 | X-H torsion

> <Gold.Protein.ActiveResidues>
 VAL166  LYS551  ARG553  GLY616  TRP617  ASP618  TYR619  PRO620  LYS621  CYS622 
 ASP623  PHE694  ASN695  SER759  ASP760  ASP761  ALA762  ILE779  LEU786  VAL792 
 PHE793  MET794  SER795  GLU796  ALA797  LYS798  CYS799  TRP800  GLU811  SER814 

> <Gold.Protein.RotatedAtoms>
  151.7511  133.3327  159.3391 H   0  0  0  0  0  0  0  0  0  0  0  0  # atno 6907 bound_to 6896
  150.7535  134.6191  159.6136 H   0  0  0  0  0  0  0  0  0  0  0  0  # atno 6908 bound_to 6896
  152.3468  134.7063  160.0299 H   0  0  0  0  0  0  0  0  0  0  0  0  # atno 6909 bound_to 6896
  145.5524  140.9494  143.1492 H   0  0  0  0  0  0  0  0  0  0  0  0  # atno 7974 bound_to 7965
  154.4022  140.1550  156.2873 H   0  0  0  0  0  0  0  0  0  0  0  0  # atno 8008 bound_to 7997
  155.8817  140.3443  155.5870 H   0  0  0  0  0  0  0  0  0  0  0  0  # atno 8009 bound_to 7997
  155.7660  140.0824  157.2122 H   0  0  0  0  0  0  0  0  0  0  0  0  # atno 8010 bound_to 7997
  139.6424  144.0235  152.2102 H   0  0  0  0  0  0  0  0  0  0  0  0  # atno 10167 bound_to 10162
  157.1808  131.0632  151.2133 H   0  0  0  0  0  0  0  0  0  0  0  0  # atno 10718 bound_to 10713
  154.8669  135.3651  154.5173 H   0  0  0  0  0  0  0  0  0  0  0  0  # atno 10763 bound_to 10752
  153.5805  135.7018  153.5470 H   0  0  0  0  0  0  0  0  0  0  0  0  # atno 10764 bound_to 10752
  153.3461  135.4084  155.1572 H   0  0  0  0  0  0  0  0  0  0  0  0  # atno 10765 bound_to 10752
  139.8882  134.9484  156.6280 H   0  0  0  0  0  0  0  0  0  0  0  0  # atno 11005 bound_to 11000
  144.7523  139.7163  143.7268 LP  0  0  0  0  0  0  0  0  0  0  0  0  # atno 17320 bound_to 7965
  146.1907  139.5146  142.9807 LP  0  0  0  0  0  0  0  0  0  0  0  0  # atno 17321 bound_to 7965
  139.9928  144.6349  150.7799 LP  0  0  0  0  0  0  0  0  0  0  0  0  # atno 17342 bound_to 10162
  140.7497  143.2944  151.3244 LP  0  0  0  0  0  0  0  0  0  0  0  0  # atno 17343 bound_to 10162
  157.3954  130.7305  149.6728 LP  0  0  0  0  0  0  0  0  0  0  0  0  # atno 17370 bound_to 10713
  155.9724  130.4135  150.4085 LP  0  0  0  0  0  0  0  0  0  0  0  0  # atno 17371 bound_to 10713
  140.7688  133.8755  155.8476 LP  0  0  0  0  0  0  0  0  0  0  0  0  # atno 17394 bound_to 11000
  140.9859  134.1343  157.4452 LP  0  0  0  0  0  0  0  0  0  0  0  0  # atno 17395 bound_to 11000

$$$$
