AV-unprocessed.smi:1970|AV-procd|sdf|7960|dock9
  -GOLD-   2272010133D 1   1.00000     0.00000
 Structure written by MMmdl.
 33 34  0  0  0  0  0  0  0  0  1 V2000
  154.5463  139.7473  158.8907 O   0  0  0  0  0  0  0  0  0  0  0  0
  153.4787  140.1885  159.3162 C   0  0  0  0  0  0  0  0  0  0  0  0
  153.4666  141.1127  160.5364 C   0  0  0  0  0  0  0  0  0  0  0  0
  152.8213  142.3893  160.2241 N   0  0  0  0  0  0  0  0  0  0  0  0
  152.9684  142.9486  158.8845 C   0  0  0  0  0  0  0  0  0  0  0  0
  152.4395  144.6776  158.9860 S   0  0  0  0  0  0  0  0  0  0  0  0
  151.5732  144.4115  160.5417 C   0  0  0  0  0  0  0  0  0  0  0  0
  152.0941  143.1002  161.1037 C   0  0  0  0  0  0  0  0  0  0  0  0
  151.8566  142.7597  162.2622 O   0  0  0  0  0  0  0  0  0  0  0  0
  152.2881  139.9082  158.7633 N   0  0  0  0  0  0  0  0  0  0  0  0
  152.0679  139.0114  157.6310 C   0  0  0  0  0  0  0  0  0  0  0  0
  152.1145  139.7460  156.2750 C   0  0  0  0  0  0  0  0  0  0  0  0
  150.7818  140.3419  155.8523 C   0  0  0  0  0  0  0  0  0  0  0  0
  150.0082  141.0998  156.7578 C   0  0  0  0  0  0  0  0  0  0  0  0
  148.7611  141.5918  156.3274 C   0  0  0  0  0  0  0  0  0  0  0  0
  148.3407  141.3159  155.0124 C   0  0  0  0  0  0  0  0  0  0  0  0
  149.1914  140.5594  154.1819 C   0  0  0  0  0  0  0  0  0  0  0  0
  150.3884  140.0815  154.5852 N   0  0  0  0  0  0  0  0  0  0  0  0
  152.9257  140.6165  161.3433 H   0  0  0  0  0  0  0  0  0  0  0  0
  154.4804  141.2777  160.9062 H   0  0  0  0  0  0  0  0  0  0  0  0
  153.9981  142.8892  158.5308 H   0  0  0  0  0  0  0  0  0  0  0  0
  152.3293  142.4064  158.1872 H   0  0  0  0  0  0  0  0  0  0  0  0
  151.7561  145.2375  161.2291 H   0  0  0  0  0  0  0  0  0  0  0  0
  150.5004  144.3348  160.3635 H   0  0  0  0  0  0  0  0  0  0  0  0
  151.4668  140.3243  159.1785 H   0  0  0  0  0  0  0  0  0  0  0  0
  152.8486  138.2509  157.6544 H   0  0  0  0  0  0  0  0  0  0  0  0
  151.1224  138.4777  157.7409 H   0  0  0  0  0  0  0  0  0  0  0  0
  152.8642  140.5374  156.3128 H   0  0  0  0  0  0  0  0  0  0  0  0
  152.4466  139.0551  155.4994 H   0  0  0  0  0  0  0  0  0  0  0  0
  150.3532  141.2864  157.7638 H   0  0  0  0  0  0  0  0  0  0  0  0
  148.1366  142.1666  156.9952 H   0  0  0  0  0  0  0  0  0  0  0  0
  147.3896  141.6753  154.6484 H   0  0  0  0  0  0  0  0  0  0  0  0
  148.9023  140.3306  153.1669 H   0  0  0  0  0  0  0  0  0  0  0  0
  1  2  2  0  0  0  0
  2  3  1  0  0  0  0
  2 10  1  0  0  0  0
  3  4  1  0  0  0  0
  3 19  1  0  0  0  0
  3 20  1  0  0  0  0
  4  8  1  0  0  0  0
  4  5  1  0  0  0  0
  5  6  1  0  0  0  0
  5 21  1  0  0  0  0
  5 22  1  0  0  0  0
  6  7  1  0  0  0  0
  7  8  1  0  0  0  0
  7 23  1  0  0  0  0
  7 24  1  0  0  0  0
  8  9  2  0  0  0  0
 10 11  1  0  0  0  0
 10 25  1  0  0  0  0
 11 12  1  0  0  0  0
 11 26  1  0  0  0  0
 11 27  1  0  0  0  0
 12 13  1  0  0  0  0
 12 28  1  0  0  0  0
 12 29  1  0  0  0  0
 13 18  1  0  0  0  0
 13 14  2  0  0  0  0
 14 15  1  0  0  0  0
 14 30  1  0  0  0  0
 15 16  2  0  0  0  0
 15 31  1  0  0  0  0
 16 17  1  0  0  0  0
 16 32  1  0  0  0  0
 17 18  2  0  0  0  0
 17 33  1  0  0  0  0
M  END
> <s_m_source_file>
AV-unprocessed.smi

> <i_m_source_file_index>
1970

> <i_lp_mmshare_version>
43012

> <i_f3d_flags>
0

> <s_epik_input>
Tz1DMVtDSDJdU1tDSDJdTjFbQ0gyXUMoPU8pW05IXVtDSDJdW0NIMl1jMltjSF1bY0hdW2NIXVtjSF1uMg==

> <s_epik_cmdline>
J2VwaWtfcHl0aG9uJywgJy1waCcsICc3LjAnLCAnLXRuJywgJzgnLCAnLW1hJywgJzIwMCcsICctbWV0YWxfYmluZGluZycsICctaW1hZScsICc8aW5maWxlLm1hZT4nLCAnLW9tYWUnLCAnPG91dGZpbGUubWFlPic=

> <r_epik_Ionization_Penalty>
0.0255556

> <r_epik_Ionization_Penalty_Charging>
0

> <r_epik_Ionization_Penalty_Neutral>
0.0255556

> <r_epik_State_Penalty>
0.0208108

> <r_epik_Charging_Adjusted_Penalty>
0.0208108

> <i_epik_Tot_Q>
0

> <i_epik_Tot_abs_Q>
0

> <r_epik_Metal_State_Penalty>
0.0199448

> <b_epik_Metal_Only>
0

> <s_epik_Chemistry_Notes>
This compound contains an acetal/aminal-like group ( X-CH(R)-Y where X, Y are N, S, or O) that may be acid/base labile, releasing an aldehyde.

> <s_lp_Force_Field>
OPLS_2005

> <r_lp_Energy>
5.35786

> <b_lp_Chiralities_Consistent>
1

> <s_lp_Variant>
AV-unprocessed.smi:1970-1

> <Gold.Version>
5.8.1

> <Gold.Id.Protein>
6NUR|6NUR_protein|mol2

> <Gold.PLP.Fitness>
48.3897

> <Gold.PLP.PLP>
-38.7238

> <Gold.PLP.part.hbond>
-2.9771

> <Gold.PLP.part.metal>
0.0000

> <Gold.PLP.part.buried>
-2.7096

> <Gold.PLP.part.nonpolar>
-35.4306

> <Gold.PLP.part.repulsive>
2.2429

> <Gold.PLP.ligand.clash>
0.0000

> <Gold.PLP.ligand.torsion>
0.8461

> <Gold.PLP.Chemscore.Hbond>
2.7800

> <Gold.PLP.Chemscore.CHOScore>
1.0000

> <Gold.PLP.Chemscore.Metal>
0.0000

> <Gold.Chemscore.Hbonds>
donor molecule, donor type, donor heavy atom, donor atom, acceptor molecule, acceptor atom, score
      P1  H  6933  6945       L1     9  0.92
      P1  H  7989  7998       L1    18  1.00
      P1  H  7997  8008       L1     1  1.00
      L1  C    17    33       P1  7957  1.00

> <Gold.PLP.Chemscore.Internal.Correction>
0.0182

> <Gold.Rescore>
     Score         DG    S(hbond)    S(metal)    S(lipo)     H(rot)  DE(clash)    DE(int)     intcor
     16.12     -18.01       2.10        0.00      89.07       1.92       1.16       0.73       ----

> <Gold.Chemscore.Fitness>
16.1214

> <Gold.Chemscore.DG>
-18.0109

> <Gold.Chemscore.ZeroCoef>
-5.4800

> <Gold.Chemscore.Hbond>
2.1044

> <Gold.Chemscore.Metal>
0.0000

> <Gold.Chemscore.Lipo>
89.0686

> <Gold.Chemscore.Internal_Hbond>
0.0000

> <Gold.Chemscore.DEClash>
1.1574

> <Gold.Chemscore.DEInternal>
0.7321

> <Gold.Chemscore.Rot>
1.9215

> <Gold.Chemscore.Internal.Correction>
   9.000000E+99

> <Gold.Chemscore.Hbonds>
donor molecule, donor type, donor heavy atom, donor atom, acceptor molecule, acceptor atom, score
      P1  H  6933  6945       L1     9  0.50
      P1  H  7989  7998       L1    18  0.27
      P1  H  7997  8008       L1     1  0.97

> <Gold.Chemscore.Hbond.Weighted>
-7.0289

> <Gold.Chemscore.Metal.Weighted>
-0.0000

> <Gold.Chemscore.Lipo.Weighted>
-10.4210

> <Gold.Chemscore.Internal_Hbond.Weighted>
0.0000

> <Gold.Chemscore.DEClash.Weighted>
1.1574

> <Gold.Chemscore.DEInternal.Weighted>
0.7321

> <Gold.Chemscore.Rot.Weighted>
4.9190

> <Gold.Chemscore.Internal.Correction.Weighted>
   9.000000E+99

> <Gold.Protein.RotatedTorsions>
[ 6907 6896 6895 6894 ] final  -89.59 input  -60.11 | X-H torsion
[ 7974 7965 7964 7962 ] final  -63.25 input  175.53 | X-H torsion
[ 8008 7997 7996 7995 ] final -128.13 input   59.86 | X-H torsion
[ 10167 10162 10161 10158 ] final   81.93 input  -65.29 | X-H torsion
[ 10718 10713 10712 10709 ] final -135.38 input   66.30 | X-H torsion
[ 10763 10752 10751 10750 ] final   35.99 input  -60.55 | X-H torsion
[ 11005 11000 10999 10996 ] final   81.99 input  -57.11 | X-H torsion

> <Gold.Protein.ActiveResidues>
 VAL166  LYS551  ARG553  GLY616  TRP617  ASP618  TYR619  PRO620  LYS621  CYS622 
 ASP623  PHE694  ASN695  SER759  ASP760  ASP761  ALA762  ILE779  LEU786  VAL792 
 PHE793  MET794  SER795  GLU796  ALA797  LYS798  CYS799  TRP800  GLU811  SER814 

> <Gold.Protein.RotatedAtoms>
  150.6875  134.2563  159.4530 H   0  0  0  0  0  0  0  0  0  0  0  0  # atno 6907 bound_to 6896
  152.0496  134.9659  160.0584 H   0  0  0  0  0  0  0  0  0  0  0  0  # atno 6908 bound_to 6896
  152.1128  133.4275  159.4676 H   0  0  0  0  0  0  0  0  0  0  0  0  # atno 6909 bound_to 6896
  145.7813  140.8760  143.0329 H   0  0  0  0  0  0  0  0  0  0  0  0  # atno 7974 bound_to 7965
  155.2577  140.0435  157.2994 H   0  0  0  0  0  0  0  0  0  0  0  0  # atno 8008 bound_to 7997
  154.5730  140.2379  155.8133 H   0  0  0  0  0  0  0  0  0  0  0  0  # atno 8009 bound_to 7997
  156.2137  140.2991  155.9798 H   0  0  0  0  0  0  0  0  0  0  0  0  # atno 8010 bound_to 7997
  139.9341  144.6133  150.8316 H   0  0  0  0  0  0  0  0  0  0  0  0  # atno 10167 bound_to 10162
  156.2655  130.7235  151.1184 H   0  0  0  0  0  0  0  0  0  0  0  0  # atno 10718 bound_to 10713
  153.0095  135.6318  154.1915 H   0  0  0  0  0  0  0  0  0  0  0  0  # atno 10763 bound_to 10752
  154.1658  135.2821  155.3097 H   0  0  0  0  0  0  0  0  0  0  0  0  # atno 10764 bound_to 10752
  154.5947  135.5606  153.7374 H   0  0  0  0  0  0  0  0  0  0  0  0  # atno 10765 bound_to 10752
  139.9079  134.8038  156.2114 H   0  0  0  0  0  0  0  0  0  0  0  0  # atno 11005 bound_to 11000
  144.6796  139.9993  143.7484 LP  0  0  0  0  0  0  0  0  0  0  0  0  # atno 17320 bound_to 7965
  146.0071  139.3139  143.0893 LP  0  0  0  0  0  0  0  0  0  0  0  0  # atno 17321 bound_to 7965
  140.7629  143.3210  151.2622 LP  0  0  0  0  0  0  0  0  0  0  0  0  # atno 17342 bound_to 10162
  139.6758  143.9940  152.2780 LP  0  0  0  0  0  0  0  0  0  0  0  0  # atno 17343 bound_to 10162
  157.7266  131.0645  150.5903 LP  0  0  0  0  0  0  0  0  0  0  0  0  # atno 17370 bound_to 10713
  156.5994  130.4350  149.5903 LP  0  0  0  0  0  0  0  0  0  0  0  0  # atno 17371 bound_to 10713
  141.0463  133.6912  156.1689 LP  0  0  0  0  0  0  0  0  0  0  0  0  # atno 17394 bound_to 11000
  140.6879  134.4697  157.5589 LP  0  0  0  0  0  0  0  0  0  0  0  0  # atno 17395 bound_to 11000

$$$$
