#       Name:                AV-unprocessed.smi:160
#       Creating user name   scv26
#       Creation time:       Thu Mar 26 19:09:40 2020


#       File generated by GOLD software.
#

@<TRIPOS>MOLECULE
AV-unprocessed.smi:160
    41    42     1
SMALL
NO_CHARGES


@<TRIPOS>ATOM
      1 ****        -4.9772   1.1575  -0.4291 N.pl3          1 S1                -1.0000
      2 ****        -3.6708   1.3599  -0.1540 C.2            1 S1                 0.0000
      3 ****        -3.1508   2.4270   0.1714 O.2            1 S1                 0.0000
      4 ****        -2.8110   0.1250  -0.2747 C.2            1 S1                 0.0000
      5 ****        -3.3101  -1.1045  -0.6172 N.2            1 S1                 0.0000
      6 ****        -2.1848  -1.8052  -0.5864 C.2            1 S1                 0.0000
      7 ****        -1.1051  -1.0932  -0.2509 N.pl3          1 S1                 0.0000
      8 ****         0.3261  -1.5151  -0.1425 C.3            1 S1                 0.0000
      9 ****         1.0588  -0.7550  -1.0565 O.3            1 S1                 0.0000
     10 ****         1.9419   0.1492  -0.3944 C.3            1 S1                 0.0000
     11 ****         1.8679   1.5203  -1.0844 C.3            1 S1                 0.0000
     12 ****         2.8697   2.3818  -0.5863 O.3            1 S1                 0.0000
     13 ****         1.5103   0.1529   1.0768 C.3            1 S1                 0.0000
     14 ****         2.5864   0.3907   1.9647 O.3            1 S1                 0.0000
     15 ****         0.8791  -1.2233   1.2582 C.3            1 S1                 0.0000
     16 ****         1.8086  -2.2187   1.6455 O.3            1 S1                 0.0000
     17 ****        -1.4979   0.1891  -0.0505 N.2            1 S1                 0.0000
     18 ****         0.3154  -2.5732  -0.4083 H              1 S1                 0.0000
     19 ****         2.9443  -0.2717  -0.4891 H              1 S1                 0.0000
     20 ****         0.7533   0.9203   1.2412 H              1 S1                 0.0000
     21 ****         0.0753  -1.2119   1.9961 H              1 S1                 0.0000
     22 ****        -5.2791   0.2123  -0.6943 H              1 S1                 0.0000
     23 ****        -2.1467  -2.8597  -0.8158 H              1 S1                 0.0000
     24 ****         2.0199   1.4066  -2.1579 H              1 S1                 0.0000
     25 ****         0.8870   1.9762  -0.9459 H              1 S1                 0.0000
     26 ****         2.7966   3.2128  -1.0305 H              1 S1                 0.0000
     27 ****         2.9514   1.2399   1.7666 H              1 S1                 0.0000
     28 ****         2.5405  -2.1892   1.0485 H              1 S1                 0.0000
     29 ****        -5.6344   1.9093  -0.3759 LP             1 S1                 0.0000
     30 ****        -3.7105   3.2516   0.2530 LP             1 S1                 0.0000
     31 ****        -2.1685   2.4693   0.3542 LP             1 S1                 0.0000
     32 ****        -4.2454  -1.3889  -0.8279 LP             1 S1                 0.0000
     33 ****         0.4250  -0.2318  -1.6262 LP             1 S1                 0.0000
     34 ****         1.5960  -1.3699  -1.6339 LP             1 S1                 0.0000
     35 ****         3.7717   1.9855  -0.7576 LP             1 S1                 0.0000
     36 ****         2.7444   2.5124   0.3972 LP             1 S1                 0.0000
     37 ****         3.2856  -0.3143   1.8455 LP             1 S1                 0.0000
     38 ****         2.2560   0.3762   2.9084 LP             1 S1                 0.0000
     39 ****         1.3759  -3.1194   1.6058 LP             1 S1                 0.0000
     40 ****         2.1250  -2.0418   2.5775 LP             1 S1                 0.0000
     41 ****        -0.9433   0.9821   0.2016 LP             1 S1                 0.0000
@<TRIPOS>BOND
    1    1    2 1     
    2    1   22 1     
    3    2    3 2     
    4    2    4 1     
    5    4   17 2     
    6    4    5 1     
    7    5    6 2     
    8    6    7 1     
    9    6   23 1     
   10    7    8 1     
   11    7   17 1     
   12    8   18 1     
   13    8   15 1     
   14    8    9 1     
   15    9   10 1     
   16   10   19 1     
   17   10   11 1     
   18   10   13 1     
   19   11   12 1     
   20   11   24 1     
   21   11   25 1     
   22   12   26 1     
   23   13   20 1     
   24   13   14 1     
   25   13   15 1     
   26   14   27 1     
   27   15   21 1     
   28   15   16 1     
   29   16   28 1     
   30    1   29 1     
   31    3   30 1     
   32    3   31 1     
   33    5   32 1     
   34    9   33 1     
   35    9   34 1     
   36   12   35 1     
   37   12   36 1     
   38   14   37 1     
   39   14   38 1     
   40   16   39 1     
   41   16   40 1     
   42   17   41 1     
@<TRIPOS>SUBSTRUCTURE
      1 S1             1
@<TRIPOS>SET
LONE_PAIRS      STATIC     ATOMS    <user>   **** ""
13 29 30 31 32 33 34 35 36 37 38 39 40 41
DONOR_HYDROGENS      STATIC     ATOMS    <user>   **** ""
4 22 26 27 28
ATOM$BLUE        STATIC     ATOMS    COLORGROUP SYSTEM
13 29 30 31 32 33 34 35 36 37 38 39 40 41
ATOM$RED        STATIC     ATOMS    COLORGROUP SYSTEM
4 22 26 27 28
