AV-unprocessed.smi:38|AV-procd|sdf|337|dock4
  -GOLD-   2262016173D 1   1.00000     0.00000
 Structure written by MMmdl.
 28 29  0  0  0  0  0  0  0  0  1 V2000
  152.8141  140.1297  158.0011 O   0  0  0  0  0  0  0  0  0  0  0  0
  152.0102  140.2191  157.0752 C   0  0  0  0  0  0  0  0  0  0  0  0
  151.9338  139.2108  156.1108 N   0  0  0  0  0  0  0  0  0  0  0  0
  151.0635  139.1970  155.0195 C   0  0  0  0  0  0  0  0  0  0  0  0
  151.0968  138.2633  154.2190 O   0  0  0  0  0  0  0  0  0  0  0  0
  150.1715  140.2847  154.8869 N   0  0  0  0  0  0  0  0  0  0  0  0
  149.2306  140.3009  153.6986 C   0  0  1  0  0  0  0  0  0  0  0  0
  148.2341  139.1334  153.7564 C   0  0  0  0  0  0  0  0  0  0  0  0
  146.9648  139.7945  153.2650 C   0  0  1  0  0  0  0  0  0  0  0  0
  145.8058  139.0830  153.6509 O   0  0  0  0  0  0  0  0  0  0  0  0
  147.0764  141.2059  153.8537 C   0  0  1  0  0  0  0  0  0  0  0  0
  146.6883  141.3243  155.3448 C   0  0  0  0  0  0  0  0  0  0  0  0
  146.5821  142.6847  155.7051 O   0  0  0  0  0  0  0  0  0  0  0  0
  148.4712  141.4796  153.7061 O   0  0  0  0  0  0  0  0  0  0  0  0
  150.2313  141.3238  155.8098 C   0  0  0  0  0  0  0  0  0  0  0  0
  151.0836  141.3268  156.8621 C   0  0  0  0  0  0  0  0  0  0  0  0
  151.0804  142.3653  157.7151 F   0  0  0  0  0  0  0  0  0  0  0  0
  152.5654  138.4292  156.2088 H   0  0  0  0  0  0  0  0  0  0  0  0
  149.8718  140.2902  152.8151 H   0  0  0  0  0  0  0  0  0  0  0  0
  146.9914  139.8555  152.1760 H   0  0  0  0  0  0  0  0  0  0  0  0
  146.4856  141.9057  153.2610 H   0  0  0  0  0  0  0  0  0  0  0  0
  148.5603  138.2981  153.1362 H   0  0  0  0  0  0  0  0  0  0  0  0
  148.1213  138.7915  154.7868 H   0  0  0  0  0  0  0  0  0  0  0  0
  145.0463  139.5697  153.3684 H   0  0  0  0  0  0  0  0  0  0  0  0
  145.7108  140.8775  155.5258 H   0  0  0  0  0  0  0  0  0  0  0  0
  147.3955  140.8142  155.9981 H   0  0  0  0  0  0  0  0  0  0  0  0
  147.4501  143.0207  155.8704 H   0  0  0  0  0  0  0  0  0  0  0  0
  149.5831  142.1809  155.7087 H   0  0  0  0  0  0  0  0  0  0  0  0
  1  2  2  0  0  0  0
  2 16  1  0  0  0  0
  2  3  1  0  0  0  0
  3 18  1  0  0  0  0
  3  4  1  0  0  0  0
  4  5  2  0  0  0  0
  4  6  1  0  0  0  0
  6  7  1  0  0  0  0
  6 15  1  0  0  0  0
  7 19  1  0  0  0  0
  7 14  1  0  0  0  0
  7  8  1  0  0  0  0
  8  9  1  0  0  0  0
  8 22  1  0  0  0  0
  8 23  1  0  0  0  0
  9 20  1  0  0  0  0
  9 10  1  0  0  0  0
  9 11  1  0  0  0  0
 10 24  1  0  0  0  0
 11 21  1  0  0  0  0
 11 12  1  0  0  0  0
 11 14  1  0  0  0  0
 12 13  1  0  0  0  0
 12 25  1  0  0  0  0
 12 26  1  0  0  0  0
 13 27  1  0  0  0  0
 15 16  2  0  0  0  0
 15 28  1  0  0  0  0
 16 17  1  0  0  0  0
M  END
> <s_m_source_file>
AV-unprocessed.smi

> <i_m_source_file_index>
38

> <i_lp_mmshare_version>
43012

> <i_f3d_flags>
0

> <s_epik_input>
Tz1jMVtuSF1jKD1PKW4oW2NIXWMxRilbQ0BIXTJbQ0gyXVtDQEhdKFtPSF0pW0NASF0oTzIpW0NIMl1bT0hd

> <s_epik_cmdline>
J2VwaWtfcHl0aG9uJywgJy1waCcsICc3LjAnLCAnLXRuJywgJzgnLCAnLW1hJywgJzIwMCcsICctbWV0YWxfYmluZGluZycsICctaW1hZScsICc8aW5maWxlLm1hZT4nLCAnLW9tYWUnLCAnPG91dGZpbGUubWFlPic=

> <r_lp_tautomer_probability>
0.999537

> <r_epik_Ionization_Penalty>
0.0357432

> <r_epik_Ionization_Penalty_Charging>
0.0357431

> <r_epik_Ionization_Penalty_Neutral>
1.19946e-07

> <r_epik_State_Penalty>
0.0298169

> <r_epik_Charging_Adjusted_Penalty>
0.06556

> <i_epik_Tot_Q>
0

> <i_epik_Tot_abs_Q>
0

> <r_epik_Metal_State_Penalty>
2.348

> <b_epik_Metal_Only>
0

> <s_epik_Chemistry_Notes>
This compound contains an acetal/aminal-like group ( X-CH(R)-Y where X, Y are N, S, or O) that may be acid/base labile, releasing an aldehyde.

> <s_lp_Force_Field>
OPLS_2005

> <r_lp_Energy>
30.312

> <b_lp_Chiralities_Consistent>
1

> <s_lp_Variant>
AV-unprocessed.smi:38-3

> <Gold.Version>
5.8.1

> <Gold.Id.Protein>
6NUR|6NUR_protein|mol2

> <Gold.PLP.Fitness>
38.3665

> <Gold.PLP.PLP>
-25.1399

> <Gold.PLP.part.hbond>
-4.0000

> <Gold.PLP.part.metal>
0.0000

> <Gold.PLP.part.buried>
4.5020

> <Gold.PLP.part.nonpolar>
-24.8532

> <Gold.PLP.part.repulsive>
1.6077

> <Gold.PLP.ligand.clash>
0.0000

> <Gold.PLP.ligand.torsion>
0.1173

> <Gold.PLP.Chemscore.Hbond>
3.5688

> <Gold.PLP.Chemscore.CHOScore>
0.9106

> <Gold.PLP.Chemscore.Metal>
0.0000

> <Gold.Chemscore.Hbonds>
donor molecule, donor type, donor heavy atom, donor atom, acceptor molecule, acceptor atom, score
      L1  H    10    24       P1 10175  1.00
      L1  H    13    27       P1  8028  0.45
      P1  H  7997  8009       L1     1  0.99
      P1  H  8011  8017       L1    14  0.33
      L1  C    15    28       P1  8028  0.75

> <Gold.PLP.Chemscore.Internal.Correction>
0.0230

> <Gold.Rescore>
     Score         DG    S(hbond)    S(metal)    S(lipo)     H(rot)  DE(clash)    DE(int)     intcor
      7.94     -11.27       2.57        0.00      39.78       2.91       3.17       0.16       ----

> <Gold.Chemscore.Fitness>
7.9405

> <Gold.Chemscore.DG>
-11.2721

> <Gold.Chemscore.ZeroCoef>
-5.4800

> <Gold.Chemscore.Hbond>
2.5741

> <Gold.Chemscore.Metal>
0.0000

> <Gold.Chemscore.Lipo>
39.7841

> <Gold.Chemscore.Internal_Hbond>
0.0000

> <Gold.Chemscore.DEClash>
3.1729

> <Gold.Chemscore.DEInternal>
0.1587

> <Gold.Chemscore.Rot>
2.9141

> <Gold.Chemscore.Internal.Correction>
   9.000000E+99

> <Gold.Chemscore.Hbonds>
donor molecule, donor type, donor heavy atom, donor atom, acceptor molecule, acceptor atom, score
      L1  H    10    24       P1 10175  1.00
      L1  H    13    27       P1  8028  0.07
      P1  H  7997  8009       L1     1  0.27
      P1  H  8011  8017       L1    14  0.02

> <Gold.Chemscore.Hbond.Weighted>
-8.5974

> <Gold.Chemscore.Metal.Weighted>
-0.0000

> <Gold.Chemscore.Lipo.Weighted>
-4.6547

> <Gold.Chemscore.Internal_Hbond.Weighted>
0.0000

> <Gold.Chemscore.DEClash.Weighted>
3.1729

> <Gold.Chemscore.DEInternal.Weighted>
0.1587

> <Gold.Chemscore.Rot.Weighted>
7.4601

> <Gold.Chemscore.Internal.Correction.Weighted>
   9.000000E+99

> <Gold.Protein.RotatedTorsions>
[ 6907 6896 6895 6894 ] final  -85.43 input  -60.11 | X-H torsion
[ 7974 7965 7964 7962 ] final   55.08 input  175.53 | X-H torsion
[ 8008 7997 7996 7995 ] final  156.20 input   59.86 | X-H torsion
[ 10167 10162 10161 10158 ] final   -7.39 input  -65.29 | X-H torsion
[ 10718 10713 10712 10709 ] final  139.76 input   66.30 | X-H torsion
[ 10763 10752 10751 10750 ] final  -33.27 input  -60.55 | X-H torsion
[ 11005 11000 10999 10996 ] final  160.21 input  -57.11 | X-H torsion

> <Gold.Protein.ActiveResidues>
 VAL166  LYS551  ARG553  GLY616  TRP617  ASP618  TYR619  PRO620  LYS621  CYS622 
 ASP623  PHE694  ASN695  SER759  ASP760  ASP761  ALA762  ILE779  LEU786  VAL792 
 PHE793  MET794  SER795  GLU796  ALA797  LYS798  CYS799  TRP800  GLU811  SER814 

> <Gold.Protein.RotatedAtoms>
  150.6870  134.3206  159.4784 H   0  0  0  0  0  0  0  0  0  0  0  0  # atno 6907 bound_to 6896
  152.1082  134.9291  160.0576 H   0  0  0  0  0  0  0  0  0  0  0  0  # atno 6908 bound_to 6896
  152.0543  133.3998  159.4427 H   0  0  0  0  0  0  0  0  0  0  0  0  # atno 6909 bound_to 6896
  145.9542  139.3999  143.0288 H   0  0  0  0  0  0  0  0  0  0  0  0  # atno 7974 bound_to 7965
  156.2436  140.1919  156.6919 H   0  0  0  0  0  0  0  0  0  0  0  0  # atno 8008 bound_to 7997
  154.6245  140.0604  156.9683 H   0  0  0  0  0  0  0  0  0  0  0  0  # atno 8009 bound_to 7997
  155.1808  140.3276  155.4378 H   0  0  0  0  0  0  0  0  0  0  0  0  # atno 8010 bound_to 7997
  140.7027  143.6086  150.8726 H   0  0  0  0  0  0  0  0  0  0  0  0  # atno 10167 bound_to 10162
  157.4108  131.1028  151.0456 H   0  0  0  0  0  0  0  0  0  0  0  0  # atno 10718 bound_to 10713
  153.8274  135.6869  153.4819 H   0  0  0  0  0  0  0  0  0  0  0  0  # atno 10763 bound_to 10752
  153.1532  135.4610  154.9664 H   0  0  0  0  0  0  0  0  0  0  0  0  # atno 10764 bound_to 10752
  154.7901  135.3299  154.7740 H   0  0  0  0  0  0  0  0  0  0  0  0  # atno 10765 bound_to 10752
  140.2037  134.8318  157.3046 H   0  0  0  0  0  0  0  0  0  0  0  0  # atno 11005 bound_to 11000
  145.8130  140.9717  143.0939 LP  0  0  0  0  0  0  0  0  0  0  0  0  # atno 17320 bound_to 7965
  144.6801  139.9945  143.7484 LP  0  0  0  0  0  0  0  0  0  0  0  0  # atno 17321 bound_to 7965
  139.9809  143.5952  152.2943 LP  0  0  0  0  0  0  0  0  0  0  0  0  # atno 17342 bound_to 10162
  139.6573  144.7662  151.2031 LP  0  0  0  0  0  0  0  0  0  0  0  0  # atno 17343 bound_to 10162
  157.1421  130.6147  149.5558 LP  0  0  0  0  0  0  0  0  0  0  0  0  # atno 17370 bound_to 10713
  155.9850  130.4878  150.7011 LP  0  0  0  0  0  0  0  0  0  0  0  0  # atno 17371 bound_to 10713
  140.2026  134.4236  155.7655 LP  0  0  0  0  0  0  0  0  0  0  0  0  # atno 17394 bound_to 11000
  141.2227  133.7079  156.8208 LP  0  0  0  0  0  0  0  0  0  0  0  0  # atno 17395 bound_to 11000

$$$$
