AV-unprocessed.smi:2279|AV-procd|sdf|9188|dock4
  -GOLD-   2272012403D 1   1.00000     0.00000
 Structure written by MMmdl.
 57 59  0  0  0  0  0  0  0  0  2 V2000
  153.1902  143.9379  163.0929 C   0  0  0  0  0  0  0  0  0  0  0  0
  153.0419  143.2790  161.7376 C   0  0  0  0  0  0  0  0  0  0  0  0
  152.5346  143.9965  160.6374 C   0  0  0  0  0  0  0  0  0  0  0  0
  152.4197  143.3272  159.4032 C   0  0  0  0  0  0  0  0  0  0  0  0
  151.8830  144.0379  158.1785 C   0  0  0  0  0  0  0  0  0  0  0  0
  152.7685  142.0343  159.2311 N   0  0  0  0  0  0  0  0  0  0  0  0
  153.2568  141.3328  160.2840 C   0  0  0  0  0  0  0  0  0  0  0  0
  153.6556  139.9720  160.2070 N   0  0  0  0  0  0  0  0  0  0  0  0
  154.4131  139.2772  161.0741 C   0  0  0  0  0  0  0  0  0  0  0  0
  154.9223  139.7312  162.0993 O   0  0  0  0  0  0  0  0  0  0  0  0
  154.5580  138.0038  160.6786 N   0  0  0  0  0  0  0  0  0  0  0  0
  155.3271  136.9854  161.3878 C   0  0  0  0  0  0  0  0  0  0  0  0
  154.8787  135.5759  160.9804 C   0  0  0  0  0  0  0  0  0  0  0  0
  155.5872  134.5079  161.8306 C   0  0  0  0  0  0  0  0  0  0  0  0
  155.3017  134.6827  163.2645 N   0  0  0  0  0  0  0  0  0  0  0  0
  155.8711  133.5557  164.0358 C   0  0  2  0  0  0  0  0  0  0  0  0
  155.6233  132.1997  163.3271 C   0  0  0  0  0  0  0  0  0  0  0  0
  154.1493  131.7624  163.4117 C   0  0  0  0  0  0  0  0  0  0  0  0
  153.6910  131.6813  164.8200 N   0  3  2  0  0  0  0  0  0  0  0  0
  152.3078  131.1716  164.9337 C   0  0  0  0  0  0  0  0  0  0  0  0
  153.8814  132.9619  165.5426 C   0  0  0  0  0  0  0  0  0  0  0  0
  155.3522  133.4114  165.4895 C   0  0  0  0  0  0  0  0  0  0  0  0
  155.8209  135.9978  163.6711 C   0  0  0  0  0  0  0  0  0  0  0  0
  155.1315  137.1374  162.8995 C   0  0  0  0  0  0  0  0  0  0  0  0
  153.4077  141.9300  161.5557 C   0  0  0  0  0  0  0  0  0  0  0  0
  153.0542  145.0176  163.0246 H   0  0  0  0  0  0  0  0  0  0  0  0
  154.1819  143.7457  163.5034 H   0  0  0  0  0  0  0  0  0  0  0  0
  152.4476  143.5425  163.7862 H   0  0  0  0  0  0  0  0  0  0  0  0
  152.2409  145.0314  160.7369 H   0  0  0  0  0  0  0  0  0  0  0  0
  151.8099  145.1129  158.3452 H   0  0  0  0  0  0  0  0  0  0  0  0
  150.8905  143.6618  157.9297 H   0  0  0  0  0  0  0  0  0  0  0  0
  152.5381  143.8715  157.3227 H   0  0  0  0  0  0  0  0  0  0  0  0
  153.3211  139.4679  159.3995 H   0  0  0  0  0  0  0  0  0  0  0  0
  154.1040  137.7171  159.8240 H   0  0  0  0  0  0  0  0  0  0  0  0
  156.3888  137.1056  161.1631 H   0  0  0  0  0  0  0  0  0  0  0  0
  153.7983  135.4752  161.0951 H   0  0  0  0  0  0  0  0  0  0  0  0
  155.0952  135.4051  159.9251 H   0  0  0  0  0  0  0  0  0  0  0  0
  155.2564  133.5365  161.4720 H   0  0  0  0  0  0  0  0  0  0  0  0
  156.6641  134.5502  161.6590 H   0  0  0  0  0  0  0  0  0  0  0  0
  156.9474  133.7236  164.1014 H   0  0  0  0  0  0  0  0  0  0  0  0
  155.9488  132.1957  162.2892 H   0  0  0  0  0  0  0  0  0  0  0  0
  156.2361  131.4385  163.8119 H   0  0  0  0  0  0  0  0  0  0  0  0
  153.5170  132.4590  162.8587 H   0  0  0  0  0  0  0  0  0  0  0  0
  154.0332  130.7872  162.9375 H   0  0  0  0  0  0  0  0  0  0  0  0
  151.5992  131.8565  164.4662 H   0  0  0  0  0  0  0  0  0  0  0  0
  152.0269  131.0498  165.9803 H   0  0  0  0  0  0  0  0  0  0  0  0
  152.2144  130.1987  164.4500 H   0  0  0  0  0  0  0  0  0  0  0  0
  153.2343  133.7274  165.1114 H   0  0  0  0  0  0  0  0  0  0  0  0
  153.5770  132.8394  166.5827 H   0  0  0  0  0  0  0  0  0  0  0  0
  155.9543  132.6527  165.9916 H   0  0  0  0  0  0  0  0  0  0  0  0
  155.5115  134.3102  166.0838 H   0  0  0  0  0  0  0  0  0  0  0  0
  155.6228  136.1808  164.7254 H   0  0  0  0  0  0  0  0  0  0  0  0
  156.9021  136.0366  163.5305 H   0  0  0  0  0  0  0  0  0  0  0  0
  155.5280  138.0977  163.2311 H   0  0  0  0  0  0  0  0  0  0  0  0
  154.0671  137.1422  163.1403 H   0  0  0  0  0  0  0  0  0  0  0  0
  153.7984  141.3598  162.3864 H   0  0  0  0  0  0  0  0  0  0  0  0
  154.2846  131.0031  165.2759 H   0  0  0  0  0  0  0  0  0  0  0  0
  1  2  1  0  0  0  0
  1 26  1  0  0  0  0
  1 27  1  0  0  0  0
  1 28  1  0  0  0  0
  2 25  1  0  0  0  0
  2  3  2  0  0  0  0
  3  4  1  0  0  0  0
  3 29  1  0  0  0  0
  4  5  1  0  0  0  0
  4  6  2  0  0  0  0
  5 30  1  0  0  0  0
  5 31  1  0  0  0  0
  5 32  1  0  0  0  0
  6  7  1  0  0  0  0
  7  8  1  0  0  0  0
  7 25  2  0  0  0  0
  8  9  1  0  0  0  0
  8 33  1  0  0  0  0
  9 10  2  0  0  0  0
  9 11  1  0  0  0  0
 11 12  1  0  0  0  0
 11 34  1  0  0  0  0
 12 24  1  0  0  0  0
 12 13  1  0  0  0  0
 12 35  1  0  0  0  0
 13 14  1  0  0  0  0
 13 36  1  0  0  0  0
 13 37  1  0  0  0  0
 14 15  1  0  0  0  0
 14 38  1  0  0  0  0
 14 39  1  0  0  0  0
 15 16  1  0  0  0  0
 15 23  1  0  0  0  0
 16 22  1  0  0  0  0
 16 17  1  0  0  0  0
 16 40  1  0  0  0  0
 17 18  1  0  0  0  0
 17 41  1  0  0  0  0
 17 42  1  0  0  0  0
 18 19  1  0  0  0  0
 18 43  1  0  0  0  0
 18 44  1  0  0  0  0
 19 20  1  0  0  0  0
 19 21  1  0  0  0  0
 19 57  1  0  0  0  0
 20 45  1  0  0  0  0
 20 46  1  0  0  0  0
 20 47  1  0  0  0  0
 21 22  1  0  0  0  0
 21 48  1  0  0  0  0
 21 49  1  0  0  0  0
 22 50  1  0  0  0  0
 22 51  1  0  0  0  0
 23 24  1  0  0  0  0
 23 52  1  0  0  0  0
 23 53  1  0  0  0  0
 24 54  1  0  0  0  0
 24 55  1  0  0  0  0
 25 56  1  0  0  0  0
M  CHG  1  19   1
M  END
> <s_m_source_file>
AV-unprocessed.smi

> <i_m_source_file_index>
2279

> <i_lp_mmshare_version>
43012

> <i_f3d_flags>
0

> <s_epik_input>
W0NIM11jMVtjSF1jKFtDSDNdKW5jKFtjSF0xKVtOSF1DKD1PKVtOSF1bQ0hdMltDSDJdW0NIMl1OKFtDSDJdW0NIMl0yKVtDSF0zW0NIMl1bQ0gyXU4oW0NIM10pW0NIMl1bQ0gyXTM=

> <s_epik_cmdline>
J2VwaWtfcHl0aG9uJywgJy1waCcsICc3LjAnLCAnLXRuJywgJzgnLCAnLW1hJywgJzIwMCcsICctbWV0YWxfYmluZGluZycsICctaW1hZScsICc8aW5maWxlLm1hZT4nLCAnLW9tYWUnLCAnPG91dGZpbGUubWFlPic=

> <r_epik_Ionization_Penalty>
1.01001

> <r_epik_Ionization_Penalty_Charging>
0.000974969

> <r_epik_Ionization_Penalty_Neutral>
1.00904

> <r_epik_State_Penalty>
1.10286

> <r_epik_Charging_Adjusted_Penalty>
1.10383

> <i_epik_Tot_Q>
1

> <i_epik_Tot_abs_Q>
1

> <r_epik_Metal_State_Penalty>
1.10279

> <b_epik_Metal_Only>
0

> <s_lp_Force_Field>
OPLS_2005

> <r_lp_Energy>
36.6633

> <b_lp_Chiralities_Consistent>
1

> <s_lp_Variant>
AV-unprocessed.smi:2279-6

> <Gold.Version>
5.8.1

> <Gold.Id.Protein>
6NUR|6NUR_protein|mol2

> <Gold.PLP.Fitness>
43.7567

> <Gold.PLP.PLP>
-46.8451

> <Gold.PLP.part.hbond>
0.0000

> <Gold.PLP.part.metal>
0.0000

> <Gold.PLP.part.buried>
-4.6621

> <Gold.PLP.part.nonpolar>
-42.0977

> <Gold.PLP.part.repulsive>
0.0816

> <Gold.PLP.ligand.clash>
1.9114

> <Gold.PLP.ligand.torsion>
0.5907

> <Gold.PLP.Chemscore.Hbond>
0.0000

> <Gold.PLP.Chemscore.CHOScore>
0.0000

> <Gold.PLP.Chemscore.Metal>
0.0000

> <Gold.PLP.Chemscore.Internal.Correction>
0.0045

> <Gold.Rescore>
     Score         DG    S(hbond)    S(metal)    S(lipo)     H(rot)  DE(clash)    DE(int)     intcor
     13.95     -17.43       0.00        0.00     128.31       1.20       0.19       3.29       ----

> <Gold.Chemscore.Fitness>
13.9456

> <Gold.Chemscore.DG>
-17.4253

> <Gold.Chemscore.ZeroCoef>
-5.4800

> <Gold.Chemscore.Hbond>
0.0000

> <Gold.Chemscore.Metal>
0.0000

> <Gold.Chemscore.Lipo>
128.3124

> <Gold.Chemscore.Internal_Hbond>
0.0000

> <Gold.Chemscore.DEClash>
0.1934

> <Gold.Chemscore.DEInternal>
3.2863

> <Gold.Chemscore.Rot>
1.1981

> <Gold.Chemscore.Internal.Correction>
   9.000000E+99

> <Gold.Chemscore.Hbond.Weighted>
-0.0000

> <Gold.Chemscore.Metal.Weighted>
-0.0000

> <Gold.Chemscore.Lipo.Weighted>
-15.0126

> <Gold.Chemscore.Internal_Hbond.Weighted>
0.0000

> <Gold.Chemscore.DEClash.Weighted>
0.1934

> <Gold.Chemscore.DEInternal.Weighted>
3.2863

> <Gold.Chemscore.Rot.Weighted>
3.0673

> <Gold.Chemscore.Internal.Correction.Weighted>
   9.000000E+99

> <Gold.Protein.RotatedTorsions>
[ 6907 6896 6895 6894 ] final  148.73 input  -60.11 | X-H torsion
[ 7974 7965 7964 7962 ] final   29.51 input  175.53 | X-H torsion
[ 8008 7997 7996 7995 ] final  -56.75 input   59.86 | X-H torsion
[ 10167 10162 10161 10158 ] final   24.58 input  -65.29 | X-H torsion
[ 10718 10713 10712 10709 ] final   52.65 input   66.30 | X-H torsion
[ 10763 10752 10751 10750 ] final   28.02 input  -60.55 | X-H torsion
[ 11005 11000 10999 10996 ] final -121.01 input  -57.11 | X-H torsion

> <Gold.Protein.ActiveResidues>
 VAL166  LYS551  ARG553  GLY616  TRP617  ASP618  TYR619  PRO620  LYS621  CYS622 
 ASP623  PHE694  ASN695  SER759  ASP760  ASP761  ALA762  ILE779  LEU786  VAL792 
 PHE793  MET794  SER795  GLU796  ALA797  LYS798  CYS799  TRP800  GLU811  SER814 

> <Gold.Protein.RotatedAtoms>
  152.1375  133.4444  159.4750 H   0  0  0  0  0  0  0  0  0  0  0  0  # atno 6907 bound_to 6896
  150.6883  134.2346  159.4457 H   0  0  0  0  0  0  0  0  0  0  0  0  # atno 6908 bound_to 6896
  152.0234  134.9809  160.0622 H   0  0  0  0  0  0  0  0  0  0  0  0  # atno 6909 bound_to 6896
  146.1667  139.6913  142.8996 H   0  0  0  0  0  0  0  0  0  0  0  0  # atno 7974 bound_to 7965
  154.4242  140.1122  156.5688 H   0  0  0  0  0  0  0  0  0  0  0  0  # atno 8008 bound_to 7997
  155.6234  140.3495  155.4640 H   0  0  0  0  0  0  0  0  0  0  0  0  # atno 8009 bound_to 7997
  156.0006  140.1198  157.0541 H   0  0  0  0  0  0  0  0  0  0  0  0  # atno 8010 bound_to 7997
  140.5176  144.0056  150.6401 H   0  0  0  0  0  0  0  0  0  0  0  0  # atno 10167 bound_to 10162
  157.5095  130.8491  149.8417 H   0  0  0  0  0  0  0  0  0  0  0  0  # atno 10718 bound_to 10713
  153.0518  135.6523  154.0674 H   0  0  0  0  0  0  0  0  0  0  0  0  # atno 10763 bound_to 10752
  154.0360  135.2907  155.3363 H   0  0  0  0  0  0  0  0  0  0  0  0  # atno 10764 bound_to 10752
  154.6811  135.5319  153.8331 H   0  0  0  0  0  0  0  0  0  0  0  0  # atno 10765 bound_to 10752
  141.0102  134.0276  157.3424 H   0  0  0  0  0  0  0  0  0  0  0  0  # atno 11005 bound_to 11000
  145.4448  141.0425  143.2837 LP  0  0  0  0  0  0  0  0  0  0  0  0  # atno 17320 bound_to 7965
  144.8103  139.5974  143.7032 LP  0  0  0  0  0  0  0  0  0  0  0  0  # atno 17321 bound_to 7965
  140.3396  143.3028  152.0602 LP  0  0  0  0  0  0  0  0  0  0  0  0  # atno 17342 bound_to 10162
  139.4914  144.6452  151.6794 LP  0  0  0  0  0  0  0  0  0  0  0  0  # atno 17343 bound_to 10162
  156.0280  130.3773  150.1769 LP  0  0  0  0  0  0  0  0  0  0  0  0  # atno 17370 bound_to 10713
  156.9958  130.9907  151.3403 LP  0  0  0  0  0  0  0  0  0  0  0  0  # atno 17371 bound_to 10713
  139.9085  135.0185  156.7592 LP  0  0  0  0  0  0  0  0  0  0  0  0  # atno 17394 bound_to 11000
  140.6747  133.9528  155.7876 LP  0  0  0  0  0  0  0  0  0  0  0  0  # atno 17395 bound_to 11000

$$$$
