AV-unprocessed.smi:1734|AV-procd|sdf|6980|dock6
  -GOLD-   22720 8193D 1   1.00000     0.00000
 Structure written by MMmdl.
 50 52  0  0  0  0  0  0  0  0  1 V2000
  146.1887  134.2380  150.8595 C   0  0  0  0  0  0  0  0  0  0  0  0
  146.3593  132.8073  151.3444 C   0  0  0  0  0  0  0  0  0  0  0  0
  145.5408  131.7932  150.8031 C   0  0  0  0  0  0  0  0  0  0  0  0
  145.6977  130.4715  151.2540 C   0  0  0  0  0  0  0  0  0  0  0  0
  146.6729  130.2183  152.2336 C   0  0  0  0  0  0  0  0  0  0  0  0
  147.4596  131.1809  152.7561 N   0  0  0  0  0  0  0  0  0  0  0  0
  147.3214  132.4621  152.3315 C   0  0  0  0  0  0  0  0  0  0  0  0
  148.1195  133.5281  152.8353 N   0  0  0  0  0  0  0  0  0  0  0  0
  148.7884  133.5940  154.0001 C   0  0  0  0  0  0  0  0  0  0  0  0
  148.8054  132.7177  154.8651 O   0  0  0  0  0  0  0  0  0  0  0  0
  149.4474  134.7558  154.1155 N   0  0  0  0  0  0  0  0  0  0  0  0
  150.2635  135.1420  155.2625 C   0  0  0  0  0  0  0  0  0  0  0  0
  150.2080  136.6687  155.5565 C   0  0  2  0  0  0  0  0  0  0  0  0
  151.0177  137.5119  154.5218 C   0  0  2  0  0  0  0  0  0  0  0  0
  152.5383  137.5525  154.6992 C   0  0  0  0  0  0  0  0  0  0  0  0
  152.8966  139.0033  154.3944 C   0  0  0  0  0  0  0  0  0  0  0  0
  151.7560  139.7188  154.8362 O   0  0  0  0  0  0  0  0  0  0  0  0
  150.6157  138.9936  154.3996 C   0  0  0  0  0  0  0  0  0  0  0  0
  150.4206  137.0369  156.9711 N   0  0  0  0  0  0  0  0  0  0  0  0
  149.4235  136.4650  157.8733 C   0  0  0  0  0  0  0  0  0  0  0  0
  149.5863  136.9901  159.3087 C   0  0  0  0  0  0  0  0  0  0  0  0
  150.9030  136.7029  159.7671 O   0  0  0  0  0  0  0  0  0  0  0  0
  151.9078  137.2892  158.9463 C   0  0  0  0  0  0  0  0  0  0  0  0
  151.7622  136.7929  157.4966 C   0  0  0  0  0  0  0  0  0  0  0  0
  145.4321  134.3043  150.0770 H   0  0  0  0  0  0  0  0  0  0  0  0
  147.1250  134.6198  150.4517 H   0  0  0  0  0  0  0  0  0  0  0  0
  145.8784  134.8834  151.6817 H   0  0  0  0  0  0  0  0  0  0  0  0
  144.8003  132.0220  150.0507 H   0  0  0  0  0  0  0  0  0  0  0  0
  145.0868  129.6731  150.8595 H   0  0  0  0  0  0  0  0  0  0  0  0
  146.8269  129.2169  152.6077 H   0  0  0  0  0  0  0  0  0  0  0  0
  148.1957  134.3319  152.2301 H   0  0  0  0  0  0  0  0  0  0  0  0
  149.3813  135.4211  153.3593 H   0  0  0  0  0  0  0  0  0  0  0  0
  149.9350  134.5601  156.1235 H   0  0  0  0  0  0  0  0  0  0  0  0
  151.2854  134.8229  155.0615 H   0  0  0  0  0  0  0  0  0  0  0  0
  149.1761  136.9572  155.3512 H   0  0  0  0  0  0  0  0  0  0  0  0
  150.8298  137.0677  153.5431 H   0  0  0  0  0  0  0  0  0  0  0  0
  152.8395  137.3041  155.7147 H   0  0  0  0  0  0  0  0  0  0  0  0
  153.0536  136.8581  154.0351 H   0  0  0  0  0  0  0  0  0  0  0  0
  153.8021  139.3305  154.9058 H   0  0  0  0  0  0  0  0  0  0  0  0
  153.0312  139.1554  153.3222 H   0  0  0  0  0  0  0  0  0  0  0  0
  150.4183  139.2469  153.3568 H   0  0  0  0  0  0  0  0  0  0  0  0
  149.7303  139.2694  154.9716 H   0  0  0  0  0  0  0  0  0  0  0  0
  148.4196  136.6968  157.5157 H   0  0  0  0  0  0  0  0  0  0  0  0
  149.5086  135.3787  157.8941 H   0  0  0  0  0  0  0  0  0  0  0  0
  149.4015  138.0645  159.3521 H   0  0  0  0  0  0  0  0  0  0  0  0
  148.8652  136.5123  159.9717 H   0  0  0  0  0  0  0  0  0  0  0  0
  151.8293  138.3769  158.9887 H   0  0  0  0  0  0  0  0  0  0  0  0
  152.8893  137.0247  159.3395 H   0  0  0  0  0  0  0  0  0  0  0  0
  151.9953  135.7287  157.4543 H   0  0  0  0  0  0  0  0  0  0  0  0
  152.5055  137.3120  156.8963 H   0  0  0  0  0  0  0  0  0  0  0  0
  1  2  1  0  0  0  0
  1 25  1  0  0  0  0
  1 26  1  0  0  0  0
  1 27  1  0  0  0  0
  2  7  1  0  0  0  0
  2  3  2  0  0  0  0
  3  4  1  0  0  0  0
  3 28  1  0  0  0  0
  4  5  2  0  0  0  0
  4 29  1  0  0  0  0
  5  6  1  0  0  0  0
  5 30  1  0  0  0  0
  6  7  2  0  0  0  0
  7  8  1  0  0  0  0
  8  9  1  0  0  0  0
  8 31  1  0  0  0  0
  9 10  2  0  0  0  0
  9 11  1  0  0  0  0
 11 12  1  0  0  0  0
 11 32  1  0  0  0  0
 12 13  1  0  0  0  0
 12 33  1  0  0  0  0
 12 34  1  0  0  0  0
 13 14  1  0  0  0  0
 13 19  1  0  0  0  0
 13 35  1  0  0  0  0
 14 18  1  0  0  0  0
 14 15  1  0  0  0  0
 14 36  1  0  0  0  0
 15 16  1  0  0  0  0
 15 37  1  0  0  0  0
 15 38  1  0  0  0  0
 16 17  1  0  0  0  0
 16 39  1  0  0  0  0
 16 40  1  0  0  0  0
 17 18  1  0  0  0  0
 18 41  1  0  0  0  0
 18 42  1  0  0  0  0
 19 24  1  0  0  0  0
 19 20  1  0  0  0  0
 20 21  1  0  0  0  0
 20 43  1  0  0  0  0
 20 44  1  0  0  0  0
 21 22  1  0  0  0  0
 21 45  1  0  0  0  0
 21 46  1  0  0  0  0
 22 23  1  0  0  0  0
 23 24  1  0  0  0  0
 23 47  1  0  0  0  0
 23 48  1  0  0  0  0
 24 49  1  0  0  0  0
 24 50  1  0  0  0  0
M  END
> <s_m_source_file>
AV-unprocessed.smi

> <i_m_source_file_index>
1734

> <i_lp_mmshare_version>
43012

> <i_f3d_flags>
0

> <s_epik_input>
W0NIM11jMVtjSF1bY0hdW2NIXW5jMVtOSF1DKD1PKVtOSF1bQ0gyXVtDQEhdKFtDQEBIXTJbQ0gyXVtDSDJdT1tDSDJdMilOM1tDSDJdW0NIMl1PW0NIMl1bQ0gyXTM=

> <s_epik_cmdline>
J2VwaWtfcHl0aG9uJywgJy1waCcsICc3LjAnLCAnLXRuJywgJzgnLCAnLW1hJywgJzIwMCcsICctbWV0YWxfYmluZGluZycsICctaW1hZScsICc8aW5maWxlLm1hZT4nLCAnLW9tYWUnLCAnPG91dGZpbGUubWFlPic=

> <r_epik_Ionization_Penalty>
0.125073

> <r_epik_Ionization_Penalty_Charging>
0

> <r_epik_Ionization_Penalty_Neutral>
0.125073

> <r_epik_State_Penalty>
0.114484

> <r_epik_Charging_Adjusted_Penalty>
0.114484

> <i_epik_Tot_Q>
0

> <i_epik_Tot_abs_Q>
0

> <r_epik_Metal_State_Penalty>
0.114483

> <b_epik_Metal_Only>
0

> <s_lp_Force_Field>
OPLS_2005

> <r_lp_Energy>
56.0061

> <b_lp_Chiralities_Consistent>
1

> <s_lp_Variant>
AV-unprocessed.smi:1734-1

> <Gold.Version>
5.8.1

> <Gold.Id.Protein>
6NUR|6NUR_protein|mol2

> <Gold.PLP.Fitness>
45.6537

> <Gold.PLP.PLP>
-36.3447

> <Gold.PLP.part.hbond>
-4.1897

> <Gold.PLP.part.metal>
0.0000

> <Gold.PLP.part.buried>
-1.5918

> <Gold.PLP.part.nonpolar>
-29.3118

> <Gold.PLP.part.repulsive>
0.2087

> <Gold.PLP.ligand.clash>
0.0000

> <Gold.PLP.ligand.torsion>
0.7866

> <Gold.PLP.Chemscore.Hbond>
3.5173

> <Gold.PLP.Chemscore.CHOScore>
0.0000

> <Gold.PLP.Chemscore.Metal>
0.0000

> <Gold.Chemscore.Hbonds>
donor molecule, donor type, donor heavy atom, donor atom, acceptor molecule, acceptor atom, score
      L1  H     8    31       P1  7948  0.70
      L1  H    11    32       P1  7948  0.85
      P1  H  6896  6907       L1    22  1.00
      P1  H  7989  7998       L1    17  0.58

> <Gold.PLP.Chemscore.Internal.Correction>
0.3303

> <Gold.Rescore>
     Score         DG    S(hbond)    S(metal)    S(lipo)     H(rot)  DE(clash)    DE(int)     intcor
     14.73     -19.40       2.10        0.00      95.24       1.65       1.95       2.73       ----

> <Gold.Chemscore.Fitness>
14.7304

> <Gold.Chemscore.DG>
-19.4045

> <Gold.Chemscore.ZeroCoef>
-5.4800

> <Gold.Chemscore.Hbond>
2.0959

> <Gold.Chemscore.Metal>
0.0000

> <Gold.Chemscore.Lipo>
95.2381

> <Gold.Chemscore.Internal_Hbond>
0.0000

> <Gold.Chemscore.DEClash>
1.9469

> <Gold.Chemscore.DEInternal>
2.7272

> <Gold.Chemscore.Rot>
1.6480

> <Gold.Chemscore.Internal.Correction>
   9.000000E+99

> <Gold.Chemscore.Hbonds>
donor molecule, donor type, donor heavy atom, donor atom, acceptor molecule, acceptor atom, score
      L1  H     8    31       P1  7948  0.07
      L1  H    11    32       P1  7948  0.15
      P1  H  6896  6907       L1    22  0.44
      P1  H  7989  7998       L1    17  0.01

> <Gold.Chemscore.Hbond.Weighted>
-7.0005

> <Gold.Chemscore.Metal.Weighted>
-0.0000

> <Gold.Chemscore.Lipo.Weighted>
-11.1429

> <Gold.Chemscore.Internal_Hbond.Weighted>
0.0000

> <Gold.Chemscore.DEClash.Weighted>
1.9469

> <Gold.Chemscore.DEInternal.Weighted>
2.7272

> <Gold.Chemscore.Rot.Weighted>
4.2188

> <Gold.Chemscore.Internal.Correction.Weighted>
   9.000000E+99

> <Gold.Protein.RotatedTorsions>
[ 6907 6896 6895 6894 ] final  -36.61 input  -60.11 | X-H torsion
[ 7974 7965 7964 7962 ] final    9.41 input  175.53 | X-H torsion
[ 8008 7997 7996 7995 ] final   30.90 input   59.86 | X-H torsion
[ 10167 10162 10161 10158 ] final  100.16 input  -65.29 | X-H torsion
[ 10718 10713 10712 10709 ] final  149.88 input   66.30 | X-H torsion
[ 10763 10752 10751 10750 ] final   30.31 input  -60.55 | X-H torsion
[ 11005 11000 10999 10996 ] final   61.07 input  -57.11 | X-H torsion

> <Gold.Protein.ActiveResidues>
 VAL166  LYS551  ARG553  GLY616  TRP617  ASP618  TYR619  PRO620  LYS621  CYS622 
 ASP623  PHE694  ASN695  SER759  ASP760  ASP761  ALA762  ILE779  LEU786  VAL792 
 PHE793  MET794  SER795  GLU796  ALA797  LYS798  CYS799  TRP800  GLU811  SER814 

> <Gold.Protein.RotatedAtoms>
  151.0250  134.9497  159.8079 H   0  0  0  0  0  0  0  0  0  0  0  0  # atno 6907 bound_to 6896
  152.5333  134.2855  159.9033 H   0  0  0  0  0  0  0  0  0  0  0  0  # atno 6908 bound_to 6896
  151.2863  133.4144  159.2664 H   0  0  0  0  0  0  0  0  0  0  0  0  # atno 6909 bound_to 6896
  146.2404  139.9788  142.8438 H   0  0  0  0  0  0  0  0  0  0  0  0  # atno 7974 bound_to 7965
  155.0978  140.3226  155.4555 H   0  0  0  0  0  0  0  0  0  0  0  0  # atno 8008 bound_to 7997
  156.2725  140.2066  156.6051 H   0  0  0  0  0  0  0  0  0  0  0  0  # atno 8009 bound_to 7997
  154.6853  140.0522  157.0295 H   0  0  0  0  0  0  0  0  0  0  0  0  # atno 8010 bound_to 7997
  139.7552  144.6972  151.0373 H   0  0  0  0  0  0  0  0  0  0  0  0  # atno 10167 bound_to 10162
  157.2906  131.0852  151.1465 H   0  0  0  0  0  0  0  0  0  0  0  0  # atno 10718 bound_to 10713
  153.0379  135.6467  154.1024 H   0  0  0  0  0  0  0  0  0  0  0  0  # atno 10763 bound_to 10752
  154.0736  135.2878  155.3305 H   0  0  0  0  0  0  0  0  0  0  0  0  # atno 10764 bound_to 10752
  154.6578  135.5403  153.8044 H   0  0  0  0  0  0  0  0  0  0  0  0  # atno 10765 bound_to 10752
  140.0187  134.6186  155.9672 H   0  0  0  0  0  0  0  0  0  0  0  0  # atno 11005 bound_to 11000
  145.1611  140.9673  143.4376 LP  0  0  0  0  0  0  0  0  0  0  0  0  # atno 17320 bound_to 7965
  145.0115  139.3505  143.6117 LP  0  0  0  0  0  0  0  0  0  0  0  0  # atno 17321 bound_to 7965
  140.7802  143.4762  151.0080 LP  0  0  0  0  0  0  0  0  0  0  0  0  # atno 17342 bound_to 10162
  139.8449  143.7515  152.3179 LP  0  0  0  0  0  0  0  0  0  0  0  0  # atno 17343 bound_to 10162
  157.2863  130.6774  149.6091 LP  0  0  0  0  0  0  0  0  0  0  0  0  # atno 17370 bound_to 10713
  155.9667  130.4434  150.5421 LP  0  0  0  0  0  0  0  0  0  0  0  0  # atno 17371 bound_to 10713
  141.1759  133.6540  156.4829 LP  0  0  0  0  0  0  0  0  0  0  0  0  # atno 17394 bound_to 11000
  140.4426  134.7002  157.4999 LP  0  0  0  0  0  0  0  0  0  0  0  0  # atno 17395 bound_to 11000

$$$$
