AV-unprocessed.smi:125|AV-procd|sdf|1150|dock6
  -GOLD-   2262018283D 1   1.00000     0.00000
 Structure written by MMmdl.
 59 62  0  0  0  0  0  0  0  0  1 V2000
  147.2722  133.1311  158.5491 C   0  0  0  0  0  0  0  0  0  0  0  0
  148.2027  134.2339  158.0713 C   0  0  0  0  0  0  0  0  0  0  0  0
  149.3920  133.8683  157.4060 C   0  0  0  0  0  0  0  0  0  0  0  0
  150.2913  134.8475  156.9444 C   0  0  0  0  0  0  0  0  0  0  0  0
  150.0081  136.2198  157.1338 C   0  0  0  0  0  0  0  0  0  0  0  0
  150.8790  137.2646  156.7226 N   0  0  0  0  0  0  0  0  0  0  0  0
  152.2228  137.3057  156.7710 C   0  0  0  0  0  0  0  0  0  0  0  0
  152.9347  136.3783  157.1588 O   0  0  0  0  0  0  0  0  0  0  0  0
  152.8501  138.6147  156.2655 C   0  0  0  0  0  0  0  0  0  0  0  0
  151.9770  139.7973  156.4353 N   0  0  0  0  0  0  0  0  0  0  0  0
  151.0191  140.0836  155.4309 C   0  0  0  0  0  0  0  0  0  0  0  0
  150.9087  139.3703  154.4325 O   0  0  0  0  0  0  0  0  0  0  0  0
  150.1897  141.2598  155.6677 C   0  0  0  0  0  0  0  0  0  0  0  0
  149.2663  141.6172  154.7593 F   0  0  0  0  0  0  0  0  0  0  0  0
  150.3377  142.0003  156.7853 C   0  0  0  0  0  0  0  0  0  0  0  0
  151.2645  141.6983  157.7666 N   0  0  0  0  0  0  0  0  0  0  0  0
  151.4062  142.5503  159.0092 C   0  0  1  0  0  0  0  0  0  0  0  0
  152.7998  143.1860  159.0581 C   0  0  0  0  0  0  0  0  0  0  0  0
  152.5560  144.5159  158.3790 C   0  0  0  0  0  0  0  0  0  0  0  0
  151.1438  144.8464  158.8494 C   0  0  0  0  0  0  0  0  0  0  0  0
  150.4740  143.5924  158.9616 O   0  0  0  0  0  0  0  0  0  0  0  0
  152.1135  140.5817  157.6053 C   0  0  0  0  0  0  0  0  0  0  0  0
  152.9528  140.3005  158.4636 O   0  0  0  0  0  0  0  0  0  0  0  0
  148.8292  136.5902  157.8102 C   0  0  0  0  0  0  0  0  0  0  0  0
  147.9247  135.6109  158.2726 C   0  0  0  0  0  0  0  0  0  0  0  0
  146.4488  136.1777  159.1359 S   0  0  0  0  0  0  0  0  0  0  0  0
  146.4949  137.6421  159.2736 O   0  0  0  0  0  0  0  0  0  0  0  0
  145.2801  135.5382  158.5116 O   0  0  0  0  0  0  0  0  0  0  0  0
  146.6595  135.5066  160.7182 N   0  0  0  0  0  0  0  0  0  0  0  0
  146.0099  134.2313  161.0604 C   0  0  0  0  0  0  0  0  0  0  0  0
  146.6480  133.6096  162.3136 C   0  0  0  0  0  0  0  0  0  0  0  0
  146.6731  134.5520  163.3753 O   0  0  0  0  0  0  0  0  0  0  0  0
  147.4721  135.6800  163.0514 C   0  0  0  0  0  0  0  0  0  0  0  0
  146.8717  136.4232  161.8480 C   0  0  0  0  0  0  0  0  0  0  0  0
  147.6772  132.1466  158.3142 H   0  0  0  0  0  0  0  0  0  0  0  0
  146.2997  133.2047  158.0641 H   0  0  0  0  0  0  0  0  0  0  0  0
  147.1346  133.1734  159.6281 H   0  0  0  0  0  0  0  0  0  0  0  0
  149.6280  132.8257  157.2498 H   0  0  0  0  0  0  0  0  0  0  0  0
  151.2000  134.5211  156.4626 H   0  0  0  0  0  0  0  0  0  0  0  0
  150.4297  138.0554  156.2840 H   0  0  0  0  0  0  0  0  0  0  0  0
  153.8066  138.7571  156.7711 H   0  0  0  0  0  0  0  0  0  0  0  0
  153.1252  138.4844  155.2176 H   0  0  0  0  0  0  0  0  0  0  0  0
  149.7002  142.8638  156.9027 H   0  0  0  0  0  0  0  0  0  0  0  0
  151.1847  141.8950  159.8533 H   0  0  0  0  0  0  0  0  0  0  0  0
  153.0783  143.3346  160.1021 H   0  0  0  0  0  0  0  0  0  0  0  0
  153.5580  142.5702  158.5732 H   0  0  0  0  0  0  0  0  0  0  0  0
  153.2866  145.2776  158.6525 H   0  0  0  0  0  0  0  0  0  0  0  0
  152.5766  144.3956  157.2952 H   0  0  0  0  0  0  0  0  0  0  0  0
  151.1725  145.3139  159.8345 H   0  0  0  0  0  0  0  0  0  0  0  0
  150.6216  145.5194  158.1691 H   0  0  0  0  0  0  0  0  0  0  0  0
  148.6221  137.6378  157.9702 H   0  0  0  0  0  0  0  0  0  0  0  0
  144.9480  134.4136  161.2278 H   0  0  0  0  0  0  0  0  0  0  0  0
  146.0897  133.5332  160.2274 H   0  0  0  0  0  0  0  0  0  0  0  0
  146.0760  132.7369  162.6290 H   0  0  0  0  0  0  0  0  0  0  0  0
  147.6599  133.2619  162.0987 H   0  0  0  0  0  0  0  0  0  0  0  0
  147.5147  136.3428  163.9157 H   0  0  0  0  0  0  0  0  0  0  0  0
  148.4966  135.3682  162.8417 H   0  0  0  0  0  0  0  0  0  0  0  0
  147.5301  137.2373  161.5442 H   0  0  0  0  0  0  0  0  0  0  0  0
  145.9150  136.8696  162.1213 H   0  0  0  0  0  0  0  0  0  0  0  0
  1  2  1  0  0  0  0
  1 35  1  0  0  0  0
  1 36  1  0  0  0  0
  1 37  1  0  0  0  0
  2 25  1  0  0  0  0
  2  3  2  0  0  0  0
  3  4  1  0  0  0  0
  3 38  1  0  0  0  0
  4  5  2  0  0  0  0
  4 39  1  0  0  0  0
  5  6  1  0  0  0  0
  5 24  1  0  0  0  0
  6  7  1  0  0  0  0
  6 40  1  0  0  0  0
  7  8  2  0  0  0  0
  7  9  1  0  0  0  0
  9 10  1  0  0  0  0
  9 41  1  0  0  0  0
  9 42  1  0  0  0  0
 10 22  1  0  0  0  0
 10 11  1  0  0  0  0
 11 12  2  0  0  0  0
 11 13  1  0  0  0  0
 13 14  1  0  0  0  0
 13 15  2  0  0  0  0
 15 16  1  0  0  0  0
 15 43  1  0  0  0  0
 16 17  1  0  0  0  0
 16 22  1  0  0  0  0
 17 21  1  0  0  0  0
 17 18  1  0  0  0  0
 17 44  1  0  0  0  0
 18 19  1  0  0  0  0
 18 45  1  0  0  0  0
 18 46  1  0  0  0  0
 19 20  1  0  0  0  0
 19 47  1  0  0  0  0
 19 48  1  0  0  0  0
 20 21  1  0  0  0  0
 20 49  1  0  0  0  0
 20 50  1  0  0  0  0
 22 23  2  0  0  0  0
 24 25  2  0  0  0  0
 24 51  1  0  0  0  0
 25 26  1  0  0  0  0
 26 27  2  0  0  0  0
 26 28  2  0  0  0  0
 26 29  1  0  0  0  0
 29 34  1  0  0  0  0
 29 30  1  0  0  0  0
 30 31  1  0  0  0  0
 30 52  1  0  0  0  0
 30 53  1  0  0  0  0
 31 32  1  0  0  0  0
 31 54  1  0  0  0  0
 31 55  1  0  0  0  0
 32 33  1  0  0  0  0
 33 34  1  0  0  0  0
 33 56  1  0  0  0  0
 33 57  1  0  0  0  0
 34 58  1  0  0  0  0
 34 59  1  0  0  0  0
M  END
> <s_m_source_file>
AV-unprocessed.smi

> <i_m_source_file_index>
125

> <i_lp_mmshare_version>
43012

> <i_f3d_flags>
0

> <s_epik_input>
W0NIMl0xW0NIMl1PW0NIMl1bQ0gyXU4xUyg9TykoPU8pYzJbY0hdYyhbY0hdW2NIXWMyW0NIM10pW05IXUMoPU8pW0NIMl1uM2MoPU8pYyhGKVtjSF1uKGMzPU8pW0NAQEhdNFtDSDJdW0NIMl1bQ0gyXU80

> <s_epik_cmdline>
J2VwaWtfcHl0aG9uJywgJy1waCcsICc3LjAnLCAnLXRuJywgJzgnLCAnLW1hJywgJzIwMCcsICctbWV0YWxfYmluZGluZycsICctaW1hZScsICc8aW5maWxlLm1hZT4nLCAnLW9tYWUnLCAnPG91dGZpbGUubWFlPic=

> <r_lp_tautomer_probability>
1

> <r_epik_Ionization_Penalty>
4.12263e-06

> <r_epik_Ionization_Penalty_Charging>
3.88729e-08

> <r_epik_Ionization_Penalty_Neutral>
4.08376e-06

> <r_epik_State_Penalty>
-0

> <r_epik_Charging_Adjusted_Penalty>
3.88729e-08

> <i_epik_Tot_Q>
0

> <i_epik_Tot_abs_Q>
0

> <r_epik_Metal_State_Penalty>
-0

> <b_epik_Metal_Only>
0

> <s_epik_Chemistry_Notes>
This compound contains an acetal/aminal-like group ( X-CH(R)-Y where X, Y are N, S, or O) that may be acid/base labile, releasing an aldehyde.

> <s_lp_Force_Field>
OPLS_2005

> <r_lp_Energy>
38.7063

> <b_lp_Chiralities_Consistent>
1

> <s_lp_Variant>
AV-unprocessed.smi:125-2

> <Gold.Version>
5.8.1

> <Gold.Id.Protein>
6NUR|6NUR_protein|mol2

> <Gold.PLP.Fitness>
64.0655

> <Gold.PLP.PLP>
-53.7919

> <Gold.PLP.part.hbond>
-5.0000

> <Gold.PLP.part.metal>
0.0000

> <Gold.PLP.part.buried>
-3.7740

> <Gold.PLP.part.nonpolar>
-45.5045

> <Gold.PLP.part.repulsive>
0.2931

> <Gold.PLP.ligand.clash>
0.0000

> <Gold.PLP.ligand.torsion>
3.1268

> <Gold.PLP.Chemscore.Hbond>
3.1080

> <Gold.PLP.Chemscore.CHOScore>
1.0000

> <Gold.PLP.Chemscore.Metal>
0.0000

> <Gold.Chemscore.Hbonds>
donor molecule, donor type, donor heavy atom, donor atom, acceptor molecule, acceptor atom, score
      P1  H  6934  6947       L1    27  0.41
      P1  H  7989  7998       L1    12  0.25
      P1  H  7997  8009       L1    23  0.40
      P1  H 10752 10764       L1     8  0.67
      L1  C    15    43       P1  8028  1.00

> <Gold.PLP.Chemscore.Internal.Correction>
4.2032

> <Gold.Rescore>
     Score         DG    S(hbond)    S(metal)    S(lipo)     H(rot)  DE(clash)    DE(int)     intcor
     16.59     -22.02       2.63        0.00     102.46       1.65       1.30       4.12       ----

> <Gold.Chemscore.Fitness>
16.5904

> <Gold.Chemscore.DG>
-22.0171

> <Gold.Chemscore.ZeroCoef>
-5.4800

> <Gold.Chemscore.Hbond>
2.6276

> <Gold.Chemscore.Metal>
0.0000

> <Gold.Chemscore.Lipo>
102.4559

> <Gold.Chemscore.Internal_Hbond>
0.0000

> <Gold.Chemscore.DEClash>
1.3030

> <Gold.Chemscore.DEInternal>
4.1237

> <Gold.Chemscore.Rot>
1.6510

> <Gold.Chemscore.Internal.Correction>
   9.000000E+99

> <Gold.Chemscore.Hbonds>
donor molecule, donor type, donor heavy atom, donor atom, acceptor molecule, acceptor atom, score
      P1  H  6934  6947       L1    27  0.39
      P1  H  7997  8009       L1    23  0.04
      P1  H 10752 10764       L1     8  0.23

> <Gold.Chemscore.Hbond.Weighted>
-8.7763

> <Gold.Chemscore.Metal.Weighted>
-0.0000

> <Gold.Chemscore.Lipo.Weighted>
-11.9873

> <Gold.Chemscore.Internal_Hbond.Weighted>
0.0000

> <Gold.Chemscore.DEClash.Weighted>
1.3030

> <Gold.Chemscore.DEInternal.Weighted>
4.1237

> <Gold.Chemscore.Rot.Weighted>
4.2265

> <Gold.Chemscore.Internal.Correction.Weighted>
   9.000000E+99

> <Gold.Protein.RotatedTorsions>
[ 6907 6896 6895 6894 ] final -171.57 input  -60.11 | X-H torsion
[ 7974 7965 7964 7962 ] final -113.59 input  175.53 | X-H torsion
[ 8008 7997 7996 7995 ] final  156.68 input   59.86 | X-H torsion
[ 10167 10162 10161 10158 ] final  -45.84 input  -65.29 | X-H torsion
[ 10718 10713 10712 10709 ] final   47.33 input   66.30 | X-H torsion
[ 10763 10752 10751 10750 ] final   -8.04 input  -60.55 | X-H torsion
[ 11005 11000 10999 10996 ] final  -53.21 input  -57.11 | X-H torsion

> <Gold.Protein.ActiveResidues>
 VAL166  LYS551  ARG553  GLY616  TRP617  ASP618  TYR619  PRO620  LYS621  CYS622 
 ASP623  PHE694  ASN695  SER759  ASP760  ASP761  ALA762  ILE779  LEU786  VAL792 
 PHE793  MET794  SER795  GLU796  ALA797  LYS798  CYS799  TRP800  GLU811  SER814 

> <Gold.Protein.RotatedAtoms>
  151.5260  133.3458  159.2909 H   0  0  0  0  0  0  0  0  0  0  0  0  # atno 6907 bound_to 6896
  150.8623  134.7980  159.7103 H   0  0  0  0  0  0  0  0  0  0  0  0  # atno 6908 bound_to 6896
  152.4639  134.5131  159.9811 H   0  0  0  0  0  0  0  0  0  0  0  0  # atno 6909 bound_to 6896
  145.1302  140.8720  143.3762 H   0  0  0  0  0  0  0  0  0  0  0  0  # atno 7974 bound_to 7965
  156.2408  140.1906  156.6992 H   0  0  0  0  0  0  0  0  0  0  0  0  # atno 8008 bound_to 7997
  154.6194  140.0610  156.9623 H   0  0  0  0  0  0  0  0  0  0  0  0  # atno 8009 bound_to 7997
  155.1886  140.3282  155.4365 H   0  0  0  0  0  0  0  0  0  0  0  0  # atno 8010 bound_to 7997
  140.6842  143.2860  151.3697 H   0  0  0  0  0  0  0  0  0  0  0  0  # atno 10167 bound_to 10162
  157.4574  130.8175  149.7851 H   0  0  0  0  0  0  0  0  0  0  0  0  # atno 10718 bound_to 10713
  153.4348  135.7012  153.6207 H   0  0  0  0  0  0  0  0  0  0  0  0  # atno 10763 bound_to 10752
  153.4606  135.3737  155.2336 H   0  0  0  0  0  0  0  0  0  0  0  0  # atno 10764 bound_to 10752
  154.8726  135.4019  154.3738 H   0  0  0  0  0  0  0  0  0  0  0  0  # atno 10765 bound_to 10752
  141.0964  133.6624  156.4138 H   0  0  0  0  0  0  0  0  0  0  0  0  # atno 11005 bound_to 11000
  145.0644  139.3080  143.5864 LP  0  0  0  0  0  0  0  0  0  0  0  0  # atno 17320 bound_to 7965
  146.3514  140.0097  142.8668 LP  0  0  0  0  0  0  0  0  0  0  0  0  # atno 17321 bound_to 7965
  139.6187  144.0951  152.2370 LP  0  0  0  0  0  0  0  0  0  0  0  0  # atno 17342 bound_to 10162
  140.0389  144.6023  150.7427 LP  0  0  0  0  0  0  0  0  0  0  0  0  # atno 17343 bound_to 10162
  156.0013  130.3878  150.2594 LP  0  0  0  0  0  0  0  0  0  0  0  0  # atno 17370 bound_to 10713
  157.0770  131.0132  151.3170 LP  0  0  0  0  0  0  0  0  0  0  0  0  # atno 17371 bound_to 10713
  140.5129  134.6378  157.5291 LP  0  0  0  0  0  0  0  0  0  0  0  0  # atno 17394 bound_to 11000
  139.9802  134.7149  155.9873 LP  0  0  0  0  0  0  0  0  0  0  0  0  # atno 17395 bound_to 11000

$$$$
