AV-unprocessed.smi:3072|AV-procd|sdf|11718|dock9
  -GOLD-   2272017123D 1   1.00000     0.00000
 Structure written by MMmdl.
 25 26  0  0  0  0  0  0  0  0  2 V2000
  144.4798  132.9637  149.5417 C   0  0  0  0  0  0  0  0  0  0  0  0
  143.5384  132.0613  149.3164 N   0  0  0  0  0  0  0  0  0  0  0  0
  142.7678  132.1231  150.4174 N   0  0  0  0  0  0  0  0  0  0  0  0
  143.2120  133.0509  151.3295 C   0  0  0  0  0  0  0  0  0  0  0  0
  144.3345  133.6247  150.7976 C   0  0  0  0  0  0  0  0  0  0  0  0
  145.2230  134.6954  151.3775 C   0  0  1  0  0  0  0  0  0  0  0  0
  144.4077  135.9273  151.8164 C   0  0  0  0  0  0  0  0  0  0  0  0
  145.3271  136.9870  152.4437 C   0  0  0  0  0  0  0  0  0  0  0  0
  146.1509  136.3885  153.5958 C   0  0  0  0  0  0  0  0  0  0  0  0
  146.9132  135.2080  153.1345 N   0  3  0  0  0  0  0  0  0  0  0  0
  146.0503  134.1521  152.5610 C   0  0  0  0  0  0  0  0  0  0  0  0
  141.9541  131.5347  150.5299 H   0  0  0  0  0  0  0  0  0  0  0  0
  145.2419  133.1121  148.7908 H   0  0  0  0  0  0  0  0  0  0  0  0
  142.7013  133.2215  152.2658 H   0  0  0  0  0  0  0  0  0  0  0  0
  145.9268  135.0260  150.6117 H   0  0  0  0  0  0  0  0  0  0  0  0
  143.8786  136.3533  150.9632 H   0  0  0  0  0  0  0  0  0  0  0  0
  143.6462  135.6350  152.5409 H   0  0  0  0  0  0  0  0  0  0  0  0
  145.9982  137.3869  151.6823 H   0  0  0  0  0  0  0  0  0  0  0  0
  144.7345  137.8277  152.8057 H   0  0  0  0  0  0  0  0  0  0  0  0
  146.8460  137.1303  153.9898 H   0  0  0  0  0  0  0  0  0  0  0  0
  145.4970  136.0953  154.4183 H   0  0  0  0  0  0  0  0  0  0  0  0
  147.5695  135.5059  152.4269 H   0  0  0  0  0  0  0  0  0  0  0  0
  145.3966  133.7654  153.3441 H   0  0  0  0  0  0  0  0  0  0  0  0
  146.6806  133.3241  152.2350 H   0  0  0  0  0  0  0  0  0  0  0  0
  147.4271  134.8239  153.9146 H   0  0  0  0  0  0  0  0  0  0  0  0
  1  5  1  0  0  0  0
  1  2  2  0  0  0  0
  1 13  1  0  0  0  0
  2  3  1  0  0  0  0
  3 12  1  0  0  0  0
  3  4  1  0  0  0  0
  4  5  2  0  0  0  0
  4 14  1  0  0  0  0
  5  6  1  0  0  0  0
  6 11  1  0  0  0  0
  6  7  1  0  0  0  0
  6 15  1  0  0  0  0
  7  8  1  0  0  0  0
  7 16  1  0  0  0  0
  7 17  1  0  0  0  0
  8  9  1  0  0  0  0
  8 18  1  0  0  0  0
  8 19  1  0  0  0  0
  9 10  1  0  0  0  0
  9 20  1  0  0  0  0
  9 21  1  0  0  0  0
 10 11  1  0  0  0  0
 10 22  1  0  0  0  0
 10 25  1  0  0  0  0
 11 23  1  0  0  0  0
 11 24  1  0  0  0  0
M  CHG  1  10   1
M  END
> <s_m_source_file>
AV-unprocessed.smi

> <i_m_source_file_index>
3072

> <i_lp_mmshare_version>
43012

> <i_f3d_flags>
0

> <s_epik_input>
W2NIXTFbbkhdbltjSF1jMVtDQEBIXTJbQ0gyXVtDSDJdW0NIMl1bTkhdW0NIMl0y

> <s_epik_cmdline>
J2VwaWtfcHl0aG9uJywgJy1waCcsICc3LjAnLCAnLXRuJywgJzgnLCAnLW1hJywgJzIwMCcsICctbWV0YWxfYmluZGluZycsICctaW1hZScsICc8aW5maWxlLm1hZT4nLCAnLW9tYWUnLCAnPG91dGZpbGUubWFlPic=

> <r_lp_tautomer_probability>
1

> <r_epik_Ionization_Penalty>
0.000160186

> <r_epik_Ionization_Penalty_Charging>
0.000157527

> <r_epik_Ionization_Penalty_Neutral>
2.65916e-06

> <r_epik_State_Penalty>
-0

> <r_epik_Charging_Adjusted_Penalty>
0.000157527

> <i_epik_Tot_Q>
1

> <i_epik_Tot_abs_Q>
1

> <r_epik_Metal_State_Penalty>
-0

> <b_epik_Metal_Only>
0

> <s_lp_Force_Field>
OPLS_2005

> <r_lp_Energy>
12.3326

> <b_lp_Chiralities_Consistent>
1

> <s_lp_Variant>
AV-unprocessed.smi:3072-2

> <Gold.Version>
5.8.1

> <Gold.Id.Protein>
6NUR|6NUR_protein|mol2

> <Gold.PLP.Fitness>
34.4801

> <Gold.PLP.PLP>
-19.8566

> <Gold.PLP.part.hbond>
-3.9005

> <Gold.PLP.part.metal>
0.0000

> <Gold.PLP.part.buried>
-3.0406

> <Gold.PLP.part.nonpolar>
-14.0727

> <Gold.PLP.part.repulsive>
0.3895

> <Gold.PLP.ligand.clash>
0.0000

> <Gold.PLP.ligand.torsion>
0.1734

> <Gold.PLP.Chemscore.Hbond>
3.6371

> <Gold.PLP.Chemscore.CHOScore>
1.3489

> <Gold.PLP.Chemscore.Metal>
0.0000

> <Gold.Chemscore.Hbonds>
donor molecule, donor type, donor heavy atom, donor atom, acceptor molecule, acceptor atom, score
      L1  H     3    12       P1 10952  0.78
      L1  H    10    22       P1  7948  2.00
      P1  H 10785 10796       L1     2  0.95
      L1  C     1    13       P1  7921  1.00
      L1  C     4    14       P1 10957  0.11

> <Gold.PLP.Chemscore.Internal.Correction>
0.0123

> <Gold.Rescore>
     Score         DG    S(hbond)    S(metal)    S(lipo)     H(rot)  DE(clash)    DE(int)     intcor
     14.00     -14.28       1.81        0.00      45.32       1.00       0.09       0.20       ----

> <Gold.Chemscore.Fitness>
13.9973

> <Gold.Chemscore.DG>
-14.2824

> <Gold.Chemscore.ZeroCoef>
-5.4800

> <Gold.Chemscore.Hbond>
1.8144

> <Gold.Chemscore.Metal>
0.0000

> <Gold.Chemscore.Lipo>
45.3193

> <Gold.Chemscore.Internal_Hbond>
0.0000

> <Gold.Chemscore.DEClash>
0.0886

> <Gold.Chemscore.DEInternal>
0.1965

> <Gold.Chemscore.Rot>
1.0000

> <Gold.Chemscore.Internal.Correction>
   9.000000E+99

> <Gold.Chemscore.Hbonds>
donor molecule, donor type, donor heavy atom, donor atom, acceptor molecule, acceptor atom, score
      L1  H     3    12       P1 10952  0.15
      L1  H    10    22       P1  7948  0.98
      P1  H 10785 10796       L1     2  0.26

> <Gold.Chemscore.Hbond.Weighted>
-6.0601

> <Gold.Chemscore.Metal.Weighted>
-0.0000

> <Gold.Chemscore.Lipo.Weighted>
-5.3024

> <Gold.Chemscore.Internal_Hbond.Weighted>
0.0000

> <Gold.Chemscore.DEClash.Weighted>
0.0886

> <Gold.Chemscore.DEInternal.Weighted>
0.1965

> <Gold.Chemscore.Rot.Weighted>
2.5600

> <Gold.Chemscore.Internal.Correction.Weighted>
   9.000000E+99

> <Gold.Protein.RotatedTorsions>
[ 6907 6896 6895 6894 ] final    2.97 input  -60.11 | X-H torsion
[ 7974 7965 7964 7962 ] final   67.97 input  175.53 | X-H torsion
[ 8008 7997 7996 7995 ] final -115.53 input   59.86 | X-H torsion
[ 10167 10162 10161 10158 ] final  127.23 input  -65.29 | X-H torsion
[ 10718 10713 10712 10709 ] final -119.70 input   66.30 | X-H torsion
[ 10763 10752 10751 10750 ] final  -41.45 input  -60.55 | X-H torsion
[ 11005 11000 10999 10996 ] final -118.38 input  -57.11 | X-H torsion

> <Gold.Protein.ActiveResidues>
 VAL166  LYS551  ARG553  GLY616  TRP617  ASP618  TYR619  PRO620  LYS621  CYS622 
 ASP623  PHE694  ASN695  SER759  ASP760  ASP761  ALA762  ILE779  LEU786  VAL792 
 PHE793  MET794  SER795  GLU796  ALA797  LYS798  CYS799  TRP800  GLU811  SER814 

> <Gold.Protein.RotatedAtoms>
  151.6175  135.1035  160.0094 H   0  0  0  0  0  0  0  0  0  0  0  0  # atno 6907 bound_to 6896
  152.4176  133.7059  159.6461 H   0  0  0  0  0  0  0  0  0  0  0  0  # atno 6908 bound_to 6896
  150.8063  133.8430  159.3225 H   0  0  0  0  0  0  0  0  0  0  0  0  # atno 6909 bound_to 6896
  145.8082  139.3018  143.1115 H   0  0  0  0  0  0  0  0  0  0  0  0  # atno 7974 bound_to 7965
  155.0536  140.0393  157.2552 H   0  0  0  0  0  0  0  0  0  0  0  0  # atno 8008 bound_to 7997
  154.7117  140.2694  155.6599 H   0  0  0  0  0  0  0  0  0  0  0  0  # atno 8009 bound_to 7997
  156.2791  140.2720  156.1761 H   0  0  0  0  0  0  0  0  0  0  0  0  # atno 8010 bound_to 7997
  139.5589  144.6868  151.4101 H   0  0  0  0  0  0  0  0  0  0  0  0  # atno 10167 bound_to 10162
  156.1201  130.6316  150.9448 H   0  0  0  0  0  0  0  0  0  0  0  0  # atno 10718 bound_to 10713
  153.9627  135.6737  153.4745 H   0  0  0  0  0  0  0  0  0  0  0  0  # atno 10763 bound_to 10752
  153.0830  135.4913  154.8538 H   0  0  0  0  0  0  0  0  0  0  0  0  # atno 10764 bound_to 10752
  154.7263  135.3128  154.8925 H   0  0  0  0  0  0  0  0  0  0  0  0  # atno 10765 bound_to 10752
  141.0290  134.0010  157.3171 H   0  0  0  0  0  0  0  0  0  0  0  0  # atno 11005 bound_to 11000
  145.9806  140.8686  143.0116 LP  0  0  0  0  0  0  0  0  0  0  0  0  # atno 17320 bound_to 7965
  144.6760  140.2074  143.7380 LP  0  0  0  0  0  0  0  0  0  0  0  0  # atno 17321 bound_to 7965
  140.6866  143.7960  150.7195 LP  0  0  0  0  0  0  0  0  0  0  0  0  # atno 17342 bound_to 10162
  140.1429  143.4425  152.2182 LP  0  0  0  0  0  0  0  0  0  0  0  0  # atno 17343 bound_to 10162
  157.6384  131.0913  150.8301 LP  0  0  0  0  0  0  0  0  0  0  0  0  # atno 17370 bound_to 10713
  156.8399  130.5044  149.5322 LP  0  0  0  0  0  0  0  0  0  0  0  0  # atno 17371 bound_to 10713
  139.9195  135.0199  156.8010 LP  0  0  0  0  0  0  0  0  0  0  0  0  # atno 17394 bound_to 11000
  140.6440  133.9792  155.7722 LP  0  0  0  0  0  0  0  0  0  0  0  0  # atno 17395 bound_to 11000

$$$$
