#       Name:                AV-unprocessed.smi:1596
#       Creating user name   scv26
#       Creation time:       Fri Mar 27 07:05:39 2020


#       File generated by GOLD software.
#

@<TRIPOS>MOLECULE
AV-unprocessed.smi:1596
    54    55     1
SMALL
NO_CHARGES


@<TRIPOS>ATOM
      1 ****        -5.2617  -3.1931   0.5883 C.3            1 S1                 0.0000
      2 ****        -5.7384  -1.8396   1.1399 C.3            1 S1                 0.0000
      3 ****        -5.2264  -0.6930   0.3894 N.3            1 S1                 0.0000
      4 ****        -5.8748   0.5799   0.7032 C.3            1 S1                 0.0000
      5 ****        -5.5631   1.6941  -0.3094 C.3            1 S1                 0.0000
      6 ****        -3.8227  -0.6055   0.3949 C.ar           1 S1                 0.0000
      7 ****        -3.1247  -0.6996  -0.8272 C.ar           1 S1                 0.0000
      8 ****        -1.7200  -0.6075  -0.8173 C.ar           1 S1                 0.0000
      9 ****        -1.0558  -0.4171   0.4176 C.ar           1 S1                 0.0000
     10 ****         0.3555  -0.3333   0.5610 N.am           1 S1                 0.0000
     11 ****         1.2701   0.0045  -0.3639 C.2            1 S1                 0.0000
     12 ****         1.0194   0.3603  -1.5153 O.2            1 S1                 0.0000
     13 ****         2.5128  -0.0709   0.1339 N.am           1 S1                 0.0000
     14 ****         3.7361   0.2407  -0.5995 C.3            1 S1                 0.0000
     15 ****         4.9052  -0.5823  -0.0290 C.3            1 S1                 0.0000
     16 ****         6.2285  -0.2510  -0.7412 C.3            1 S1                 0.0000
     17 ****         6.5459   1.2560  -0.7116 C.3            1 S1                 0.0000
     18 ****         6.8802   1.6542   0.6034 O.3            1 S1                 0.0000
     19 ****         5.3637   2.0946  -1.2334 C.3            1 S1                 0.0000
     20 ****         4.0429   1.7496  -0.5227 C.3            1 S1                 0.0000
     21 ****        -1.8455  -0.3503   1.5840 C.ar           1 S1                 0.0000
     22 ****        -3.1925  -0.4351   1.5814 N.ar           1 S1                 0.0000
     23 ****        -5.7227  -4.0141   1.1374 H              1 S1                 0.0000
     24 ****        -4.1812  -3.3100   0.6747 H              1 S1                 0.0000
     25 ****        -5.5301  -3.3056  -0.4624 H              1 S1                 0.0000
     26 ****        -6.8281  -1.8157   1.1076 H              1 S1                 0.0000
     27 ****        -5.4622  -1.7472   2.1911 H              1 S1                 0.0000
     28 ****        -6.9538   0.4237   0.7269 H              1 S1                 0.0000
     29 ****        -5.5897   0.8997   1.7063 H              1 S1                 0.0000
     30 ****        -6.1210   2.5984  -0.0661 H              1 S1                 0.0000
     31 ****        -5.8418   1.3948  -1.3203 H              1 S1                 0.0000
     32 ****        -4.5048   1.9568  -0.3145 H              1 S1                 0.0000
     33 ****        -3.6560  -0.8440  -1.7566 H              1 S1                 0.0000
     34 ****        -1.1843  -0.6996  -1.7491 H              1 S1                 0.0000
     35 ****         0.7073  -0.5083   1.4910 H              1 S1                 0.0000
     36 ****         2.6230  -0.3648   1.0933 H              1 S1                 0.0000
     37 ****         3.6067  -0.0403  -1.6467 H              1 S1                 0.0000
     38 ****         5.0089  -0.3885   1.0396 H              1 S1                 0.0000
     39 ****         4.6948  -1.6478  -0.1285 H              1 S1                 0.0000
     40 ****         7.0464  -0.8190  -0.2965 H              1 S1                 0.0000
     41 ****         6.1613  -0.5789  -1.7794 H              1 S1                 0.0000
     42 ****         7.4210   1.4480  -1.3333 H              1 S1                 0.0000
     43 ****         7.1037   2.5725   0.5917 H              1 S1                 0.0000
     44 ****         5.5787   3.1586  -1.1296 H              1 S1                 0.0000
     45 ****         5.2450   1.9128  -2.3023 H              1 S1                 0.0000
     46 ****         3.2299   2.3216  -0.9714 H              1 S1                 0.0000
     47 ****         4.0986   2.0628   0.5208 H              1 S1                 0.0000
     48 ****        -1.3840  -0.2193   2.5520 H              1 S1                 0.0000
     49 ****        -5.4909  -0.8852  -0.5557 LP             1 S1                 0.0000
     50 ****         0.0706   0.4153  -1.8263 LP             1 S1                 0.0000
     51 ****         1.7646   0.5943  -2.1398 LP             1 S1                 0.0000
     52 ****         7.6613   1.1212   0.9287 LP             1 S1                 0.0000
     53 ****         6.0991   1.5050   1.2097 LP             1 S1                 0.0000
     54 ****        -3.7119  -0.3737   2.4337 LP             1 S1                 0.0000
@<TRIPOS>BOND
    1    1    2 1     
    2    1   23 1     
    3    1   24 1     
    4    1   25 1     
    5    2    3 1     
    6    2   26 1     
    7    2   27 1     
    8    3    4 1     
    9    3    6 1     
   10    4    5 1     
   11    4   28 1     
   12    4   29 1     
   13    5   30 1     
   14    5   31 1     
   15    5   32 1     
   16    6   22 ar    
   17    6    7 ar    
   18    7    8 ar    
   19    7   33 1     
   20    8    9 ar    
   21    8   34 1     
   22    9   10 1     
   23    9   21 ar    
   24   10   11 am    
   25   10   35 1     
   26   11   12 2     
   27   11   13 am    
   28   13   14 1     
   29   13   36 1     
   30   14   20 1     
   31   14   15 1     
   32   14   37 1     
   33   15   16 1     
   34   15   38 1     
   35   15   39 1     
   36   16   17 1     
   37   16   40 1     
   38   16   41 1     
   39   17   18 1     
   40   17   19 1     
   41   17   42 1     
   42   18   43 1     
   43   19   20 1     
   44   19   44 1     
   45   19   45 1     
   46   20   46 1     
   47   20   47 1     
   48   21   22 ar    
   49   21   48 1     
   50    3   49 1     
   51   12   50 1     
   52   12   51 1     
   53   18   52 1     
   54   18   53 1     
   55   22   54 1     
@<TRIPOS>SUBSTRUCTURE
      1 S1             1
@<TRIPOS>SET
LONE_PAIRS      STATIC     ATOMS    <user>   **** ""
6 49 50 51 52 53 54
DONOR_HYDROGENS      STATIC     ATOMS    <user>   **** ""
3 35 36 43
ATOM$BLUE        STATIC     ATOMS    COLORGROUP SYSTEM
6 49 50 51 52 53 54
ATOM$RED        STATIC     ATOMS    COLORGROUP SYSTEM
3 35 36 43
