AV-unprocessed.smi:467|AV-procd|sdf|2644|dock6
  -GOLD-   2262023 53D 1   1.00000     0.00000
 Structure written by MMmdl.
 44 46  0  0  0  0  0  0  0  0  1 V2000
  151.2475  144.9626  159.8405 C   0  0  0  0  0  0  0  0  0  0  0  0
  151.9027  143.5963  159.9381 C   0  0  0  0  0  0  0  0  0  0  0  0
  152.7277  143.3070  161.0485 C   0  0  0  0  0  0  0  0  0  0  0  0
  153.3499  142.0460  161.1796 C   0  0  0  0  0  0  0  0  0  0  0  0
  154.1800  141.5518  162.1715 N   0  0  0  0  0  0  0  0  0  0  0  0
  154.4263  140.3229  161.7267 C   0  0  0  0  0  0  0  0  0  0  0  0
  153.8553  139.9623  160.5615 N   0  0  0  0  0  0  0  0  0  0  0  0
  153.9801  138.6820  159.8873 C   0  0  0  0  0  0  0  0  0  0  0  0
  153.8985  137.4902  160.8604 C   0  0  1  0  0  0  0  0  0  0  0  0
  153.3386  136.3768  160.1918 O   0  0  0  0  0  0  0  0  0  0  0  0
  155.2931  137.0911  161.3823 C   0  0  0  0  0  0  0  0  0  0  0  0
  155.3102  136.3863  162.6657 N   0  0  0  0  0  0  0  0  0  0  0  0
  155.1103  134.9446  162.5265 C   0  0  0  0  0  0  0  0  0  0  0  0
  155.1037  134.2319  163.8904 C   0  0  0  0  0  0  0  0  0  0  0  0
  154.1041  134.8050  164.7265 O   0  0  0  0  0  0  0  0  0  0  0  0
  154.2917  136.2021  164.9257 C   0  0  0  0  0  0  0  0  0  0  0  0
  154.2916  136.9191  163.5648 C   0  0  0  0  0  0  0  0  0  0  0  0
  153.1273  141.0766  160.1582 C   0  0  0  0  0  0  0  0  0  0  0  0
  152.3109  141.3537  159.0476 C   0  0  0  0  0  0  0  0  0  0  0  0
  151.6917  142.6160  158.9352 C   0  0  0  0  0  0  0  0  0  0  0  0
  150.8026  142.9003  157.7376 C   0  0  0  0  0  0  0  0  0  0  0  0
  151.5558  145.6120  160.6603 H   0  0  0  0  0  0  0  0  0  0  0  0
  150.1621  144.8675  159.8779 H   0  0  0  0  0  0  0  0  0  0  0  0
  151.5203  145.4534  158.9062 H   0  0  0  0  0  0  0  0  0  0  0  0
  152.8873  144.0524  161.8136 H   0  0  0  0  0  0  0  0  0  0  0  0
  155.0587  139.6439  162.2798 H   0  0  0  0  0  0  0  0  0  0  0  0
  153.2023  138.6111  159.1257 H   0  0  0  0  0  0  0  0  0  0  0  0
  154.9341  138.6688  159.3582 H   0  0  0  0  0  0  0  0  0  0  0  0
  153.2414  137.7655  161.6844 H   0  0  0  0  0  0  0  0  0  0  0  0
  153.8582  136.2010  159.4221 H   0  0  0  0  0  0  0  0  0  0  0  0
  155.7678  136.4661  160.6242 H   0  0  0  0  0  0  0  0  0  0  0  0
  155.9156  137.9840  161.4592 H   0  0  0  0  0  0  0  0  0  0  0  0
  154.1679  134.7491  162.0128 H   0  0  0  0  0  0  0  0  0  0  0  0
  155.8973  134.5064  161.9144 H   0  0  0  0  0  0  0  0  0  0  0  0
  154.8957  133.1696  163.7624 H   0  0  0  0  0  0  0  0  0  0  0  0
  156.0797  134.3117  164.3720 H   0  0  0  0  0  0  0  0  0  0  0  0
  153.4886  136.5842  165.5559 H   0  0  0  0  0  0  0  0  0  0  0  0
  155.2287  136.3794  165.4561 H   0  0  0  0  0  0  0  0  0  0  0  0
  154.4576  137.9856  163.7221 H   0  0  0  0  0  0  0  0  0  0  0  0
  153.3058  136.8213  163.1070 H   0  0  0  0  0  0  0  0  0  0  0  0
  152.1576  140.5963  158.2929 H   0  0  0  0  0  0  0  0  0  0  0  0
  150.7332  142.0336  157.0796 H   0  0  0  0  0  0  0  0  0  0  0  0
  151.1991  143.7322  157.1555 H   0  0  0  0  0  0  0  0  0  0  0  0
  149.7934  143.1535  158.0631 H   0  0  0  0  0  0  0  0  0  0  0  0
  1  2  1  0  0  0  0
  1 22  1  0  0  0  0
  1 23  1  0  0  0  0
  1 24  1  0  0  0  0
  2 20  1  0  0  0  0
  2  3  2  0  0  0  0
  3  4  1  0  0  0  0
  3 25  1  0  0  0  0
  4 18  2  0  0  0  0
  4  5  1  0  0  0  0
  5  6  2  0  0  0  0
  6  7  1  0  0  0  0
  6 26  1  0  0  0  0
  7  8  1  0  0  0  0
  7 18  1  0  0  0  0
  8  9  1  0  0  0  0
  8 27  1  0  0  0  0
  8 28  1  0  0  0  0
  9 10  1  0  0  0  0
  9 11  1  0  0  0  0
  9 29  1  0  0  0  0
 10 30  1  0  0  0  0
 11 12  1  0  0  0  0
 11 31  1  0  0  0  0
 11 32  1  0  0  0  0
 12 17  1  0  0  0  0
 12 13  1  0  0  0  0
 13 14  1  0  0  0  0
 13 33  1  0  0  0  0
 13 34  1  0  0  0  0
 14 15  1  0  0  0  0
 14 35  1  0  0  0  0
 14 36  1  0  0  0  0
 15 16  1  0  0  0  0
 16 17  1  0  0  0  0
 16 37  1  0  0  0  0
 16 38  1  0  0  0  0
 17 39  1  0  0  0  0
 17 40  1  0  0  0  0
 18 19  1  0  0  0  0
 19 20  2  0  0  0  0
 19 41  1  0  0  0  0
 20 21  1  0  0  0  0
 21 42  1  0  0  0  0
 21 43  1  0  0  0  0
 21 44  1  0  0  0  0
M  END
> <s_m_source_file>
AV-unprocessed.smi

> <i_m_source_file_index>
467

> <i_lp_mmshare_version>
43012

> <i_f3d_flags>
0

> <s_epik_input>
W0NIM11jKFtjSF0xKWMoW0NIM10pW2NIXWMoYzEyKW4oW2NIXW4yKVtDSDJdW0NASF0oW09IXSlbQ0gyXU4zW0NIMl1bQ0gyXU9bQ0gyXVtDSDJdMw==

> <s_epik_cmdline>
J2VwaWtfcHl0aG9uJywgJy1waCcsICc3LjAnLCAnLXRuJywgJzgnLCAnLW1hJywgJzIwMCcsICctbWV0YWxfYmluZGluZycsICctaW1hZScsICc8aW5maWxlLm1hZT4nLCAnLW9tYWUnLCAnPG91dGZpbGUubWFlPic=

> <r_epik_Ionization_Penalty>
0.345029

> <r_epik_Ionization_Penalty_Charging>
0

> <r_epik_Ionization_Penalty_Neutral>
0.345029

> <r_epik_State_Penalty>
0.314465

> <r_epik_Charging_Adjusted_Penalty>
0.314465

> <i_epik_Tot_Q>
0

> <i_epik_Tot_abs_Q>
0

> <r_epik_Metal_State_Penalty>
0.239717

> <b_epik_Metal_Only>
0

> <s_lp_Force_Field>
OPLS_2005

> <r_lp_Energy>
29.8688

> <b_lp_Chiralities_Consistent>
1

> <s_lp_Variant>
AV-unprocessed.smi:467-2

> <Gold.Version>
5.8.1

> <Gold.Id.Protein>
6NUR|6NUR_protein|mol2

> <Gold.PLP.Fitness>
45.3013

> <Gold.PLP.PLP>
-44.5373

> <Gold.PLP.part.hbond>
-2.0000

> <Gold.PLP.part.metal>
0.0000

> <Gold.PLP.part.buried>
-3.6958

> <Gold.PLP.part.nonpolar>
-38.7617

> <Gold.PLP.part.repulsive>
0.0914

> <Gold.PLP.ligand.clash>
0.0000

> <Gold.PLP.ligand.torsion>
1.1365

> <Gold.PLP.Chemscore.Hbond>
1.0000

> <Gold.PLP.Chemscore.CHOScore>
0.0000

> <Gold.PLP.Chemscore.Metal>
0.0000

> <Gold.Chemscore.Hbonds>
donor molecule, donor type, donor heavy atom, donor atom, acceptor molecule, acceptor atom, score
      P1  H  6896  6909       L1    10  0.85

> <Gold.PLP.Chemscore.Internal.Correction>
0.0370

> <Gold.Rescore>
     Score         DG    S(hbond)    S(metal)    S(lipo)     H(rot)  DE(clash)    DE(int)     intcor
     17.02     -18.19       0.98        0.00     124.93       2.02       0.05       1.11       ----

> <Gold.Chemscore.Fitness>
17.0216

> <Gold.Chemscore.DG>
-18.1880

> <Gold.Chemscore.ZeroCoef>
-5.4800

> <Gold.Chemscore.Hbond>
0.9788

> <Gold.Chemscore.Metal>
0.0000

> <Gold.Chemscore.Lipo>
124.9302

> <Gold.Chemscore.Internal_Hbond>
0.0000

> <Gold.Chemscore.DEClash>
0.0515

> <Gold.Chemscore.DEInternal>
1.1149

> <Gold.Chemscore.Rot>
2.0227

> <Gold.Chemscore.Internal.Correction>
   9.000000E+99

> <Gold.Chemscore.Hbonds>
donor molecule, donor type, donor heavy atom, donor atom, acceptor molecule, acceptor atom, score
      P1  H  6896  6909       L1    10  0.15

> <Gold.Chemscore.Hbond.Weighted>
-3.2691

> <Gold.Chemscore.Metal.Weighted>
-0.0000

> <Gold.Chemscore.Lipo.Weighted>
-14.6168

> <Gold.Chemscore.Internal_Hbond.Weighted>
0.0000

> <Gold.Chemscore.DEClash.Weighted>
0.0515

> <Gold.Chemscore.DEInternal.Weighted>
1.1149

> <Gold.Chemscore.Rot.Weighted>
5.1780

> <Gold.Chemscore.Internal.Correction.Weighted>
   9.000000E+99

> <Gold.Protein.RotatedTorsions>
[ 6907 6896 6895 6894 ] final  162.87 input  -60.11 | X-H torsion
[ 7974 7965 7964 7962 ] final  116.08 input  175.53 | X-H torsion
[ 8008 7997 7996 7995 ] final -134.78 input   59.86 | X-H torsion
[ 10167 10162 10161 10158 ] final -164.95 input  -65.29 | X-H torsion
[ 10718 10713 10712 10709 ] final -131.13 input   66.30 | X-H torsion
[ 10763 10752 10751 10750 ] final  117.95 input  -60.55 | X-H torsion
[ 11005 11000 10999 10996 ] final   61.01 input  -57.11 | X-H torsion

> <Gold.Protein.ActiveResidues>
 VAL166  LYS551  ARG553  GLY616  TRP617  ASP618  TYR619  PRO620  LYS621  CYS622 
 ASP623  PHE694  ASN695  SER759  ASP760  ASP761  ALA762  ILE779  LEU786  VAL792 
 PHE793  MET794  SER795  GLU796  ALA797  LYS798  CYS799  TRP800  GLU811  SER814 

> <Gold.Protein.RotatedAtoms>
  151.9339  133.3618  159.3940 H   0  0  0  0  0  0  0  0  0  0  0  0  # atno 6907 bound_to 6896
  150.7011  134.4509  159.5345 H   0  0  0  0  0  0  0  0  0  0  0  0  # atno 6908 bound_to 6896
  152.2154  134.8462  160.0543 H   0  0  0  0  0  0  0  0  0  0  0  0  # atno 6909 bound_to 6896
  145.1840  139.3034  143.4403 H   0  0  0  0  0  0  0  0  0  0  0  0  # atno 7974 bound_to 7965
  155.3677  140.0486  157.3046 H   0  0  0  0  0  0  0  0  0  0  0  0  # atno 8008 bound_to 7997
  154.5145  140.2203  155.9054 H   0  0  0  0  0  0  0  0  0  0  0  0  # atno 8009 bound_to 7997
  156.1621  140.3114  155.8831 H   0  0  0  0  0  0  0  0  0  0  0  0  # atno 8010 bound_to 7997
  139.6215  144.0615  152.1937 H   0  0  0  0  0  0  0  0  0  0  0  0  # atno 10167 bound_to 10162
  156.2213  130.6980  151.0759 H   0  0  0  0  0  0  0  0  0  0  0  0  # atno 10718 bound_to 10713
  153.5601  135.3522  155.2796 H   0  0  0  0  0  0  0  0  0  0  0  0  # atno 10763 bound_to 10752
  154.8696  135.4134  154.2840 H   0  0  0  0  0  0  0  0  0  0  0  0  # atno 10764 bound_to 10752
  153.3584  135.7058  153.6801 H   0  0  0  0  0  0  0  0  0  0  0  0  # atno 10765 bound_to 10752
  140.0191  134.6179  155.9665 H   0  0  0  0  0  0  0  0  0  0  0  0  # atno 11005 bound_to 11000
  146.3448  140.2030  142.8589 LP  0  0  0  0  0  0  0  0  0  0  0  0  # atno 17320 bound_to 7965
  145.0107  140.8711  143.5226 LP  0  0  0  0  0  0  0  0  0  0  0  0  # atno 17321 bound_to 7965
  140.0258  144.6118  150.7529 LP  0  0  0  0  0  0  0  0  0  0  0  0  # atno 17342 bound_to 10162
  140.7385  143.2779  151.3687 LP  0  0  0  0  0  0  0  0  0  0  0  0  # atno 17343 bound_to 10162
  157.7089  131.0743  150.6571 LP  0  0  0  0  0  0  0  0  0  0  0  0  # atno 17370 bound_to 10713
  156.6634  130.4519  149.5680 LP  0  0  0  0  0  0  0  0  0  0  0  0  # atno 17371 bound_to 10713
  141.1762  133.6541  156.4840 LP  0  0  0  0  0  0  0  0  0  0  0  0  # atno 17394 bound_to 11000
  140.4418  134.7009  157.4995 LP  0  0  0  0  0  0  0  0  0  0  0  0  # atno 17395 bound_to 11000

$$$$
