AV-unprocessed.smi:1072|AV-procd|sdf|4688|dock6
  -GOLD-   22720 3203D 1   1.00000     0.00000
 Structure written by MMmdl.
 45 46  0  0  0  0  0  0  0  0  2 V2000
  148.4314  141.2771  153.7994 C   0  0  0  0  0  0  0  0  0  0  0  0
  149.1572  140.2187  154.6021 C   0  0  0  0  0  0  0  0  0  0  0  0
  150.3500  139.8953  154.2747 N   0  0  0  0  0  0  0  0  0  0  0  0
  151.0285  138.9135  155.0165 C   0  0  0  0  0  0  0  0  0  0  0  0
  152.4393  138.5908  154.5556 C   0  0  0  0  0  0  0  0  0  0  0  0
  150.4379  138.2999  156.0819 C   0  0  0  0  0  0  0  0  0  0  0  0
  151.1338  137.2242  156.9158 C   0  0  0  0  0  0  0  0  0  0  0  0
  150.3625  135.9145  157.0978 C   0  0  0  0  0  0  0  0  0  0  0  0
  150.0711  135.5202  158.2268 O   0  0  0  0  0  0  0  0  0  0  0  0
  150.0516  135.2579  155.9653 N   0  0  0  0  0  0  0  0  0  0  0  0
  149.3515  133.9774  155.7900 C   0  0  1  0  0  0  0  0  0  0  0  0
  147.9548  134.1876  156.4134 C   0  0  0  0  0  0  0  0  0  0  0  0
  149.2180  133.6376  154.2796 C   0  0  0  0  0  0  0  0  0  0  0  0
  148.6412  132.2338  154.0227 C   0  0  0  0  0  0  0  0  0  0  0  0
  149.4498  131.1444  154.7498 C   0  0  2  0  0  0  0  0  0  0  0  0
  148.8760  129.7463  154.4796 C   0  0  0  0  0  0  0  0  0  0  0  0
  149.5190  131.4436  156.2581 C   0  0  0  0  0  0  0  0  0  0  0  0
  150.1046  132.8401  156.5343 C   0  0  0  0  0  0  0  0  0  0  0  0
  149.0634  138.7042  156.4289 C   0  0  0  0  0  0  0  0  0  0  0  0
  148.4878  138.1912  157.3878 O   0  0  0  0  0  0  0  0  0  0  0  0
  148.4700  139.6574  155.6549 N   0  5  0  0  0  0  0  0  0  0  0  0
  149.1231  141.8286  153.1612 H   0  0  0  0  0  0  0  0  0  0  0  0
  147.9401  141.9902  154.4624 H   0  0  0  0  0  0  0  0  0  0  0  0
  147.6742  140.8141  153.1662 H   0  0  0  0  0  0  0  0  0  0  0  0
  152.5064  137.5535  154.2279 H   0  0  0  0  0  0  0  0  0  0  0  0
  153.1537  138.7480  155.3637 H   0  0  0  0  0  0  0  0  0  0  0  0
  152.7364  139.2258  153.7201 H   0  0  0  0  0  0  0  0  0  0  0  0
  152.1147  136.9862  156.5037 H   0  0  0  0  0  0  0  0  0  0  0  0
  151.3443  137.6454  157.8995 H   0  0  0  0  0  0  0  0  0  0  0  0
  150.3498  135.6994  155.1078 H   0  0  0  0  0  0  0  0  0  0  0  0
  147.3291  133.2987  156.3486 H   0  0  0  0  0  0  0  0  0  0  0  0
  147.4170  134.9948  155.9145 H   0  0  0  0  0  0  0  0  0  0  0  0
  148.0294  134.4510  157.4692 H   0  0  0  0  0  0  0  0  0  0  0  0
  148.6018  134.3854  153.7787 H   0  0  0  0  0  0  0  0  0  0  0  0
  150.1906  133.6816  153.7904 H   0  0  0  0  0  0  0  0  0  0  0  0
  147.5973  132.1944  154.3344 H   0  0  0  0  0  0  0  0  0  0  0  0
  148.6414  132.0375  152.9501 H   0  0  0  0  0  0  0  0  0  0  0  0
  150.4676  131.1632  154.3574 H   0  0  0  0  0  0  0  0  0  0  0  0
  147.8536  129.6587  154.8488 H   0  0  0  0  0  0  0  0  0  0  0  0
  149.4735  128.9756  154.9671 H   0  0  0  0  0  0  0  0  0  0  0  0
  148.8647  129.5270  153.4117 H   0  0  0  0  0  0  0  0  0  0  0  0
  148.5269  131.3576  156.7019 H   0  0  0  0  0  0  0  0  0  0  0  0
  150.1350  130.6926  156.7543 H   0  0  0  0  0  0  0  0  0  0  0  0
  151.1516  132.8153  156.2342 H   0  0  0  0  0  0  0  0  0  0  0  0
  150.1096  133.0313  157.6081 H   0  0  0  0  0  0  0  0  0  0  0  0
  1  2  1  0  0  0  0
  1 22  1  0  0  0  0
  1 23  1  0  0  0  0
  1 24  1  0  0  0  0
  2 21  1  0  0  0  0
  2  3  2  0  0  0  0
  3  4  1  0  0  0  0
  4  5  1  0  0  0  0
  4  6  2  0  0  0  0
  5 25  1  0  0  0  0
  5 26  1  0  0  0  0
  5 27  1  0  0  0  0
  6  7  1  0  0  0  0
  6 19  1  0  0  0  0
  7  8  1  0  0  0  0
  7 28  1  0  0  0  0
  7 29  1  0  0  0  0
  8  9  2  0  0  0  0
  8 10  1  0  0  0  0
 10 11  1  0  0  0  0
 10 30  1  0  0  0  0
 11 18  1  0  0  0  0
 11 12  1  0  0  0  0
 11 13  1  0  0  0  0
 12 31  1  0  0  0  0
 12 32  1  0  0  0  0
 12 33  1  0  0  0  0
 13 14  1  0  0  0  0
 13 34  1  0  0  0  0
 13 35  1  0  0  0  0
 14 15  1  0  0  0  0
 14 36  1  0  0  0  0
 14 37  1  0  0  0  0
 15 16  1  0  0  0  0
 15 17  1  0  0  0  0
 15 38  1  0  0  0  0
 16 39  1  0  0  0  0
 16 40  1  0  0  0  0
 16 41  1  0  0  0  0
 17 18  1  0  0  0  0
 17 42  1  0  0  0  0
 17 43  1  0  0  0  0
 18 44  1  0  0  0  0
 18 45  1  0  0  0  0
 19 20  2  0  0  0  0
 19 21  1  0  0  0  0
M  CHG  1  21  -1
M  END
> <s_m_source_file>
AV-unprocessed.smi

> <i_m_source_file_index>
1072

> <i_lp_mmshare_version>
43012

> <i_f3d_flags>
0

> <s_epik_input>
W0NIM11jMW5jKFtDSDNdKWMoYyg9TylbbkhdMSlbQ0gyXUMoPU8pW05IXVtDQEBdMihbQ0gzXSlbQ0gyXVtDSDJdW0NAQEhdKFtDSDNdKVtDSDJdW0NIMl0y

> <s_epik_cmdline>
J2VwaWtfcHl0aG9uJywgJy1waCcsICc3LjAnLCAnLXRuJywgJzgnLCAnLW1hJywgJzIwMCcsICctbWV0YWxfYmluZGluZycsICctaW1hZScsICc8aW5maWxlLm1hZT4nLCAnLW9tYWUnLCAnPG91dGZpbGUubWFlPic=

> <r_lp_tautomer_probability>
0.839158

> <r_epik_Ionization_Penalty>
6.73882

> <r_epik_Ionization_Penalty_Charging>
8.02239e-08

> <r_epik_Ionization_Penalty_Neutral>
6.73882

> <r_epik_State_Penalty>
4.55873

> <r_epik_Charging_Adjusted_Penalty>
4.55873

> <i_epik_Tot_Q>
-1

> <i_epik_Tot_abs_Q>
1

> <r_epik_Metal_State_Penalty>
0.872514

> <b_epik_Metal_Only>
1

> <s_lp_Force_Field>
OPLS_2005

> <r_lp_Energy>
18.4266

> <b_lp_Chiralities_Consistent>
1

> <s_lp_Variant>
AV-unprocessed.smi:1072-6

> <Gold.Version>
5.8.1

> <Gold.Id.Protein>
6NUR|6NUR_protein|mol2

> <Gold.PLP.Fitness>
36.4119

> <Gold.PLP.PLP>
-30.9267

> <Gold.PLP.part.hbond>
-2.0000

> <Gold.PLP.part.metal>
0.0000

> <Gold.PLP.part.buried>
-3.5936

> <Gold.PLP.part.nonpolar>
-24.8373

> <Gold.PLP.part.repulsive>
0.2152

> <Gold.PLP.ligand.clash>
0.0000

> <Gold.PLP.ligand.torsion>
0.0551

> <Gold.PLP.Chemscore.Hbond>
1.8640

> <Gold.PLP.Chemscore.CHOScore>
0.0000

> <Gold.PLP.Chemscore.Metal>
0.0000

> <Gold.Chemscore.Hbonds>
donor molecule, donor type, donor heavy atom, donor atom, acceptor molecule, acceptor atom, score
      P1  H  6896  6909       L1     9  0.86
      P1  H  7989  7998       L1     3  1.00

> <Gold.PLP.Chemscore.Internal.Correction>
0.0033

> <Gold.Rescore>
     Score         DG    S(hbond)    S(metal)    S(lipo)     H(rot)  DE(clash)    DE(int)     intcor
     16.16     -16.18       1.89        0.00      68.96       1.43       0.00       0.02       ----

> <Gold.Chemscore.Fitness>
16.1561

> <Gold.Chemscore.DG>
-16.1837

> <Gold.Chemscore.ZeroCoef>
-5.4800

> <Gold.Chemscore.Hbond>
1.8880

> <Gold.Chemscore.Metal>
0.0000

> <Gold.Chemscore.Lipo>
68.9622

> <Gold.Chemscore.Internal_Hbond>
0.0000

> <Gold.Chemscore.DEClash>
0.0034

> <Gold.Chemscore.DEInternal>
0.0242

> <Gold.Chemscore.Rot>
1.4339

> <Gold.Chemscore.Internal.Correction>
   9.000000E+99

> <Gold.Chemscore.Hbonds>
donor molecule, donor type, donor heavy atom, donor atom, acceptor molecule, acceptor atom, score
      P1  H  6896  6909       L1     9  0.85
      P1  H  7989  7998       L1     3  0.55

> <Gold.Chemscore.Hbond.Weighted>
-6.3059

> <Gold.Chemscore.Metal.Weighted>
-0.0000

> <Gold.Chemscore.Lipo.Weighted>
-8.0686

> <Gold.Chemscore.Internal_Hbond.Weighted>
0.0000

> <Gold.Chemscore.DEClash.Weighted>
0.0034

> <Gold.Chemscore.DEInternal.Weighted>
0.0242

> <Gold.Chemscore.Rot.Weighted>
3.6708

> <Gold.Chemscore.Internal.Correction.Weighted>
   9.000000E+99

> <Gold.Protein.RotatedTorsions>
[ 6907 6896 6895 6894 ] final   42.61 input  -60.11 | X-H torsion
[ 7974 7965 7964 7962 ] final -109.47 input  175.53 | X-H torsion
[ 8008 7997 7996 7995 ] final   80.24 input   59.86 | X-H torsion
[ 10167 10162 10161 10158 ] final -128.12 input  -65.29 | X-H torsion
[ 10718 10713 10712 10709 ] final   82.62 input   66.30 | X-H torsion
[ 10763 10752 10751 10750 ] final  163.13 input  -60.55 | X-H torsion
[ 11005 11000 10999 10996 ] final -160.67 input  -57.11 | X-H torsion

> <Gold.Protein.ActiveResidues>
 VAL166  LYS551  ARG553  GLY616  TRP617  ASP618  TYR619  PRO620  LYS621  CYS622 
 ASP623  PHE694  ASN695  SER759  ASP760  ASP761  ALA762  ILE779  LEU786  VAL792 
 PHE793  MET794  SER795  GLU796  ALA797  LYS798  CYS799  TRP800  GLU811  SER814 

> <Gold.Protein.RotatedAtoms>
  152.2100  134.8510  160.0498 H   0  0  0  0  0  0  0  0  0  0  0  0  # atno 6907 bound_to 6896
  151.9332  133.3612  159.3946 H   0  0  0  0  0  0  0  0  0  0  0  0  # atno 6908 bound_to 6896
  150.6974  134.4441  159.5349 H   0  0  0  0  0  0  0  0  0  0  0  0  # atno 6909 bound_to 6896
  145.1801  140.8967  143.3485 H   0  0  0  0  0  0  0  0  0  0  0  0  # atno 7974 bound_to 7965
  155.8807  140.3444  155.5886 H   0  0  0  0  0  0  0  0  0  0  0  0  # atno 8008 bound_to 7997
  155.7723  140.0847  157.2121 H   0  0  0  0  0  0  0  0  0  0  0  0  # atno 8009 bound_to 7997
  154.4024  140.1516  156.2943 H   0  0  0  0  0  0  0  0  0  0  0  0  # atno 8010 bound_to 7997
  139.9537  143.6027  152.2467 H   0  0  0  0  0  0  0  0  0  0  0  0  # atno 10167 bound_to 10162
  157.6861  131.0056  150.2402 H   0  0  0  0  0  0  0  0  0  0  0  0  # atno 10718 bound_to 10713
  154.2890  135.2761  155.2663 H   0  0  0  0  0  0  0  0  0  0  0  0  # atno 10763 bound_to 10752
  154.5150  135.5772  153.6638 H   0  0  0  0  0  0  0  0  0  0  0  0  # atno 10764 bound_to 10752
  152.9917  135.6190  154.3054 H   0  0  0  0  0  0  0  0  0  0  0  0  # atno 10765 bound_to 10752
  140.6289  134.4672  157.5228 H   0  0  0  0  0  0  0  0  0  0  0  0  # atno 11005 bound_to 11000
  145.0145  139.3480  143.6103 LP  0  0  0  0  0  0  0  0  0  0  0  0  # atno 17320 bound_to 7965
  146.3454  139.9421  142.8739 LP  0  0  0  0  0  0  0  0  0  0  0  0  # atno 17321 bound_to 7965
  139.6608  144.7662  151.1966 LP  0  0  0  0  0  0  0  0  0  0  0  0  # atno 17342 bound_to 10162
  140.7575  143.6013  150.8697 LP  0  0  0  0  0  0  0  0  0  0  0  0  # atno 17343 bound_to 10162
  156.3018  130.3759  149.7743 LP  0  0  0  0  0  0  0  0  0  0  0  0  # atno 17370 bound_to 10713
  156.5371  130.8283  151.3257 LP  0  0  0  0  0  0  0  0  0  0  0  0  # atno 17371 bound_to 10713
  139.9124  134.8317  156.1483 LP  0  0  0  0  0  0  0  0  0  0  0  0  # atno 17394 bound_to 11000
  141.0689  133.6806  156.2101 LP  0  0  0  0  0  0  0  0  0  0  0  0  # atno 17395 bound_to 11000

$$$$
