AV-unprocessed.smi:2280|AV-procd|sdf|9192|dock8
  -GOLD-   2272012413D 1   1.00000     0.00000
 Structure written by MMmdl.
 41 42  0  0  0  0  0  0  0  0  1 V2000
  146.6204  136.6796  154.9664 C   0  0  0  0  0  0  0  0  0  0  0  0
  148.1010  137.0082  154.8896 C   0  0  0  0  0  0  0  0  0  0  0  0
  148.4185  138.2236  154.2765 N   0  0  0  0  0  0  0  0  0  0  0  0
  149.6546  138.5870  154.1673 C   0  0  0  0  0  0  0  0  0  0  0  0
  150.7038  137.7915  154.6558 N   0  0  0  0  0  0  0  0  0  0  0  0
  152.0657  138.3197  154.4677 C   0  0  0  0  0  0  0  0  0  0  0  0
  152.7977  138.5329  155.8126 C   0  0  1  0  0  0  0  0  0  0  0  0
  154.1046  138.9919  155.5271 O   0  0  0  0  0  0  0  0  0  0  0  0
  152.1171  139.6105  156.6738 C   0  0  0  0  0  0  0  0  0  0  0  0
  152.8942  139.8130  157.8465 O   0  0  0  0  0  0  0  0  0  0  0  0
  152.6853  140.9548  158.5926 C   0  0  0  0  0  0  0  0  0  0  0  0
  151.8778  142.0367  158.1568 C   0  0  0  0  0  0  0  0  0  0  0  0
  151.7055  143.1740  158.9671 C   0  0  0  0  0  0  0  0  0  0  0  0
  152.3351  143.2464  160.2213 C   0  0  0  0  0  0  0  0  0  0  0  0
  153.1373  142.1797  160.6649 C   0  0  0  0  0  0  0  0  0  0  0  0
  153.3174  141.0327  159.8586 C   0  0  0  0  0  0  0  0  0  0  0  0
  154.1881  139.8791  160.3471 C   0  0  0  0  0  0  0  0  0  0  0  0
  154.5275  140.0182  161.6294 F   0  0  0  0  0  0  0  0  0  0  0  0
  153.5279  138.7283  160.2147 F   0  0  0  0  0  0  0  0  0  0  0  0
  155.3079  139.8203  159.6260 F   0  0  0  0  0  0  0  0  0  0  0  0
  150.4827  136.5875  155.2592 C   0  0  0  0  0  0  0  0  0  0  0  0
  151.4119  135.8909  155.6721 O   0  0  0  0  0  0  0  0  0  0  0  0
  149.0712  136.1872  155.3768 C   0  0  0  0  0  0  0  0  0  0  0  0
  148.7853  134.8525  156.0535 C   0  0  0  0  0  0  0  0  0  0  0  0
  146.3110  136.5460  156.0035 H   0  0  0  0  0  0  0  0  0  0  0  0
  146.4041  135.7633  154.4161 H   0  0  0  0  0  0  0  0  0  0  0  0
  146.0134  137.4780  154.5372 H   0  0  0  0  0  0  0  0  0  0  0  0
  149.9559  139.5217  153.6913 H   0  0  0  0  0  0  0  0  0  0  0  0
  152.6620  137.6946  153.7992 H   0  0  0  0  0  0  0  0  0  0  0  0
  151.9880  139.2711  153.9384 H   0  0  0  0  0  0  0  0  0  0  0  0
  152.8459  137.5985  156.3737 H   0  0  0  0  0  0  0  0  0  0  0  0
  154.1575  139.1965  154.6062 H   0  0  0  0  0  0  0  0  0  0  0  0
  151.9863  140.5353  156.1089 H   0  0  0  0  0  0  0  0  0  0  0  0
  151.1293  139.2620  156.9795 H   0  0  0  0  0  0  0  0  0  0  0  0
  151.3758  142.0201  157.2018 H   0  0  0  0  0  0  0  0  0  0  0  0
  151.0888  143.9918  158.6248 H   0  0  0  0  0  0  0  0  0  0  0  0
  152.2028  144.1192  160.8436 H   0  0  0  0  0  0  0  0  0  0  0  0
  153.6121  142.2533  161.6319 H   0  0  0  0  0  0  0  0  0  0  0  0
  149.2952  134.0460  155.5255 H   0  0  0  0  0  0  0  0  0  0  0  0
  147.7257  134.6042  156.0841 H   0  0  0  0  0  0  0  0  0  0  0  0
  149.1497  134.8677  157.0813 H   0  0  0  0  0  0  0  0  0  0  0  0
  1  2  1  0  0  0  0
  1 25  1  0  0  0  0
  1 26  1  0  0  0  0
  1 27  1  0  0  0  0
  2 23  2  0  0  0  0
  2  3  1  0  0  0  0
  3  4  2  0  0  0  0
  4  5  1  0  0  0  0
  4 28  1  0  0  0  0
  5  6  1  0  0  0  0
  5 21  1  0  0  0  0
  6  7  1  0  0  0  0
  6 29  1  0  0  0  0
  6 30  1  0  0  0  0
  7  8  1  0  0  0  0
  7  9  1  0  0  0  0
  7 31  1  0  0  0  0
  8 32  1  0  0  0  0
  9 10  1  0  0  0  0
  9 33  1  0  0  0  0
  9 34  1  0  0  0  0
 10 11  1  0  0  0  0
 11 16  1  0  0  0  0
 11 12  2  0  0  0  0
 12 13  1  0  0  0  0
 12 35  1  0  0  0  0
 13 14  2  0  0  0  0
 13 36  1  0  0  0  0
 14 15  1  0  0  0  0
 14 37  1  0  0  0  0
 15 16  2  0  0  0  0
 15 38  1  0  0  0  0
 16 17  1  0  0  0  0
 17 18  1  0  0  0  0
 17 19  1  0  0  0  0
 17 20  1  0  0  0  0
 21 22  2  0  0  0  0
 21 23  1  0  0  0  0
 23 24  1  0  0  0  0
 24 39  1  0  0  0  0
 24 40  1  0  0  0  0
 24 41  1  0  0  0  0
M  END
> <s_m_source_file>
AV-unprocessed.smi

> <i_m_source_file_index>
2280

> <i_lp_mmshare_version>
43012

> <i_f3d_flags>
0

> <s_epik_input>
W0NIM11jMW5bY0hdbihjKD1PKWMxW0NIM10pW0NIMl1bQ0BIXShbT0hdKVtDSDJdT2MyW2NIXVtjSF1bY0hdW2NIXWMyQyhGKShGKUY=

> <s_epik_cmdline>
J2VwaWtfcHl0aG9uJywgJy1waCcsICc3LjAnLCAnLXRuJywgJzgnLCAnLW1hJywgJzIwMCcsICctbWV0YWxfYmluZGluZycsICctaW1hZScsICc8aW5maWxlLm1hZT4nLCAnLW9tYWUnLCAnPG91dGZpbGUubWFlPic=

> <r_lp_tautomer_probability>
1

> <r_epik_Ionization_Penalty>
3.7476e-05

> <r_epik_Ionization_Penalty_Charging>
8.44705e-08

> <r_epik_Ionization_Penalty_Neutral>
3.73915e-05

> <r_epik_State_Penalty>
-0

> <r_epik_Charging_Adjusted_Penalty>
8.44705e-08

> <i_epik_Tot_Q>
0

> <i_epik_Tot_abs_Q>
0

> <r_epik_Metal_State_Penalty>
-0

> <b_epik_Metal_Only>
0

> <s_lp_Force_Field>
OPLS_2005

> <r_lp_Energy>
26.5065

> <b_lp_Chiralities_Consistent>
1

> <s_lp_Variant>
AV-unprocessed.smi:2280-2

> <Gold.Version>
5.8.1

> <Gold.Id.Protein>
6NUR|6NUR_protein|mol2

> <Gold.PLP.Fitness>
48.6711

> <Gold.PLP.PLP>
-40.6848

> <Gold.PLP.part.hbond>
-1.4453

> <Gold.PLP.part.metal>
0.0000

> <Gold.PLP.part.buried>
-4.0146

> <Gold.PLP.part.nonpolar>
-34.3608

> <Gold.PLP.part.repulsive>
0.2578

> <Gold.PLP.ligand.clash>
0.1809

> <Gold.PLP.ligand.torsion>
0.4444

> <Gold.PLP.Chemscore.Hbond>
2.0000

> <Gold.PLP.Chemscore.CHOScore>
0.8467

> <Gold.PLP.Chemscore.Metal>
0.0000

> <Gold.Chemscore.Hbonds>
donor molecule, donor type, donor heavy atom, donor atom, acceptor molecule, acceptor atom, score
      P1  H  7997  8009       L1    10  0.85
      P1  H 10752 10764       L1    22  1.00
      L1  C     4    28       P1  7957  0.72

> <Gold.PLP.Chemscore.Internal.Correction>
0.5159

> <Gold.Rescore>
     Score         DG    S(hbond)    S(metal)    S(lipo)     H(rot)  DE(clash)    DE(int)     intcor
     11.39     -14.56       1.32        0.00      99.66       2.73       0.09       3.08       ----

> <Gold.Chemscore.Fitness>
11.3882

> <Gold.Chemscore.DG>
-14.5582

> <Gold.Chemscore.ZeroCoef>
-5.4800

> <Gold.Chemscore.Hbond>
1.3195

> <Gold.Chemscore.Metal>
0.0000

> <Gold.Chemscore.Lipo>
99.6565

> <Gold.Chemscore.Internal_Hbond>
0.0000

> <Gold.Chemscore.DEClash>
0.0875

> <Gold.Chemscore.DEInternal>
3.0825

> <Gold.Chemscore.Rot>
2.7300

> <Gold.Chemscore.Internal.Correction>
   9.000000E+99

> <Gold.Chemscore.Hbonds>
donor molecule, donor type, donor heavy atom, donor atom, acceptor molecule, acceptor atom, score
      P1  H  7997  8009       L1    10  0.08
      P1  H 10752 10764       L1    22  1.00

> <Gold.Chemscore.Hbond.Weighted>
-4.4072

> <Gold.Chemscore.Metal.Weighted>
-0.0000

> <Gold.Chemscore.Lipo.Weighted>
-11.6598

> <Gold.Chemscore.Internal_Hbond.Weighted>
0.0000

> <Gold.Chemscore.DEClash.Weighted>
0.0875

> <Gold.Chemscore.DEInternal.Weighted>
3.0825

> <Gold.Chemscore.Rot.Weighted>
6.9888

> <Gold.Chemscore.Internal.Correction.Weighted>
   9.000000E+99

> <Gold.Protein.RotatedTorsions>
[ 6907 6896 6895 6894 ] final   -8.57 input  -60.11 | X-H torsion
[ 7974 7965 7964 7962 ] final  -97.04 input  175.53 | X-H torsion
[ 8008 7997 7996 7995 ] final  158.06 input   59.86 | X-H torsion
[ 10167 10162 10161 10158 ] final  107.13 input  -65.29 | X-H torsion
[ 10718 10713 10712 10709 ] final  152.63 input   66.30 | X-H torsion
[ 10763 10752 10751 10750 ] final  -41.41 input  -60.55 | X-H torsion
[ 11005 11000 10999 10996 ] final  -48.30 input  -57.11 | X-H torsion

> <Gold.Protein.ActiveResidues>
 VAL166  LYS551  ARG553  GLY616  TRP617  ASP618  TYR619  PRO620  LYS621  CYS622 
 ASP623  PHE694  ASN695  SER759  ASP760  ASP761  ALA762  ILE779  LEU786  VAL792 
 PHE793  MET794  SER795  GLU796  ALA797  LYS798  CYS799  TRP800  GLU811  SER814 

> <Gold.Protein.RotatedAtoms>
  151.4316  135.1010  159.9643 H   0  0  0  0  0  0  0  0  0  0  0  0  # atno 6907 bound_to 6896
  152.4954  133.8612  159.7262 H   0  0  0  0  0  0  0  0  0  0  0  0  # atno 6908 bound_to 6896
  150.9151  133.6891  159.2873 H   0  0  0  0  0  0  0  0  0  0  0  0  # atno 6909 bound_to 6896
  145.3389  140.9456  143.2619 H   0  0  0  0  0  0  0  0  0  0  0  0  # atno 7974 bound_to 7965
  156.2326  140.1868  156.7203 H   0  0  0  0  0  0  0  0  0  0  0  0  # atno 8008 bound_to 7997
  154.6049  140.0630  156.9445 H   0  0  0  0  0  0  0  0  0  0  0  0  # atno 8009 bound_to 7997
  155.2112  140.3300  155.4331 H   0  0  0  0  0  0  0  0  0  0  0  0  # atno 8010 bound_to 7997
  139.6952  144.7102  151.1280 H   0  0  0  0  0  0  0  0  0  0  0  0  # atno 10167 bound_to 10162
  157.2553  131.0787  151.1702 H   0  0  0  0  0  0  0  0  0  0  0  0  # atno 10718 bound_to 10713
  153.9621  135.6738  153.4745 H   0  0  0  0  0  0  0  0  0  0  0  0  # atno 10763 bound_to 10752
  153.0833  135.4912  154.8543 H   0  0  0  0  0  0  0  0  0  0  0  0  # atno 10764 bound_to 10752
  154.7267  135.3129  154.8920 H   0  0  0  0  0  0  0  0  0  0  0  0  # atno 10765 bound_to 10752
  141.0693  133.6684  156.3422 H   0  0  0  0  0  0  0  0  0  0  0  0  # atno 11005 bound_to 11000
  144.8806  139.4910  143.6725 LP  0  0  0  0  0  0  0  0  0  0  0  0  # atno 17320 bound_to 7965
  146.3015  139.7443  142.9087 LP  0  0  0  0  0  0  0  0  0  0  0  0  # atno 17321 bound_to 7965
  140.7694  143.5502  150.9213 LP  0  0  0  0  0  0  0  0  0  0  0  0  # atno 17342 bound_to 10162
  139.9181  143.6638  152.3102 LP  0  0  0  0  0  0  0  0  0  0  0  0  # atno 17343 bound_to 10162
  157.3234  130.6948  149.6282 LP  0  0  0  0  0  0  0  0  0  0  0  0  # atno 17370 bound_to 10713
  155.9665  130.4329  150.4982 LP  0  0  0  0  0  0  0  0  0  0  0  0  # atno 17371 bound_to 10713
  140.5708  134.5842  157.5457 LP  0  0  0  0  0  0  0  0  0  0  0  0  # atno 17394 bound_to 11000
  139.9507  134.7622  156.0455 LP  0  0  0  0  0  0  0  0  0  0  0  0  # atno 17395 bound_to 11000

$$$$
