AV-unprocessed.smi:1263|AV-procd|sdf|5311|dock2
  -GOLD-   22720 4433D 1   1.00000     0.00000
 Structure written by MMmdl.
 44 46  0  0  0  0  0  0  0  0  2 V2000
  151.9290  138.3274  154.3204 C   0  0  0  0  0  0  0  0  0  0  0  0
  150.5481  138.3666  153.9773 O   0  0  0  0  0  0  0  0  0  0  0  0
  149.8364  139.5228  154.2363 C   0  0  0  0  0  0  0  0  0  0  0  0
  150.4893  140.5687  154.8025 N   0  0  0  0  0  0  0  0  0  0  0  0
  149.7949  141.6951  155.0632 C   0  0  0  0  0  0  0  0  0  0  0  0
  148.4236  141.8366  154.7826 C   0  0  0  0  0  0  0  0  0  0  0  0
  147.7443  140.7540  154.1941 C   0  0  0  0  0  0  0  0  0  0  0  0
  148.4631  139.5695  153.9003 C   0  0  0  0  0  0  0  0  0  0  0  0
  147.8738  138.4097  153.3245 N   0  0  0  0  0  0  0  0  0  0  0  0
  146.5926  138.2013  152.9766 C   0  0  0  0  0  0  0  0  0  0  0  0
  145.6813  139.0221  153.0806 O   0  0  0  0  0  0  0  0  0  0  0  0
  146.4222  136.9700  152.4740 N   0  0  0  0  0  0  0  0  0  0  0  0
  145.1582  136.4292  151.9821 C   0  0  2  0  0  0  0  0  0  0  0  0
  144.6249  135.3312  152.9224 C   0  0  0  0  0  0  0  0  0  0  0  0
  143.3502  134.6799  152.3535 C   0  0  0  0  0  0  0  0  0  0  0  0
  143.5565  134.1507  150.9809 N   0  3  2  0  0  0  0  0  0  0  0  0
  144.3503  132.8998  150.9488 C   0  0  0  0  0  0  0  0  0  0  0  0
  145.4387  132.8971  149.9007 C   0  0  0  0  0  0  0  0  0  0  0  0
  144.1709  132.1033  149.6775 C   0  0  0  0  0  0  0  0  0  0  0  0
  144.0610  135.1932  150.0508 C   0  0  0  0  0  0  0  0  0  0  0  0
  145.3520  135.8560  150.5681 C   0  0  0  0  0  0  0  0  0  0  0  0
  152.3375  137.3503  154.0627 H   0  0  0  0  0  0  0  0  0  0  0  0
  152.0791  138.4766  155.3907 H   0  0  0  0  0  0  0  0  0  0  0  0
  152.4978  139.0786  153.7706 H   0  0  0  0  0  0  0  0  0  0  0  0
  150.3477  142.5057  155.5144 H   0  0  0  0  0  0  0  0  0  0  0  0
  147.9032  142.7532  155.0179 H   0  0  0  0  0  0  0  0  0  0  0  0
  146.6883  140.8496  153.9959 H   0  0  0  0  0  0  0  0  0  0  0  0
  148.5220  137.6701  153.0960 H   0  0  0  0  0  0  0  0  0  0  0  0
  147.2292  136.3653  152.4203 H   0  0  0  0  0  0  0  0  0  0  0  0
  144.4246  137.2359  151.9256 H   0  0  0  0  0  0  0  0  0  0  0  0
  145.3908  134.5708  153.0808 H   0  0  0  0  0  0  0  0  0  0  0  0
  144.4072  135.7512  153.9050 H   0  0  0  0  0  0  0  0  0  0  0  0
  143.0041  133.8819  153.0112 H   0  0  0  0  0  0  0  0  0  0  0  0
  142.5489  135.4192  152.3200 H   0  0  0  0  0  0  0  0  0  0  0  0
  144.5039  132.3894  151.8973 H   0  0  0  0  0  0  0  0  0  0  0  0
  145.5815  133.7947  149.3015 H   0  0  0  0  0  0  0  0  0  0  0  0
  146.3451  132.3367  150.1209 H   0  0  0  0  0  0  0  0  0  0  0  0
  144.2415  131.0198  149.7507 H   0  0  0  0  0  0  0  0  0  0  0  0
  143.4720  132.4742  148.9298 H   0  0  0  0  0  0  0  0  0  0  0  0
  144.2243  134.7628  149.0622 H   0  0  0  0  0  0  0  0  0  0  0  0
  143.2859  135.9511  149.9307 H   0  0  0  0  0  0  0  0  0  0  0  0
  145.6533  136.6495  149.8834 H   0  0  0  0  0  0  0  0  0  0  0  0
  146.1651  135.1288  150.5675 H   0  0  0  0  0  0  0  0  0  0  0  0
  142.6412  133.8918  150.6405 H   0  0  0  0  0  0  0  0  0  0  0  0
  1  2  1  0  0  0  0
  1 22  1  0  0  0  0
  1 23  1  0  0  0  0
  1 24  1  0  0  0  0
  2  3  1  0  0  0  0
  3  8  1  0  0  0  0
  3  4  2  0  0  0  0
  4  5  1  0  0  0  0
  5  6  2  0  0  0  0
  5 25  1  0  0  0  0
  6  7  1  0  0  0  0
  6 26  1  0  0  0  0
  7  8  2  0  0  0  0
  7 27  1  0  0  0  0
  8  9  1  0  0  0  0
  9 10  1  0  0  0  0
  9 28  1  0  0  0  0
 10 11  2  0  0  0  0
 10 12  1  0  0  0  0
 12 13  1  0  0  0  0
 12 29  1  0  0  0  0
 13 21  1  0  0  0  0
 13 14  1  0  0  0  0
 13 30  1  0  0  0  0
 14 15  1  0  0  0  0
 14 31  1  0  0  0  0
 14 32  1  0  0  0  0
 15 16  1  0  0  0  0
 15 33  1  0  0  0  0
 15 34  1  0  0  0  0
 16 17  1  0  0  0  0
 16 20  1  0  0  0  0
 16 44  1  0  0  0  0
 17 19  1  0  0  0  0
 17 18  1  0  0  0  0
 17 35  1  0  0  0  0
 18 19  1  0  0  0  0
 18 36  1  0  0  0  0
 18 37  1  0  0  0  0
 19 38  1  0  0  0  0
 19 39  1  0  0  0  0
 20 21  1  0  0  0  0
 20 40  1  0  0  0  0
 20 41  1  0  0  0  0
 21 42  1  0  0  0  0
 21 43  1  0  0  0  0
M  CHG  1  16   1
M  END
> <s_m_source_file>
AV-unprocessed.smi

> <i_m_source_file_index>
1263

> <i_lp_mmshare_version>
43012

> <i_f3d_flags>
0

> <s_epik_input>
W0NIM11PYzFuW2NIXVtjSF1bY0hdYzFbTkhdQyg9TylbTkhdW0NIXTJbQ0gyXVtDSDJdTihbQ0gyXVtDSDJdMilbQ0hdM1tDSDJdW0NIMl0z

> <s_epik_cmdline>
J2VwaWtfcHl0aG9uJywgJy1waCcsICc3LjAnLCAnLXRuJywgJzgnLCAnLW1hJywgJzIwMCcsICctbWV0YWxfYmluZGluZycsICctaW1hZScsICc8aW5maWxlLm1hZT4nLCAnLW9tYWUnLCAnPG91dGZpbGUubWFlPic=

> <r_lp_tautomer_probability>
1

> <r_epik_Ionization_Penalty>
0.115628

> <r_epik_Ionization_Penalty_Charging>
0.115549

> <r_epik_Ionization_Penalty_Neutral>
7.89431e-05

> <r_epik_State_Penalty>
0.105184

> <r_epik_Charging_Adjusted_Penalty>
0.220733

> <i_epik_Tot_Q>
1

> <i_epik_Tot_abs_Q>
1

> <r_epik_Metal_State_Penalty>
0.105186

> <b_epik_Metal_Only>
0

> <s_lp_Force_Field>
OPLS_2005

> <r_lp_Energy>
30.2009

> <b_lp_Chiralities_Consistent>
1

> <s_lp_Variant>
AV-unprocessed.smi:1263-2

> <Gold.Version>
5.8.1

> <Gold.Id.Protein>
6NUR|6NUR_protein|mol2

> <Gold.PLP.Fitness>
46.6088

> <Gold.PLP.PLP>
-35.1352

> <Gold.PLP.part.hbond>
-4.0108

> <Gold.PLP.part.metal>
0.0000

> <Gold.PLP.part.buried>
-1.7943

> <Gold.PLP.part.nonpolar>
-33.5770

> <Gold.PLP.part.repulsive>
4.2491

> <Gold.PLP.ligand.clash>
2.4458

> <Gold.PLP.ligand.torsion>
0.8996

> <Gold.PLP.Chemscore.Hbond>
4.4220

> <Gold.PLP.Chemscore.CHOScore>
0.3919

> <Gold.PLP.Chemscore.Metal>
0.0000

> <Gold.Chemscore.Hbonds>
donor molecule, donor type, donor heavy atom, donor atom, acceptor molecule, acceptor atom, score
      L1  H     9    28       P1  7948  0.93
      L1  H    12    29       P1  7948  0.90
      L1  H    16    44       P1 10186  1.89
      P1  H  7989  7998       L1     4  0.88
      L1  C     5    25       P1  8028  0.44

> <Gold.PLP.Chemscore.Internal.Correction>
1.2769

> <Gold.Rescore>
     Score         DG    S(hbond)    S(metal)    S(lipo)     H(rot)  DE(clash)    DE(int)     intcor
     16.40     -21.45       2.64        0.00      92.57       1.43       2.02       3.03       ----

> <Gold.Chemscore.Fitness>
16.4019

> <Gold.Chemscore.DG>
-21.4531

> <Gold.Chemscore.ZeroCoef>
-5.4800

> <Gold.Chemscore.Hbond>
2.6371

> <Gold.Chemscore.Metal>
0.0000

> <Gold.Chemscore.Lipo>
92.5672

> <Gold.Chemscore.Internal_Hbond>
0.0000

> <Gold.Chemscore.DEClash>
2.0172

> <Gold.Chemscore.DEInternal>
3.0340

> <Gold.Chemscore.Rot>
1.4318

> <Gold.Chemscore.Internal.Correction>
   9.000000E+99

> <Gold.Chemscore.Hbonds>
donor molecule, donor type, donor heavy atom, donor atom, acceptor molecule, acceptor atom, score
      L1  H     9    28       P1  7948  0.89
      L1  H    12    29       P1  7948  0.88
      L1  H    16    44       P1 10186  0.73
      P1  H  7989  7998       L1     4  0.12

> <Gold.Chemscore.Hbond.Weighted>
-8.8080

> <Gold.Chemscore.Metal.Weighted>
-0.0000

> <Gold.Chemscore.Lipo.Weighted>
-10.8304

> <Gold.Chemscore.Internal_Hbond.Weighted>
0.0000

> <Gold.Chemscore.DEClash.Weighted>
2.0172

> <Gold.Chemscore.DEInternal.Weighted>
3.0340

> <Gold.Chemscore.Rot.Weighted>
3.6653

> <Gold.Chemscore.Internal.Correction.Weighted>
   9.000000E+99

> <Gold.Protein.RotatedTorsions>
[ 6907 6896 6895 6894 ] final  -52.05 input  -60.11 | X-H torsion
[ 7974 7965 7964 7962 ] final   19.63 input  175.53 | X-H torsion
[ 8008 7997 7996 7995 ] final   32.18 input   59.86 | X-H torsion
[ 10167 10162 10161 10158 ] final  158.39 input  -65.29 | X-H torsion
[ 10718 10713 10712 10709 ] final  114.09 input   66.30 | X-H torsion
[ 10763 10752 10751 10750 ] final -132.59 input  -60.55 | X-H torsion
[ 11005 11000 10999 10996 ] final  116.17 input  -57.11 | X-H torsion

> <Gold.Protein.ActiveResidues>
 VAL166  LYS551  ARG553  GLY616  TRP617  ASP618  TYR619  PRO620  LYS621  CYS622 
 ASP623  PHE694  ASN695  SER759  ASP760  ASP761  ALA762  ILE779  LEU786  VAL792 
 PHE793  MET794  SER795  GLU796  ALA797  LYS798  CYS799  TRP800  GLU811  SER814 

> <Gold.Protein.RotatedAtoms>
  150.8554  134.7891  159.7041 H   0  0  0  0  0  0  0  0  0  0  0  0  # atno 6907 bound_to 6896
  152.4607  134.5187  159.9786 H   0  0  0  0  0  0  0  0  0  0  0  0  # atno 6908 bound_to 6896
  151.5300  133.3412  159.2952 H   0  0  0  0  0  0  0  0  0  0  0  0  # atno 6909 bound_to 6896
  146.2142  139.8285  142.8665 H   0  0  0  0  0  0  0  0  0  0  0  0  # atno 7974 bound_to 7965
  155.1184  140.3246  155.4503 H   0  0  0  0  0  0  0  0  0  0  0  0  # atno 8008 bound_to 7997
  156.2670  140.2031  156.6255 H   0  0  0  0  0  0  0  0  0  0  0  0  # atno 8009 bound_to 7997
  154.6703  140.0537  157.0145 H   0  0  0  0  0  0  0  0  0  0  0  0  # atno 8010 bound_to 7997
  139.4826  144.4828  151.8419 H   0  0  0  0  0  0  0  0  0  0  0  0  # atno 10167 bound_to 10162
  157.6301  131.0993  150.7135 H   0  0  0  0  0  0  0  0  0  0  0  0  # atno 10718 bound_to 10713
  154.8741  135.3793  154.4434 H   0  0  0  0  0  0  0  0  0  0  0  0  # atno 10763 bound_to 10752
  153.5117  135.7029  153.5782 H   0  0  0  0  0  0  0  0  0  0  0  0  # atno 10764 bound_to 10752
  153.4069  135.3934  155.1991 H   0  0  0  0  0  0  0  0  0  0  0  0  # atno 10765 bound_to 10752
  139.9033  134.9594  156.7157 H   0  0  0  0  0  0  0  0  0  0  0  0  # atno 11005 bound_to 11000
  145.3022  141.0197  143.3602 LP  0  0  0  0  0  0  0  0  0  0  0  0  # atno 17320 bound_to 7965
  144.8998  139.4665  143.6638 LP  0  0  0  0  0  0  0  0  0  0  0  0  # atno 17321 bound_to 7965
  140.4306  144.2121  150.5888 LP  0  0  0  0  0  0  0  0  0  0  0  0  # atno 17342 bound_to 10162
  140.4783  143.2388  151.8991 LP  0  0  0  0  0  0  0  0  0  0  0  0  # atno 17343 bound_to 10162
  156.7476  130.4758  149.5463 LP  0  0  0  0  0  0  0  0  0  0  0  0  # atno 17370 bound_to 10713
  156.1499  130.6302  151.0581 LP  0  0  0  0  0  0  0  0  0  0  0  0  # atno 17371 bound_to 10713
  140.7040  133.9281  155.8042 LP  0  0  0  0  0  0  0  0  0  0  0  0  # atno 17394 bound_to 11000
  141.0350  134.0702  157.3970 LP  0  0  0  0  0  0  0  0  0  0  0  0  # atno 17395 bound_to 11000

$$$$
