AV-unprocessed.smi:121|AV-procd|sdf|1139|dock7
  -GOLD-   2262018273D 1   1.00000     0.00000
 Structure written by MMmdl.
 37 39  0  0  0  0  0  0  0  0  1 V2000
  152.9404  143.1398  163.3038 N   0  0  0  0  0  0  0  0  0  0  0  0
  152.6795  143.0429  162.1808 C   0  0  0  0  0  0  0  0  0  0  0  0
  152.3521  142.9218  160.7700 C   0  0  0  0  0  0  0  0  0  0  0  0
  151.8989  144.0456  160.0504 C   0  0  0  0  0  0  0  0  0  0  0  0
  151.5771  143.9224  158.6856 C   0  0  0  0  0  0  0  0  0  0  0  0
  151.7091  142.6786  158.0390 C   0  0  0  0  0  0  0  0  0  0  0  0
  152.1682  141.5490  158.7480 C   0  0  0  0  0  0  0  0  0  0  0  0
  152.2911  140.2182  158.0108 C   0  0  0  0  0  0  0  0  0  0  0  0
  151.0584  139.6712  157.4646 N   0  0  0  0  0  0  0  0  0  0  0  0
  150.3494  138.7431  158.2655 C   0  0  0  0  0  0  0  0  0  0  0  0
  150.7551  138.3929  159.3751 O   0  0  0  0  0  0  0  0  0  0  0  0
  149.1087  138.2563  157.6730 C   0  0  0  0  0  0  0  0  0  0  0  0
  148.3655  137.3547  158.3365 F   0  0  0  0  0  0  0  0  0  0  0  0
  148.6900  138.6979  156.4672 C   0  0  0  0  0  0  0  0  0  0  0  0
  149.3910  139.6297  155.7181 N   0  0  0  0  0  0  0  0  0  0  0  0
  148.8910  140.1262  154.3773 C   0  0  2  0  0  0  0  0  0  0  0  0
  148.7072  141.6564  154.3999 C   0  0  0  0  0  0  0  0  0  0  0  0
  147.2857  141.8328  153.9039 C   0  0  0  0  0  0  0  0  0  0  0  0
  146.6292  140.5381  154.3585 C   0  0  0  0  0  0  0  0  0  0  0  0
  147.6372  139.5695  154.1003 O   0  0  0  0  0  0  0  0  0  0  0  0
  150.6163  140.1368  156.2032 C   0  0  0  0  0  0  0  0  0  0  0  0
  151.2546  140.9675  155.5522 O   0  0  0  0  0  0  0  0  0  0  0  0
  152.4857  141.6778  160.1204 C   0  0  0  0  0  0  0  0  0  0  0  0
  151.7942  145.0035  160.5395 H   0  0  0  0  0  0  0  0  0  0  0  0
  151.2280  144.7828  158.1338 H   0  0  0  0  0  0  0  0  0  0  0  0
  151.4583  142.5941  156.9916 H   0  0  0  0  0  0  0  0  0  0  0  0
  153.0164  140.3092  157.2017 H   0  0  0  0  0  0  0  0  0  0  0  0
  152.7127  139.4542  158.6669 H   0  0  0  0  0  0  0  0  0  0  0  0
  147.7637  138.2934  156.0898 H   0  0  0  0  0  0  0  0  0  0  0  0
  149.6175  139.7726  153.6431 H   0  0  0  0  0  0  0  0  0  0  0  0
  148.8037  142.0352  155.4189 H   0  0  0  0  0  0  0  0  0  0  0  0
  149.4465  142.1489  153.7677 H   0  0  0  0  0  0  0  0  0  0  0  0
  146.7997  142.7223  154.3057 H   0  0  0  0  0  0  0  0  0  0  0  0
  147.2732  141.8959  152.8151 H   0  0  0  0  0  0  0  0  0  0  0  0
  146.4015  140.5724  155.4249 H   0  0  0  0  0  0  0  0  0  0  0  0
  145.7099  140.3163  153.8163 H   0  0  0  0  0  0  0  0  0  0  0  0
  152.8313  140.8246  160.6852 H   0  0  0  0  0  0  0  0  0  0  0  0
  1  2  3  0  0  0  0
  2  3  1  0  0  0  0
  3 23  1  0  0  0  0
  3  4  2  0  0  0  0
  4  5  1  0  0  0  0
  4 24  1  0  0  0  0
  5  6  2  0  0  0  0
  5 25  1  0  0  0  0
  6  7  1  0  0  0  0
  6 26  1  0  0  0  0
  7  8  1  0  0  0  0
  7 23  2  0  0  0  0
  8  9  1  0  0  0  0
  8 27  1  0  0  0  0
  8 28  1  0  0  0  0
  9 21  1  0  0  0  0
  9 10  1  0  0  0  0
 10 11  2  0  0  0  0
 10 12  1  0  0  0  0
 12 13  1  0  0  0  0
 12 14  2  0  0  0  0
 14 15  1  0  0  0  0
 14 29  1  0  0  0  0
 15 16  1  0  0  0  0
 15 21  1  0  0  0  0
 16 20  1  0  0  0  0
 16 17  1  0  0  0  0
 16 30  1  0  0  0  0
 17 18  1  0  0  0  0
 17 31  1  0  0  0  0
 17 32  1  0  0  0  0
 18 19  1  0  0  0  0
 18 33  1  0  0  0  0
 18 34  1  0  0  0  0
 19 20  1  0  0  0  0
 19 35  1  0  0  0  0
 19 36  1  0  0  0  0
 21 22  2  0  0  0  0
 23 37  1  0  0  0  0
M  END
> <s_m_source_file>
AV-unprocessed.smi

> <i_m_source_file_index>
121

> <i_lp_mmshare_version>
43012

> <i_f3d_flags>
0

> <s_epik_input>
TiNDYzFbY0hdW2NIXVtjSF1jKFtjSF0xKVtDSDJdbjJjKD1PKWMoRilbY0hdbihjMj1PKVtDQEBIXTNbQ0gyXVtDSDJdW0NIMl1PMw==

> <s_epik_cmdline>
J2VwaWtfcHl0aG9uJywgJy1waCcsICc3LjAnLCAnLXRuJywgJzgnLCAnLW1hJywgJzIwMCcsICctbWV0YWxfYmluZGluZycsICctaW1hZScsICc8aW5maWxlLm1hZT4nLCAnLW9tYWUnLCAnPG91dGZpbGUubWFlPic=

> <r_lp_tautomer_probability>
1

> <r_epik_Ionization_Penalty>
1.69864e-08

> <r_epik_Ionization_Penalty_Charging>
1.69802e-08

> <r_epik_Ionization_Penalty_Neutral>
6.20402e-12

> <r_epik_State_Penalty>
-0

> <r_epik_Charging_Adjusted_Penalty>
1.69802e-08

> <i_epik_Tot_Q>
0

> <i_epik_Tot_abs_Q>
0

> <r_epik_Metal_State_Penalty>
-0

> <b_epik_Metal_Only>
0

> <s_epik_Chemistry_Notes>
This compound contains an acetal/aminal-like group ( X-CH(R)-Y where X, Y are N, S, or O) that may be acid/base labile, releasing an aldehyde.

> <s_lp_Force_Field>
OPLS_2005

> <r_lp_Energy>
32.9852

> <b_lp_Chiralities_Consistent>
1

> <s_lp_Variant>
AV-unprocessed.smi:121-1

> <Gold.Version>
5.8.1

> <Gold.Id.Protein>
6NUR|6NUR_protein|mol2

> <Gold.PLP.Fitness>
43.8982

> <Gold.PLP.PLP>
-42.7240

> <Gold.PLP.part.hbond>
-2.0000

> <Gold.PLP.part.metal>
0.0000

> <Gold.PLP.part.buried>
-4.2134

> <Gold.PLP.part.nonpolar>
-36.2938

> <Gold.PLP.part.repulsive>
0.3170

> <Gold.PLP.ligand.clash>
0.0000

> <Gold.PLP.ligand.torsion>
0.3609

> <Gold.PLP.Chemscore.Hbond>
0.6289

> <Gold.PLP.Chemscore.CHOScore>
0.0000

> <Gold.PLP.Chemscore.Metal>
0.0000

> <Gold.Chemscore.Hbonds>
donor molecule, donor type, donor heavy atom, donor atom, acceptor molecule, acceptor atom, score
      P1  H  7989  7998       L1    22  0.59

> <Gold.PLP.Chemscore.Internal.Correction>
0.0092

> <Gold.Rescore>
     Score         DG    S(hbond)    S(metal)    S(lipo)     H(rot)  DE(clash)    DE(int)     intcor
     12.77     -14.54       0.84        0.00      88.28       1.59       0.01       1.76       ----

> <Gold.Chemscore.Fitness>
12.7695

> <Gold.Chemscore.DG>
-14.5380

> <Gold.Chemscore.ZeroCoef>
-5.4800

> <Gold.Chemscore.Hbond>
0.8369

> <Gold.Chemscore.Metal>
0.0000

> <Gold.Chemscore.Lipo>
88.2766

> <Gold.Chemscore.Internal_Hbond>
0.0000

> <Gold.Chemscore.DEClash>
0.0115

> <Gold.Chemscore.DEInternal>
1.7570

> <Gold.Chemscore.Rot>
1.5882

> <Gold.Chemscore.Internal.Correction>
   9.000000E+99

> <Gold.Chemscore.Hbonds>
donor molecule, donor type, donor heavy atom, donor atom, acceptor molecule, acceptor atom, score
      P1  H  7989  7998       L1    22  0.56

> <Gold.Chemscore.Hbond.Weighted>
-2.7954

> <Gold.Chemscore.Metal.Weighted>
-0.0000

> <Gold.Chemscore.Lipo.Weighted>
-10.3284

> <Gold.Chemscore.Internal_Hbond.Weighted>
0.0000

> <Gold.Chemscore.DEClash.Weighted>
0.0115

> <Gold.Chemscore.DEInternal.Weighted>
1.7570

> <Gold.Chemscore.Rot.Weighted>
4.0657

> <Gold.Chemscore.Internal.Correction.Weighted>
   9.000000E+99

> <Gold.Protein.RotatedTorsions>
[ 6907 6896 6895 6894 ] final  -11.52 input  -60.11 | X-H torsion
[ 7974 7965 7964 7962 ] final  159.54 input  175.53 | X-H torsion
[ 8008 7997 7996 7995 ] final  -39.31 input   59.86 | X-H torsion
[ 10167 10162 10161 10158 ] final   87.46 input  -65.29 | X-H torsion
[ 10718 10713 10712 10709 ] final  119.59 input   66.30 | X-H torsion
[ 10763 10752 10751 10750 ] final  -78.29 input  -60.55 | X-H torsion
[ 11005 11000 10999 10996 ] final  112.61 input  -57.11 | X-H torsion

> <Gold.Protein.ActiveResidues>
 VAL166  LYS551  ARG553  GLY616  TRP617  ASP618  TYR619  PRO620  LYS621  CYS622 
 ASP623  PHE694  ASN695  SER759  ASP760  ASP761  ALA762  ILE779  LEU786  VAL792 
 PHE793  MET794  SER795  GLU796  ALA797  LYS798  CYS799  TRP800  GLU811  SER814 

> <Gold.Protein.RotatedAtoms>
  151.3849  135.0946  159.9507 H   0  0  0  0  0  0  0  0  0  0  0  0  # atno 6907 bound_to 6896
  152.5097  133.9036  159.7463 H   0  0  0  0  0  0  0  0  0  0  0  0  # atno 6908 bound_to 6896
  150.9477  133.6529  159.2807 H   0  0  0  0  0  0  0  0  0  0  0  0  # atno 6909 bound_to 6896
  144.7785  139.7631  143.6269 H   0  0  0  0  0  0  0  0  0  0  0  0  # atno 7974 bound_to 7965
  154.4025  140.1555  156.2843 H   0  0  0  0  0  0  0  0  0  0  0  0  # atno 8008 bound_to 7997
  155.8842  140.3442  155.5887 H   0  0  0  0  0  0  0  0  0  0  0  0  # atno 8009 bound_to 7997
  155.7633  140.0820  157.2135 H   0  0  0  0  0  0  0  0  0  0  0  0  # atno 8010 bound_to 7997
  139.8771  144.6460  150.8884 H   0  0  0  0  0  0  0  0  0  0  0  0  # atno 10167 bound_to 10162
  157.5951  131.1059  150.7917 H   0  0  0  0  0  0  0  0  0  0  0  0  # atno 10718 bound_to 10713
  154.5240  135.5735  153.6704 H   0  0  0  0  0  0  0  0  0  0  0  0  # atno 10763 bound_to 10752
  152.9924  135.6188  154.2717 H   0  0  0  0  0  0  0  0  0  0  0  0  # atno 10764 bound_to 10752
  154.2639  135.2855  155.2746 H   0  0  0  0  0  0  0  0  0  0  0  0  # atno 10765 bound_to 10752
  139.8932  134.9533  156.6612 H   0  0  0  0  0  0  0  0  0  0  0  0  # atno 11005 bound_to 11000
  146.1979  139.5256  142.9762 LP  0  0  0  0  0  0  0  0  0  0  0  0  # atno 17320 bound_to 7965
  145.6118  141.0338  143.1963 LP  0  0  0  0  0  0  0  0  0  0  0  0  # atno 17321 bound_to 7965
  140.7751  143.3616  151.1818 LP  0  0  0  0  0  0  0  0  0  0  0  0  # atno 17342 bound_to 10162
  139.7230  143.9193  152.2992 LP  0  0  0  0  0  0  0  0  0  0  0  0  # atno 17343 bound_to 10162
  156.8329  130.5022  149.5329 LP  0  0  0  0  0  0  0  0  0  0  0  0  # atno 17370 bound_to 10713
  156.1012  130.5970  150.9897 LP  0  0  0  0  0  0  0  0  0  0  0  0  # atno 17371 bound_to 10713
  140.7445  133.8949  155.8302 LP  0  0  0  0  0  0  0  0  0  0  0  0  # atno 17394 bound_to 11000
  141.0051  134.1098  157.4279 LP  0  0  0  0  0  0  0  0  0  0  0  0  # atno 17395 bound_to 11000

$$$$
