AV-unprocessed.smi:1|AV-procd|sdf|1|dock9
  -GOLD-   2262015 83D 1   1.00000     0.00000
 Structure written by MMmdl.
 57 62  0  0  0  0  0  0  0  0  1 V2000
  154.2418  139.2602  158.6224 O   0  0  0  0  0  0  0  0  0  0  0  0
  153.2784  140.0269  158.6326 C   0  0  0  0  0  0  0  0  0  0  0  0
  152.2736  140.0191  157.5837 N   0  0  0  0  0  0  0  0  0  0  0  0
  152.1676  139.1720  156.5330 C   0  0  0  0  0  0  0  0  0  0  0  0
  152.9551  139.2757  155.4303 N   0  0  0  0  0  0  0  0  0  0  0  0
  152.8144  138.4127  154.4203 C   0  0  0  0  0  0  0  0  0  0  0  0
  151.9659  137.3891  154.3114 N   0  0  0  0  0  0  0  0  0  0  0  0
  151.1711  137.2757  155.4144 C   0  0  0  0  0  0  0  0  0  0  0  0
  151.2123  138.1225  156.5574 C   0  0  0  0  0  0  0  0  0  0  0  0
  150.2615  137.7112  157.4819 N   0  0  0  0  0  0  0  0  0  0  0  0
  149.6893  136.6855  156.9114 C   0  0  0  0  0  0  0  0  0  0  0  0
  150.1710  136.3559  155.6639 N   0  0  0  0  0  0  0  0  0  0  0  0
  149.7040  135.2420  154.7783 C   0  0  2  0  0  0  0  0  0  0  0  0
  148.4132  134.8664  155.1554 O   0  0  0  0  0  0  0  0  0  0  0  0
  148.3751  133.4876  155.5107 C   0  0  1  0  0  0  0  0  0  0  0  0
  147.0328  132.8583  155.1158 C   0  0  0  0  0  0  0  0  0  0  0  0
  146.9167  132.8041  153.7021 O   0  0  0  0  0  0  0  0  0  0  0  0
  146.1533  133.7008  153.0491 C   0  0  0  0  0  0  0  0  0  0  0  0
  145.8687  134.8121  153.5002 O   0  0  0  0  0  0  0  0  0  0  0  0
  145.6834  133.2046  151.7235 C   0  0  0  0  0  0  0  0  0  0  0  0
  146.4033  132.1746  151.0740 C   0  0  0  0  0  0  0  0  0  0  0  0
  145.9836  131.6859  149.8215 C   0  0  0  0  0  0  0  0  0  0  0  0
  144.8376  132.2196  149.2040 C   0  0  0  0  0  0  0  0  0  0  0  0
  144.1124  133.2441  149.8399 C   0  0  0  0  0  0  0  0  0  0  0  0
  144.5315  133.7355  151.0918 C   0  0  0  0  0  0  0  0  0  0  0  0
  149.6104  132.8468  154.8693 C   0  0  2  0  0  0  0  0  0  0  0  0
  150.1382  131.7995  155.6660 O   0  0  0  0  0  0  0  0  0  0  0  0
  151.2982  132.4320  156.6909 S   0  0  0  0  0  0  0  0  0  0  0  0
  150.7259  132.5172  158.0431 O   0  0  0  0  0  0  0  0  0  0  0  0
  152.5741  131.7559  156.4118 O   0  0  0  0  0  0  0  0  0  0  0  0
  151.3731  133.9740  156.0569 O   0  0  0  0  0  0  0  0  0  0  0  0
  150.6127  134.0043  154.8600 C   0  0  2  0  0  0  0  0  0  0  0  0
  153.1241  141.0861  159.6849 C   0  0  0  0  0  0  0  0  0  0  0  0
  153.8191  140.9721  160.9102 C   0  0  0  0  0  0  0  0  0  0  0  0
  153.6672  141.9523  161.9100 C   0  0  0  0  0  0  0  0  0  0  0  0
  152.8139  143.0511  161.6966 C   0  0  0  0  0  0  0  0  0  0  0  0
  152.1086  143.1667  160.4839 C   0  0  0  0  0  0  0  0  0  0  0  0
  152.2596  142.1872  159.4829 C   0  0  0  0  0  0  0  0  0  0  0  0
  151.5560  140.7255  157.6553 H   0  0  0  0  0  0  0  0  0  0  0  0
  153.4758  138.5638  153.5801 H   0  0  0  0  0  0  0  0  0  0  0  0
  148.8885  136.1391  157.3879 H   0  0  0  0  0  0  0  0  0  0  0  0
  149.6688  135.6750  153.7779 H   0  0  0  0  0  0  0  0  0  0  0  0
  148.4720  133.4384  156.5951 H   0  0  0  0  0  0  0  0  0  0  0  0
  146.9673  131.8521  155.5324 H   0  0  0  0  0  0  0  0  0  0  0  0
  146.2071  133.4383  155.5298 H   0  0  0  0  0  0  0  0  0  0  0  0
  147.2865  131.7491  151.5285 H   0  0  0  0  0  0  0  0  0  0  0  0
  146.5424  130.9005  149.3342 H   0  0  0  0  0  0  0  0  0  0  0  0
  144.5154  131.8438  148.2439 H   0  0  0  0  0  0  0  0  0  0  0  0
  143.2322  133.6537  149.3665 H   0  0  0  0  0  0  0  0  0  0  0  0
  143.9513  134.5215  151.5526 H   0  0  0  0  0  0  0  0  0  0  0  0
  149.4149  132.5096  153.8510 H   0  0  0  0  0  0  0  0  0  0  0  0
  151.2865  133.9693  154.0036 H   0  0  0  0  0  0  0  0  0  0  0  0
  154.4769  140.1339  161.0902 H   0  0  0  0  0  0  0  0  0  0  0  0
  154.2054  141.8600  162.8417 H   0  0  0  0  0  0  0  0  0  0  0  0
  152.6967  143.8021  162.4639 H   0  0  0  0  0  0  0  0  0  0  0  0
  151.4482  144.0056  160.3221 H   0  0  0  0  0  0  0  0  0  0  0  0
  151.7013  142.2907  158.5637 H   0  0  0  0  0  0  0  0  0  0  0  0
  1  2  2  0  0  0  0
  2  3  1  0  0  0  0
  2 33  1  0  0  0  0
  3  4  1  0  0  0  0
  3 39  1  0  0  0  0
  4  9  1  0  0  0  0
  4  5  2  0  0  0  0
  5  6  1  0  0  0  0
  6  7  2  0  0  0  0
  6 40  1  0  0  0  0
  7  8  1  0  0  0  0
  8 12  1  0  0  0  0
  8  9  2  0  0  0  0
  9 10  1  0  0  0  0
 10 11  2  0  0  0  0
 11 12  1  0  0  0  0
 11 41  1  0  0  0  0
 12 13  1  0  0  0  0
 13 32  1  0  0  0  0
 13 14  1  0  0  0  0
 13 42  1  0  0  0  0
 14 15  1  0  0  0  0
 15 16  1  0  0  0  0
 15 26  1  0  0  0  0
 15 43  1  0  0  0  0
 16 17  1  0  0  0  0
 16 44  1  0  0  0  0
 16 45  1  0  0  0  0
 17 18  1  0  0  0  0
 18 19  2  0  0  0  0
 18 20  1  0  0  0  0
 20 25  1  0  0  0  0
 20 21  2  0  0  0  0
 21 22  1  0  0  0  0
 21 46  1  0  0  0  0
 22 23  2  0  0  0  0
 22 47  1  0  0  0  0
 23 24  1  0  0  0  0
 23 48  1  0  0  0  0
 24 25  2  0  0  0  0
 24 49  1  0  0  0  0
 25 50  1  0  0  0  0
 26 32  1  0  0  0  0
 26 27  1  0  0  0  0
 26 51  1  0  0  0  0
 27 28  1  0  0  0  0
 28 29  2  0  0  0  0
 28 30  2  0  0  0  0
 28 31  1  0  0  0  0
 31 32  1  0  0  0  0
 32 52  1  0  0  0  0
 33 38  1  0  0  0  0
 33 34  2  0  0  0  0
 34 35  1  0  0  0  0
 34 53  1  0  0  0  0
 35 36  2  0  0  0  0
 35 54  1  0  0  0  0
 36 37  1  0  0  0  0
 36 55  1  0  0  0  0
 37 38  2  0  0  0  0
 37 56  1  0  0  0  0
 38 57  1  0  0  0  0
M  END
> <s_m_source_file>
AV-unprocessed.smi

> <i_m_source_file_index>
1

> <i_lp_mmshare_version>
43012

> <i_f3d_flags>
0

> <s_epik_input>
W2NIXTFbY0hdW2NIXVtjSF1bY0hdYzFDKD1PKVtOSF1jKG5bY0hdbjIpYyhjMjMpbltjSF1uM1tDQEBIXShbQ0BIXShbQ0BIXTQ1KU9TKE81KSg9Tyk9TylPW0NASF00W0NIMl1PQyg9TyljNltjSF1bY0hdW2NIXVtjSF1bY0hdNg==

> <s_epik_cmdline>
J2VwaWtfcHl0aG9uJywgJy1waCcsICc3LjAnLCAnLXRuJywgJzgnLCAnLW1hJywgJzIwMCcsICctbWV0YWxfYmluZGluZycsICctaW1hZScsICc8aW5maWxlLm1hZT4nLCAnLW9tYWUnLCAnPG91dGZpbGUubWFlPic=

> <r_lp_tautomer_probability>
1

> <r_epik_Ionization_Penalty>
0.00195722

> <r_epik_Ionization_Penalty_Charging>
0

> <r_epik_Ionization_Penalty_Neutral>
0.00195722

> <r_epik_State_Penalty>
0.00633741

> <r_epik_Charging_Adjusted_Penalty>
0.00633741

> <i_epik_Tot_Q>
0

> <i_epik_Tot_abs_Q>
0

> <r_epik_Metal_State_Penalty>
0.341185

> <b_epik_Metal_Only>
0

> <s_epik_Chemistry_Notes>
This compound has an ester and may undergo hydrolysis at high or low pH. This compound contains an acetal/aminal-like group ( X-CH(R)-Y where X, Y are N, S, or O) that may be acid/base labile, releasing an aldehyde.

> <s_lp_Force_Field>
OPLS_2005

> <r_lp_Energy>
46.2159

> <b_lp_Chiralities_Consistent>
1

> <s_lp_Variant>
AV-unprocessed.smi:1-1

> <Gold.Version>
5.8.1

> <Gold.Id.Protein>
6NUR|6NUR_protein|mol2

> <Gold.PLP.Fitness>
65.2582

> <Gold.PLP.PLP>
-57.9325

> <Gold.PLP.part.hbond>
-4.0000

> <Gold.PLP.part.metal>
0.0000

> <Gold.PLP.part.buried>
-6.4244

> <Gold.PLP.part.nonpolar>
-47.4067

> <Gold.PLP.part.repulsive>
0.4907

> <Gold.PLP.ligand.clash>
0.0000

> <Gold.PLP.ligand.torsion>
2.3341

> <Gold.PLP.Chemscore.Hbond>
3.9675

> <Gold.PLP.Chemscore.CHOScore>
0.0000

> <Gold.PLP.Chemscore.Metal>
0.0000

> <Gold.Chemscore.Hbonds>
donor molecule, donor type, donor heavy atom, donor atom, acceptor molecule, acceptor atom, score
      P1  H  6896  6907       L1    29  1.00
      P1  H  7997  8008       L1     1  1.00
      P1  H  7997  8009       L1     5  1.00
      P1  H 10752 10765       L1     7  0.94

> <Gold.PLP.Chemscore.Internal.Correction>
0.0915

> <Gold.Rescore>
     Score         DG    S(hbond)    S(metal)    S(lipo)     H(rot)  DE(clash)    DE(int)     intcor
     21.57     -23.97       2.43        0.00     135.32       2.13       0.25       2.15       ----

> <Gold.Chemscore.Fitness>
21.5722

> <Gold.Chemscore.DG>
-23.9708

> <Gold.Chemscore.ZeroCoef>
-5.4800

> <Gold.Chemscore.Hbond>
2.4310

> <Gold.Chemscore.Metal>
0.0000

> <Gold.Chemscore.Lipo>
135.3222

> <Gold.Chemscore.Internal_Hbond>
0.0000

> <Gold.Chemscore.DEClash>
0.2509

> <Gold.Chemscore.DEInternal>
2.1477

> <Gold.Chemscore.Rot>
2.1333

> <Gold.Chemscore.Internal.Correction>
   9.000000E+99

> <Gold.Chemscore.Hbonds>
donor molecule, donor type, donor heavy atom, donor atom, acceptor molecule, acceptor atom, score
      P1  H  6896  6907       L1    29  0.94
      P1  H  7997  8008       L1     1  0.25
      P1  H  7997  8009       L1     5  0.79
      P1  H 10752 10765       L1     7  0.33

> <Gold.Chemscore.Hbond.Weighted>
-8.1195

> <Gold.Chemscore.Metal.Weighted>
-0.0000

> <Gold.Chemscore.Lipo.Weighted>
-15.8327

> <Gold.Chemscore.Internal_Hbond.Weighted>
0.0000

> <Gold.Chemscore.DEClash.Weighted>
0.2509

> <Gold.Chemscore.DEInternal.Weighted>
2.1477

> <Gold.Chemscore.Rot.Weighted>
5.4614

> <Gold.Chemscore.Internal.Correction.Weighted>
   9.000000E+99

> <Gold.Protein.RotatedTorsions>
[ 6907 6896 6895 6894 ] final -154.30 input  -60.11 | X-H torsion
[ 7974 7965 7964 7962 ] final   98.98 input  175.53 | X-H torsion
[ 8008 7997 7996 7995 ] final -127.13 input   59.86 | X-H torsion
[ 10167 10162 10161 10158 ] final  -45.64 input  -65.29 | X-H torsion
[ 10718 10713 10712 10709 ] final -139.95 input   66.30 | X-H torsion
[ 10763 10752 10751 10750 ] final  158.60 input  -60.55 | X-H torsion
[ 11005 11000 10999 10996 ] final  119.75 input  -57.11 | X-H torsion

> <Gold.Protein.ActiveResidues>
 VAL166  LYS551  ARG553  GLY616  TRP617  ASP618  TYR619  PRO620  LYS621  CYS622 
 ASP623  PHE694  ASN695  SER759  ASP760  ASP761  ALA762  ILE779  LEU786  VAL792 
 PHE793  MET794  SER795  GLU796  ALA797  LYS798  CYS799  TRP800  GLU811  SER814 

> <Gold.Protein.RotatedAtoms>
  151.2554  133.4328  159.2613 H   0  0  0  0  0  0  0  0  0  0  0  0  # atno 6907 bound_to 6896
  151.0579  134.9717  159.8255 H   0  0  0  0  0  0  0  0  0  0  0  0  # atno 6908 bound_to 6896
  152.5393  134.2506  159.8950 H   0  0  0  0  0  0  0  0  0  0  0  0  # atno 6909 bound_to 6896
  145.4049  139.2342  143.3280 H   0  0  0  0  0  0  0  0  0  0  0  0  # atno 7974 bound_to 7965
  155.2411  140.0428  157.2975 H   0  0  0  0  0  0  0  0  0  0  0  0  # atno 8008 bound_to 7997
  154.5828  140.2405  155.8000 H   0  0  0  0  0  0  0  0  0  0  0  0  # atno 8009 bound_to 7997
  156.2205  140.2971  155.9949 H   0  0  0  0  0  0  0  0  0  0  0  0  # atno 8010 bound_to 7997
  140.6850  143.2869  151.3668 H   0  0  0  0  0  0  0  0  0  0  0  0  # atno 10167 bound_to 10162
  156.3167  130.7511  151.1600 H   0  0  0  0  0  0  0  0  0  0  0  0  # atno 10718 bound_to 10713
  154.2186  135.2783  155.2933 H   0  0  0  0  0  0  0  0  0  0  0  0  # atno 10763 bound_to 10752
  154.5720  135.5615  153.7107 H   0  0  0  0  0  0  0  0  0  0  0  0  # atno 10764 bound_to 10752
  153.0047  135.6323  154.2326 H   0  0  0  0  0  0  0  0  0  0  0  0  # atno 10765 bound_to 10752
  139.9158  134.9630  156.7703 H   0  0  0  0  0  0  0  0  0  0  0  0  # atno 11005 bound_to 11000
  146.2733  140.4752  142.8805 LP  0  0  0  0  0  0  0  0  0  0  0  0  # atno 17320 bound_to 7965
  144.8348  140.6765  143.6267 LP  0  0  0  0  0  0  0  0  0  0  0  0  # atno 17321 bound_to 7965
  139.6201  144.0924  152.2383 LP  0  0  0  0  0  0  0  0  0  0  0  0  # atno 17342 bound_to 10162
  140.0366  144.6040  150.7445 LP  0  0  0  0  0  0  0  0  0  0  0  0  # atno 17343 bound_to 10162
  157.7403  131.0519  150.5175 LP  0  0  0  0  0  0  0  0  0  0  0  0  # atno 17370 bound_to 10713
  156.5322  130.4187  149.6196 LP  0  0  0  0  0  0  0  0  0  0  0  0  # atno 17371 bound_to 10713
  140.6626  133.9631  155.7813 LP  0  0  0  0  0  0  0  0  0  0  0  0  # atno 17394 bound_to 11000
  141.0633  134.0314  157.3629 LP  0  0  0  0  0  0  0  0  0  0  0  0  # atno 17395 bound_to 11000

$$$$
