#       Name:                AV-unprocessed.smi:2083
#       Creating user name   scv26
#       Creation time:       Fri Mar 27 11:22:22 2020


#       File generated by GOLD software.
#

@<TRIPOS>MOLECULE
AV-unprocessed.smi:2083
    50    51     1
SMALL
NO_CHARGES


@<TRIPOS>ATOM
      1 ****        -6.2704   5.4296  -0.0304 C.3            1 S1                 0.0000
      2 ****        -5.2053   4.3970   0.1123 C.2            1 S1                 0.0000
      3 ****        -3.8900   4.4631   0.4763 C.2            1 S1                 0.0000
      4 ****        -3.4689   3.1083   0.4067 C.2            1 S1                 0.0000
      5 ****        -2.1321   2.7491   0.7227 N.am           1 S1                 0.0000
      6 ****        -1.5670   1.5281   0.7302 C.2            1 S1                 0.0000
      7 ****        -2.2288   0.5305   0.4189 O.2            1 S1                 0.0000
      8 ****        -0.2564   1.5684   1.0983 N.pl3          1 S1                -1.0000
      9 ****         0.6110   0.3964   1.2285 C.3            1 S1                 0.0000
     10 ****         1.1968  -0.0231  -0.1483 C.3            1 S1                 0.0000
     11 ****         2.1703   1.0111  -0.7678 C.3            1 S1                 0.0000
     12 ****         1.7810  -1.3987  -0.0727 N.4            1 S1                 1.0000
     13 ****         3.1985  -1.4887   0.3871 C.3            1 S1                 0.0000
     14 ****         3.5863  -2.9469   0.6740 C.3            1 S1                 0.0000
     15 ****         3.3575  -3.8268  -0.5633 C.3            1 S1                 0.0000
     16 ****         1.9182  -3.6855  -1.0935 C.3            1 S1                 0.0000
     17 ****         0.8857  -4.4089  -0.2109 C.3            1 S1                 0.0000
     18 ****         1.5588  -2.2001  -1.3074 C.3            1 S1                 0.0000
     19 ****        -4.4409   2.2896   0.0316 N.2            1 S1                 0.0000
     20 ****        -5.5583   3.1112  -0.1580 O.3            1 S1                 0.0000
     21 ****        -5.8355   6.4172  -0.1847 H              1 S1                 0.0000
     22 ****        -6.8907   5.4687   0.8649 H              1 S1                 0.0000
     23 ****        -6.9157   5.2087  -0.8808 H              1 S1                 0.0000
     24 ****        -3.3223   5.3398   0.7507 H              1 S1                 0.0000
     25 ****        -1.5267   3.5124   0.9860 H              1 S1                 0.0000
     26 ****         1.4322   0.5868   1.9196 H              1 S1                 0.0000
     27 ****         0.0737  -0.4517   1.6561 H              1 S1                 0.0000
     28 ****         0.3436  -0.0866  -0.8253 H              1 S1                 0.0000
     29 ****         1.6775   1.9657  -0.9610 H              1 S1                 0.0000
     30 ****         2.5493   0.6602  -1.7278 H              1 S1                 0.0000
     31 ****         3.0323   1.2158  -0.1306 H              1 S1                 0.0000
     32 ****         3.8650  -1.0785  -0.3726 H              1 S1                 0.0000
     33 ****         3.3494  -0.8990   1.2915 H              1 S1                 0.0000
     34 ****         4.6325  -2.9995   0.9767 H              1 S1                 0.0000
     35 ****         3.0053  -3.3243   1.5160 H              1 S1                 0.0000
     36 ****         4.0584  -3.5294  -1.3445 H              1 S1                 0.0000
     37 ****         3.5811  -4.8693  -0.3342 H              1 S1                 0.0000
     38 ****         1.8828  -4.1732  -2.0685 H              1 S1                 0.0000
     39 ****         0.8241  -3.9730   0.7864 H              1 S1                 0.0000
     40 ****         1.1377  -5.4635  -0.0971 H              1 S1                 0.0000
     41 ****        -0.1099  -4.3573  -0.6526 H              1 S1                 0.0000
     42 ****         0.5179  -2.1294  -1.6255 H              1 S1                 0.0000
     43 ****         2.1605  -1.7827  -2.1161 H              1 S1                 0.0000
     44 ****         1.2302  -1.8609   0.6370 H              1 S1                 0.0000
     45 ****        -3.1896   0.6288   0.1597 LP             1 S1                 0.0000
     46 ****        -1.8030  -0.3743   0.4265 LP             1 S1                 0.0000
     47 ****         0.1426   2.4642   1.2940 LP             1 S1                 0.0000
     48 ****        -4.3877   1.2984  -0.0898 LP             1 S1                 0.0000
     49 ****        -5.8713   3.0402  -1.1050 LP             1 S1                 0.0000
     50 ****        -6.2930   2.8274   0.4581 LP             1 S1                 0.0000
@<TRIPOS>BOND
    1    1    2 1     
    2    1   21 1     
    3    1   22 1     
    4    1   23 1     
    5    2   20 1     
    6    2    3 2     
    7    3    4 1     
    8    3   24 1     
    9    4    5 1     
   10    4   19 2     
   11    5    6 am    
   12    5   25 1     
   13    6    7 2     
   14    6    8 1     
   15    8    9 1     
   16    9   10 1     
   17    9   26 1     
   18    9   27 1     
   19   10   11 1     
   20   10   12 1     
   21   10   28 1     
   22   11   29 1     
   23   11   30 1     
   24   11   31 1     
   25   12   18 1     
   26   12   13 1     
   27   12   44 1     
   28   13   14 1     
   29   13   32 1     
   30   13   33 1     
   31   14   15 1     
   32   14   34 1     
   33   14   35 1     
   34   15   16 1     
   35   15   36 1     
   36   15   37 1     
   37   16   17 1     
   38   16   18 1     
   39   16   38 1     
   40   17   39 1     
   41   17   40 1     
   42   17   41 1     
   43   18   42 1     
   44   18   43 1     
   45   19   20 1     
   46    7   45 1     
   47    7   46 1     
   48    8   47 1     
   49   19   48 1     
   50   20   49 1     
   51   20   50 1     
@<TRIPOS>SUBSTRUCTURE
      1 S1             1
@<TRIPOS>SET
LONE_PAIRS      STATIC     ATOMS    <user>   **** ""
6 45 46 47 48 49 50
DONOR_HYDROGENS      STATIC     ATOMS    <user>   **** ""
2 25 44
ATOM$BLUE        STATIC     ATOMS    COLORGROUP SYSTEM
6 45 46 47 48 49 50
ATOM$RED        STATIC     ATOMS    COLORGROUP SYSTEM
2 25 44
