AV-unprocessed.smi:3238|AV-procd|sdf|12375|dock5
  -GOLD-   2272018233D 1   1.00000     0.00000
 Structure written by MMmdl.
 37 39  0  0  0  0  0  0  0  0  1 V2000
  147.4182  139.0517  153.3247 C   0  0  0  0  0  0  0  0  0  0  0  0
  148.7795  138.6228  153.6046 N   0  0  0  0  0  0  0  0  0  0  0  0
  149.6919  139.3711  154.2431 C   0  0  0  0  0  0  0  0  0  0  0  0
  149.4584  140.5007  154.6727 O   0  0  0  0  0  0  0  0  0  0  0  0
  151.0778  138.7509  154.4328 C   0  0  0  0  0  0  0  0  0  0  0  0
  151.7069  139.2379  155.6991 C   0  0  0  0  0  0  0  0  0  0  0  0
  152.9053  138.8139  156.0840 N   0  0  0  0  0  0  0  0  0  0  0  0
  153.1118  139.4838  157.2983 O   0  0  0  0  0  0  0  0  0  0  0  0
  152.0128  140.2525  157.4878 C   0  0  0  0  0  0  0  0  0  0  0  0
  151.8967  141.0494  158.7443 C   0  0  0  0  0  0  0  0  0  0  0  0
  152.6488  142.3920  158.6641 C   0  0  2  0  0  0  0  0  0  0  0  0
  152.9928  143.0366  160.0249 C   0  0  0  0  0  0  0  0  0  0  0  0
  152.4820  144.4802  159.8582 C   0  0  2  0  0  0  0  0  0  0  0  0
  150.9440  144.4800  159.9270 C   0  0  0  0  0  0  0  0  0  0  0  0
  150.5465  143.8472  158.5806 C   0  0  0  0  0  0  0  0  0  0  0  0
  151.9106  143.5357  157.9306 C   0  0  1  0  0  0  0  0  0  0  0  0
  152.7299  144.7431  158.3763 C   0  0  0  0  0  0  0  0  0  0  0  0
  151.1003  140.1336  156.5271 N   0  0  0  0  0  0  0  0  0  0  0  0
  146.8712  138.2508  152.8272 H   0  0  0  0  0  0  0  0  0  0  0  0
  147.4143  139.9248  152.6709 H   0  0  0  0  0  0  0  0  0  0  0  0
  146.8910  139.3035  154.2459 H   0  0  0  0  0  0  0  0  0  0  0  0
  149.0513  137.7051  153.2819 H   0  0  0  0  0  0  0  0  0  0  0  0
  150.9964  137.6630  154.4554 H   0  0  0  0  0  0  0  0  0  0  0  0
  151.7157  139.0029  153.5846 H   0  0  0  0  0  0  0  0  0  0  0  0
  150.8387  141.2293  158.9376 H   0  0  0  0  0  0  0  0  0  0  0  0
  152.2670  140.4412  159.5695 H   0  0  0  0  0  0  0  0  0  0  0  0
  153.5804  142.2154  158.1230 H   0  0  0  0  0  0  0  0  0  0  0  0
  152.5183  142.5336  160.8685 H   0  0  0  0  0  0  0  0  0  0  0  0
  154.0702  143.0179  160.1936 H   0  0  0  0  0  0  0  0  0  0  0  0
  152.9496  145.1916  160.5393 H   0  0  0  0  0  0  0  0  0  0  0  0
  150.5675  143.9143  160.7800 H   0  0  0  0  0  0  0  0  0  0  0  0
  150.5562  145.4967  160.0017 H   0  0  0  0  0  0  0  0  0  0  0  0
  149.9096  142.9712  158.6960 H   0  0  0  0  0  0  0  0  0  0  0  0
  149.9948  144.5680  157.9757 H   0  0  0  0  0  0  0  0  0  0  0  0
  151.8574  143.3965  156.8504 H   0  0  0  0  0  0  0  0  0  0  0  0
  152.3223  145.6950  158.0311 H   0  0  0  0  0  0  0  0  0  0  0  0
  153.7831  144.6832  158.0958 H   0  0  0  0  0  0  0  0  0  0  0  0
  1  2  1  0  0  0  0
  1 19  1  0  0  0  0
  1 20  1  0  0  0  0
  1 21  1  0  0  0  0
  2  3  1  0  0  0  0
  2 22  1  0  0  0  0
  3  4  2  0  0  0  0
  3  5  1  0  0  0  0
  5  6  1  0  0  0  0
  5 23  1  0  0  0  0
  5 24  1  0  0  0  0
  6 18  1  0  0  0  0
  6  7  2  0  0  0  0
  7  8  1  0  0  0  0
  8  9  1  0  0  0  0
  9 10  1  0  0  0  0
  9 18  2  0  0  0  0
 10 11  1  0  0  0  0
 10 25  1  0  0  0  0
 10 26  1  0  0  0  0
 11 16  1  0  0  0  0
 11 12  1  0  0  0  0
 11 27  1  0  0  0  0
 12 13  1  0  0  0  0
 12 28  1  0  0  0  0
 12 29  1  0  0  0  0
 13 17  1  0  0  0  0
 13 14  1  0  0  0  0
 13 30  1  0  0  0  0
 14 15  1  0  0  0  0
 14 31  1  0  0  0  0
 14 32  1  0  0  0  0
 15 16  1  0  0  0  0
 15 33  1  0  0  0  0
 15 34  1  0  0  0  0
 16 17  1  0  0  0  0
 16 35  1  0  0  0  0
 17 36  1  0  0  0  0
 17 37  1  0  0  0  0
M  END
> <s_m_source_file>
AV-unprocessed.smi

> <i_m_source_file_index>
3238

> <i_lp_mmshare_version>
43012

> <i_f3d_flags>
0

> <s_epik_input>
W0NIM11bTkhdQyg9TylbQ0gyXWMxbm9jKG4xKVtDSDJdW0NASF0oW0NIMl1bQ0BIXTIzKVtDQEhdKFtDSDJdMylbQ0gyXVtDSDJdMg==

> <s_epik_cmdline>
J2VwaWtfcHl0aG9uJywgJy1waCcsICc3LjAnLCAnLXRuJywgJzgnLCAnLW1hJywgJzIwMCcsICctbWV0YWxfYmluZGluZycsICctaW1hZScsICc8aW5maWxlLm1hZT4nLCAnLW9tYWUnLCAnPG91dGZpbGUubWFlPic=

> <r_lp_tautomer_probability>
1

> <r_epik_Ionization_Penalty>
1.02915e-07

> <r_epik_Ionization_Penalty_Charging>
0

> <r_epik_Ionization_Penalty_Neutral>
1.02915e-07

> <r_epik_State_Penalty>
-0

> <r_epik_Charging_Adjusted_Penalty>
0

> <i_epik_Tot_Q>
0

> <i_epik_Tot_abs_Q>
0

> <r_epik_Metal_State_Penalty>
-0

> <b_epik_Metal_Only>
0

> <s_lp_Force_Field>
OPLS_2005

> <r_lp_Energy>
47.7222

> <b_lp_Chiralities_Consistent>
1

> <s_lp_Variant>
AV-unprocessed.smi:3238-1

> <Gold.Version>
5.8.1

> <Gold.Id.Protein>
6NUR|6NUR_protein|mol2

> <Gold.PLP.Fitness>
46.3686

> <Gold.PLP.PLP>
-42.3453

> <Gold.PLP.part.hbond>
-4.0000

> <Gold.PLP.part.metal>
0.0000

> <Gold.PLP.part.buried>
-4.0719

> <Gold.PLP.part.nonpolar>
-33.7867

> <Gold.PLP.part.repulsive>
0.1675

> <Gold.PLP.ligand.clash>
0.0000

> <Gold.PLP.ligand.torsion>
0.8636

> <Gold.PLP.Chemscore.Hbond>
1.9120

> <Gold.PLP.Chemscore.CHOScore>
0.0000

> <Gold.PLP.Chemscore.Metal>
0.0000

> <Gold.Chemscore.Hbonds>
donor molecule, donor type, donor heavy atom, donor atom, acceptor molecule, acceptor atom, score
      L1  H     2    22       P1  7948  0.99
      P1  H  7997  8010       L1     8  0.90

> <Gold.PLP.Chemscore.Internal.Correction>
0.0145

> <Gold.Rescore>
     Score         DG    S(hbond)    S(metal)    S(lipo)     H(rot)  DE(clash)    DE(int)     intcor
     15.44     -18.18       1.66        0.00     101.70       1.85       0.06       2.67       ----

> <Gold.Chemscore.Fitness>
15.4420

> <Gold.Chemscore.DG>
-18.1788

> <Gold.Chemscore.ZeroCoef>
-5.4800

> <Gold.Chemscore.Hbond>
1.6570

> <Gold.Chemscore.Metal>
0.0000

> <Gold.Chemscore.Lipo>
101.6965

> <Gold.Chemscore.Internal_Hbond>
0.0000

> <Gold.Chemscore.DEClash>
0.0621

> <Gold.Chemscore.DEInternal>
2.6747

> <Gold.Chemscore.Rot>
1.8492

> <Gold.Chemscore.Internal.Correction>
   9.000000E+99

> <Gold.Chemscore.Hbonds>
donor molecule, donor type, donor heavy atom, donor atom, acceptor molecule, acceptor atom, score
      L1  H     2    22       P1  7948  0.88
      P1  H  7997  8010       L1     8  0.17

> <Gold.Chemscore.Hbond.Weighted>
-5.5342

> <Gold.Chemscore.Metal.Weighted>
-0.0000

> <Gold.Chemscore.Lipo.Weighted>
-11.8985

> <Gold.Chemscore.Internal_Hbond.Weighted>
0.0000

> <Gold.Chemscore.DEClash.Weighted>
0.0621

> <Gold.Chemscore.DEInternal.Weighted>
2.6747

> <Gold.Chemscore.Rot.Weighted>
4.7340

> <Gold.Chemscore.Internal.Correction.Weighted>
   9.000000E+99

> <Gold.Protein.RotatedTorsions>
[ 6907 6896 6895 6894 ] final -154.63 input  -60.11 | X-H torsion
[ 7974 7965 7964 7962 ] final  128.11 input  175.53 | X-H torsion
[ 8008 7997 7996 7995 ] final   33.29 input   59.86 | X-H torsion
[ 10167 10162 10161 10158 ] final  -22.18 input  -65.29 | X-H torsion
[ 10718 10713 10712 10709 ] final  148.48 input   66.30 | X-H torsion
[ 10763 10752 10751 10750 ] final  179.06 input  -60.55 | X-H torsion
[ 11005 11000 10999 10996 ] final  111.90 input  -57.11 | X-H torsion

> <Gold.Protein.ActiveResidues>
 VAL166  LYS551  ARG553  GLY616  TRP617  ASP618  TYR619  PRO620  LYS621  CYS622 
 ASP623  PHE694  ASN695  SER759  ASP760  ASP761  ALA762  ILE779  LEU786  VAL792 
 PHE793  MET794  SER795  GLU796  ALA797  LYS798  CYS799  TRP800  GLU811  SER814 

> <Gold.Protein.RotatedAtoms>
  151.2603  133.4305  159.2615 H   0  0  0  0  0  0  0  0  0  0  0  0  # atno 6907 bound_to 6896
  151.0537  134.9690  159.8235 H   0  0  0  0  0  0  0  0  0  0  0  0  # atno 6908 bound_to 6896
  152.5387  134.2556  159.8968 H   0  0  0  0  0  0  0  0  0  0  0  0  # atno 6909 bound_to 6896
  145.0432  139.3945  143.5091 H   0  0  0  0  0  0  0  0  0  0  0  0  # atno 7974 bound_to 7965
  155.1362  140.3262  155.4462 H   0  0  0  0  0  0  0  0  0  0  0  0  # atno 8008 bound_to 7997
  156.2619  140.2002  156.6428 H   0  0  0  0  0  0  0  0  0  0  0  0  # atno 8009 bound_to 7997
  154.6576  140.0551  157.0013 H   0  0  0  0  0  0  0  0  0  0  0  0  # atno 8010 bound_to 7997
  140.7285  143.4558  151.0450 H   0  0  0  0  0  0  0  0  0  0  0  0  # atno 10167 bound_to 10162
  157.3081  131.0883  151.1338 H   0  0  0  0  0  0  0  0  0  0  0  0  # atno 10718 bound_to 10713
  154.5157  135.2791  155.1305 H   0  0  0  0  0  0  0  0  0  0  0  0  # atno 10763 bound_to 10752
  154.2882  135.6272  153.5378 H   0  0  0  0  0  0  0  0  0  0  0  0  # atno 10764 bound_to 10752
  152.9927  135.5667  154.5634 H   0  0  0  0  0  0  0  0  0  0  0  0  # atno 10765 bound_to 10752
  139.8914  134.9518  156.6503 H   0  0  0  0  0  0  0  0  0  0  0  0  # atno 11005 bound_to 11000
  146.3511  140.0043  142.8673 LP  0  0  0  0  0  0  0  0  0  0  0  0  # atno 17320 bound_to 7965
  145.1621  140.9678  143.4371 LP  0  0  0  0  0  0  0  0  0  0  0  0  # atno 17321 bound_to 7965
  139.8239  143.7783  152.3178 LP  0  0  0  0  0  0  0  0  0  0  0  0  # atno 17342 bound_to 10162
  139.7875  144.7422  151.0001 LP  0  0  0  0  0  0  0  0  0  0  0  0  # atno 17343 bound_to 10162
  157.2671  130.6686  149.6001 LP  0  0  0  0  0  0  0  0  0  0  0  0  # atno 17370 bound_to 10713
  155.9676  130.4491  150.5644 LP  0  0  0  0  0  0  0  0  0  0  0  0  # atno 17371 bound_to 10713
  140.7526  133.8885  155.8358 LP  0  0  0  0  0  0  0  0  0  0  0  0  # atno 17394 bound_to 11000
  140.9988  134.1178  157.4337 LP  0  0  0  0  0  0  0  0  0  0  0  0  # atno 17395 bound_to 11000

$$$$
