AV-unprocessed.smi:1053|AV-procd|sdf|4618|dock5
  -GOLD-   22720 3123D 1   1.00000     0.00000
 Structure written by MMmdl.
 38 39  0  0  0  0  0  0  0  0  2 V2000
  146.7932  139.2605  151.4807 C   0  0  0  0  0  0  0  0  0  0  0  0
  146.5866  138.5987  152.8506 C   0  0  0  0  0  0  0  0  0  0  0  0
  147.8705  138.2219  153.4998 N   0  3  2  0  0  0  0  0  0  0  0  0
  147.6947  137.4889  154.7772 C   0  0  0  0  0  0  0  0  0  0  0  0
  147.3396  138.4503  155.9253 C   0  0  0  0  0  0  0  0  0  0  0  0
  148.3474  139.4476  156.0331 O   0  0  0  0  0  0  0  0  0  0  0  0
  148.4530  140.2492  154.8603 C   0  0  1  0  0  0  0  0  0  0  0  0
  149.5207  141.3226  155.1107 C   0  0  0  0  0  0  0  0  0  0  0  0
  150.7653  140.7429  155.5928 N   0  0  0  0  0  0  0  0  0  0  0  0
  151.3038  140.9957  156.8398 C   0  0  0  0  0  0  0  0  0  0  0  0
  151.7360  139.9239  157.5074 N   0  0  0  0  0  0  0  0  0  0  0  0
  152.2692  140.1366  158.7302 C   0  0  0  0  0  0  0  0  0  0  0  0
  152.3682  141.4290  159.2826 C   0  0  0  0  0  0  0  0  0  0  0  0
  151.8786  142.4893  158.4875 C   0  0  0  0  0  0  0  0  0  0  0  0
  151.9202  143.9372  158.9525 C   0  0  0  0  0  0  0  0  0  0  0  0
  152.4863  144.0501  160.1545 F   0  0  0  0  0  0  0  0  0  0  0  0
  152.6209  144.6674  158.0849 F   0  0  0  0  0  0  0  0  0  0  0  0
  150.6805  144.4227  159.0213 F   0  0  0  0  0  0  0  0  0  0  0  0
  151.3461  142.2633  157.2641 N   0  0  0  0  0  0  0  0  0  0  0  0
  148.8355  139.3384  153.6726 C   0  0  0  0  0  0  0  0  0  0  0  0
  145.8349  139.4300  150.9892 H   0  0  0  0  0  0  0  0  0  0  0  0
  147.3924  138.6289  150.8243 H   0  0  0  0  0  0  0  0  0  0  0  0
  147.2876  140.2279  151.5619 H   0  0  0  0  0  0  0  0  0  0  0  0
  145.9937  139.2429  153.4996 H   0  0  0  0  0  0  0  0  0  0  0  0
  145.9930  137.6974  152.6928 H   0  0  0  0  0  0  0  0  0  0  0  0
  146.9397  136.7085  154.6759 H   0  0  0  0  0  0  0  0  0  0  0  0
  148.6305  136.9799  155.0121 H   0  0  0  0  0  0  0  0  0  0  0  0
  146.3634  138.9122  155.7713 H   0  0  0  0  0  0  0  0  0  0  0  0
  147.2856  137.9034  156.8668 H   0  0  0  0  0  0  0  0  0  0  0  0
  147.4995  140.7413  154.6619 H   0  0  0  0  0  0  0  0  0  0  0  0
  149.7090  141.8903  154.1986 H   0  0  0  0  0  0  0  0  0  0  0  0
  149.1618  142.0291  155.8601 H   0  0  0  0  0  0  0  0  0  0  0  0
  151.3028  140.1619  154.9658 H   0  0  0  0  0  0  0  0  0  0  0  0
  152.6190  139.2700  159.2715 H   0  0  0  0  0  0  0  0  0  0  0  0
  152.7965  141.5898  160.2608 H   0  0  0  0  0  0  0  0  0  0  0  0
  149.8197  138.9045  153.8558 H   0  0  0  0  0  0  0  0  0  0  0  0
  148.9303  139.9190  152.7559 H   0  0  0  0  0  0  0  0  0  0  0  0
  148.3019  137.5657  152.8641 H   0  0  0  0  0  0  0  0  0  0  0  0
  1  2  1  0  0  0  0
  1 21  1  0  0  0  0
  1 22  1  0  0  0  0
  1 23  1  0  0  0  0
  2  3  1  0  0  0  0
  2 24  1  0  0  0  0
  2 25  1  0  0  0  0
  3 20  1  0  0  0  0
  3  4  1  0  0  0  0
  3 38  1  0  0  0  0
  4  5  1  0  0  0  0
  4 26  1  0  0  0  0
  4 27  1  0  0  0  0
  5  6  1  0  0  0  0
  5 28  1  0  0  0  0
  5 29  1  0  0  0  0
  6  7  1  0  0  0  0
  7  8  1  0  0  0  0
  7 20  1  0  0  0  0
  7 30  1  0  0  0  0
  8  9  1  0  0  0  0
  8 31  1  0  0  0  0
  8 32  1  0  0  0  0
  9 10  1  0  0  0  0
  9 33  1  0  0  0  0
 10 19  1  0  0  0  0
 10 11  2  0  0  0  0
 11 12  1  0  0  0  0
 12 13  2  0  0  0  0
 12 34  1  0  0  0  0
 13 14  1  0  0  0  0
 13 35  1  0  0  0  0
 14 15  1  0  0  0  0
 14 19  2  0  0  0  0
 15 16  1  0  0  0  0
 15 17  1  0  0  0  0
 15 18  1  0  0  0  0
 20 36  1  0  0  0  0
 20 37  1  0  0  0  0
M  CHG  1   3   1
M  END
> <s_m_source_file>
AV-unprocessed.smi

> <i_m_source_file_index>
1053

> <i_lp_mmshare_version>
43012

> <i_f3d_flags>
0

> <s_epik_input>
W0NIM11bQ0gyXU4xW0NIMl1bQ0gyXU9bQ0BIXShbQ0gyXTEpW0NIMl1bTkhdYzJuW2NIXVtjSF1jKG4yKUMoRikoRilG

> <s_epik_cmdline>
J2VwaWtfcHl0aG9uJywgJy1waCcsICc3LjAnLCAnLXRuJywgJzgnLCAnLW1hJywgJzIwMCcsICctbWV0YWxfYmluZGluZycsICctaW1hZScsICc8aW5maWxlLm1hZT4nLCAnLW9tYWUnLCAnPG91dGZpbGUubWFlPic=

> <r_lp_tautomer_probability>
1

> <r_epik_Ionization_Penalty>
0.178506

> <r_epik_Ionization_Penalty_Charging>
0.178504

> <r_epik_Ionization_Penalty_Neutral>
2.47619e-06

> <r_epik_State_Penalty>
0.167974

> <r_epik_Charging_Adjusted_Penalty>
0.346478

> <i_epik_Tot_Q>
1

> <i_epik_Tot_abs_Q>
1

> <r_epik_Metal_State_Penalty>
0.167974

> <b_epik_Metal_Only>
0

> <s_lp_Force_Field>
OPLS_2005

> <r_lp_Energy>
12.5681

> <b_lp_Chiralities_Consistent>
1

> <s_lp_Variant>
AV-unprocessed.smi:1053-2

> <Gold.Version>
5.8.1

> <Gold.Id.Protein>
6NUR|6NUR_protein|mol2

> <Gold.PLP.Fitness>
41.4642

> <Gold.PLP.PLP>
-36.3115

> <Gold.PLP.part.hbond>
-1.0000

> <Gold.PLP.part.metal>
0.0000

> <Gold.PLP.part.buried>
-0.1823

> <Gold.PLP.part.nonpolar>
-35.3837

> <Gold.PLP.part.repulsive>
0.2813

> <Gold.PLP.ligand.clash>
0.0000

> <Gold.PLP.ligand.torsion>
0.4403

> <Gold.PLP.Chemscore.Hbond>
2.0000

> <Gold.PLP.Chemscore.CHOScore>
0.0000

> <Gold.PLP.Chemscore.Metal>
0.0000

> <Gold.Chemscore.Hbonds>
donor molecule, donor type, donor heavy atom, donor atom, acceptor molecule, acceptor atom, score
      L1  H     3    38       P1  7948  2.00

> <Gold.PLP.Chemscore.Internal.Correction>
0.0333

> <Gold.Rescore>
     Score         DG    S(hbond)    S(metal)    S(lipo)     H(rot)  DE(clash)    DE(int)     intcor
     12.56     -13.04       1.00        0.00      70.08       1.55       0.02       0.46       ----

> <Gold.Chemscore.Fitness>
12.5605

> <Gold.Chemscore.DG>
-13.0361

> <Gold.Chemscore.ZeroCoef>
-5.4800

> <Gold.Chemscore.Hbond>
0.9992

> <Gold.Chemscore.Metal>
0.0000

> <Gold.Chemscore.Lipo>
70.0790

> <Gold.Chemscore.Internal_Hbond>
0.0000

> <Gold.Chemscore.DEClash>
0.0164

> <Gold.Chemscore.DEInternal>
0.4592

> <Gold.Chemscore.Rot>
1.5549

> <Gold.Chemscore.Internal.Correction>
   9.000000E+99

> <Gold.Chemscore.Hbonds>
donor molecule, donor type, donor heavy atom, donor atom, acceptor molecule, acceptor atom, score
      L1  H     3    38       P1  7948  1.00

> <Gold.Chemscore.Hbond.Weighted>
-3.3374

> <Gold.Chemscore.Metal.Weighted>
-0.0000

> <Gold.Chemscore.Lipo.Weighted>
-8.1992

> <Gold.Chemscore.Internal_Hbond.Weighted>
0.0000

> <Gold.Chemscore.DEClash.Weighted>
0.0164

> <Gold.Chemscore.DEInternal.Weighted>
0.4592

> <Gold.Chemscore.Rot.Weighted>
3.9806

> <Gold.Chemscore.Internal.Correction.Weighted>
   9.000000E+99

> <Gold.Protein.RotatedTorsions>
[ 6907 6896 6895 6894 ] final  108.63 input  -60.11 | X-H torsion
[ 7974 7965 7964 7962 ] final  -81.67 input  175.53 | X-H torsion
[ 8008 7997 7996 7995 ] final -168.14 input   59.86 | X-H torsion
[ 10167 10162 10161 10158 ] final  -15.81 input  -65.29 | X-H torsion
[ 10718 10713 10712 10709 ] final -170.56 input   66.30 | X-H torsion
[ 10763 10752 10751 10750 ] final  -23.14 input  -60.55 | X-H torsion
[ 11005 11000 10999 10996 ] final  125.04 input  -57.11 | X-H torsion

> <Gold.Protein.ActiveResidues>
 VAL166  LYS551  ARG553  GLY616  TRP617  ASP618  TYR619  PRO620  LYS621  CYS622 
 ASP623  PHE694  ASN695  SER759  ASP760  ASP761  ALA762  ILE779  LEU786  VAL792 
 PHE793  MET794  SER795  GLU796  ALA797  LYS798  CYS799  TRP800  GLU811  SER814 

> <Gold.Protein.RotatedAtoms>
  152.5103  133.9061  159.7464 H   0  0  0  0  0  0  0  0  0  0  0  0  # atno 6907 bound_to 6896
  150.9465  133.6589  159.2787 H   0  0  0  0  0  0  0  0  0  0  0  0  # atno 6908 bound_to 6896
  151.3882  135.0956  159.9570 H   0  0  0  0  0  0  0  0  0  0  0  0  # atno 6909 bound_to 6896
  145.5436  140.9506  143.1537 H   0  0  0  0  0  0  0  0  0  0  0  0  # atno 7974 bound_to 7965
  155.8873  140.1019  157.1443 H   0  0  0  0  0  0  0  0  0  0  0  0  # atno 8008 bound_to 7997
  154.4011  140.1317  156.4336 H   0  0  0  0  0  0  0  0  0  0  0  0  # atno 8009 bound_to 7997
  155.7574  140.3464  155.5183 H   0  0  0  0  0  0  0  0  0  0  0  0  # atno 8010 bound_to 7997
  140.7224  143.5180  150.9668 H   0  0  0  0  0  0  0  0  0  0  0  0  # atno 10167 bound_to 10162
  156.7280  130.9295  151.3102 H   0  0  0  0  0  0  0  0  0  0  0  0  # atno 10718 bound_to 10713
  153.6631  135.6975  153.5171 H   0  0  0  0  0  0  0  0  0  0  0  0  # atno 10763 bound_to 10752
  153.2616  135.4243  155.0899 H   0  0  0  0  0  0  0  0  0  0  0  0  # atno 10764 bound_to 10752
  154.8446  135.3556  154.6176 H   0  0  0  0  0  0  0  0  0  0  0  0  # atno 10765 bound_to 10752
  139.9387  134.9637  156.8498 H   0  0  0  0  0  0  0  0  0  0  0  0  # atno 11005 bound_to 11000
  144.7564  139.7063  143.7252 LP  0  0  0  0  0  0  0  0  0  0  0  0  # atno 17320 bound_to 7965
  146.1964  139.5233  142.9771 LP  0  0  0  0  0  0  0  0  0  0  0  0  # atno 17321 bound_to 7965
  139.8896  143.6969  152.3147 LP  0  0  0  0  0  0  0  0  0  0  0  0  # atno 17342 bound_to 10162
  139.7280  144.7588  151.0847 LP  0  0  0  0  0  0  0  0  0  0  0  0  # atno 17343 bound_to 10162
  157.6871  130.9196  150.0414 LP  0  0  0  0  0  0  0  0  0  0  0  0  # atno 17370 bound_to 10713
  156.1549  130.3643  149.9384 LP  0  0  0  0  0  0  0  0  0  0  0  0  # atno 17371 bound_to 10713
  140.6008  134.0174  155.7536 LP  0  0  0  0  0  0  0  0  0  0  0  0  # atno 17394 bound_to 11000
  141.1012  133.9765  157.3075 LP  0  0  0  0  0  0  0  0  0  0  0  0  # atno 17395 bound_to 11000

$$$$
