#       Name:                AV-unprocessed.smi:652
#       Creating user name   scv26
#       Creation time:       Fri Mar 27 00:12:01 2020


#       File generated by GOLD software.
#

@<TRIPOS>MOLECULE
AV-unprocessed.smi:652
    54    55     1
SMALL
NO_CHARGES


@<TRIPOS>ATOM
      1 ****        -3.4680   3.5912   4.2973 C.3            1 S1                 0.0000
      2 ****        -3.4361   3.3062   2.7878 C.3            1 S1                 0.0000
      3 ****        -4.8500   3.2003   2.2011 C.3            1 S1                 0.0000
      4 ****        -2.7057   2.0706   2.5197 N.am           1 S1                 0.0000
      5 ****        -1.3748   1.9660   2.3814 C.2            1 S1                 0.0000
      6 ****        -0.6094   2.9269   2.4654 O.2            1 S1                 0.0000
      7 ****        -0.8422   0.5558   2.1047 C.3            1 S1                 0.0000
      8 ****         0.6811   0.5076   1.8586 C.3            1 S1                 0.0000
      9 ****         1.2062  -0.8821   1.7732 N.4            1 S1                 1.0000
     10 ****         2.6771  -0.9666   1.9477 C.3            1 S1                 0.0000
     11 ****         3.4155  -0.5515   0.6618 C.3            1 S1                 0.0000
     12 ****         2.9681  -1.3541  -0.4241 O.3            1 S1                 0.0000
     13 ****         1.5769  -1.1947  -0.6862 C.3            1 S1                 0.0000
     14 ****         1.2158  -2.0459  -1.9111 C.3            1 S1                 0.0000
     15 ****         1.7899  -1.4985  -3.1323 N.pl3          1 S1                 0.0000
     16 ****         1.5072  -2.0733  -4.3784 C.ar           1 S1                 0.0000
     17 ****         2.0842  -1.5118  -5.5347 C.ar           1 S1                 0.0000
     18 ****         1.7777  -2.1062  -6.7709 C.ar           1 S1                 0.0000
     19 ****         0.9166  -3.2185  -6.7562 C.ar           1 S1                 0.0000
     20 ****         0.3911  -3.7173  -5.6146 N.ar           1 S1                 0.0000
     21 ****         0.6835  -3.1499  -4.4386 N.ar           1 S1                 0.0000
     22 ****         0.7894  -1.6397   0.5649 C.3            1 S1                 0.0000
     23 ****        -3.9985   4.5201   4.5080 H              1 S1                 0.0000
     24 ****        -2.4608   3.6904   4.7034 H              1 S1                 0.0000
     25 ****        -3.9700   2.7910   4.8424 H              1 S1                 0.0000
     26 ****        -2.9320   4.1357   2.2885 H              1 S1                 0.0000
     27 ****        -5.4113   4.1207   2.3642 H              1 S1                 0.0000
     28 ****        -5.4108   2.3841   2.6581 H              1 S1                 0.0000
     29 ****        -4.8175   3.0224   1.1257 H              1 S1                 0.0000
     30 ****        -3.2583   1.2298   2.4342 H              1 S1                 0.0000
     31 ****        -1.0972  -0.0751   2.9572 H              1 S1                 0.0000
     32 ****        -1.3829   0.1608   1.2450 H              1 S1                 0.0000
     33 ****         0.9424   1.0762   0.9659 H              1 S1                 0.0000
     34 ****         1.1799   1.0030   2.6932 H              1 S1                 0.0000
     35 ****         3.0025  -0.3623   2.7952 H              1 S1                 0.0000
     36 ****         2.9342  -1.9982   2.1920 H              1 S1                 0.0000
     37 ****         3.2640   0.5055   0.4389 H              1 S1                 0.0000
     38 ****         4.4888  -0.6966   0.7845 H              1 S1                 0.0000
     39 ****         1.3598  -0.1493  -0.9108 H              1 S1                 0.0000
     40 ****         1.5532  -3.0740  -1.7725 H              1 S1                 0.0000
     41 ****         0.1309  -2.0750  -2.0228 H              1 S1                 0.0000
     42 ****         2.4179  -0.7103  -3.0711 H              1 S1                 0.0000
     43 ****         2.7382  -0.6538  -5.4787 H              1 S1                 0.0000
     44 ****         2.1857  -1.7239  -7.6947 H              1 S1                 0.0000
     45 ****         0.6442  -3.7176  -7.6744 H              1 S1                 0.0000
     46 ****         0.9793  -2.6979   0.7507 H              1 S1                 0.0000
     47 ****        -0.2833  -1.5564   0.3967 H              1 S1                 0.0000
     48 ****         0.8061  -1.3635   2.5659 H              1 S1                 0.0000
     49 ****        -0.9725   3.8412   2.6450 LP             1 S1                 0.0000
     50 ****         0.3753   2.7930   2.3540 LP             1 S1                 0.0000
     51 ****         3.1453  -2.3141  -0.2072 LP             1 S1                 0.0000
     52 ****         3.4800  -1.0978  -1.2441 LP             1 S1                 0.0000
     53 ****        -0.2165  -4.5108  -5.6492 LP             1 S1                 0.0000
     54 ****         0.2918  -3.5223  -3.5973 LP             1 S1                 0.0000
@<TRIPOS>BOND
    1    1    2 1     
    2    1   23 1     
    3    1   24 1     
    4    1   25 1     
    5    2    3 1     
    6    2    4 1     
    7    2   26 1     
    8    3   27 1     
    9    3   28 1     
   10    3   29 1     
   11    4    5 am    
   12    4   30 1     
   13    5    6 2     
   14    5    7 1     
   15    7    8 1     
   16    7   31 1     
   17    7   32 1     
   18    8    9 1     
   19    8   33 1     
   20    8   34 1     
   21    9   22 1     
   22    9   10 1     
   23    9   48 1     
   24   10   11 1     
   25   10   35 1     
   26   10   36 1     
   27   11   12 1     
   28   11   37 1     
   29   11   38 1     
   30   12   13 1     
   31   13   14 1     
   32   13   22 1     
   33   13   39 1     
   34   14   15 1     
   35   14   40 1     
   36   14   41 1     
   37   15   16 1     
   38   15   42 1     
   39   16   21 ar    
   40   16   17 ar    
   41   17   18 ar    
   42   17   43 1     
   43   18   19 ar    
   44   18   44 1     
   45   19   20 ar    
   46   19   45 1     
   47   20   21 ar    
   48   22   46 1     
   49   22   47 1     
   50    6   49 1     
   51    6   50 1     
   52   12   51 1     
   53   12   52 1     
   54   20   53 1     
   55   21   54 1     
@<TRIPOS>SUBSTRUCTURE
      1 S1             1
@<TRIPOS>SET
LONE_PAIRS      STATIC     ATOMS    <user>   **** ""
6 49 50 51 52 53 54
DONOR_HYDROGENS      STATIC     ATOMS    <user>   **** ""
3 30 48 42
ATOM$BLUE        STATIC     ATOMS    COLORGROUP SYSTEM
6 49 50 51 52 53 54
ATOM$RED        STATIC     ATOMS    COLORGROUP SYSTEM
3 30 48 42
