#       Name:                AV-unprocessed.smi:290
#       Creating user name   scv26
#       Creation time:       Thu Mar 26 22:07:46 2020


#       File generated by GOLD software.
#

@<TRIPOS>MOLECULE
AV-unprocessed.smi:290
    69    72     1
SMALL
NO_CHARGES


@<TRIPOS>ATOM
      1 ****        -7.0768  -1.7030   1.3830 C.3            1 S1                 0.0000
      2 ****        -5.8871  -2.6764   1.3507 C.3            1 S1                 0.0000
      3 ****        -5.9488  -3.5803   2.4535 O.3            1 S1                 0.0000
      4 ****        -4.7746  -3.4643   3.2438 C.3            1 S1                 0.0000
      5 ****        -3.7067  -3.0087   2.2586 C.3            1 S1                 0.0000
      6 ****        -4.4748  -2.0444   1.3647 C.3            1 S1                 0.0000
      7 ****        -4.4934  -0.7740   1.9968 O.3            1 S1                 0.0000
      8 ****        -3.8711  -1.8806  -0.0505 C.3            1 S1                 0.0000
      9 ****        -2.5006  -1.3944  -0.0383 N.pl3          1 S1                 0.0000
     10 ****        -1.3548  -2.1555   0.0345 C.2            1 S1                 0.0000
     11 ****        -0.2367  -1.4814   0.0413 N.2            1 S1                 0.0000
     12 ****        -0.6453  -0.1569  -0.0437 C.ar           1 S1                 0.0000
     13 ****         0.0405   1.0838  -0.0841 C.ar           1 S1                 0.0000
     14 ****         1.3894   1.1453  -0.0327 N.3            1 S1                 0.0000
     15 ****         1.9219   1.7588   1.1735 C.3            1 S1                 0.0000
     16 ****         3.4039   2.0214   0.8832 C.3            1 S1                 0.0000
     17 ****         3.5095   2.0273  -0.6582 C.3            1 S1                 0.0000
     18 ****         4.5024   1.0639  -1.2290 N.4            1 S1                 1.0000
     19 ****         4.4051  -0.3303  -0.7250 C.3            1 S1                 0.0000
     20 ****         5.9004   1.5652  -1.2084 C.3            1 S1                 0.0000
     21 ****         6.1876   2.5459  -2.3585 C.3            1 S1                 0.0000
     22 ****         6.1049   1.8739  -3.5977 O.3            1 S1                 0.0000
     23 ****         2.0610   1.8066  -1.1430 C.3            1 S1                 0.0000
     24 ****         1.8731   1.1108  -2.5063 C.3            1 S1                 0.0000
     25 ****        -0.6997   2.2197  -0.1802 N.ar           1 S1                 0.0000
     26 ****        -2.0335   2.1426  -0.2299 C.ar           1 S1                 0.0000
     27 ****        -2.8086   1.0559  -0.1973 N.ar           1 S1                 0.0000
     28 ****        -2.0640  -0.0830  -0.1028 C.ar           1 S1                 0.0000
     29 ****         3.7917   3.0280  -0.9842 H              1 S1                 0.0000
     30 ****         1.6162   2.7990  -1.2366 H              1 S1                 0.0000
     31 ****        -7.0265  -0.9951   0.5554 H              1 S1                 0.0000
     32 ****        -7.1065  -1.1351   2.3133 H              1 S1                 0.0000
     33 ****        -8.0197  -2.2437   1.3008 H              1 S1                 0.0000
     34 ****        -5.9855  -3.2991   0.4605 H              1 S1                 0.0000
     35 ****        -4.9349  -2.7103   4.0158 H              1 S1                 0.0000
     36 ****        -4.5249  -4.4063   3.7323 H              1 S1                 0.0000
     37 ****        -2.8370  -2.5637   2.7443 H              1 S1                 0.0000
     38 ****        -3.3646  -3.8684   1.6807 H              1 S1                 0.0000
     39 ****        -3.6131  -0.4308   2.0075 H              1 S1                 0.0000
     40 ****        -3.8832  -2.8346  -0.5793 H              1 S1                 0.0000
     41 ****        -4.4783  -1.1953  -0.6438 H              1 S1                 0.0000
     42 ****        -1.3756  -3.2343   0.0906 H              1 S1                 0.0000
     43 ****         1.4079   2.6982   1.3838 H              1 S1                 0.0000
     44 ****         1.7933   1.1044   2.0362 H              1 S1                 0.0000
     45 ****         3.7166   2.9754   1.3086 H              1 S1                 0.0000
     46 ****         4.0207   1.2580   1.3532 H              1 S1                 0.0000
     47 ****         4.8655  -0.4417   0.2565 H              1 S1                 0.0000
     48 ****         4.9267  -1.0036  -1.4060 H              1 S1                 0.0000
     49 ****         3.3739  -0.6744  -0.6570 H              1 S1                 0.0000
     50 ****         6.1051   2.0351  -0.2454 H              1 S1                 0.0000
     51 ****         6.5980   0.7297  -1.2905 H              1 S1                 0.0000
     52 ****         5.5066   3.3964  -2.3581 H              1 S1                 0.0000
     53 ****         7.1953   2.9491  -2.2552 H              1 S1                 0.0000
     54 ****         6.3356   2.4799  -4.2860 H              1 S1                 0.0000
     55 ****         2.4438   1.6186  -3.2842 H              1 S1                 0.0000
     56 ****         0.8263   1.1266  -2.8111 H              1 S1                 0.0000
     57 ****         2.1860   0.0676  -2.4870 H              1 S1                 0.0000
     58 ****        -2.5554   3.0854  -0.3046 H              1 S1                 0.0000
     59 ****         4.2702   0.9998  -2.2102 H              1 S1                 0.0000
     60 ****        -6.0257  -4.5165   2.1104 LP             1 S1                 0.0000
     61 ****        -6.7480  -3.3642   3.0144 LP             1 S1                 0.0000
     62 ****        -4.8298  -0.8685   2.9338 LP             1 S1                 0.0000
     63 ****        -5.0910  -0.1535   1.4891 LP             1 S1                 0.0000
     64 ****         0.6967  -1.8363   0.0952 LP             1 S1                 0.0000
     65 ****         1.5909   0.1664  -0.0669 LP             1 S1                 0.0000
     66 ****         5.1722   1.5424  -3.7394 LP             1 S1                 0.0000
     67 ****         6.7383   1.1000  -3.6040 LP             1 S1                 0.0000
     68 ****        -0.2476   3.1110  -0.2136 LP             1 S1                 0.0000
     69 ****        -3.8076   1.0746  -0.2371 LP             1 S1                 0.0000
@<TRIPOS>BOND
    1    1    2 1     
    2    1   31 1     
    3    1   32 1     
    4    1   33 1     
    5    2    6 1     
    6    2    3 1     
    7    2   34 1     
    8    3    4 1     
    9    4    5 1     
   10    4   35 1     
   11    4   36 1     
   12    5    6 1     
   13    5   37 1     
   14    5   38 1     
   15    6    7 1     
   16    6    8 1     
   17    7   39 1     
   18    8    9 1     
   19    8   40 1     
   20    8   41 1     
   21    9   28 1     
   22    9   10 1     
   23   10   11 2     
   24   10   42 1     
   25   11   12 1     
   26   12   28 ar    
   27   12   13 ar    
   28   13   14 1     
   29   13   25 ar    
   30   14   23 1     
   31   14   15 1     
   32   15   16 1     
   33   15   43 1     
   34   15   44 1     
   35   16   17 1     
   36   16   45 1     
   37   16   46 1     
   38   17   29 1     
   39   17   18 1     
   40   17   23 1     
   41   18   19 1     
   42   18   20 1     
   43   18   59 1     
   44   19   47 1     
   45   19   48 1     
   46   19   49 1     
   47   20   21 1     
   48   20   50 1     
   49   20   51 1     
   50   21   22 1     
   51   21   52 1     
   52   21   53 1     
   53   22   54 1     
   54   23   30 1     
   55   23   24 1     
   56   24   55 1     
   57   24   56 1     
   58   24   57 1     
   59   25   26 ar    
   60   26   27 ar    
   61   26   58 1     
   62   27   28 ar    
   63    3   60 1     
   64    3   61 1     
   65    7   62 1     
   66    7   63 1     
   67   11   64 1     
   68   14   65 1     
   69   22   66 1     
   70   22   67 1     
   71   25   68 1     
   72   27   69 1     
@<TRIPOS>SUBSTRUCTURE
      1 S1             1
@<TRIPOS>SET
LONE_PAIRS      STATIC     ATOMS    <user>   **** ""
10 60 61 62 63 64 65 66 67 68 69
DONOR_HYDROGENS      STATIC     ATOMS    <user>   **** ""
3 39 59 54
ATOM$BLUE        STATIC     ATOMS    COLORGROUP SYSTEM
10 60 61 62 63 64 65 66 67 68 69
ATOM$RED        STATIC     ATOMS    COLORGROUP SYSTEM
3 39 59 54
