AV-unprocessed.smi:2508|AV-procd|sdf|9865|dock9
  -GOLD-   2272013493D 1   1.00000     0.00000
 Structure written by MMmdl.
 46 47  0  0  0  0  0  0  0  0  1 V2000
  146.0760  131.5564  148.7060 C   0  0  0  0  0  0  0  0  0  0  0  0
  145.5360  132.4246  149.7559 N   0  0  0  0  0  0  0  0  0  0  0  0
  146.4522  133.1143  150.5740 C   0  0  0  0  0  0  0  0  0  0  0  0
  146.0537  133.9367  151.5698 C   0  0  0  0  0  0  0  0  0  0  0  0
  146.9020  134.6601  152.4220 N   0  0  0  0  0  0  0  0  0  0  0  0
  146.9524  134.6851  153.7711 C   0  0  0  0  0  0  0  0  0  0  0  0
  146.2096  134.0599  154.5244 O   0  0  0  0  0  0  0  0  0  0  0  0
  147.9113  135.4890  154.2623 N   0  0  0  0  0  0  0  0  0  0  0  0
  148.2319  135.7416  155.6686 C   0  0  0  0  0  0  0  0  0  0  0  0
  149.7326  135.4933  155.9937 C   0  0  0  0  0  0  0  0  0  0  0  0
  150.6157  136.2467  154.9728 C   0  0  0  0  0  0  0  0  0  0  0  0
  150.0601  136.0458  157.4001 C   0  0  0  0  0  0  0  0  0  0  0  0
  150.1085  133.9769  155.9547 C   0  0  0  0  0  0  0  0  0  0  0  0
  149.8459  133.2263  154.6404 C   0  0  0  0  0  0  0  0  0  0  0  0
  149.9855  131.7438  155.0012 C   0  0  0  0  0  0  0  0  0  0  0  0
  149.7042  131.6383  156.5077 C   0  0  0  0  0  0  0  0  0  0  0  0
  149.4480  133.0668  157.0021 C   0  0  0  0  0  0  0  0  0  0  0  0
  144.6267  134.0865  151.7616 C   0  0  0  0  0  0  0  0  0  0  0  0
  143.7438  133.4305  150.9836 C   0  0  0  0  0  0  0  0  0  0  0  0
  144.1850  132.5386  149.9091 C   0  0  0  0  0  0  0  0  0  0  0  0
  143.3901  131.9317  149.1908 O   0  0  0  0  0  0  0  0  0  0  0  0
  147.1659  131.5592  148.6714 H   0  0  0  0  0  0  0  0  0  0  0  0
  145.7206  131.8748  147.7249 H   0  0  0  0  0  0  0  0  0  0  0  0
  145.7591  130.5244  148.8634 H   0  0  0  0  0  0  0  0  0  0  0  0
  147.4817  132.9213  150.3204 H   0  0  0  0  0  0  0  0  0  0  0  0
  147.5703  135.2495  151.9475 H   0  0  0  0  0  0  0  0  0  0  0  0
  148.4713  135.9895  153.5875 H   0  0  0  0  0  0  0  0  0  0  0  0
  147.9560  136.7710  155.8966 H   0  0  0  0  0  0  0  0  0  0  0  0
  147.5975  135.0975  156.2768 H   0  0  0  0  0  0  0  0  0  0  0  0
  151.6749  136.0458  155.1382 H   0  0  0  0  0  0  0  0  0  0  0  0
  150.4831  137.3270  155.0379 H   0  0  0  0  0  0  0  0  0  0  0  0
  150.3823  135.9559  153.9484 H   0  0  0  0  0  0  0  0  0  0  0  0
  151.0920  135.8316  157.6802 H   0  0  0  0  0  0  0  0  0  0  0  0
  149.4154  135.6092  158.1633 H   0  0  0  0  0  0  0  0  0  0  0  0
  149.9335  137.1274  157.4536 H   0  0  0  0  0  0  0  0  0  0  0  0
  151.1840  133.9097  156.1318 H   0  0  0  0  0  0  0  0  0  0  0  0
  148.8321  133.4028  154.2834 H   0  0  0  0  0  0  0  0  0  0  0  0
  150.5319  133.5169  153.8442 H   0  0  0  0  0  0  0  0  0  0  0  0
  149.3075  131.1242  154.4137 H   0  0  0  0  0  0  0  0  0  0  0  0
  151.0005  131.4029  154.7936 H   0  0  0  0  0  0  0  0  0  0  0  0
  148.8536  130.9891  156.7179 H   0  0  0  0  0  0  0  0  0  0  0  0
  150.5708  131.2131  157.0156 H   0  0  0  0  0  0  0  0  0  0  0  0
  149.8436  133.2248  158.0057 H   0  0  0  0  0  0  0  0  0  0  0  0
  148.3725  133.2327  157.0439 H   0  0  0  0  0  0  0  0  0  0  0  0
  144.2574  134.7350  152.5428 H   0  0  0  0  0  0  0  0  0  0  0  0
  142.6858  133.5644  151.1544 H   0  0  0  0  0  0  0  0  0  0  0  0
  1  2  1  0  0  0  0
  1 22  1  0  0  0  0
  1 23  1  0  0  0  0
  1 24  1  0  0  0  0
  2 20  1  0  0  0  0
  2  3  1  0  0  0  0
  3  4  2  0  0  0  0
  3 25  1  0  0  0  0
  4  5  1  0  0  0  0
  4 18  1  0  0  0  0
  5  6  1  0  0  0  0
  5 26  1  0  0  0  0
  6  7  2  0  0  0  0
  6  8  1  0  0  0  0
  8  9  1  0  0  0  0
  8 27  1  0  0  0  0
  9 10  1  0  0  0  0
  9 28  1  0  0  0  0
  9 29  1  0  0  0  0
 10 11  1  0  0  0  0
 10 12  1  0  0  0  0
 10 13  1  0  0  0  0
 11 30  1  0  0  0  0
 11 31  1  0  0  0  0
 11 32  1  0  0  0  0
 12 33  1  0  0  0  0
 12 34  1  0  0  0  0
 12 35  1  0  0  0  0
 13 17  1  0  0  0  0
 13 14  1  0  0  0  0
 13 36  1  0  0  0  0
 14 15  1  0  0  0  0
 14 37  1  0  0  0  0
 14 38  1  0  0  0  0
 15 16  1  0  0  0  0
 15 39  1  0  0  0  0
 15 40  1  0  0  0  0
 16 17  1  0  0  0  0
 16 41  1  0  0  0  0
 16 42  1  0  0  0  0
 17 43  1  0  0  0  0
 17 44  1  0  0  0  0
 18 19  2  0  0  0  0
 18 45  1  0  0  0  0
 19 20  1  0  0  0  0
 19 46  1  0  0  0  0
 20 21  2  0  0  0  0
M  END
> <s_m_source_file>
AV-unprocessed.smi

> <i_m_source_file_index>
2508

> <i_lp_mmshare_version>
43012

> <i_f3d_flags>
0

> <s_epik_input>
Tz1jMVtjSF1bY0hdYyhbY0hdbjFbQ0gzXSlbTkhdQyg9TylbTkhdW0NIMl1DKFtDSDNdKShbQ0gzXSlbQ0hdMltDSDJdW0NIMl1bQ0gyXVtDSDJdMg==

> <s_epik_cmdline>
J2VwaWtfcHl0aG9uJywgJy1waCcsICc3LjAnLCAnLXRuJywgJzgnLCAnLW1hJywgJzIwMCcsICctbWV0YWxfYmluZGluZycsICctaW1hZScsICc8aW5maWxlLm1hZT4nLCAnLW9tYWUnLCAnPG91dGZpbGUubWFlPic=

> <r_lp_tautomer_probability>
1

> <r_epik_Ionization_Penalty>
2.69566e-05

> <r_epik_Ionization_Penalty_Charging>
5.95678e-06

> <r_epik_Ionization_Penalty_Neutral>
2.09998e-05

> <r_epik_State_Penalty>
-0

> <r_epik_Charging_Adjusted_Penalty>
5.95678e-06

> <i_epik_Tot_Q>
0

> <i_epik_Tot_abs_Q>
0

> <r_epik_Metal_State_Penalty>
-0

> <b_epik_Metal_Only>
0

> <s_lp_Force_Field>
OPLS_2005

> <r_lp_Energy>
55.0143

> <b_lp_Chiralities_Consistent>
1

> <s_lp_Variant>
AV-unprocessed.smi:2508-1

> <Gold.Version>
5.8.1

> <Gold.Id.Protein>
6NUR|6NUR_protein|mol2

> <Gold.PLP.Fitness>
43.2602

> <Gold.PLP.PLP>
-32.7871

> <Gold.PLP.part.hbond>
-3.0000

> <Gold.PLP.part.metal>
0.0000

> <Gold.PLP.part.buried>
-3.3676

> <Gold.PLP.part.nonpolar>
-26.9935

> <Gold.PLP.part.repulsive>
0.7045

> <Gold.PLP.ligand.clash>
0.0000

> <Gold.PLP.ligand.torsion>
0.6261

> <Gold.PLP.Chemscore.Hbond>
2.9040

> <Gold.PLP.Chemscore.CHOScore>
1.0000

> <Gold.PLP.Chemscore.Metal>
0.0000

> <Gold.Chemscore.Hbonds>
donor molecule, donor type, donor heavy atom, donor atom, acceptor molecule, acceptor atom, score
      L1  H     5    26       P1  7948  1.00
      L1  H     8    27       P1  7948  0.98
      P1  H 10785 10796       L1    21  1.00
      L1  C     3    25       P1 10747  0.99

> <Gold.PLP.Chemscore.Internal.Correction>
0.0133

> <Gold.Rescore>
     Score         DG    S(hbond)    S(metal)    S(lipo)     H(rot)  DE(clash)    DE(int)     intcor
     18.59     -20.53       2.87        0.00      76.71       1.37       0.31       1.63       ----

> <Gold.Chemscore.Fitness>
18.5860

> <Gold.Chemscore.DG>
-20.5263

> <Gold.Chemscore.ZeroCoef>
-5.4800

> <Gold.Chemscore.Hbond>
2.8709

> <Gold.Chemscore.Metal>
0.0000

> <Gold.Chemscore.Lipo>
76.7124

> <Gold.Chemscore.Internal_Hbond>
0.0000

> <Gold.Chemscore.DEClash>
0.3109

> <Gold.Chemscore.DEInternal>
1.6295

> <Gold.Chemscore.Rot>
1.3742

> <Gold.Chemscore.Internal.Correction>
   9.000000E+99

> <Gold.Chemscore.Hbonds>
donor molecule, donor type, donor heavy atom, donor atom, acceptor molecule, acceptor atom, score
      L1  H     5    26       P1  7948  0.94
      L1  H     8    27       P1  7948  0.92
      P1  H 10785 10796       L1    21  0.94

> <Gold.Chemscore.Hbond.Weighted>
-9.5889

> <Gold.Chemscore.Metal.Weighted>
-0.0000

> <Gold.Chemscore.Lipo.Weighted>
-8.9753

> <Gold.Chemscore.Internal_Hbond.Weighted>
0.0000

> <Gold.Chemscore.DEClash.Weighted>
0.3109

> <Gold.Chemscore.DEInternal.Weighted>
1.6295

> <Gold.Chemscore.Rot.Weighted>
3.5179

> <Gold.Chemscore.Internal.Correction.Weighted>
   9.000000E+99

> <Gold.Protein.RotatedTorsions>
[ 6907 6896 6895 6894 ] final  159.84 input  -60.11 | X-H torsion
[ 7974 7965 7964 7962 ] final -178.34 input  175.53 | X-H torsion
[ 8008 7997 7996 7995 ] final  -68.91 input   59.86 | X-H torsion
[ 10167 10162 10161 10158 ] final   28.78 input  -65.29 | X-H torsion
[ 10718 10713 10712 10709 ] final -109.80 input   66.30 | X-H torsion
[ 10763 10752 10751 10750 ] final   82.86 input  -60.55 | X-H torsion
[ 11005 11000 10999 10996 ] final  103.09 input  -57.11 | X-H torsion

> <Gold.Protein.ActiveResidues>
 VAL166  LYS551  ARG553  GLY616  TRP617  ASP618  TYR619  PRO620  LYS621  CYS622 
 ASP623  PHE694  ASN695  SER759  ASP760  ASP761  ALA762  ILE779  LEU786  VAL792 
 PHE793  MET794  SER795  GLU796  ALA797  LYS798  CYS799  TRP800  GLU811  SER814 

> <Gold.Protein.RotatedAtoms>
  151.9796  133.3753  159.4102 H   0  0  0  0  0  0  0  0  0  0  0  0  # atno 6907 bound_to 6896
  150.6936  134.4053  159.5146 H   0  0  0  0  0  0  0  0  0  0  0  0  # atno 6908 bound_to 6896
  152.1769  134.8786  160.0580 H   0  0  0  0  0  0  0  0  0  0  0  0  # atno 6909 bound_to 6896
  144.7130  140.0884  143.6422 H   0  0  0  0  0  0  0  0  0  0  0  0  # atno 7974 bound_to 7965
  154.4901  140.0863  156.7575 H   0  0  0  0  0  0  0  0  0  0  0  0  # atno 8008 bound_to 7997
  155.4252  140.3447  155.4257 H   0  0  0  0  0  0  0  0  0  0  0  0  # atno 8009 bound_to 7997
  156.1317  140.1503  156.9043 H   0  0  0  0  0  0  0  0  0  0  0  0  # atno 8010 bound_to 7997
  140.4823  144.0596  150.6269 H   0  0  0  0  0  0  0  0  0  0  0  0  # atno 10167 bound_to 10162
  156.0556  130.5782  150.8150 H   0  0  0  0  0  0  0  0  0  0  0  0  # atno 10718 bound_to 10713
  153.1240  135.4712  154.9242 H   0  0  0  0  0  0  0  0  0  0  0  0  # atno 10763 bound_to 10752
  154.7602  135.3129  154.8394 H   0  0  0  0  0  0  0  0  0  0  0  0  # atno 10764 bound_to 10752
  153.8952  135.6880  153.4812 H   0  0  0  0  0  0  0  0  0  0  0  0  # atno 10765 bound_to 10752
  139.8781  134.9249  156.5157 H   0  0  0  0  0  0  0  0  0  0  0  0  # atno 11005 bound_to 11000
  145.9642  139.2822  143.1137 LP  0  0  0  0  0  0  0  0  0  0  0  0  # atno 17320 bound_to 7965
  145.9188  140.9130  143.0416 LP  0  0  0  0  0  0  0  0  0  0  0  0  # atno 17321 bound_to 7965
  140.3842  143.2786  152.0135 LP  0  0  0  0  0  0  0  0  0  0  0  0  # atno 17342 bound_to 10162
  139.4835  144.6130  151.7398 LP  0  0  0  0  0  0  0  0  0  0  0  0  # atno 17343 bound_to 10162
  157.5523  131.0944  150.9678 LP  0  0  0  0  0  0  0  0  0  0  0  0  # atno 17370 bound_to 10713
  156.9935  130.5572  149.5305 LP  0  0  0  0  0  0  0  0  0  0  0  0  # atno 17371 bound_to 10713
  140.8488  133.8148  155.9147 LP  0  0  0  0  0  0  0  0  0  0  0  0  # atno 17394 bound_to 11000
  140.9165  134.2195  157.4953 LP  0  0  0  0  0  0  0  0  0  0  0  0  # atno 17395 bound_to 11000

$$$$
