#       Name:                AV-unprocessed.smi:16
#       Creating user name   scv26
#       Creation time:       Thu Mar 26 15:23:22 2020


#       File generated by GOLD software.
#

@<TRIPOS>MOLECULE
AV-unprocessed.smi:16
    70    74     1
SMALL
NO_CHARGES


@<TRIPOS>ATOM
      1 ****        -1.9299   2.3354   3.8459 C.3            1 S1                 0.0000
      2 ****        -3.3092   1.8988   3.3297 C.3            1 S1                 0.0000
      3 ****        -3.3734   0.4463   3.0138 N.4            1 S1                 1.0000
      4 ****        -4.7634  -0.0790   2.9430 C.3            1 S1                 0.0000
      5 ****        -5.4676   0.3194   1.6319 C.3            1 S1                 0.0000
      6 ****        -4.6438  -0.1361   0.4207 C.3            1 S1                 0.0000
      7 ****        -5.2706   0.2943  -0.7819 O.3            1 S1                 0.0000
      8 ****        -4.5743  -0.1743  -1.9327 C.3            1 S1                 0.0000
      9 ****        -3.1405   0.3825  -1.9297 C.3            1 S1                 0.0000
     10 ****        -2.4610   0.0433  -0.6828 N.3            1 S1                 0.0000
     11 ****        -1.1668   0.4352  -0.6985 C.ar           1 S1                 0.0000
     12 ****        -0.8513   1.7542  -0.6034 N.ar           1 S1                 0.0000
     13 ****         0.4307   2.1318  -0.5862 C.ar           1 S1                 0.0000
     14 ****         1.5259   1.3708  -0.6467 N.ar           1 S1                 0.0000
     15 ****         1.2089   0.0474  -0.7472 C.ar           1 S1                 0.0000
     16 ****        -0.1036  -0.5004  -0.7788 C.ar           1 S1                 0.0000
     17 ****        -0.0443  -1.8846  -0.8628 N.2            1 S1                 0.0000
     18 ****         1.2353  -2.1433  -0.8741 C.2            1 S1                 0.0000
     19 ****         2.0603  -1.0409  -0.8323 N.pl3          1 S1                 0.0000
     20 ****         3.4932  -1.0489  -0.7748 C.3            1 S1                 0.0000
     21 ****         4.3282  -0.0035  -1.5197 C.3            1 S1                 0.0000
     22 ****         5.4046  -1.0673  -1.8303 C.3            1 S1                 0.0000
     23 ****         5.9051  -1.0829  -3.2827 C.3            1 S1                 0.0000
     24 ****         6.5801   0.1150  -3.6086 O.3            1 S1                 0.0000
     25 ****         6.6531  -1.0977  -0.9198 C.3            1 S1                 0.0000
     26 ****         6.3427  -1.1641   0.4575 O.3            1 S1                 0.0000
     27 ****         4.3074  -2.1105  -1.5216 C.3            1 S1                 0.0000
     28 ****        -3.2217   0.4574   0.4985 C.3            1 S1                 0.0000
     29 ****        -2.5653   0.0267   1.8354 C.3            1 S1                 0.0000
     30 ****        -4.5940  -1.2272   0.4238 H              1 S1                 0.0000
     31 ****        -3.3007   1.5450   0.4718 H              1 S1                 0.0000
     32 ****        -1.9606   3.3699   4.1888 H              1 S1                 0.0000
     33 ****        -1.1647   2.2794   3.0722 H              1 S1                 0.0000
     34 ****        -1.6086   1.7191   4.6862 H              1 S1                 0.0000
     35 ****        -4.0370   2.1181   4.1118 H              1 S1                 0.0000
     36 ****        -3.5987   2.5008   2.4687 H              1 S1                 0.0000
     37 ****        -4.7202  -1.1668   3.0118 H              1 S1                 0.0000
     38 ****        -5.3413   0.2549   3.8054 H              1 S1                 0.0000
     39 ****        -6.4606  -0.1297   1.5943 H              1 S1                 0.0000
     40 ****        -5.6164   1.3992   1.5975 H              1 S1                 0.0000
     41 ****        -4.5679  -1.2654  -1.9501 H              1 S1                 0.0000
     42 ****        -5.1038   0.1550  -2.8268 H              1 S1                 0.0000
     43 ****        -2.5848  -0.0206  -2.7775 H              1 S1                 0.0000
     44 ****        -3.1690   1.4665  -2.0504 H              1 S1                 0.0000
     45 ****         0.6046   3.1951  -0.5104 H              1 S1                 0.0000
     46 ****         1.6150  -3.1541  -0.9135 H              1 S1                 0.0000
     47 ****         3.7425  -1.0492   0.2869 H              1 S1                 0.0000
     48 ****         3.8255   0.3645  -2.4159 H              1 S1                 0.0000
     49 ****         4.6691   0.8242  -0.8971 H              1 S1                 0.0000
     50 ****         6.5737  -1.9259  -3.4612 H              1 S1                 0.0000
     51 ****         5.0744  -1.1961  -3.9800 H              1 S1                 0.0000
     52 ****         5.9815   0.8372  -3.4929 H              1 S1                 0.0000
     53 ****         7.2821  -1.9564  -1.1568 H              1 S1                 0.0000
     54 ****         7.2686  -0.2105  -1.0708 H              1 S1                 0.0000
     55 ****         7.1511  -1.1773   0.9471 H              1 S1                 0.0000
     56 ****         4.6301  -2.9474  -0.9016 H              1 S1                 0.0000
     57 ****         3.7976  -2.4676  -2.4180 H              1 S1                 0.0000
     58 ****        -1.5509   0.4113   1.9276 H              1 S1                 0.0000
     59 ****        -2.4694  -1.0598   1.8571 H              1 S1                 0.0000
     60 ****        -2.9559  -0.0089   3.8130 H              1 S1                 0.0000
     61 ****        -5.2891   1.2940  -0.7985 LP             1 S1                 0.0000
     62 ****        -6.2067  -0.0568  -0.8037 LP             1 S1                 0.0000
     63 ****        -2.4267  -0.9535  -0.6095 LP             1 S1                 0.0000
     64 ****        -1.5767   2.4402  -0.5465 LP             1 S1                 0.0000
     65 ****         2.4604   1.7257  -0.6216 LP             1 S1                 0.0000
     66 ****        -0.8046  -2.5328  -0.9049 LP             1 S1                 0.0000
     67 ****         6.8879   0.0809  -4.5595 LP             1 S1                 0.0000
     68 ****         7.3700   0.2317  -3.0066 LP             1 S1                 0.0000
     69 ****         5.8207  -1.9960   0.6458 LP             1 S1                 0.0000
     70 ****         5.8022  -0.3649   0.7203 LP             1 S1                 0.0000
@<TRIPOS>BOND
    1    1    2 1     
    2    1   32 1     
    3    1   33 1     
    4    1   34 1     
    5    2    3 1     
    6    2   35 1     
    7    2   36 1     
    8    3   29 1     
    9    3    4 1     
   10    3   60 1     
   11    4    5 1     
   12    4   37 1     
   13    4   38 1     
   14    5    6 1     
   15    5   39 1     
   16    5   40 1     
   17    6   30 1     
   18    6   28 1     
   19    6    7 1     
   20    7    8 1     
   21    8    9 1     
   22    8   41 1     
   23    8   42 1     
   24    9   10 1     
   25    9   43 1     
   26    9   44 1     
   27   10   11 1     
   28   10   28 1     
   29   11   16 ar    
   30   11   12 ar    
   31   12   13 ar    
   32   13   14 ar    
   33   13   45 1     
   34   14   15 ar    
   35   15   19 1     
   36   15   16 ar    
   37   16   17 1     
   38   17   18 2     
   39   18   19 1     
   40   18   46 1     
   41   19   20 1     
   42   20   27 1     
   43   20   21 1     
   44   20   47 1     
   45   21   22 1     
   46   21   48 1     
   47   21   49 1     
   48   22   23 1     
   49   22   25 1     
   50   22   27 1     
   51   23   24 1     
   52   23   50 1     
   53   23   51 1     
   54   24   52 1     
   55   25   26 1     
   56   25   53 1     
   57   25   54 1     
   58   26   55 1     
   59   27   56 1     
   60   27   57 1     
   61   28   31 1     
   62   28   29 1     
   63   29   58 1     
   64   29   59 1     
   65    7   61 1     
   66    7   62 1     
   67   10   63 1     
   68   12   64 1     
   69   14   65 1     
   70   17   66 1     
   71   24   67 1     
   72   24   68 1     
   73   26   69 1     
   74   26   70 1     
@<TRIPOS>SUBSTRUCTURE
      1 S1             1
@<TRIPOS>SET
LONE_PAIRS      STATIC     ATOMS    <user>   **** ""
10 61 62 63 64 65 66 67 68 69 70
DONOR_HYDROGENS      STATIC     ATOMS    <user>   **** ""
3 60 52 55
ATOM$BLUE        STATIC     ATOMS    COLORGROUP SYSTEM
10 61 62 63 64 65 66 67 68 69 70
ATOM$RED        STATIC     ATOMS    COLORGROUP SYSTEM
3 60 52 55
