AV-unprocessed.smi:38|AV-procd|sdf|337|dock8
  -GOLD-   2262016173D 1   1.00000     0.00000
 Structure written by MMmdl.
 28 29  0  0  0  0  0  0  0  0  1 V2000
  151.6177  141.9506  159.1270 O   0  0  0  0  0  0  0  0  0  0  0  0
  151.0445  141.6284  158.0882 C   0  0  0  0  0  0  0  0  0  0  0  0
  151.7278  140.9129  157.1013 N   0  0  0  0  0  0  0  0  0  0  0  0
  151.1868  140.4888  155.8863 C   0  0  0  0  0  0  0  0  0  0  0  0
  151.8893  139.8802  155.0802 O   0  0  0  0  0  0  0  0  0  0  0  0
  149.8290  140.7917  155.6394 N   0  0  0  0  0  0  0  0  0  0  0  0
  149.2255  140.3583  154.3183 C   0  0  1  0  0  0  0  0  0  0  0  0
  148.1097  139.3229  154.5244 C   0  0  0  0  0  0  0  0  0  0  0  0
  147.0959  139.7606  153.4899 C   0  0  1  0  0  0  0  0  0  0  0  0
  145.7985  139.2757  153.7722 O   0  0  0  0  0  0  0  0  0  0  0  0
  147.2301  141.2877  153.5192 C   0  0  1  0  0  0  0  0  0  0  0  0
  146.4985  141.9855  154.6879 C   0  0  0  0  0  0  0  0  0  0  0  0
  145.1274  141.6519  154.6616 O   0  0  0  0  0  0  0  0  0  0  0  0
  148.6402  141.4588  153.6761 O   0  0  0  0  0  0  0  0  0  0  0  0
  149.1181  141.5255  156.5834 C   0  0  0  0  0  0  0  0  0  0  0  0
  149.6563  141.9347  157.7568 C   0  0  0  0  0  0  0  0  0  0  0  0
  148.9050  142.6370  158.6218 F   0  0  0  0  0  0  0  0  0  0  0  0
  152.6960  140.6891  157.2800 H   0  0  0  0  0  0  0  0  0  0  0  0
  150.0612  139.9927  153.7185 H   0  0  0  0  0  0  0  0  0  0  0  0
  147.4020  139.3910  152.5100 H   0  0  0  0  0  0  0  0  0  0  0  0
  146.8980  141.7102  152.5699 H   0  0  0  0  0  0  0  0  0  0  0  0
  148.4751  138.3064  154.3757 H   0  0  0  0  0  0  0  0  0  0  0  0
  147.7010  139.4124  155.5325 H   0  0  0  0  0  0  0  0  0  0  0  0
  145.1984  139.6343  153.1359 H   0  0  0  0  0  0  0  0  0  0  0  0
  146.8843  141.6390  155.6465 H   0  0  0  0  0  0  0  0  0  0  0  0
  146.6249  143.0675  154.6680 H   0  0  0  0  0  0  0  0  0  0  0  0
  144.9545  141.1521  153.8780 H   0  0  0  0  0  0  0  0  0  0  0  0
  148.0897  141.7978  156.4008 H   0  0  0  0  0  0  0  0  0  0  0  0
  1  2  2  0  0  0  0
  2 16  1  0  0  0  0
  2  3  1  0  0  0  0
  3 18  1  0  0  0  0
  3  4  1  0  0  0  0
  4  5  2  0  0  0  0
  4  6  1  0  0  0  0
  6  7  1  0  0  0  0
  6 15  1  0  0  0  0
  7 19  1  0  0  0  0
  7 14  1  0  0  0  0
  7  8  1  0  0  0  0
  8  9  1  0  0  0  0
  8 22  1  0  0  0  0
  8 23  1  0  0  0  0
  9 20  1  0  0  0  0
  9 10  1  0  0  0  0
  9 11  1  0  0  0  0
 10 24  1  0  0  0  0
 11 21  1  0  0  0  0
 11 12  1  0  0  0  0
 11 14  1  0  0  0  0
 12 13  1  0  0  0  0
 12 25  1  0  0  0  0
 12 26  1  0  0  0  0
 13 27  1  0  0  0  0
 15 16  2  0  0  0  0
 15 28  1  0  0  0  0
 16 17  1  0  0  0  0
M  END
> <s_m_source_file>
AV-unprocessed.smi

> <i_m_source_file_index>
38

> <i_lp_mmshare_version>
43012

> <i_f3d_flags>
0

> <s_epik_input>
Tz1jMVtuSF1jKD1PKW4oW2NIXWMxRilbQ0BIXTJbQ0gyXVtDQEhdKFtPSF0pW0NASF0oTzIpW0NIMl1bT0hd

> <s_epik_cmdline>
J2VwaWtfcHl0aG9uJywgJy1waCcsICc3LjAnLCAnLXRuJywgJzgnLCAnLW1hJywgJzIwMCcsICctbWV0YWxfYmluZGluZycsICctaW1hZScsICc8aW5maWxlLm1hZT4nLCAnLW9tYWUnLCAnPG91dGZpbGUubWFlPic=

> <r_lp_tautomer_probability>
0.999537

> <r_epik_Ionization_Penalty>
0.0357432

> <r_epik_Ionization_Penalty_Charging>
0.0357431

> <r_epik_Ionization_Penalty_Neutral>
1.19946e-07

> <r_epik_State_Penalty>
0.0298169

> <r_epik_Charging_Adjusted_Penalty>
0.06556

> <i_epik_Tot_Q>
0

> <i_epik_Tot_abs_Q>
0

> <r_epik_Metal_State_Penalty>
2.348

> <b_epik_Metal_Only>
0

> <s_epik_Chemistry_Notes>
This compound contains an acetal/aminal-like group ( X-CH(R)-Y where X, Y are N, S, or O) that may be acid/base labile, releasing an aldehyde.

> <s_lp_Force_Field>
OPLS_2005

> <r_lp_Energy>
30.312

> <b_lp_Chiralities_Consistent>
1

> <s_lp_Variant>
AV-unprocessed.smi:38-3

> <Gold.Version>
5.8.1

> <Gold.Id.Protein>
6NUR|6NUR_protein|mol2

> <Gold.PLP.Fitness>
37.1142

> <Gold.PLP.PLP>
-26.1334

> <Gold.PLP.part.hbond>
-4.0000

> <Gold.PLP.part.metal>
0.0000

> <Gold.PLP.part.buried>
-5.5561

> <Gold.PLP.part.nonpolar>
-18.8755

> <Gold.PLP.part.repulsive>
1.0730

> <Gold.PLP.ligand.clash>
0.0000

> <Gold.PLP.ligand.torsion>
0.1131

> <Gold.PLP.Chemscore.Hbond>
3.7280

> <Gold.PLP.Chemscore.CHOScore>
0.0000

> <Gold.PLP.Chemscore.Metal>
0.0000

> <Gold.Chemscore.Hbonds>
donor molecule, donor type, donor heavy atom, donor atom, acceptor molecule, acceptor atom, score
      L1  H    10    24       P1 10175  1.00
      L1  H    13    27       P1 10175  0.99
      P1  H  7989  7998       L1     5  0.93
      P1  H  8011  8017       L1    14  0.75

> <Gold.PLP.Chemscore.Internal.Correction>
0.0230

> <Gold.Rescore>
     Score         DG    S(hbond)    S(metal)    S(lipo)     H(rot)  DE(clash)    DE(int)     intcor
     11.47     -11.68       3.05        0.00      29.79       2.91       0.12       0.08       ----

> <Gold.Chemscore.Fitness>
11.4700

> <Gold.Chemscore.DG>
-11.6761

> <Gold.Chemscore.ZeroCoef>
-5.4800

> <Gold.Chemscore.Hbond>
3.0453

> <Gold.Chemscore.Metal>
0.0000

> <Gold.Chemscore.Lipo>
29.7861

> <Gold.Chemscore.Internal_Hbond>
0.0000

> <Gold.Chemscore.DEClash>
0.1226

> <Gold.Chemscore.DEInternal>
0.0835

> <Gold.Chemscore.Rot>
2.9141

> <Gold.Chemscore.Internal.Correction>
   9.000000E+99

> <Gold.Chemscore.Hbonds>
donor molecule, donor type, donor heavy atom, donor atom, acceptor molecule, acceptor atom, score
      L1  H    10    24       P1 10175  0.99
      L1  H    13    27       P1 10175  0.60
      P1  H  7989  7998       L1     5  0.36
      P1  H  8011  8017       L1    14  0.66

> <Gold.Chemscore.Hbond.Weighted>
-10.1712

> <Gold.Chemscore.Metal.Weighted>
-0.0000

> <Gold.Chemscore.Lipo.Weighted>
-3.4850

> <Gold.Chemscore.Internal_Hbond.Weighted>
0.0000

> <Gold.Chemscore.DEClash.Weighted>
0.1226

> <Gold.Chemscore.DEInternal.Weighted>
0.0835

> <Gold.Chemscore.Rot.Weighted>
7.4601

> <Gold.Chemscore.Internal.Correction.Weighted>
   9.000000E+99

> <Gold.Protein.RotatedTorsions>
[ 6907 6896 6895 6894 ] final   58.30 input  -60.11 | X-H torsion
[ 7974 7965 7964 7962 ] final  -60.76 input  175.53 | X-H torsion
[ 8008 7997 7996 7995 ] final -141.09 input   59.86 | X-H torsion
[ 10167 10162 10161 10158 ] final  -88.59 input  -65.29 | X-H torsion
[ 10718 10713 10712 10709 ] final  163.96 input   66.30 | X-H torsion
[ 10763 10752 10751 10750 ] final  -70.14 input  -60.55 | X-H torsion
[ 11005 11000 10999 10996 ] final  -16.92 input  -57.11 | X-H torsion

> <Gold.Protein.ActiveResidues>
 VAL166  LYS551  ARG553  GLY616  TRP617  ASP618  TYR619  PRO620  LYS621  CYS622 
 ASP623  PHE694  ASN695  SER759  ASP760  ASP761  ALA762  ILE779  LEU786  VAL792 
 PHE793  MET794  SER795  GLU796  ALA797  LYS798  CYS799  TRP800  GLU811  SER814 

> <Gold.Protein.RotatedAtoms>
  152.3811  134.6588  160.0142 H   0  0  0  0  0  0  0  0  0  0  0  0  # atno 6907 bound_to 6896
  151.6851  133.3306  159.3237 H   0  0  0  0  0  0  0  0  0  0  0  0  # atno 6908 bound_to 6896
  150.7748  134.6683  159.6422 H   0  0  0  0  0  0  0  0  0  0  0  0  # atno 6909 bound_to 6896
  145.8117  140.8595  143.0178 H   0  0  0  0  0  0  0  0  0  0  0  0  # atno 7974 bound_to 7965
  155.4720  140.0553  157.2978 H   0  0  0  0  0  0  0  0  0  0  0  0  # atno 8008 bound_to 7997
  154.4694  140.2033  155.9986 H   0  0  0  0  0  0  0  0  0  0  0  0  # atno 8009 bound_to 7997
  156.1031  140.3216  155.7973 H   0  0  0  0  0  0  0  0  0  0  0  0  # atno 8010 bound_to 7997
  140.3731  143.2784  151.9476 H   0  0  0  0  0  0  0  0  0  0  0  0  # atno 10167 bound_to 10162
  157.1011  131.0443  151.2497 H   0  0  0  0  0  0  0  0  0  0  0  0  # atno 10718 bound_to 10713
  154.4135  135.6003  153.5966 H   0  0  0  0  0  0  0  0  0  0  0  0  # atno 10763 bound_to 10752
  152.9791  135.5935  154.4042 H   0  0  0  0  0  0  0  0  0  0  0  0  # atno 10764 bound_to 10752
  154.3857  135.2841  155.2163 H   0  0  0  0  0  0  0  0  0  0  0  0  # atno 10765 bound_to 10752
  140.8117  133.8136  155.9570 H   0  0  0  0  0  0  0  0  0  0  0  0  # atno 11005 bound_to 11000
  144.6757  140.0405  143.7481 LP  0  0  0  0  0  0  0  0  0  0  0  0  # atno 17320 bound_to 7965
  145.9770  139.2912  143.1064 LP  0  0  0  0  0  0  0  0  0  0  0  0  # atno 17321 bound_to 7965
  139.4802  144.5888  151.7807 LP  0  0  0  0  0  0  0  0  0  0  0  0  # atno 17342 bound_to 10162
  140.5013  144.1165  150.5972 LP  0  0  0  0  0  0  0  0  0  0  0  0  # atno 17343 bound_to 10162
  157.4640  130.7670  149.7262 LP  0  0  0  0  0  0  0  0  0  0  0  0  # atno 17370 bound_to 10713
  155.9873  130.3968  150.3170 LP  0  0  0  0  0  0  0  0  0  0  0  0  # atno 17371 bound_to 10713
  140.9191  134.2164  157.4938 LP  0  0  0  0  0  0  0  0  0  0  0  0  # atno 17394 bound_to 11000
  139.8714  134.9784  156.4997 LP  0  0  0  0  0  0  0  0  0  0  0  0  # atno 17395 bound_to 11000

$$$$
