AV-unprocessed.smi:155|AV-procd|sdf|1282|dock3
  -GOLD-   2262018553D 1   1.00000     0.00000
 Structure written by MMmdl.
 64 67  0  0  0  0  0  0  0  0  3 V2000
  145.6197  132.7317  149.6955 C   0  0  0  0  0  0  0  0  0  0  0  0
  146.0595  131.8104  150.7697 N   0  3  0  0  0  0  0  0  0  0  0  0
  145.1074  130.6894  150.9391 C   0  0  0  0  0  0  0  0  0  0  0  0
  146.3487  132.4979  152.0554 C   0  0  0  0  0  0  0  0  0  0  0  0
  147.4082  133.6119  151.9112 C   0  0  0  0  0  0  0  0  0  0  0  0
  147.6936  134.3124  153.1922 N   0  3  1  0  0  0  0  0  0  0  0  0
  146.4642  134.6209  153.9805 C   0  0  0  0  0  0  0  0  0  0  0  0
  146.7313  135.0400  155.4411 C   0  0  0  0  0  0  0  0  0  0  0  0
  147.7161  136.2111  155.5898 C   0  0  0  0  0  0  0  0  0  0  0  0
  149.0086  135.9722  154.9448 N   0  0  0  0  0  0  0  0  0  0  0  0
  149.8684  137.0191  155.0002 C   0  0  0  0  0  0  0  0  0  0  0  0
  151.1018  136.8417  154.4609 N   0  0  0  0  0  0  0  0  0  0  0  0
  151.9976  137.8331  154.4854 C   0  0  0  0  0  0  0  0  0  0  0  0
  151.8681  139.0623  154.9877 N   0  0  0  0  0  0  0  0  0  0  0  0
  150.6282  139.2497  155.5228 C   0  0  0  0  0  0  0  0  0  0  0  0
  149.5755  138.2917  155.5727 C   0  0  0  0  0  0  0  0  0  0  0  0
  148.4586  138.8547  156.1816 N   0  0  0  0  0  0  0  0  0  0  0  0
  148.8323  140.0690  156.4813 C   0  0  0  0  0  0  0  0  0  0  0  0
  150.1197  140.3898  156.1175 N   0  0  0  0  0  0  0  0  0  0  0  0
  150.7907  141.6615  156.3191 C   0  0  0  0  0  0  0  0  0  0  0  0
  150.8760  142.0469  157.8111 C   0  0  1  0  0  0  0  0  0  0  0  0
  151.9364  141.3567  158.4430 O   0  0  0  0  0  0  0  0  0  0  0  0
  151.0388  143.5592  158.0683 C   0  0  2  0  0  0  0  0  0  0  0  0
  152.4865  144.0504  158.0069 C   0  0  0  0  0  0  0  0  0  0  0  0
  152.4153  145.3126  158.8353 C   0  0  0  0  0  0  0  0  0  0  0  0
  151.4546  144.8991  159.9457 C   0  0  0  0  0  0  0  0  0  0  0  0
  150.5843  143.9281  159.3700 O   0  0  0  0  0  0  0  0  0  0  0  0
  149.5722  134.6211  154.8723 C   0  0  0  0  0  0  0  0  0  0  0  0
  148.7602  133.6414  153.9877 C   0  0  0  0  0  0  0  0  0  0  0  0
  144.6928  133.2379  149.9691 H   0  0  0  0  0  0  0  0  0  0  0  0
  145.4433  132.1833  148.7693 H   0  0  0  0  0  0  0  0  0  0  0  0
  146.3715  133.4897  149.4795 H   0  0  0  0  0  0  0  0  0  0  0  0
  144.1410  131.0482  151.2968 H   0  0  0  0  0  0  0  0  0  0  0  0
  145.4885  129.9596  151.6545 H   0  0  0  0  0  0  0  0  0  0  0  0
  144.9495  130.1690  149.9935 H   0  0  0  0  0  0  0  0  0  0  0  0
  145.4228  132.8941  152.4756 H   0  0  0  0  0  0  0  0  0  0  0  0
  146.7173  131.7553  152.7636 H   0  0  0  0  0  0  0  0  0  0  0  0
  148.3337  133.2088  151.4976 H   0  0  0  0  0  0  0  0  0  0  0  0
  147.0451  134.3499  151.1972 H   0  0  0  0  0  0  0  0  0  0  0  0
  145.9183  135.4216  153.4814 H   0  0  0  0  0  0  0  0  0  0  0  0
  145.8093  133.7482  153.9855 H   0  0  0  0  0  0  0  0  0  0  0  0
  145.7837  135.3238  155.8999 H   0  0  0  0  0  0  0  0  0  0  0  0
  147.0786  134.1879  156.0263 H   0  0  0  0  0  0  0  0  0  0  0  0
  147.2573  137.1049  155.1649 H   0  0  0  0  0  0  0  0  0  0  0  0
  147.8810  136.4191  156.6479 H   0  0  0  0  0  0  0  0  0  0  0  0
  152.9550  137.6106  154.0371 H   0  0  0  0  0  0  0  0  0  0  0  0
  148.1734  140.7706  156.9726 H   0  0  0  0  0  0  0  0  0  0  0  0
  151.7873  141.5985  155.8802 H   0  0  0  0  0  0  0  0  0  0  0  0
  150.2502  142.4219  155.7550 H   0  0  0  0  0  0  0  0  0  0  0  0
  149.9659  141.7171  158.3141 H   0  0  0  0  0  0  0  0  0  0  0  0
  151.5676  140.6893  159.0011 H   0  0  0  0  0  0  0  0  0  0  0  0
  150.4626  144.1302  157.3375 H   0  0  0  0  0  0  0  0  0  0  0  0
  153.1657  143.3382  158.4767 H   0  0  0  0  0  0  0  0  0  0  0  0
  152.8315  144.2272  156.9876 H   0  0  0  0  0  0  0  0  0  0  0  0
  153.3863  145.6388  159.2091 H   0  0  0  0  0  0  0  0  0  0  0  0
  151.9843  146.1233  158.2458 H   0  0  0  0  0  0  0  0  0  0  0  0
  151.9992  144.4296  160.7658 H   0  0  0  0  0  0  0  0  0  0  0  0
  150.8974  145.7449  160.3492 H   0  0  0  0  0  0  0  0  0  0  0  0
  150.5800  134.6780  154.4586 H   0  0  0  0  0  0  0  0  0  0  0  0
  149.6778  134.2176  155.8801 H   0  0  0  0  0  0  0  0  0  0  0  0
  148.3222  132.8440  154.5899 H   0  0  0  0  0  0  0  0  0  0  0  0
  149.4687  133.1412  153.3267 H   0  0  0  0  0  0  0  0  0  0  0  0
  146.9256  131.3918  150.4611 H   0  0  0  0  0  0  0  0  0  0  0  0
  148.0935  135.2044  152.9364 H   0  0  0  0  0  0  0  0  0  0  0  0
  1  2  1  0  0  0  0
  1 30  1  0  0  0  0
  1 31  1  0  0  0  0
  1 32  1  0  0  0  0
  2  3  1  0  0  0  0
  2  4  1  0  0  0  0
  2 63  1  0  0  0  0
  3 33  1  0  0  0  0
  3 34  1  0  0  0  0
  3 35  1  0  0  0  0
  4  5  1  0  0  0  0
  4 36  1  0  0  0  0
  4 37  1  0  0  0  0
  5  6  1  0  0  0  0
  5 38  1  0  0  0  0
  5 39  1  0  0  0  0
  6 29  1  0  0  0  0
  6  7  1  0  0  0  0
  6 64  1  0  0  0  0
  7  8  1  0  0  0  0
  7 40  1  0  0  0  0
  7 41  1  0  0  0  0
  8  9  1  0  0  0  0
  8 42  1  0  0  0  0
  8 43  1  0  0  0  0
  9 10  1  0  0  0  0
  9 44  1  0  0  0  0
  9 45  1  0  0  0  0
 10 11  1  0  0  0  0
 10 28  1  0  0  0  0
 11 16  1  0  0  0  0
 11 12  2  0  0  0  0
 12 13  1  0  0  0  0
 13 14  2  0  0  0  0
 13 46  1  0  0  0  0
 14 15  1  0  0  0  0
 15 19  1  0  0  0  0
 15 16  2  0  0  0  0
 16 17  1  0  0  0  0
 17 18  2  0  0  0  0
 18 19  1  0  0  0  0
 18 47  1  0  0  0  0
 19 20  1  0  0  0  0
 20 21  1  0  0  0  0
 20 48  1  0  0  0  0
 20 49  1  0  0  0  0
 21 22  1  0  0  0  0
 21 23  1  0  0  0  0
 21 50  1  0  0  0  0
 22 51  1  0  0  0  0
 23 27  1  0  0  0  0
 23 24  1  0  0  0  0
 23 52  1  0  0  0  0
 24 25  1  0  0  0  0
 24 53  1  0  0  0  0
 24 54  1  0  0  0  0
 25 26  1  0  0  0  0
 25 55  1  0  0  0  0
 25 56  1  0  0  0  0
 26 27  1  0  0  0  0
 26 57  1  0  0  0  0
 26 58  1  0  0  0  0
 28 29  1  0  0  0  0
 28 59  1  0  0  0  0
 28 60  1  0  0  0  0
 29 61  1  0  0  0  0
 29 62  1  0  0  0  0
M  CHG  1   2   1
M  CHG  1   6   1
M  END
> <s_m_source_file>
AV-unprocessed.smi

> <i_m_source_file_index>
155

> <i_lp_mmshare_version>
43012

> <i_f3d_flags>
0

> <s_epik_input>
W0NIM11OKFtDSDNdKVtDSDJdW0NIMl1OMVtDSDJdW0NIMl1bQ0gyXU4oW0NIMl1bQ0gyXTEpYyhuW2NIXW4yKWMoYzIzKW5bY0hdbjNbQ0gyXVtDQEhdKFtPSF0pW0NAQEhdNFtDSDJdW0NIMl1bQ0gyXU80

> <s_epik_cmdline>
J2VwaWtfcHl0aG9uJywgJy1waCcsICc3LjAnLCAnLXRuJywgJzgnLCAnLW1hJywgJzIwMCcsICctbWV0YWxfYmluZGluZycsICctaW1hZScsICc8aW5maWxlLm1hZT4nLCAnLW9tYWUnLCAnPG91dGZpbGUubWFlPic=

> <r_lp_tautomer_probability>
1

> <r_epik_Ionization_Penalty>
3.0333

> <r_epik_Ionization_Penalty_Charging>
3.03317

> <r_epik_Ionization_Penalty_Neutral>
0.000131872

> <r_epik_State_Penalty>
1.99939

> <r_epik_Charging_Adjusted_Penalty>
5.03256

> <i_epik_Tot_Q>
2

> <i_epik_Tot_abs_Q>
2

> <r_epik_Metal_State_Penalty>
2.00021

> <b_epik_Metal_Only>
0

> <s_lp_Force_Field>
OPLS_2005

> <r_lp_Energy>
68.073

> <b_lp_Chiralities_Consistent>
1

> <s_lp_Variant>
AV-unprocessed.smi:155-16

> <Gold.Version>
5.8.1

> <Gold.Id.Protein>
6NUR|6NUR_protein|mol2

> <Gold.PLP.Fitness>
63.5584

> <Gold.PLP.PLP>
-50.8241

> <Gold.PLP.part.hbond>
-4.0000

> <Gold.PLP.part.metal>
0.0000

> <Gold.PLP.part.buried>
-7.8790

> <Gold.PLP.part.nonpolar>
-38.5519

> <Gold.PLP.part.repulsive>
0.5484

> <Gold.PLP.ligand.clash>
0.0000

> <Gold.PLP.ligand.torsion>
1.0511

> <Gold.PLP.Chemscore.Hbond>
4.7442

> <Gold.PLP.Chemscore.CHOScore>
0.0000

> <Gold.PLP.Chemscore.Metal>
0.0000

> <Gold.Chemscore.Hbonds>
donor molecule, donor type, donor heavy atom, donor atom, acceptor molecule, acceptor atom, score
      L1  H     2    63       P1 10747  0.78
      L1  H     6    64       P1  7948  2.00
      P1  H  7989  7998       L1    14  0.16
      P1  H 10752 10764       L1    12  0.03

> <Gold.PLP.Chemscore.Internal.Correction>
0.6040

> <Gold.Rescore>
     Score         DG    S(hbond)    S(metal)    S(lipo)     H(rot)  DE(clash)    DE(int)     intcor
     17.38     -20.11       2.51        0.00     113.50       2.75       0.46       2.27       ----

> <Gold.Chemscore.Fitness>
17.3814

> <Gold.Chemscore.DG>
-20.1105

> <Gold.Chemscore.ZeroCoef>
-5.4800

> <Gold.Chemscore.Hbond>
2.5116

> <Gold.Chemscore.Metal>
0.0000

> <Gold.Chemscore.Lipo>
113.5044

> <Gold.Chemscore.Internal_Hbond>
0.0000

> <Gold.Chemscore.DEClash>
0.4620

> <Gold.Chemscore.DEInternal>
2.2672

> <Gold.Chemscore.Rot>
2.7493

> <Gold.Chemscore.Internal.Correction>
   9.000000E+99

> <Gold.Chemscore.Hbonds>
donor molecule, donor type, donor heavy atom, donor atom, acceptor molecule, acceptor atom, score
      L1  H     2    63       P1 10747  0.77
      L1  H     6    64       P1  7948  0.94
      P1  H  7989  7998       L1    14  0.02

> <Gold.Chemscore.Hbond.Weighted>
-8.3888

> <Gold.Chemscore.Metal.Weighted>
-0.0000

> <Gold.Chemscore.Lipo.Weighted>
-13.2800

> <Gold.Chemscore.Internal_Hbond.Weighted>
0.0000

> <Gold.Chemscore.DEClash.Weighted>
0.4620

> <Gold.Chemscore.DEInternal.Weighted>
2.2672

> <Gold.Chemscore.Rot.Weighted>
7.0383

> <Gold.Chemscore.Internal.Correction.Weighted>
   9.000000E+99

> <Gold.Protein.RotatedTorsions>
[ 6907 6896 6895 6894 ] final -146.88 input  -60.11 | X-H torsion
[ 7974 7965 7964 7962 ] final   15.58 input  175.53 | X-H torsion
[ 8008 7997 7996 7995 ] final  -41.91 input   59.86 | X-H torsion
[ 10167 10162 10161 10158 ] final -160.15 input  -65.29 | X-H torsion
[ 10718 10713 10712 10709 ] final  162.15 input   66.30 | X-H torsion
[ 10763 10752 10751 10750 ] final  -77.44 input  -60.55 | X-H torsion
[ 11005 11000 10999 10996 ] final  -19.87 input  -57.11 | X-H torsion

> <Gold.Protein.ActiveResidues>
 VAL166  LYS551  ARG553  GLY616  TRP617  ASP618  TYR619  PRO620  LYS621  CYS622 
 ASP623  PHE694  ASN695  SER759  ASP760  ASP761  ALA762  ILE779  LEU786  VAL792 
 PHE793  MET794  SER795  GLU796  ALA797  LYS798  CYS799  TRP800  GLU811  SER814 

> <Gold.Protein.RotatedAtoms>
  151.1478  133.4928  159.2595 H   0  0  0  0  0  0  0  0  0  0  0  0  # atno 6907 bound_to 6896
  151.1586  135.0262  159.8710 H   0  0  0  0  0  0  0  0  0  0  0  0  # atno 6908 bound_to 6896
  152.5463  134.1354  159.8510 H   0  0  0  0  0  0  0  0  0  0  0  0  # atno 6909 bound_to 6896
  146.2274  139.8873  142.8560 H   0  0  0  0  0  0  0  0  0  0  0  0  # atno 7974 bound_to 7965
  154.4001  140.1487  156.3269 H   0  0  0  0  0  0  0  0  0  0  0  0  # atno 8008 bound_to 7997
  155.8478  140.3459  155.5652 H   0  0  0  0  0  0  0  0  0  0  0  0  # atno 8009 bound_to 7997
  155.8017  140.0871  157.1944 H   0  0  0  0  0  0  0  0  0  0  0  0  # atno 8010 bound_to 7997
  139.6561  143.9996  152.2195 H   0  0  0  0  0  0  0  0  0  0  0  0  # atno 10167 bound_to 10162
  157.1266  131.0506  151.2391 H   0  0  0  0  0  0  0  0  0  0  0  0  # atno 10718 bound_to 10713
  154.5130  135.5764  153.6620 H   0  0  0  0  0  0  0  0  0  0  0  0  # atno 10763 bound_to 10752
  152.9901  135.6163  154.2854 H   0  0  0  0  0  0  0  0  0  0  0  0  # atno 10764 bound_to 10752
  154.2770  135.2852  155.2693 H   0  0  0  0  0  0  0  0  0  0  0  0  # atno 10765 bound_to 10752
  140.8408  133.7927  155.9859 H   0  0  0  0  0  0  0  0  0  0  0  0  # atno 11005 bound_to 11000
  145.2453  141.0024  143.3912 LP  0  0  0  0  0  0  0  0  0  0  0  0  # atno 17320 bound_to 7965
  144.9419  139.4180  143.6445 LP  0  0  0  0  0  0  0  0  0  0  0  0  # atno 17321 bound_to 7965
  139.9723  144.6485  150.7978 LP  0  0  0  0  0  0  0  0  0  0  0  0  # atno 17342 bound_to 10162
  140.7560  143.3056  151.2969 LP  0  0  0  0  0  0  0  0  0  0  0  0  # atno 17343 bound_to 10162
  157.4429  130.7554  149.7085 LP  0  0  0  0  0  0  0  0  0  0  0  0  # atno 17370 bound_to 10713
  155.9817  130.4017  150.3458 LP  0  0  0  0  0  0  0  0  0  0  0  0  # atno 17371 bound_to 10713
  140.8897  134.2511  157.5101 LP  0  0  0  0  0  0  0  0  0  0  0  0  # atno 17394 bound_to 11000
  139.8703  134.9655  156.4531 LP  0  0  0  0  0  0  0  0  0  0  0  0  # atno 17395 bound_to 11000

$$$$
