#       Name:                AV-unprocessed.smi:3346
#       Creating user name   scv26
#       Creation time:       Fri Mar 27 19:32:27 2020


#       File generated by GOLD software.
#

@<TRIPOS>MOLECULE
AV-unprocessed.smi:3346
    52    53     1
SMALL
NO_CHARGES


@<TRIPOS>ATOM
      1 ****        -4.1059   0.0295  -1.1245 C.3            1 S1                 0.0000
      2 ****        -2.6135  -0.3092  -1.2555 C.3            1 S1                 0.0000
      3 ****        -2.1138   0.0233  -2.6717 C.3            1 S1                 0.0000
      4 ****        -2.3535  -1.7814  -0.8640 C.3            1 S1                 0.0000
      5 ****        -0.8664  -2.1798  -0.7451 C.3            1 S1                 0.0000
      6 ****        -0.7224  -3.7031  -0.5774 C.3            1 S1                 0.0000
      7 ****        -0.2881  -1.5035   0.4110 N.3            1 S1                 0.0000
      8 ****         1.1600  -1.3914   0.3154 C.3            1 S1                 0.0000
      9 ****         1.7665  -0.6972   1.5241 C.ar           1 S1                 0.0000
     10 ****         2.1351  -1.4684   2.6464 C.ar           1 S1                 0.0000
     11 ****         2.7136  -0.8305   3.7585 C.ar           1 S1                 0.0000
     12 ****         2.9019   0.5625   3.7033 C.ar           1 S1                 0.0000
     13 ****         2.5517   1.3142   2.6391 N.ar           1 S1                 0.0000
     14 ****         1.9928   0.7039   1.5652 C.ar           1 S1                 0.0000
     15 ****         1.6140   1.5169   0.4832 N.3            1 S1                 0.0000
     16 ****         0.2575   2.0326   0.6075 C.3            1 S1                 0.0000
     17 ****        -0.1615   2.7211  -0.7028 C.3            1 S1                 0.0000
     18 ****         0.7787   3.7412  -1.0290 O.3            1 S1                 0.0000
     19 ****         2.0922   3.2197  -1.2147 C.3            1 S1                 0.0000
     20 ****         2.5675   2.5458   0.0841 C.3            1 S1                 0.0000
     21 ****        -4.7114  -0.5791  -1.7969 H              1 S1                 0.0000
     22 ****        -4.2942   1.0768  -1.3626 H              1 S1                 0.0000
     23 ****        -4.4612  -0.1426  -0.1081 H              1 S1                 0.0000
     24 ****        -2.0824   0.3336  -0.5544 H              1 S1                 0.0000
     25 ****        -2.5823  -0.6179  -3.4186 H              1 S1                 0.0000
     26 ****        -1.0342  -0.0953  -2.7580 H              1 S1                 0.0000
     27 ****        -2.3414   1.0571  -2.9329 H              1 S1                 0.0000
     28 ****        -2.8545  -2.0006   0.0805 H              1 S1                 0.0000
     29 ****        -2.8359  -2.4209  -1.6045 H              1 S1                 0.0000
     30 ****        -0.3417  -1.8762  -1.6507 H              1 S1                 0.0000
     31 ****        -1.1926  -4.2304  -1.4080 H              1 S1                 0.0000
     32 ****        -1.1960  -4.0494   0.3420 H              1 S1                 0.0000
     33 ****         0.3211  -4.0159  -0.5535 H              1 S1                 0.0000
     34 ****        -0.5510  -1.9828   1.2602 H              1 S1                 0.0000
     35 ****         1.6065  -2.3821   0.2344 H              1 S1                 0.0000
     36 ****         1.4296  -0.8556  -0.5954 H              1 S1                 0.0000
     37 ****         1.9795  -2.5372   2.6543 H              1 S1                 0.0000
     38 ****         3.0074  -1.3952   4.6308 H              1 S1                 0.0000
     39 ****         3.3443   1.0880   4.5367 H              1 S1                 0.0000
     40 ****        -0.4345   1.2264   0.8486 H              1 S1                 0.0000
     41 ****         0.2162   2.7447   1.4327 H              1 S1                 0.0000
     42 ****        -0.2229   1.9987  -1.5178 H              1 S1                 0.0000
     43 ****        -1.1505   3.1666  -0.5962 H              1 S1                 0.0000
     44 ****         2.0990   2.5120  -2.0454 H              1 S1                 0.0000
     45 ****         2.7644   4.0343  -1.4841 H              1 S1                 0.0000
     46 ****         2.6601   3.2938   0.8728 H              1 S1                 0.0000
     47 ****         3.5525   2.1010  -0.0608 H              1 S1                 0.0000
     48 ****        -0.6536  -0.5728   0.4297 LP             1 S1                 0.0000
     49 ****         2.7015   2.3029   2.6424 LP             1 S1                 0.0000
     50 ****         1.6246   0.8796  -0.2873 LP             1 S1                 0.0000
     51 ****         0.7994   4.4103  -0.2861 LP             1 S1                 0.0000
     52 ****         0.4875   4.1901  -1.8738 LP             1 S1                 0.0000
@<TRIPOS>BOND
    1    1    2 1     
    2    1   21 1     
    3    1   22 1     
    4    1   23 1     
    5    2    3 1     
    6    2    4 1     
    7    2   24 1     
    8    3   25 1     
    9    3   26 1     
   10    3   27 1     
   11    4    5 1     
   12    4   28 1     
   13    4   29 1     
   14    5    6 1     
   15    5    7 1     
   16    5   30 1     
   17    6   31 1     
   18    6   32 1     
   19    6   33 1     
   20    7    8 1     
   21    7   34 1     
   22    8    9 1     
   23    8   35 1     
   24    8   36 1     
   25    9   14 ar    
   26    9   10 ar    
   27   10   11 ar    
   28   10   37 1     
   29   11   12 ar    
   30   11   38 1     
   31   12   13 ar    
   32   12   39 1     
   33   13   14 ar    
   34   14   15 1     
   35   15   20 1     
   36   15   16 1     
   37   16   17 1     
   38   16   40 1     
   39   16   41 1     
   40   17   18 1     
   41   17   42 1     
   42   17   43 1     
   43   18   19 1     
   44   19   20 1     
   45   19   44 1     
   46   19   45 1     
   47   20   46 1     
   48   20   47 1     
   49    7   48 1     
   50   13   49 1     
   51   15   50 1     
   52   18   51 1     
   53   18   52 1     
@<TRIPOS>SUBSTRUCTURE
      1 S1             1
@<TRIPOS>SET
LONE_PAIRS      STATIC     ATOMS    <user>   **** ""
5 48 49 50 51 52
DONOR_HYDROGENS      STATIC     ATOMS    <user>   **** ""
1 34
ATOM$BLUE        STATIC     ATOMS    COLORGROUP SYSTEM
5 48 49 50 51 52
ATOM$RED        STATIC     ATOMS    COLORGROUP SYSTEM
1 34
