AV-unprocessed.smi:2310|AV-procd|sdf|9255|dock3
  -GOLD-   2272012473D 1   1.00000     0.00000
 Structure written by MMmdl.
 45 46  0  0  0  0  0  0  0  0  1 V2000
  148.7551  132.0859  153.5645 C   0  0  0  0  0  0  0  0  0  0  0  0
  148.9379  133.6107  153.5734 C   0  0  0  0  0  0  0  0  0  0  0  0
  149.9077  134.1109  154.6598 C   0  0  2  0  0  0  0  0  0  0  0  0
  149.4855  133.6226  156.0544 C   0  0  0  0  0  0  0  0  0  0  0  0
  150.5968  133.0578  156.8370 C   0  0  0  0  0  0  0  0  0  0  0  0
  151.4701  132.6143  157.4525 N   0  0  0  0  0  0  0  0  0  0  0  0
  149.9656  135.5726  154.6427 N   0  0  0  0  0  0  0  0  0  0  0  0
  150.4594  136.3512  155.6165 C   0  0  0  0  0  0  0  0  0  0  0  0
  150.9227  135.9159  156.6701 O   0  0  0  0  0  0  0  0  0  0  0  0
  150.3966  137.6486  155.2728 N   0  0  0  0  0  0  0  0  0  0  0  0
  150.8499  138.7809  156.0056 C   0  0  0  0  0  0  0  0  0  0  0  0
  151.6865  138.6873  157.1426 C   0  0  0  0  0  0  0  0  0  0  0  0
  152.0668  139.8644  157.8143 C   0  0  0  0  0  0  0  0  0  0  0  0
  151.5913  141.1104  157.3440 C   0  0  0  0  0  0  0  0  0  0  0  0
  151.9500  142.3145  157.9822 N   0  0  0  0  0  0  0  0  0  0  0  0
  152.3457  142.3539  159.3833 C   0  0  0  0  0  0  0  0  0  0  0  0
  152.0048  143.7673  159.8703 C   0  0  0  0  0  0  0  0  0  0  0  0
  151.9263  144.5969  158.5887 C   0  0  0  0  0  0  0  0  0  0  0  0
  151.4054  143.5956  157.5593 C   0  0  0  0  0  0  0  0  0  0  0  0
  150.7839  141.1989  156.2612 N   0  0  0  0  0  0  0  0  0  0  0  0
  150.4190  140.0704  155.6153 C   0  0  0  0  0  0  0  0  0  0  0  0
  149.5094  140.2735  154.4166 C   0  0  0  0  0  0  0  0  0  0  0  0
  148.0181  131.7891  152.8183 H   0  0  0  0  0  0  0  0  0  0  0  0
  148.4089  131.7269  154.5342 H   0  0  0  0  0  0  0  0  0  0  0  0
  149.6869  131.5709  153.3293 H   0  0  0  0  0  0  0  0  0  0  0  0
  149.2815  133.9392  152.5916 H   0  0  0  0  0  0  0  0  0  0  0  0
  147.9635  134.0767  153.7240 H   0  0  0  0  0  0  0  0  0  0  0  0
  150.8904  133.6878  154.4437 H   0  0  0  0  0  0  0  0  0  0  0  0
  149.0436  134.4357  156.6309 H   0  0  0  0  0  0  0  0  0  0  0  0
  148.7275  132.8438  155.9673 H   0  0  0  0  0  0  0  0  0  0  0  0
  149.6110  136.0267  153.8138 H   0  0  0  0  0  0  0  0  0  0  0  0
  150.0634  137.8438  154.3403 H   0  0  0  0  0  0  0  0  0  0  0  0
  152.0339  137.7379  157.5198 H   0  0  0  0  0  0  0  0  0  0  0  0
  152.7155  139.7937  158.6744 H   0  0  0  0  0  0  0  0  0  0  0  0
  151.8289  141.6021  159.9810 H   0  0  0  0  0  0  0  0  0  0  0  0
  153.4182  142.1689  159.4507 H   0  0  0  0  0  0  0  0  0  0  0  0
  151.0287  143.7599  160.3573 H   0  0  0  0  0  0  0  0  0  0  0  0
  152.7314  144.1556  160.5843 H   0  0  0  0  0  0  0  0  0  0  0  0
  151.2883  145.4759  158.6857 H   0  0  0  0  0  0  0  0  0  0  0  0
  152.9246  144.9334  158.3061 H   0  0  0  0  0  0  0  0  0  0  0  0
  151.7223  143.8555  156.5486 H   0  0  0  0  0  0  0  0  0  0  0  0
  150.3156  143.5528  157.5808 H   0  0  0  0  0  0  0  0  0  0  0  0
  149.9809  139.8851  153.5134 H   0  0  0  0  0  0  0  0  0  0  0  0
  149.2897  141.3295  154.2545 H   0  0  0  0  0  0  0  0  0  0  0  0
  148.5633  139.7521  154.5647 H   0  0  0  0  0  0  0  0  0  0  0  0
  1  2  1  0  0  0  0
  1 23  1  0  0  0  0
  1 24  1  0  0  0  0
  1 25  1  0  0  0  0
  2  3  1  0  0  0  0
  2 26  1  0  0  0  0
  2 27  1  0  0  0  0
  3  4  1  0  0  0  0
  3  7  1  0  0  0  0
  3 28  1  0  0  0  0
  4  5  1  0  0  0  0
  4 29  1  0  0  0  0
  4 30  1  0  0  0  0
  5  6  3  0  0  0  0
  7  8  1  0  0  0  0
  7 31  1  0  0  0  0
  8  9  2  0  0  0  0
  8 10  1  0  0  0  0
 10 11  1  0  0  0  0
 10 32  1  0  0  0  0
 11 21  1  0  0  0  0
 11 12  2  0  0  0  0
 12 13  1  0  0  0  0
 12 33  1  0  0  0  0
 13 14  2  0  0  0  0
 13 34  1  0  0  0  0
 14 15  1  0  0  0  0
 14 20  1  0  0  0  0
 15 19  1  0  0  0  0
 15 16  1  0  0  0  0
 16 17  1  0  0  0  0
 16 35  1  0  0  0  0
 16 36  1  0  0  0  0
 17 18  1  0  0  0  0
 17 37  1  0  0  0  0
 17 38  1  0  0  0  0
 18 19  1  0  0  0  0
 18 39  1  0  0  0  0
 18 40  1  0  0  0  0
 19 41  1  0  0  0  0
 19 42  1  0  0  0  0
 20 21  2  0  0  0  0
 21 22  1  0  0  0  0
 22 43  1  0  0  0  0
 22 44  1  0  0  0  0
 22 45  1  0  0  0  0
M  END
> <s_m_source_file>
AV-unprocessed.smi

> <i_m_source_file_index>
2310

> <i_lp_mmshare_version>
43012

> <i_f3d_flags>
0

> <s_epik_input>
TiNDW0NIMl1bQ0BASF0oW0NIMl1bQ0gzXSlbTkhdQyg9TylbTkhdYzFbY0hdW2NIXWMobmMxW0NIM10pTjJbQ0gyXVtDSDJdW0NIMl1bQ0gyXTI=

> <s_epik_cmdline>
J2VwaWtfcHl0aG9uJywgJy1waCcsICc3LjAnLCAnLXRuJywgJzgnLCAnLW1hJywgJzIwMCcsICctbWV0YWxfYmluZGluZycsICctaW1hZScsICc8aW5maWxlLm1hZT4nLCAnLW9tYWUnLCAnPG91dGZpbGUubWFlPic=

> <r_lp_tautomer_probability>
1

> <r_epik_Ionization_Penalty>
0.281354

> <r_epik_Ionization_Penalty_Charging>
0

> <r_epik_Ionization_Penalty_Neutral>
0.281354

> <r_epik_State_Penalty>
0.273364

> <r_epik_Charging_Adjusted_Penalty>
0.273364

> <i_epik_Tot_Q>
0

> <i_epik_Tot_abs_Q>
0

> <r_epik_Metal_State_Penalty>
0.18752

> <b_epik_Metal_Only>
0

> <s_lp_Force_Field>
OPLS_2005

> <r_lp_Energy>
30.6963

> <b_lp_Chiralities_Consistent>
1

> <s_lp_Variant>
AV-unprocessed.smi:2310-1

> <Gold.Version>
5.8.1

> <Gold.Id.Protein>
6NUR|6NUR_protein|mol2

> <Gold.PLP.Fitness>
43.7586

> <Gold.PLP.PLP>
-39.6616

> <Gold.PLP.part.hbond>
-2.0000

> <Gold.PLP.part.metal>
0.0000

> <Gold.PLP.part.buried>
-3.9367

> <Gold.PLP.part.nonpolar>
-33.6105

> <Gold.PLP.part.repulsive>
0.1517

> <Gold.PLP.ligand.clash>
0.0000

> <Gold.PLP.ligand.torsion>
1.0678

> <Gold.PLP.Chemscore.Hbond>
2.0000

> <Gold.PLP.Chemscore.CHOScore>
0.0000

> <Gold.PLP.Chemscore.Metal>
0.0000

> <Gold.Chemscore.Hbonds>
donor molecule, donor type, donor heavy atom, donor atom, acceptor molecule, acceptor atom, score
      L1  H     7    31       P1  7948  0.99
      P1  H  6896  6908       L1     6  1.00

> <Gold.PLP.Chemscore.Internal.Correction>
0.2327

> <Gold.Rescore>
     Score         DG    S(hbond)    S(metal)    S(lipo)     H(rot)  DE(clash)    DE(int)     intcor
     13.92     -18.86       1.78        0.00      95.30       1.45       0.08       4.86       ----

> <Gold.Chemscore.Fitness>
13.9158

> <Gold.Chemscore.DG>
-18.8602

> <Gold.Chemscore.ZeroCoef>
-5.4800

> <Gold.Chemscore.Hbond>
1.7786

> <Gold.Chemscore.Metal>
0.0000

> <Gold.Chemscore.Lipo>
95.2956

> <Gold.Chemscore.Internal_Hbond>
0.0000

> <Gold.Chemscore.DEClash>
0.0815

> <Gold.Chemscore.DEInternal>
4.8629

> <Gold.Chemscore.Rot>
1.4492

> <Gold.Chemscore.Internal.Correction>
   9.000000E+99

> <Gold.Chemscore.Hbonds>
donor molecule, donor type, donor heavy atom, donor atom, acceptor molecule, acceptor atom, score
      L1  H     7    31       P1  7948  0.41
      P1  H  6896  6908       L1     6  0.59

> <Gold.Chemscore.Hbond.Weighted>
-5.9406

> <Gold.Chemscore.Metal.Weighted>
-0.0000

> <Gold.Chemscore.Lipo.Weighted>
-11.1496

> <Gold.Chemscore.Internal_Hbond.Weighted>
0.0000

> <Gold.Chemscore.DEClash.Weighted>
0.0815

> <Gold.Chemscore.DEInternal.Weighted>
4.8629

> <Gold.Chemscore.Rot.Weighted>
3.7100

> <Gold.Chemscore.Internal.Correction.Weighted>
   9.000000E+99

> <Gold.Protein.RotatedTorsions>
[ 6907 6896 6895 6894 ] final   79.49 input  -60.11 | X-H torsion
[ 7974 7965 7964 7962 ] final  -28.68 input  175.53 | X-H torsion
[ 8008 7997 7996 7995 ] final -148.38 input   59.86 | X-H torsion
[ 10167 10162 10161 10158 ] final  102.76 input  -65.29 | X-H torsion
[ 10718 10713 10712 10709 ] final  109.99 input   66.30 | X-H torsion
[ 10763 10752 10751 10750 ] final  -81.32 input  -60.55 | X-H torsion
[ 11005 11000 10999 10996 ] final  163.84 input  -57.11 | X-H torsion

> <Gold.Protein.ActiveResidues>
 VAL166  LYS551  ARG553  GLY616  TRP617  ASP618  TYR619  PRO620  LYS621  CYS622 
 ASP623  PHE694  ASN695  SER759  ASP760  ASP761  ALA762  ILE779  LEU786  VAL792 
 PHE793  MET794  SER795  GLU796  ALA797  LYS798  CYS799  TRP800  GLU811  SER814 

> <Gold.Protein.RotatedAtoms>
  152.5200  134.3502  159.9248 H   0  0  0  0  0  0  0  0  0  0  0  0  # atno 6907 bound_to 6896
  151.3453  133.3940  159.2682 H   0  0  0  0  0  0  0  0  0  0  0  0  # atno 6908 bound_to 6896
  150.9770  134.9151  159.7880 H   0  0  0  0  0  0  0  0  0  0  0  0  # atno 6909 bound_to 6896
  146.1271  140.5314  142.8710 H   0  0  0  0  0  0  0  0  0  0  0  0  # atno 7974 bound_to 7965
  155.5906  140.0652  157.2759 H   0  0  0  0  0  0  0  0  0  0  0  0  # atno 8008 bound_to 7997
  154.4306  140.1836  156.1118 H   0  0  0  0  0  0  0  0  0  0  0  0  # atno 8009 bound_to 7997
  156.0235  140.3314  155.7067 H   0  0  0  0  0  0  0  0  0  0  0  0  # atno 8010 bound_to 7997
  139.7322  144.7033  151.0705 H   0  0  0  0  0  0  0  0  0  0  0  0  # atno 10167 bound_to 10162
  157.6515  131.0924  150.6536 H   0  0  0  0  0  0  0  0  0  0  0  0  # atno 10718 bound_to 10713
  154.5622  135.5630  153.7017 H   0  0  0  0  0  0  0  0  0  0  0  0  # atno 10763 bound_to 10752
  153.0021  135.6276  154.2230 H   0  0  0  0  0  0  0  0  0  0  0  0  # atno 10764 bound_to 10752
  154.2167  135.2871  155.2919 H   0  0  0  0  0  0  0  0  0  0  0  0  # atno 10765 bound_to 10752
  140.2398  134.8059  157.3400 H   0  0  0  0  0  0  0  0  0  0  0  0  # atno 11005 bound_to 11000
  144.7653  140.5516  143.6707 LP  0  0  0  0  0  0  0  0  0  0  0  0  # atno 17320 bound_to 7965
  145.5342  139.1475  143.3483 LP  0  0  0  0  0  0  0  0  0  0  0  0  # atno 17321 bound_to 7965
  140.7773  143.5029  150.9748 LP  0  0  0  0  0  0  0  0  0  0  0  0  # atno 17342 bound_to 10162
  139.8717  143.7184  152.3165 LP  0  0  0  0  0  0  0  0  0  0  0  0  # atno 17343 bound_to 10162
  156.6846  130.4577  149.5617 LP  0  0  0  0  0  0  0  0  0  0  0  0  # atno 17370 bound_to 10713
  156.1904  130.6556  151.1055 LP  0  0  0  0  0  0  0  0  0  0  0  0  # atno 17371 bound_to 10713
  140.1665  134.4663  155.7860 LP  0  0  0  0  0  0  0  0  0  0  0  0  # atno 17394 bound_to 11000
  141.2211  133.6923  156.7633 LP  0  0  0  0  0  0  0  0  0  0  0  0  # atno 17395 bound_to 11000

$$$$
