AV-unprocessed.smi:34|AV-procd|sdf|242|dock1
  -GOLD-   2262015593D 1   1.00000     0.00000
 Structure written by MMmdl.
 54 58  0  0  0  0  0  0  0  0  2 V2000
  147.6477  137.3672  161.7515 O   0  0  0  0  0  0  0  0  0  0  0  0
  147.2688  136.3205  161.2217 C   0  0  0  0  0  0  0  0  0  0  0  0
  147.7756  135.7147  160.1180 N   0  5  0  0  0  0  0  0  0  0  0  0
  148.5177  136.4219  159.2522 C   0  0  0  0  0  0  0  0  0  0  0  0
  149.8730  136.3485  159.2890 N   0  0  0  0  0  0  0  0  0  0  0  0
  150.6125  137.0480  158.4199 C   0  0  0  0  0  0  0  0  0  0  0  0
  150.2110  137.8752  157.4493 N   0  0  0  0  0  0  0  0  0  0  0  0
  148.8501  137.9674  157.4128 C   0  0  0  0  0  0  0  0  0  0  0  0
  147.9462  137.2808  158.2738 C   0  0  0  0  0  0  0  0  0  0  0  0
  146.6332  137.5969  157.9589 N   0  0  0  0  0  0  0  0  0  0  0  0
  146.7960  138.4371  156.9389 C   0  0  0  0  0  0  0  0  0  0  0  0
  148.0610  138.7195  156.5603 N   0  0  0  0  0  0  0  0  0  0  0  0
  148.5498  139.5950  155.4464 C   0  0  1  0  0  0  0  0  0  0  0  0
  149.3753  140.5828  155.9886 O   0  0  0  0  0  0  0  0  0  0  0  0
  150.7241  140.1392  155.9307 C   0  0  2  0  0  0  0  0  0  0  0  0
  151.6781  141.3274  156.0926 C   0  0  0  0  0  0  0  0  0  0  0  0
  151.5758  141.8417  157.4100 O   0  0  0  0  0  0  0  0  0  0  0  0
  152.4029  141.3934  158.3743 C   0  0  0  0  0  0  0  0  0  0  0  0
  153.0756  140.3656  158.2717 O   0  0  0  0  0  0  0  0  0  0  0  0
  152.4221  142.2727  159.5787 C   0  0  0  0  0  0  0  0  0  0  0  0
  151.8288  143.5551  159.5097 C   0  0  0  0  0  0  0  0  0  0  0  0
  151.8287  144.4069  160.6313 C   0  0  0  0  0  0  0  0  0  0  0  0
  152.4235  143.9877  161.8354 C   0  0  0  0  0  0  0  0  0  0  0  0
  153.0192  142.7154  161.9162 C   0  0  0  0  0  0  0  0  0  0  0  0
  153.0196  141.8614  160.7958 C   0  0  0  0  0  0  0  0  0  0  0  0
  150.7729  139.4672  154.5614 C   0  0  1  0  0  0  0  0  0  0  0  0
  151.7755  138.5925  154.4717 F   0  0  0  0  0  0  0  0  0  0  0  0
  149.4174  138.7780  154.4673 C   0  0  2  0  0  0  0  0  0  0  0  0
  148.9281  138.8296  153.1430 O   0  0  0  0  0  0  0  0  0  0  0  0
  146.0634  135.6185  161.7866 C   0  0  0  0  0  0  0  0  0  0  0  0
  146.0728  134.2114  161.9222 C   0  0  0  0  0  0  0  0  0  0  0  0
  144.9445  133.5324  162.4219 C   0  0  0  0  0  0  0  0  0  0  0  0
  143.7905  134.2530  162.7822 C   0  0  0  0  0  0  0  0  0  0  0  0
  143.7646  135.6529  162.6393 C   0  0  0  0  0  0  0  0  0  0  0  0
  144.8928  136.3330  162.1404 C   0  0  0  0  0  0  0  0  0  0  0  0
  151.6811  136.9264  158.5154 H   0  0  0  0  0  0  0  0  0  0  0  0
  145.9407  138.8678  156.4398 H   0  0  0  0  0  0  0  0  0  0  0  0
  147.6416  140.0193  155.0156 H   0  0  0  0  0  0  0  0  0  0  0  0
  150.8937  139.4056  156.7206 H   0  0  0  0  0  0  0  0  0  0  0  0
  152.7042  141.0214  155.8836 H   0  0  0  0  0  0  0  0  0  0  0  0
  151.4176  142.1110  155.3798 H   0  0  0  0  0  0  0  0  0  0  0  0
  151.3656  143.8991  158.5959 H   0  0  0  0  0  0  0  0  0  0  0  0
  151.3708  145.3830  160.5670 H   0  0  0  0  0  0  0  0  0  0  0  0
  152.4232  144.6409  162.6955 H   0  0  0  0  0  0  0  0  0  0  0  0
  153.4767  142.3929  162.8399 H   0  0  0  0  0  0  0  0  0  0  0  0
  153.4865  140.8920  160.8917 H   0  0  0  0  0  0  0  0  0  0  0  0
  150.8993  140.2125  153.7745 H   0  0  0  0  0  0  0  0  0  0  0  0
  149.4864  137.7402  154.7979 H   0  0  0  0  0  0  0  0  0  0  0  0
  148.9610  137.9594  152.7763 H   0  0  0  0  0  0  0  0  0  0  0  0
  146.9502  133.6435  161.6478 H   0  0  0  0  0  0  0  0  0  0  0  0
  144.9648  132.4578  162.5262 H   0  0  0  0  0  0  0  0  0  0  0  0
  142.9248  133.7322  163.1638 H   0  0  0  0  0  0  0  0  0  0  0  0
  142.8772  136.2067  162.9084 H   0  0  0  0  0  0  0  0  0  0  0  0
  144.8482  137.4067  162.0275 H   0  0  0  0  0  0  0  0  0  0  0  0
  1  2  2  0  0  0  0
  2  3  1  0  0  0  0
  2 30  1  0  0  0  0
  3  4  1  0  0  0  0
  4  9  1  0  0  0  0
  4  5  2  0  0  0  0
  5  6  1  0  0  0  0
  6  7  2  0  0  0  0
  6 36  1  0  0  0  0
  7  8  1  0  0  0  0
  8 12  1  0  0  0  0
  8  9  2  0  0  0  0
  9 10  1  0  0  0  0
 10 11  2  0  0  0  0
 11 12  1  0  0  0  0
 11 37  1  0  0  0  0
 12 13  1  0  0  0  0
 13 28  1  0  0  0  0
 13 14  1  0  0  0  0
 13 38  1  0  0  0  0
 14 15  1  0  0  0  0
 15 16  1  0  0  0  0
 15 26  1  0  0  0  0
 15 39  1  0  0  0  0
 16 17  1  0  0  0  0
 16 40  1  0  0  0  0
 16 41  1  0  0  0  0
 17 18  1  0  0  0  0
 18 19  2  0  0  0  0
 18 20  1  0  0  0  0
 20 25  1  0  0  0  0
 20 21  2  0  0  0  0
 21 22  1  0  0  0  0
 21 42  1  0  0  0  0
 22 23  2  0  0  0  0
 22 43  1  0  0  0  0
 23 24  1  0  0  0  0
 23 44  1  0  0  0  0
 24 25  2  0  0  0  0
 24 45  1  0  0  0  0
 25 46  1  0  0  0  0
 26 27  1  0  0  0  0
 26 28  1  0  0  0  0
 26 47  1  0  0  0  0
 28 29  1  0  0  0  0
 28 48  1  0  0  0  0
 29 49  1  0  0  0  0
 30 35  1  0  0  0  0
 30 31  2  0  0  0  0
 31 32  1  0  0  0  0
 31 50  1  0  0  0  0
 32 33  2  0  0  0  0
 32 51  1  0  0  0  0
 33 34  1  0  0  0  0
 33 52  1  0  0  0  0
 34 35  2  0  0  0  0
 34 53  1  0  0  0  0
 35 54  1  0  0  0  0
M  CHG  1   3  -1
M  END
> <s_m_source_file>
AV-unprocessed.smi

> <i_m_source_file_index>
34

> <i_lp_mmshare_version>
43012

> <i_f3d_flags>
0

> <s_epik_input>
W2NIXTFbY0hdW2NIXVtjSF1bY0hdYzFDKD1PKVtOSF1jKG5bY0hdbjIpYyhjMjMpbltjSF1uM1tDQEBIXTRPW0NASF0oW0NAQEhdKEYpW0NASF00W09IXSlbQ0gyXU9DKD1PKWM1W2NIXVtjSF1bY0hdW2NIXVtjSF01

> <s_epik_cmdline>
J2VwaWtfcHl0aG9uJywgJy1waCcsICc3LjAnLCAnLXRuJywgJzgnLCAnLW1hJywgJzIwMCcsICctbWV0YWxfYmluZGluZycsICctaW1hZScsICc8aW5maWxlLm1hZT4nLCAnLW9tYWUnLCAnPG91dGZpbGUubWFlPic=

> <r_lp_tautomer_probability>
1

> <r_epik_Ionization_Penalty>
4.33227

> <r_epik_Ionization_Penalty_Charging>
3.41027

> <r_epik_Ionization_Penalty_Neutral>
0.922001

> <r_epik_State_Penalty>
3.41358

> <r_epik_Charging_Adjusted_Penalty>
6.82385

> <i_epik_Tot_Q>
-1

> <i_epik_Tot_abs_Q>
1

> <r_epik_Metal_State_Penalty>
0.496292

> <b_epik_Metal_Only>
1

> <s_epik_Chemistry_Notes>
This compound has an ester and may undergo hydrolysis at high or low pH. This compound contains an acetal/aminal-like group ( X-CH(R)-Y where X, Y are N, S, or O) that may be acid/base labile, releasing an aldehyde.

> <s_lp_Force_Field>
OPLS_2005

> <r_lp_Energy>
39.213

> <b_lp_Chiralities_Consistent>
1

> <s_lp_Variant>
AV-unprocessed.smi:34-28

> <Gold.Version>
5.8.1

> <Gold.Id.Protein>
6NUR|6NUR_protein|mol2

> <Gold.PLP.Fitness>
74.9377

> <Gold.PLP.PLP>
-63.7240

> <Gold.PLP.part.hbond>
-6.0000

> <Gold.PLP.part.metal>
0.0000

> <Gold.PLP.part.buried>
-7.3879

> <Gold.PLP.part.nonpolar>
-48.9156

> <Gold.PLP.part.repulsive>
0.0680

> <Gold.PLP.ligand.clash>
0.0000

> <Gold.PLP.ligand.torsion>
2.0718

> <Gold.PLP.Chemscore.Hbond>
4.5703

> <Gold.PLP.Chemscore.CHOScore>
0.0000

> <Gold.PLP.Chemscore.Metal>
0.0000

> <Gold.Chemscore.Hbonds>
donor molecule, donor type, donor heavy atom, donor atom, acceptor molecule, acceptor atom, score
      L1  H    29    49       P1  7948  1.00
      P1  H  6896  6909       L1     5  1.00
      P1  H  6931  6943       L1     1  0.91
      P1  H  6934  6947       L1     1  0.67
      P1  H  7997  8009       L1    19  0.88

> <Gold.PLP.Chemscore.Internal.Correction>
1.6464

> <Gold.Rescore>
     Score         DG    S(hbond)    S(metal)    S(lipo)     H(rot)  DE(clash)    DE(int)     intcor
     24.91     -28.98       4.17        0.00     140.76       2.69       0.64       3.43       ----

> <Gold.Chemscore.Fitness>
24.9068

> <Gold.Chemscore.DG>
-28.9772

> <Gold.Chemscore.ZeroCoef>
-5.4800

> <Gold.Chemscore.Hbond>
4.1694

> <Gold.Chemscore.Metal>
0.0000

> <Gold.Chemscore.Lipo>
140.7599

> <Gold.Chemscore.Internal_Hbond>
0.0000

> <Gold.Chemscore.DEClash>
0.6420

> <Gold.Chemscore.DEInternal>
3.4284

> <Gold.Chemscore.Rot>
2.6944

> <Gold.Chemscore.Internal.Correction>
   9.000000E+99

> <Gold.Chemscore.Hbonds>
donor molecule, donor type, donor heavy atom, donor atom, acceptor molecule, acceptor atom, score
      L1  H    29    49       P1  7948  0.99
      P1  H  6896  6909       L1     5  0.50
      P1  H  6931  6943       L1     1  0.89
      P1  H  6934  6947       L1     1  0.66
      P1  H  7997  8009       L1    19  0.85

> <Gold.Chemscore.Hbond.Weighted>
-13.9258

> <Gold.Chemscore.Metal.Weighted>
-0.0000

> <Gold.Chemscore.Lipo.Weighted>
-16.4689

> <Gold.Chemscore.Internal_Hbond.Weighted>
0.0000

> <Gold.Chemscore.DEClash.Weighted>
0.6420

> <Gold.Chemscore.DEInternal.Weighted>
3.4284

> <Gold.Chemscore.Rot.Weighted>
6.8975

> <Gold.Chemscore.Internal.Correction.Weighted>
   9.000000E+99

> <Gold.Protein.RotatedTorsions>
[ 6907 6896 6895 6894 ] final   75.40 input  -60.11 | X-H torsion
[ 7974 7965 7964 7962 ] final  -15.39 input  175.53 | X-H torsion
[ 8008 7997 7996 7995 ] final  154.89 input   59.86 | X-H torsion
[ 10167 10162 10161 10158 ] final -109.40 input  -65.29 | X-H torsion
[ 10718 10713 10712 10709 ] final -106.21 input   66.30 | X-H torsion
[ 10763 10752 10751 10750 ] final   52.22 input  -60.55 | X-H torsion
[ 11005 11000 10999 10996 ] final  132.92 input  -57.11 | X-H torsion

> <Gold.Protein.ActiveResidues>
 VAL166  LYS551  ARG553  GLY616  TRP617  ASP618  TYR619  PRO620  LYS621  CYS622 
 ASP623  PHE694  ASN695  SER759  ASP760  ASP761  ALA762  ILE779  LEU786  VAL792 
 PHE793  MET794  SER795  GLU796  ALA797  LYS798  CYS799  TRP800  GLU811  SER814 

> <Gold.Protein.RotatedAtoms>
  152.5024  134.4125  159.9453 H   0  0  0  0  0  0  0  0  0  0  0  0  # atno 6907 bound_to 6896
  151.4094  133.3726  159.2750 H   0  0  0  0  0  0  0  0  0  0  0  0  # atno 6908 bound_to 6896
  150.9303  134.8739  159.7606 H   0  0  0  0  0  0  0  0  0  0  0  0  # atno 6909 bound_to 6896
  146.2034  140.3486  142.8415 H   0  0  0  0  0  0  0  0  0  0  0  0  # atno 7974 bound_to 7965
  156.2507  140.1954  156.6717 H   0  0  0  0  0  0  0  0  0  0  0  0  # atno 8008 bound_to 7997
  154.6388  140.0586  156.9846 H   0  0  0  0  0  0  0  0  0  0  0  0  # atno 8009 bound_to 7997
  155.1595  140.3258  155.4417 H   0  0  0  0  0  0  0  0  0  0  0  0  # atno 8010 bound_to 7997
  140.1557  143.4162  152.1462 H   0  0  0  0  0  0  0  0  0  0  0  0  # atno 10167 bound_to 10162
  156.0380  130.5601  150.7648 H   0  0  0  0  0  0  0  0  0  0  0  0  # atno 10718 bound_to 10713
  152.9788  135.5820  154.4543 H   0  0  0  0  0  0  0  0  0  0  0  0  # atno 10763 bound_to 10752
  154.4127  135.2770  155.2028 H   0  0  0  0  0  0  0  0  0  0  0  0  # atno 10764 bound_to 10752
  154.3811  135.6146  153.5845 H   0  0  0  0  0  0  0  0  0  0  0  0  # atno 10765 bound_to 10752
  139.9819  134.9545  156.9650 H   0  0  0  0  0  0  0  0  0  0  0  0  # atno 11005 bound_to 11000
  144.8735  140.7305  143.6032 LP  0  0  0  0  0  0  0  0  0  0  0  0  # atno 17320 bound_to 7965
  145.3405  139.1733  143.4488 LP  0  0  0  0  0  0  0  0  0  0  0  0  # atno 17321 bound_to 7965
  139.5405  144.7251  151.4751 LP  0  0  0  0  0  0  0  0  0  0  0  0  # atno 17342 bound_to 10162
  140.6674  143.8367  150.6959 LP  0  0  0  0  0  0  0  0  0  0  0  0  # atno 17343 bound_to 10162
  157.5158  131.0928  151.0141 LP  0  0  0  0  0  0  0  0  0  0  0  0  # atno 17370 bound_to 10713
  157.0485  130.5777  149.5366 LP  0  0  0  0  0  0  0  0  0  0  0  0  # atno 17371 bound_to 10713
  140.5079  134.1032  155.7264 LP  0  0  0  0  0  0  0  0  0  0  0  0  # atno 17394 bound_to 11000
  141.1490  133.9003  157.2145 LP  0  0  0  0  0  0  0  0  0  0  0  0  # atno 17395 bound_to 11000

$$$$
