AV-unprocessed.smi:652|AV-procd|sdf|3200|dock6
  -GOLD-   22720 0133D 1   1.00000     0.00000
 Structure written by MMmdl.
 49 50  0  0  0  0  0  0  0  0  3 V2000
  147.8425  136.2734  161.4087 C   0  0  0  0  0  0  0  0  0  0  0  0
  147.1783  136.5973  160.0639 C   0  0  0  0  0  0  0  0  0  0  0  0
  146.5748  135.3418  159.4139 C   0  0  0  0  0  0  0  0  0  0  0  0
  148.1593  137.2133  159.1745 N   0  0  0  0  0  0  0  0  0  0  0  0
  149.2362  136.5996  158.6591 C   0  0  0  0  0  0  0  0  0  0  0  0
  149.5169  135.4218  158.8822 O   0  0  0  0  0  0  0  0  0  0  0  0
  150.1332  137.4435  157.7497 C   0  0  0  0  0  0  0  0  0  0  0  0
  149.4443  137.7950  156.4161 C   0  0  0  0  0  0  0  0  0  0  0  0
  150.3893  138.3819  155.4292 N   0  3  1  0  0  0  0  0  0  0  0  0
  149.7501  138.7465  154.1416 C   0  0  0  0  0  0  0  0  0  0  0  0
  148.9695  140.0669  154.2640 C   0  0  0  0  0  0  0  0  0  0  0  0
  149.8479  141.0916  154.7133 O   0  0  0  0  0  0  0  0  0  0  0  0
  150.3846  140.8266  156.0060 C   0  0  2  0  0  0  0  0  0  0  0  0
  151.2630  142.0206  156.4084 C   0  0  0  0  0  0  0  0  0  0  0  0
  150.4721  143.1032  156.9746 N   0  0  0  0  0  0  0  0  0  0  0  0
  150.9361  143.8099  158.0920 C   0  0  0  0  0  0  0  0  0  0  0  0
  152.1644  143.5482  158.7426 C   0  0  0  0  0  0  0  0  0  0  0  0
  152.5122  144.3371  159.8523 C   0  0  0  0  0  0  0  0  0  0  0  0
  151.6103  145.3415  160.2458 C   0  0  0  0  0  0  0  0  0  0  0  0
  150.4396  145.5750  159.6116 N   0  0  0  0  0  0  0  0  0  0  0  0
  150.1350  144.8028  158.5535 N   0  3  0  0  0  0  0  0  0  0  0  0
  151.2013  139.5155  155.9433 C   0  0  0  0  0  0  0  0  0  0  0  0
  147.1245  135.8391  162.1050 H   0  0  0  0  0  0  0  0  0  0  0  0
  148.2487  137.1722  161.8739 H   0  0  0  0  0  0  0  0  0  0  0  0
  148.6600  135.5617  161.2879 H   0  0  0  0  0  0  0  0  0  0  0  0
  146.3745  137.3110  160.2542 H   0  0  0  0  0  0  0  0  0  0  0  0
  145.8405  134.8761  160.0716 H   0  0  0  0  0  0  0  0  0  0  0  0
  147.3428  134.5991  159.1953 H   0  0  0  0  0  0  0  0  0  0  0  0
  146.0681  135.5826  158.4788 H   0  0  0  0  0  0  0  0  0  0  0  0
  148.0054  138.1823  158.9351 H   0  0  0  0  0  0  0  0  0  0  0  0
  150.4070  138.3451  158.2972 H   0  0  0  0  0  0  0  0  0  0  0  0
  151.0598  136.9018  157.5520 H   0  0  0  0  0  0  0  0  0  0  0  0
  149.0307  136.8754  155.9984 H   0  0  0  0  0  0  0  0  0  0  0  0
  148.5970  138.4612  156.5790 H   0  0  0  0  0  0  0  0  0  0  0  0
  150.5326  138.8600  153.3901 H   0  0  0  0  0  0  0  0  0  0  0  0
  149.1029  137.9430  153.7884 H   0  0  0  0  0  0  0  0  0  0  0  0
  148.5641  140.3528  153.2933 H   0  0  0  0  0  0  0  0  0  0  0  0
  148.1222  139.9672  154.9441 H   0  0  0  0  0  0  0  0  0  0  0  0
  149.5733  140.7279  156.7290 H   0  0  0  0  0  0  0  0  0  0  0  0
  151.9908  141.7010  157.1554 H   0  0  0  0  0  0  0  0  0  0  0  0
  151.8218  142.3823  155.5443 H   0  0  0  0  0  0  0  0  0  0  0  0
  149.7052  143.4766  156.4334 H   0  0  0  0  0  0  0  0  0  0  0  0
  152.8312  142.7658  158.4122 H   0  0  0  0  0  0  0  0  0  0  0  0
  153.4385  144.1793  160.3848 H   0  0  0  0  0  0  0  0  0  0  0  0
  151.8319  145.9753  161.0920 H   0  0  0  0  0  0  0  0  0  0  0  0
  151.6269  139.2795  156.9178 H   0  0  0  0  0  0  0  0  0  0  0  0
  152.0487  139.6508  155.2699 H   0  0  0  0  0  0  0  0  0  0  0  0
  151.0364  137.6372  155.2116 H   0  0  0  0  0  0  0  0  0  0  0  0
  149.2531  144.9738  158.0699 H   0  0  0  0  0  0  0  0  0  0  0  0
  1  2  1  0  0  0  0
  1 23  1  0  0  0  0
  1 24  1  0  0  0  0
  1 25  1  0  0  0  0
  2  3  1  0  0  0  0
  2  4  1  0  0  0  0
  2 26  1  0  0  0  0
  3 27  1  0  0  0  0
  3 28  1  0  0  0  0
  3 29  1  0  0  0  0
  4  5  1  0  0  0  0
  4 30  1  0  0  0  0
  5  6  2  0  0  0  0
  5  7  1  0  0  0  0
  7  8  1  0  0  0  0
  7 31  1  0  0  0  0
  7 32  1  0  0  0  0
  8  9  1  0  0  0  0
  8 33  1  0  0  0  0
  8 34  1  0  0  0  0
  9 22  1  0  0  0  0
  9 10  1  0  0  0  0
  9 48  1  0  0  0  0
 10 11  1  0  0  0  0
 10 35  1  0  0  0  0
 10 36  1  0  0  0  0
 11 12  1  0  0  0  0
 11 37  1  0  0  0  0
 11 38  1  0  0  0  0
 12 13  1  0  0  0  0
 13 14  1  0  0  0  0
 13 22  1  0  0  0  0
 13 39  1  0  0  0  0
 14 15  1  0  0  0  0
 14 40  1  0  0  0  0
 14 41  1  0  0  0  0
 15 16  1  0  0  0  0
 15 42  1  0  0  0  0
 16 21  1  0  0  0  0
 16 17  2  0  0  0  0
 17 18  1  0  0  0  0
 17 43  1  0  0  0  0
 18 19  2  0  0  0  0
 18 44  1  0  0  0  0
 19 20  1  0  0  0  0
 19 45  1  0  0  0  0
 20 21  2  0  0  0  0
 21 49  1  0  0  0  0
 22 46  1  0  0  0  0
 22 47  1  0  0  0  0
M  CHG  1   9   1
M  CHG  1  21   1
M  END
> <s_m_source_file>
AV-unprocessed.smi

> <i_m_source_file_index>
652

> <i_lp_mmshare_version>
43012

> <i_f3d_flags>
0

> <s_epik_input>
W0NIM11bQ0hdKFtDSDNdKVtOSF1DKD1PKVtDSDJdW0NIMl1OMVtDSDJdW0NIMl1PW0NASF0oW0NIMl0xKVtDSDJdW05IXWMyW2NIXVtjSF1bY0hdbm4y

> <s_epik_cmdline>
J2VwaWtfcHl0aG9uJywgJy1waCcsICc3LjAnLCAnLXRuJywgJzgnLCAnLW1hJywgJzIwMCcsICctbWV0YWxfYmluZGluZycsICctaW1hZScsICc8aW5maWxlLm1hZT4nLCAnLW9tYWUnLCAnPG91dGZpbGUubWFlPic=

> <r_lp_tautomer_probability>
0.966961

> <r_epik_Ionization_Penalty>
2.79885

> <r_epik_Ionization_Penalty_Charging>
2.79884

> <r_epik_Ionization_Penalty_Neutral>
3.2567e-06

> <r_epik_State_Penalty>
2.43203

> <r_epik_Charging_Adjusted_Penalty>
5.23087

> <i_epik_Tot_Q>
2

> <i_epik_Tot_abs_Q>
2

> <r_epik_Metal_State_Penalty>
2.43963

> <b_epik_Metal_Only>
0

> <s_lp_Force_Field>
OPLS_2005

> <r_lp_Energy>
31.8364

> <b_lp_Chiralities_Consistent>
1

> <s_lp_Variant>
AV-unprocessed.smi:652-9

> <Gold.Version>
5.8.1

> <Gold.Id.Protein>
6NUR|6NUR_protein|mol2

> <Gold.PLP.Fitness>
52.3427

> <Gold.PLP.PLP>
-37.0040

> <Gold.PLP.part.hbond>
-6.1988

> <Gold.PLP.part.metal>
0.0000

> <Gold.PLP.part.buried>
-3.7184

> <Gold.PLP.part.nonpolar>
-27.7003

> <Gold.PLP.part.repulsive>
0.7586

> <Gold.PLP.ligand.clash>
0.0000

> <Gold.PLP.ligand.torsion>
0.5274

> <Gold.PLP.Chemscore.Hbond>
5.4233

> <Gold.PLP.Chemscore.CHOScore>
0.0000

> <Gold.PLP.Chemscore.Metal>
0.0000

> <Gold.Chemscore.Hbonds>
donor molecule, donor type, donor heavy atom, donor atom, acceptor molecule, acceptor atom, score
      L1  H    15    42       P1  8028  2.00
      L1  H    21    49       P1  8029  2.00
      P1  H  6896  6909       L1     6  1.00
      P1  H  7989  7998       L1    12  0.41

> <Gold.PLP.Chemscore.Internal.Correction>
0.1238

> <Gold.Rescore>
     Score         DG    S(hbond)    S(metal)    S(lipo)     H(rot)  DE(clash)    DE(int)     intcor
     16.95     -18.57       2.62        0.00      88.03       2.33       0.18       1.44       ----

> <Gold.Chemscore.Fitness>
16.9502

> <Gold.Chemscore.DG>
-18.5699

> <Gold.Chemscore.ZeroCoef>
-5.4800

> <Gold.Chemscore.Hbond>
2.6233

> <Gold.Chemscore.Metal>
0.0000

> <Gold.Chemscore.Lipo>
88.0312

> <Gold.Chemscore.Internal_Hbond>
0.0000

> <Gold.Chemscore.DEClash>
0.1755

> <Gold.Chemscore.DEInternal>
1.4443

> <Gold.Chemscore.Rot>
2.3326

> <Gold.Chemscore.Internal.Correction>
   9.000000E+99

> <Gold.Chemscore.Hbonds>
donor molecule, donor type, donor heavy atom, donor atom, acceptor molecule, acceptor atom, score
      L1  H    15    42       P1  8028  0.96
      L1  H    21    49       P1  8029  0.25
      P1  H  6896  6909       L1     6  0.97
      P1  H  7989  7998       L1    12  0.06

> <Gold.Chemscore.Hbond.Weighted>
-8.7617

> <Gold.Chemscore.Metal.Weighted>
-0.0000

> <Gold.Chemscore.Lipo.Weighted>
-10.2996

> <Gold.Chemscore.Internal_Hbond.Weighted>
0.0000

> <Gold.Chemscore.DEClash.Weighted>
0.1755

> <Gold.Chemscore.DEInternal.Weighted>
1.4443

> <Gold.Chemscore.Rot.Weighted>
5.9714

> <Gold.Chemscore.Internal.Correction.Weighted>
   9.000000E+99

> <Gold.Protein.RotatedTorsions>
[ 6907 6896 6895 6894 ] final   55.62 input  -60.11 | X-H torsion
[ 7974 7965 7964 7962 ] final  172.73 input  175.53 | X-H torsion
[ 8008 7997 7996 7995 ] final   47.54 input   59.86 | X-H torsion
[ 10167 10162 10161 10158 ] final   91.63 input  -65.29 | X-H torsion
[ 10718 10713 10712 10709 ] final   84.20 input   66.30 | X-H torsion
[ 10763 10752 10751 10750 ] final   62.39 input  -60.55 | X-H torsion
[ 11005 11000 10999 10996 ] final  121.98 input  -57.11 | X-H torsion

> <Gold.Protein.ActiveResidues>
 VAL166  LYS551  ARG553  GLY616  TRP617  ASP618  TYR619  PRO620  LYS621  CYS622 
 ASP623  PHE694  ASN695  SER759  ASP760  ASP761  ALA762  ILE779  LEU786  VAL792 
 PHE793  MET794  SER795  GLU796  ALA797  LYS798  CYS799  TRP800  GLU811  SER814 

> <Gold.Protein.RotatedAtoms>
  152.3556  134.6945  160.0222 H   0  0  0  0  0  0  0  0  0  0  0  0  # atno 6907 bound_to 6896
  151.7284  133.3311  159.3342 H   0  0  0  0  0  0  0  0  0  0  0  0  # atno 6908 bound_to 6896
  150.7569  134.6319  159.6235 H   0  0  0  0  0  0  0  0  0  0  0  0  # atno 6909 bound_to 6896
  144.7261  139.9542  143.6433 H   0  0  0  0  0  0  0  0  0  0  0  0  # atno 7974 bound_to 7965
  155.3707  140.3423  155.4243 H   0  0  0  0  0  0  0  0  0  0  0  0  # atno 8008 bound_to 7997
  156.1664  140.1617  156.8558 H   0  0  0  0  0  0  0  0  0  0  0  0  # atno 8009 bound_to 7997
  154.5189  140.0771  156.8116 H   0  0  0  0  0  0  0  0  0  0  0  0  # atno 8010 bound_to 7997
  139.8356  144.6666  150.9346 H   0  0  0  0  0  0  0  0  0  0  0  0  # atno 10167 bound_to 10162
  157.6893  131.0123  150.2637 H   0  0  0  0  0  0  0  0  0  0  0  0  # atno 10718 bound_to 10713
  152.9981  135.5466  154.6186 H   0  0  0  0  0  0  0  0  0  0  0  0  # atno 10763 bound_to 10752
  154.5490  135.2825  155.1028 H   0  0  0  0  0  0  0  0  0  0  0  0  # atno 10764 bound_to 10752
  154.2275  135.6439  153.5217 H   0  0  0  0  0  0  0  0  0  0  0  0  # atno 10765 bound_to 10752
  139.9249  134.9640  156.8040 H   0  0  0  0  0  0  0  0  0  0  0  0  # atno 11005 bound_to 11000
  146.0688  139.3677  143.0536 LP  0  0  0  0  0  0  0  0  0  0  0  0  # atno 17320 bound_to 7965
  145.7996  140.9777  143.1006 LP  0  0  0  0  0  0  0  0  0  0  0  0  # atno 17321 bound_to 7965
  140.7803  143.3960  151.1228 LP  0  0  0  0  0  0  0  0  0  0  0  0  # atno 17342 bound_to 10162
  139.7611  143.8634  152.3100 LP  0  0  0  0  0  0  0  0  0  0  0  0  # atno 17343 bound_to 10162
  156.3212  130.3786  149.7574 LP  0  0  0  0  0  0  0  0  0  0  0  0  # atno 17370 bound_to 10713
  156.5143  130.8186  151.3180 LP  0  0  0  0  0  0  0  0  0  0  0  0  # atno 17371 bound_to 10713
  140.6366  133.9856  155.7687 LP  0  0  0  0  0  0  0  0  0  0  0  0  # atno 17394 bound_to 11000
  141.0798  134.0079  157.3402 LP  0  0  0  0  0  0  0  0  0  0  0  0  # atno 17395 bound_to 11000

$$$$
