AV-unprocessed.smi:906|AV-procd|sdf|4105|dock8
  -GOLD-   22720 2 03D 1   1.00000     0.00000
 Structure written by MMmdl.
 48 49  0  0  0  0  0  0  0  0  2 V2000
  149.6996  141.2409  155.6436 C   0  0  0  0  0  0  0  0  0  0  0  0
  148.8328  140.4920  154.6534 C   0  0  0  0  0  0  0  0  0  0  0  0
  147.8548  141.1656  153.8916 C   0  0  0  0  0  0  0  0  0  0  0  0
  147.0780  140.4176  152.9865 C   0  0  0  0  0  0  0  0  0  0  0  0
  147.3040  139.0294  152.8815 C   0  0  0  0  0  0  0  0  0  0  0  0
  146.4775  138.1691  151.9417 C   0  0  0  0  0  0  0  0  0  0  0  0
  145.7649  136.9992  152.6463 C   0  0  0  0  0  0  0  0  0  0  0  0
  146.3461  135.7072  152.2894 N   0  0  0  0  0  0  0  0  0  0  0  0
  145.6976  134.6886  151.6978 C   0  0  0  0  0  0  0  0  0  0  0  0
  144.5024  134.7465  151.4071 O   0  0  0  0  0  0  0  0  0  0  0  0
  146.4868  133.6356  151.3701 N   0  0  0  0  0  0  0  0  0  0  0  0
  147.6592  133.1708  152.1252 C   0  0  0  0  0  0  0  0  0  0  0  0
  147.2919  131.8795  152.8809 C   0  0  0  0  0  0  0  0  0  0  0  0
  146.7598  130.8399  151.9565 N   0  3  0  0  0  0  0  0  0  0  0  0
  146.5043  129.5292  152.6271 C   0  0  1  0  0  0  0  0  0  0  0  0
  145.2934  128.7677  152.0495 C   0  0  0  0  0  0  0  0  0  0  0  0
  147.7776  128.6572  152.6931 C   0  0  0  0  0  0  0  0  0  0  0  0
  147.5347  127.5583  153.4079 F   0  0  0  0  0  0  0  0  0  0  0  0
  148.1256  128.2850  151.4616 F   0  0  0  0  0  0  0  0  0  0  0  0
  148.8010  129.3112  153.2406 F   0  0  0  0  0  0  0  0  0  0  0  0
  145.6608  131.3489  151.0864 C   0  0  0  0  0  0  0  0  0  0  0  0
  146.0806  132.6443  150.3700 C   0  0  0  0  0  0  0  0  0  0  0  0
  148.3074  138.4536  153.6888 C   0  0  0  0  0  0  0  0  0  0  0  0
  149.0587  139.1634  154.5574 N   0  0  0  0  0  0  0  0  0  0  0  0
  149.4696  142.3067  155.6443 H   0  0  0  0  0  0  0  0  0  0  0  0
  150.7537  141.1209  155.3922 H   0  0  0  0  0  0  0  0  0  0  0  0
  149.5404  140.8572  156.6518 H   0  0  0  0  0  0  0  0  0  0  0  0
  147.7011  142.2294  153.9974 H   0  0  0  0  0  0  0  0  0  0  0  0
  146.3159  140.9010  152.3928 H   0  0  0  0  0  0  0  0  0  0  0  0
  145.7418  138.7966  151.4368 H   0  0  0  0  0  0  0  0  0  0  0  0
  147.1310  137.7815  151.1594 H   0  0  0  0  0  0  0  0  0  0  0  0
  145.8479  137.1204  153.7265 H   0  0  0  0  0  0  0  0  0  0  0  0
  144.6971  137.0200  152.4216 H   0  0  0  0  0  0  0  0  0  0  0  0
  147.3324  135.5926  152.4712 H   0  0  0  0  0  0  0  0  0  0  0  0
  148.4741  132.9740  151.4268 H   0  0  0  0  0  0  0  0  0  0  0  0
  148.0507  133.9046  152.8296 H   0  0  0  0  0  0  0  0  0  0  0  0
  148.1772  131.5014  153.3938 H   0  0  0  0  0  0  0  0  0  0  0  0
  146.5499  132.1020  153.6489 H   0  0  0  0  0  0  0  0  0  0  0  0
  146.2624  129.7589  153.6662 H   0  0  0  0  0  0  0  0  0  0  0  0
  145.0642  127.8917  152.6565 H   0  0  0  0  0  0  0  0  0  0  0  0
  145.4792  128.4141  151.0353 H   0  0  0  0  0  0  0  0  0  0  0  0
  144.3981  129.3892  152.0301 H   0  0  0  0  0  0  0  0  0  0  0  0
  145.3865  130.6049  150.3408 H   0  0  0  0  0  0  0  0  0  0  0  0
  144.7705  131.5488  151.6835 H   0  0  0  0  0  0  0  0  0  0  0  0
  145.2709  133.0003  149.7311 H   0  0  0  0  0  0  0  0  0  0  0  0
  146.9180  132.4477  149.6991 H   0  0  0  0  0  0  0  0  0  0  0  0
  148.5066  137.3931  153.6436 H   0  0  0  0  0  0  0  0  0  0  0  0
  147.5269  130.6545  151.3257 H   0  0  0  0  0  0  0  0  0  0  0  0
  1  2  1  0  0  0  0
  1 25  1  0  0  0  0
  1 26  1  0  0  0  0
  1 27  1  0  0  0  0
  2 24  1  0  0  0  0
  2  3  2  0  0  0  0
  3  4  1  0  0  0  0
  3 28  1  0  0  0  0
  4  5  2  0  0  0  0
  4 29  1  0  0  0  0
  5  6  1  0  0  0  0
  5 23  1  0  0  0  0
  6  7  1  0  0  0  0
  6 30  1  0  0  0  0
  6 31  1  0  0  0  0
  7  8  1  0  0  0  0
  7 32  1  0  0  0  0
  7 33  1  0  0  0  0
  8  9  1  0  0  0  0
  8 34  1  0  0  0  0
  9 10  2  0  0  0  0
  9 11  1  0  0  0  0
 11 22  1  0  0  0  0
 11 12  1  0  0  0  0
 12 13  1  0  0  0  0
 12 35  1  0  0  0  0
 12 36  1  0  0  0  0
 13 14  1  0  0  0  0
 13 37  1  0  0  0  0
 13 38  1  0  0  0  0
 14 15  1  0  0  0  0
 14 21  1  0  0  0  0
 14 48  1  0  0  0  0
 15 16  1  0  0  0  0
 15 17  1  0  0  0  0
 15 39  1  0  0  0  0
 16 40  1  0  0  0  0
 16 41  1  0  0  0  0
 16 42  1  0  0  0  0
 17 18  1  0  0  0  0
 17 19  1  0  0  0  0
 17 20  1  0  0  0  0
 21 22  1  0  0  0  0
 21 43  1  0  0  0  0
 21 44  1  0  0  0  0
 22 45  1  0  0  0  0
 22 46  1  0  0  0  0
 23 24  2  0  0  0  0
 23 47  1  0  0  0  0
M  CHG  1  14   1
M  END
> <s_m_source_file>
AV-unprocessed.smi

> <i_m_source_file_index>
906

> <i_lp_mmshare_version>
43012

> <i_f3d_flags>
0

> <s_epik_input>
W0NIM11jMVtjSF1bY0hdYyhbY0hdbjEpW0NIMl1bQ0gyXVtOSF1DKD1PKU4yW0NIMl1bQ0gyXU4oW0NASF0oW0NIM10pQyhGKShGKUYpW0NIMl1bQ0gyXTI=

> <s_epik_cmdline>
J2VwaWtfcHl0aG9uJywgJy1waCcsICc3LjAnLCAnLXRuJywgJzgnLCAnLW1hJywgJzIwMCcsICctbWV0YWxfYmluZGluZycsICctaW1hZScsICc8aW5maWxlLm1hZT4nLCAnLW9tYWUnLCAnPG91dGZpbGUubWFlPic=

> <r_epik_Ionization_Penalty>
2.02136

> <r_epik_Ionization_Penalty_Charging>
1.96814

> <r_epik_Ionization_Penalty_Neutral>
0.0532286

> <r_epik_State_Penalty>
2.14285

> <r_epik_Charging_Adjusted_Penalty>
4.11098

> <i_epik_Tot_Q>
1

> <i_epik_Tot_abs_Q>
1

> <r_epik_Metal_State_Penalty>
2.1406

> <b_epik_Metal_Only>
0

> <s_lp_Force_Field>
OPLS_2005

> <r_lp_Energy>
51.1917

> <b_lp_Chiralities_Consistent>
1

> <s_lp_Variant>
AV-unprocessed.smi:906-6

> <Gold.Version>
5.8.1

> <Gold.Id.Protein>
6NUR|6NUR_protein|mol2

> <Gold.PLP.Fitness>
50.2608

> <Gold.PLP.PLP>
-44.0968

> <Gold.PLP.part.hbond>
-2.0000

> <Gold.PLP.part.metal>
0.0000

> <Gold.PLP.part.buried>
3.0090

> <Gold.PLP.part.nonpolar>
-44.9502

> <Gold.PLP.part.repulsive>
0.3391

> <Gold.PLP.ligand.clash>
0.0000

> <Gold.PLP.ligand.torsion>
1.6341

> <Gold.PLP.Chemscore.Hbond>
1.8960

> <Gold.PLP.Chemscore.CHOScore>
0.9941

> <Gold.PLP.Chemscore.Metal>
0.0000

> <Gold.Chemscore.Hbonds>
donor molecule, donor type, donor heavy atom, donor atom, acceptor molecule, acceptor atom, score
      L1  H     8    34       P1  7948  0.78
      L1  H    14    48       P1 10747  1.00
      L1  C    23    47       P1  7948  0.93

> <Gold.PLP.Chemscore.Internal.Correction>
0.7619

> <Gold.Rescore>
     Score         DG    S(hbond)    S(metal)    S(lipo)     H(rot)  DE(clash)    DE(int)     intcor
     17.41     -20.62       1.91        0.00     110.38       1.62       0.68       2.53       ----

> <Gold.Chemscore.Fitness>
17.4057

> <Gold.Chemscore.DG>
-20.6208

> <Gold.Chemscore.ZeroCoef>
-5.4800

> <Gold.Chemscore.Hbond>
1.9061

> <Gold.Chemscore.Metal>
0.0000

> <Gold.Chemscore.Lipo>
110.3773

> <Gold.Chemscore.Internal_Hbond>
0.0000

> <Gold.Chemscore.DEClash>
0.6834

> <Gold.Chemscore.DEInternal>
2.5317

> <Gold.Chemscore.Rot>
1.6171

> <Gold.Chemscore.Internal.Correction>
   9.000000E+99

> <Gold.Chemscore.Hbonds>
donor molecule, donor type, donor heavy atom, donor atom, acceptor molecule, acceptor atom, score
      L1  H     8    34       P1  7948  0.78
      L1  H    14    48       P1 10747  1.00

> <Gold.Chemscore.Hbond.Weighted>
-6.3664

> <Gold.Chemscore.Metal.Weighted>
-0.0000

> <Gold.Chemscore.Lipo.Weighted>
-12.9141

> <Gold.Chemscore.Internal_Hbond.Weighted>
0.0000

> <Gold.Chemscore.DEClash.Weighted>
0.6834

> <Gold.Chemscore.DEInternal.Weighted>
2.5317

> <Gold.Chemscore.Rot.Weighted>
4.1398

> <Gold.Chemscore.Internal.Correction.Weighted>
   9.000000E+99

> <Gold.Protein.RotatedTorsions>
[ 6907 6896 6895 6894 ] final   36.15 input  -60.11 | X-H torsion
[ 7974 7965 7964 7962 ] final   91.76 input  175.53 | X-H torsion
[ 8008 7997 7996 7995 ] final -126.48 input   59.86 | X-H torsion
[ 10167 10162 10161 10158 ] final  -80.90 input  -65.29 | X-H torsion
[ 10718 10713 10712 10709 ] final  -52.96 input   66.30 | X-H torsion
[ 10763 10752 10751 10750 ] final -150.03 input  -60.55 | X-H torsion
[ 11005 11000 10999 10996 ] final  109.43 input  -57.11 | X-H torsion

> <Gold.Protein.ActiveResidues>
 VAL166  LYS551  ARG553  GLY616  TRP617  ASP618  TYR619  PRO620  LYS621  CYS622 
 ASP623  PHE694  ASN695  SER759  ASP760  ASP761  ALA762  ILE779  LEU786  VAL792 
 PHE793  MET794  SER795  GLU796  ALA797  LYS798  CYS799  TRP800  GLU811  SER814 

> <Gold.Protein.RotatedAtoms>
  152.1258  134.9171  160.0560 H   0  0  0  0  0  0  0  0  0  0  0  0  # atno 6907 bound_to 6896
  152.0295  133.3926  159.4299 H   0  0  0  0  0  0  0  0  0  0  0  0  # atno 6908 bound_to 6896
  150.6852  134.3458  159.4931 H   0  0  0  0  0  0  0  0  0  0  0  0  # atno 6909 bound_to 6896
  145.5014  139.2276  143.2775 H   0  0  0  0  0  0  0  0  0  0  0  0  # atno 7974 bound_to 7965
  155.2304  140.0425  157.2961 H   0  0  0  0  0  0  0  0  0  0  0  0  # atno 8008 bound_to 7997
  154.5892  140.2422  155.7915 H   0  0  0  0  0  0  0  0  0  0  0  0  # atno 8009 bound_to 7997
  156.2247  140.2958  156.0047 H   0  0  0  0  0  0  0  0  0  0  0  0  # atno 8010 bound_to 7997
  140.4461  143.2498  151.8556 H   0  0  0  0  0  0  0  0  0  0  0  0  # atno 10167 bound_to 10162
  156.1576  130.4150  149.9845 H   0  0  0  0  0  0  0  0  0  0  0  0  # atno 10718 bound_to 10713
  154.8143  135.3294  154.7220 H   0  0  0  0  0  0  0  0  0  0  0  0  # atno 10763 bound_to 10752
  153.7864  135.6914  153.4883 H   0  0  0  0  0  0  0  0  0  0  0  0  # atno 10764 bound_to 10752
  153.1946  135.4538  155.0139 H   0  0  0  0  0  0  0  0  0  0  0  0  # atno 10765 bound_to 10752
  139.8862  134.9458  156.6124 H   0  0  0  0  0  0  0  0  0  0  0  0  # atno 11005 bound_to 11000
  146.2224  140.5815  142.9011 LP  0  0  0  0  0  0  0  0  0  0  0  0  # atno 17320 bound_to 7965
  144.7778  140.5776  143.6626 LP  0  0  0  0  0  0  0  0  0  0  0  0  # atno 17321 bound_to 7965
  139.4793  144.5174  151.8849 LP  0  0  0  0  0  0  0  0  0  0  0  0  # atno 17342 bound_to 10162
  140.4262  144.2177  150.5887 LP  0  0  0  0  0  0  0  0  0  0  0  0  # atno 17343 bound_to 10162
  156.7684  130.9177  151.3643 LP  0  0  0  0  0  0  0  0  0  0  0  0  # atno 17370 bound_to 10713
  157.6707  130.9048  150.0034 LP  0  0  0  0  0  0  0  0  0  0  0  0  # atno 17371 bound_to 10713
  140.7801  133.8667  155.8561 LP  0  0  0  0  0  0  0  0  0  0  0  0  # atno 17394 bound_to 11000
  140.9768  134.1459  157.4529 LP  0  0  0  0  0  0  0  0  0  0  0  0  # atno 17395 bound_to 11000

$$$$
