AV-unprocessed.smi:1338|AV-procd|sdf|5500|dock5
  -GOLD-   22720 5 83D 1   1.00000     0.00000
 Structure written by MMmdl.
 40 41  0  0  0  0  0  0  0  0  1 V2000
  147.6642  138.7144  152.6388 C   0  0  0  0  0  0  0  0  0  0  0  0
  148.4413  138.6120  153.9332 C   0  0  0  0  0  0  0  0  0  0  0  0
  149.8138  138.5577  153.7559 N   0  0  0  0  0  0  0  0  0  0  0  0
  150.6097  138.4720  154.8847 C   0  0  0  0  0  0  0  0  0  0  0  0
  152.1014  138.4251  154.6017 C   0  0  0  0  0  0  0  0  0  0  0  0
  150.0648  138.4350  156.1274 C   0  0  0  0  0  0  0  0  0  0  0  0
  150.9081  138.3407  157.3975 C   0  0  0  0  0  0  0  0  0  0  0  0
  151.8665  139.5100  157.6306 C   0  0  0  0  0  0  0  0  0  0  0  0
  153.0695  139.3713  157.4112 O   0  0  0  0  0  0  0  0  0  0  0  0
  151.3214  140.6564  158.0663 N   0  0  0  0  0  0  0  0  0  0  0  0
  152.0522  141.8925  158.3279 C   0  0  0  0  0  0  0  0  0  0  0  0
  152.0197  142.2355  159.8317 C   0  0  0  0  0  0  0  0  0  0  0  0
  152.7196  143.5741  160.1176 C   0  0  0  0  0  0  0  0  0  0  0  0
  152.1143  144.7110  159.2793 C   0  0  0  0  0  0  0  0  0  0  0  0
  152.1499  144.3744  157.7802 C   0  0  0  0  0  0  0  0  0  0  0  0
  151.4482  143.0370  157.4923 C   0  0  0  0  0  0  0  0  0  0  0  0
  148.5885  138.4834  156.2526 C   0  0  0  0  0  0  0  0  0  0  0  0
  148.0327  138.4360  157.3491 O   0  0  0  0  0  0  0  0  0  0  0  0
  147.8272  138.5808  155.0767 N   0  0  0  0  0  0  0  0  0  0  0  0
  150.2600  138.5820  152.8503 H   0  0  0  0  0  0  0  0  0  0  0  0
  146.6002  138.8552  152.8331 H   0  0  0  0  0  0  0  0  0  0  0  0
  147.7861  137.8044  152.0507 H   0  0  0  0  0  0  0  0  0  0  0  0
  148.0161  139.5604  152.0476 H   0  0  0  0  0  0  0  0  0  0  0  0
  152.6066  139.2689  155.0720 H   0  0  0  0  0  0  0  0  0  0  0  0
  152.3088  138.4674  153.5317 H   0  0  0  0  0  0  0  0  0  0  0  0
  152.5344  137.5023  154.9886 H   0  0  0  0  0  0  0  0  0  0  0  0
  151.4891  137.4179  157.4071 H   0  0  0  0  0  0  0  0  0  0  0  0
  150.2370  138.2491  158.2522 H   0  0  0  0  0  0  0  0  0  0  0  0
  150.3237  140.6770  158.2205 H   0  0  0  0  0  0  0  0  0  0  0  0
  153.0914  141.7640  158.0188 H   0  0  0  0  0  0  0  0  0  0  0  0
  150.9860  142.2877  160.1768 H   0  0  0  0  0  0  0  0  0  0  0  0
  152.4980  141.4440  160.4098 H   0  0  0  0  0  0  0  0  0  0  0  0
  152.6443  143.8137  161.1787 H   0  0  0  0  0  0  0  0  0  0  0  0
  153.7837  143.4835  159.8959 H   0  0  0  0  0  0  0  0  0  0  0  0
  151.0836  144.8858  159.5906 H   0  0  0  0  0  0  0  0  0  0  0  0
  152.6556  145.6390  159.4653 H   0  0  0  0  0  0  0  0  0  0  0  0
  151.6764  145.1732  157.2087 H   0  0  0  0  0  0  0  0  0  0  0  0
  153.1855  144.3237  157.4416 H   0  0  0  0  0  0  0  0  0  0  0  0
  151.5243  142.8048  156.4293 H   0  0  0  0  0  0  0  0  0  0  0  0
  150.3840  143.1343  157.7120 H   0  0  0  0  0  0  0  0  0  0  0  0
  1 21  1  0  0  0  0
  1 22  1  0  0  0  0
  1 23  1  0  0  0  0
  1  2  1  0  0  0  0
  2  3  1  0  0  0  0
  2 19  2  0  0  0  0
  3  4  1  0  0  0  0
  3 20  1  0  0  0  0
  4  6  2  0  0  0  0
  4  5  1  0  0  0  0
  5 24  1  0  0  0  0
  5 25  1  0  0  0  0
  5 26  1  0  0  0  0
  6 17  1  0  0  0  0
  6  7  1  0  0  0  0
  7  8  1  0  0  0  0
  7 27  1  0  0  0  0
  7 28  1  0  0  0  0
  8  9  2  0  0  0  0
  8 10  1  0  0  0  0
 10 11  1  0  0  0  0
 10 29  1  0  0  0  0
 11 16  1  0  0  0  0
 11 12  1  0  0  0  0
 11 30  1  0  0  0  0
 12 13  1  0  0  0  0
 12 31  1  0  0  0  0
 12 32  1  0  0  0  0
 13 14  1  0  0  0  0
 13 33  1  0  0  0  0
 13 34  1  0  0  0  0
 14 15  1  0  0  0  0
 14 35  1  0  0  0  0
 14 36  1  0  0  0  0
 15 16  1  0  0  0  0
 15 37  1  0  0  0  0
 15 38  1  0  0  0  0
 16 39  1  0  0  0  0
 16 40  1  0  0  0  0
 17 18  2  0  0  0  0
 17 19  1  0  0  0  0
M  END
> <s_m_source_file>
AV-unprocessed.smi

> <i_m_source_file_index>
1338

> <i_lp_mmshare_version>
43012

> <i_f3d_flags>
0

> <s_epik_input>
W0NIM11jMW5jKFtDSDNdKWMoYyg9TylbbkhdMSlbQ0gyXUMoPU8pW05IXVtDSF0yW0NIMl1bQ0gyXVtDSDJdW0NIMl1bQ0gyXTI=

> <s_epik_cmdline>
J2VwaWtfcHl0aG9uJywgJy1waCcsICc3LjAnLCAnLXRuJywgJzgnLCAnLW1hJywgJzIwMCcsICctbWV0YWxfYmluZGluZycsICctaW1hZScsICc8aW5maWxlLm1hZT4nLCAnLW9tYWUnLCAnPG91dGZpbGUubWFlPic=

> <r_lp_tautomer_probability>
0.156392

> <r_epik_Ionization_Penalty>
0.0136832

> <r_epik_Ionization_Penalty_Charging>
0.0135532

> <r_epik_Ionization_Penalty_Neutral>
0.000130025

> <r_epik_State_Penalty>
1.15342

> <r_epik_Charging_Adjusted_Penalty>
1.16697

> <i_epik_Tot_Q>
0

> <i_epik_Tot_abs_Q>
0

> <r_epik_Metal_State_Penalty>
1.31441

> <b_epik_Metal_Only>
0

> <s_lp_Force_Field>
OPLS_2005

> <r_lp_Energy>
13.63

> <b_lp_Chiralities_Consistent>
1

> <s_lp_Variant>
AV-unprocessed.smi:1338-2

> <Gold.Version>
5.8.1

> <Gold.Id.Protein>
6NUR|6NUR_protein|mol2

> <Gold.PLP.Fitness>
40.0767

> <Gold.PLP.PLP>
-34.8044

> <Gold.PLP.part.hbond>
-2.3977

> <Gold.PLP.part.metal>
0.0000

> <Gold.PLP.part.buried>
-4.5327

> <Gold.PLP.part.nonpolar>
-27.5500

> <Gold.PLP.part.repulsive>
0.1919

> <Gold.PLP.ligand.clash>
0.0000

> <Gold.PLP.ligand.torsion>
0.2341

> <Gold.PLP.Chemscore.Hbond>
1.9120

> <Gold.PLP.Chemscore.CHOScore>
0.0000

> <Gold.PLP.Chemscore.Metal>
0.0000

> <Gold.Chemscore.Hbonds>
donor molecule, donor type, donor heavy atom, donor atom, acceptor molecule, acceptor atom, score
      L1  H     3    20       P1  7957  0.16
      P1  H  7997  8010       L1     9  1.00

> <Gold.PLP.Chemscore.Internal.Correction>
0.0045

> <Gold.Rescore>
     Score         DG    S(hbond)    S(metal)    S(lipo)     H(rot)  DE(clash)    DE(int)     intcor
     19.46     -19.66       1.99        0.00      96.94       1.49       0.03       0.17       ----

> <Gold.Chemscore.Fitness>
19.4592

> <Gold.Chemscore.DG>
-19.6603

> <Gold.Chemscore.ZeroCoef>
-5.4800

> <Gold.Chemscore.Hbond>
1.9950

> <Gold.Chemscore.Metal>
0.0000

> <Gold.Chemscore.Lipo>
96.9430

> <Gold.Chemscore.Internal_Hbond>
0.0000

> <Gold.Chemscore.DEClash>
0.0343

> <Gold.Chemscore.DEInternal>
0.1668

> <Gold.Chemscore.Rot>
1.4942

> <Gold.Chemscore.Internal.Correction>
   9.000000E+99

> <Gold.Chemscore.Hbonds>
donor molecule, donor type, donor heavy atom, donor atom, acceptor molecule, acceptor atom, score
      L1  H     3    20       P1  7957  0.06
      P1  H  7997  8010       L1     9  1.00

> <Gold.Chemscore.Hbond.Weighted>
-6.6632

> <Gold.Chemscore.Metal.Weighted>
-0.0000

> <Gold.Chemscore.Lipo.Weighted>
-11.3423

> <Gold.Chemscore.Internal_Hbond.Weighted>
0.0000

> <Gold.Chemscore.DEClash.Weighted>
0.0343

> <Gold.Chemscore.DEInternal.Weighted>
0.1668

> <Gold.Chemscore.Rot.Weighted>
3.8253

> <Gold.Chemscore.Internal.Correction.Weighted>
   9.000000E+99

> <Gold.Protein.RotatedTorsions>
[ 6907 6896 6895 6894 ] final   42.41 input  -60.11 | X-H torsion
[ 7974 7965 7964 7962 ] final  106.09 input  175.53 | X-H torsion
[ 8008 7997 7996 7995 ] final   60.67 input   59.86 | X-H torsion
[ 10167 10162 10161 10158 ] final   57.43 input  -65.29 | X-H torsion
[ 10718 10713 10712 10709 ] final  112.70 input   66.30 | X-H torsion
[ 10763 10752 10751 10750 ] final  103.32 input  -60.55 | X-H torsion
[ 11005 11000 10999 10996 ] final  -20.23 input  -57.11 | X-H torsion

> <Gold.Protein.ActiveResidues>
 VAL166  LYS551  ARG553  GLY616  TRP617  ASP618  TYR619  PRO620  LYS621  CYS622 
 ASP623  PHE694  ASN695  SER759  ASP760  ASP761  ALA762  ILE779  LEU786  VAL792 
 PHE793  MET794  SER795  GLU796  ALA797  LYS798  CYS799  TRP800  GLU811  SER814 

> <Gold.Protein.RotatedAtoms>
  152.2075  134.8532  160.0500 H   0  0  0  0  0  0  0  0  0  0  0  0  # atno 6907 bound_to 6896
  151.9363  133.3620  159.3957 H   0  0  0  0  0  0  0  0  0  0  0  0  # atno 6908 bound_to 6896
  150.6968  134.4410  159.5336 H   0  0  0  0  0  0  0  0  0  0  0  0  # atno 6909 bound_to 6896
  145.3111  139.2540  143.3762 H   0  0  0  0  0  0  0  0  0  0  0  0  # atno 7974 bound_to 7965
  155.5860  140.3492  155.4553 H   0  0  0  0  0  0  0  0  0  0  0  0  # atno 8008 bound_to 7997
  156.0337  140.1280  157.0256 H   0  0  0  0  0  0  0  0  0  0  0  0  # atno 8009 bound_to 7997
  154.4363  140.1038  156.6122 H   0  0  0  0  0  0  0  0  0  0  0  0  # atno 8010 bound_to 7997
  140.1981  144.4016  150.6541 H   0  0  0  0  0  0  0  0  0  0  0  0  # atno 10167 bound_to 10162
  157.6378  131.0972  150.6933 H   0  0  0  0  0  0  0  0  0  0  0  0  # atno 10718 bound_to 10713
  153.3511  135.3981  155.1647 H   0  0  0  0  0  0  0  0  0  0  0  0  # atno 10763 bound_to 10752
  154.8662  135.3657  154.5221 H   0  0  0  0  0  0  0  0  0  0  0  0  # atno 10764 bound_to 10752
  153.5673  135.7080  153.5580 H   0  0  0  0  0  0  0  0  0  0  0  0  # atno 10765 bound_to 10752
  140.8444  133.7902  155.9896 H   0  0  0  0  0  0  0  0  0  0  0  0  # atno 11005 bound_to 11000
  146.3117  140.3647  142.8668 LP  0  0  0  0  0  0  0  0  0  0  0  0  # atno 17320 bound_to 7965
  144.9015  140.7648  143.5864 LP  0  0  0  0  0  0  0  0  0  0  0  0  # atno 17321 bound_to 7965
  140.6409  143.2203  151.6291 LP  0  0  0  0  0  0  0  0  0  0  0  0  # atno 17342 bound_to 10162
  139.5228  144.3151  152.0959 LP  0  0  0  0  0  0  0  0  0  0  0  0  # atno 17343 bound_to 10162
  156.7262  130.4695  149.5511 LP  0  0  0  0  0  0  0  0  0  0  0  0  # atno 17370 bound_to 10713
  156.1633  130.6388  151.0746 LP  0  0  0  0  0  0  0  0  0  0  0  0  # atno 17371 bound_to 10713
  140.8859  134.2554  157.5120 LP  0  0  0  0  0  0  0  0  0  0  0  0  # atno 17394 bound_to 11000
  139.8703  134.9638  156.4474 LP  0  0  0  0  0  0  0  0  0  0  0  0  # atno 17395 bound_to 11000

$$$$
