AV-unprocessed.smi:2866|AV-procd|sdf|11022|dock3
  -GOLD-   2272015483D 1   1.00000     0.00000
 Structure written by MMmdl.
 42 44  0  0  0  0  0  0  0  0  2 V2000
  151.6029  144.5817  160.8356 C   0  0  0  0  0  0  0  0  0  0  0  0
  151.5947  143.4082  159.8707 C   0  0  0  0  0  0  0  0  0  0  0  0
  150.9138  143.5512  158.6406 C   0  0  0  0  0  0  0  0  0  0  0  0
  150.9256  142.4612  157.7786 C   0  0  0  0  0  0  0  0  0  0  0  0
  150.3609  142.2910  156.5129 N   0  3  0  0  0  0  0  0  0  0  0  0
  150.6412  141.0397  156.0547 C   0  0  0  0  0  0  0  0  0  0  0  0
  151.3768  140.4082  157.0094 N   0  0  0  0  0  0  0  0  0  0  0  0
  151.9288  139.0463  157.0147 C   0  0  0  0  0  0  0  0  0  0  0  0
  150.8636  137.9716  157.3201 C   0  0  1  0  0  0  0  0  0  0  0  0
  151.3988  136.6810  157.1067 O   0  0  0  0  0  0  0  0  0  0  0  0
  150.3232  138.0351  158.7628 C   0  0  0  0  0  0  0  0  0  0  0  0
  149.2275  137.1124  159.0016 N   0  0  0  0  0  0  0  0  0  0  0  0
  148.5982  136.2781  158.1034 C   0  0  0  0  0  0  0  0  0  0  0  0
  147.6174  135.6158  158.7840 C   0  0  0  0  0  0  0  0  0  0  0  0
  147.7139  136.1224  160.1128 C   0  0  0  0  0  0  0  0  0  0  0  0
  146.8839  135.7584  161.3154 C   0  0  0  0  0  0  0  0  0  0  0  0
  147.2878  136.4473  162.3827 F   0  0  0  0  0  0  0  0  0  0  0  0
  145.6023  136.0413  161.0818 F   0  0  0  0  0  0  0  0  0  0  0  0
  147.0016  134.4563  161.5751 F   0  0  0  0  0  0  0  0  0  0  0  0
  148.6812  137.0219  160.2329 N   0  0  0  0  0  0  0  0  0  0  0  0
  151.5804  141.2571  158.1039 C   0  0  0  0  0  0  0  0  0  0  0  0
  152.2566  141.1001  159.3117 C   0  0  0  0  0  0  0  0  0  0  0  0
  152.2580  142.1981  160.2015 C   0  0  0  0  0  0  0  0  0  0  0  0
  152.9884  142.0564  161.5261 C   0  0  0  0  0  0  0  0  0  0  0  0
  151.0660  145.4383  160.4266 H   0  0  0  0  0  0  0  0  0  0  0  0
  152.6246  144.8999  161.0447 H   0  0  0  0  0  0  0  0  0  0  0  0
  151.1253  144.3068  161.7762 H   0  0  0  0  0  0  0  0  0  0  0  0
  150.4072  144.4695  158.3817 H   0  0  0  0  0  0  0  0  0  0  0  0
  150.3350  140.6227  155.1058 H   0  0  0  0  0  0  0  0  0  0  0  0
  152.4262  138.8523  156.0641 H   0  0  0  0  0  0  0  0  0  0  0  0
  152.7107  139.0303  157.7746 H   0  0  0  0  0  0  0  0  0  0  0  0
  150.0314  138.0934  156.6255 H   0  0  0  0  0  0  0  0  0  0  0  0
  151.7939  136.6595  156.2487 H   0  0  0  0  0  0  0  0  0  0  0  0
  151.1178  137.8107  159.4759 H   0  0  0  0  0  0  0  0  0  0  0  0
  149.9761  139.0443  158.9891 H   0  0  0  0  0  0  0  0  0  0  0  0
  148.8975  136.2239  157.0669 H   0  0  0  0  0  0  0  0  0  0  0  0
  146.9306  134.8808  158.3913 H   0  0  0  0  0  0  0  0  0  0  0  0
  152.7668  140.1820  159.5630 H   0  0  0  0  0  0  0  0  0  0  0  0
  153.4472  141.0723  161.6258 H   0  0  0  0  0  0  0  0  0  0  0  0
  152.2982  142.1882  162.3598 H   0  0  0  0  0  0  0  0  0  0  0  0
  153.7797  142.8018  161.6091 H   0  0  0  0  0  0  0  0  0  0  0  0
  149.8235  142.9764  155.9973 H   0  0  0  0  0  0  0  0  0  0  0  0
  1  2  1  0  0  0  0
  1 25  1  0  0  0  0
  1 26  1  0  0  0  0
  1 27  1  0  0  0  0
  2 23  1  0  0  0  0
  2  3  2  0  0  0  0
  3  4  1  0  0  0  0
  3 28  1  0  0  0  0
  4 21  2  0  0  0  0
  4  5  1  0  0  0  0
  5  6  2  0  0  0  0
  5 42  1  0  0  0  0
  6  7  1  0  0  0  0
  6 29  1  0  0  0  0
  7  8  1  0  0  0  0
  7 21  1  0  0  0  0
  8  9  1  0  0  0  0
  8 30  1  0  0  0  0
  8 31  1  0  0  0  0
  9 10  1  0  0  0  0
  9 11  1  0  0  0  0
  9 32  1  0  0  0  0
 10 33  1  0  0  0  0
 11 12  1  0  0  0  0
 11 34  1  0  0  0  0
 11 35  1  0  0  0  0
 12 20  1  0  0  0  0
 12 13  1  0  0  0  0
 13 14  2  0  0  0  0
 13 36  1  0  0  0  0
 14 15  1  0  0  0  0
 14 37  1  0  0  0  0
 15 16  1  0  0  0  0
 15 20  2  0  0  0  0
 16 17  1  0  0  0  0
 16 18  1  0  0  0  0
 16 19  1  0  0  0  0
 21 22  1  0  0  0  0
 22 23  2  0  0  0  0
 22 38  1  0  0  0  0
 23 24  1  0  0  0  0
 24 39  1  0  0  0  0
 24 40  1  0  0  0  0
 24 41  1  0  0  0  0
M  CHG  1   5   1
M  END
> <s_m_source_file>
AV-unprocessed.smi

> <i_m_source_file_index>
2866

> <i_lp_mmshare_version>
43012

> <i_f3d_flags>
0

> <s_epik_input>
W0NIM11jKFtjSF0xKWMoW0NIM10pW2NIXWMoYzEyKW4oW2NIXW4yKVtDSDJdW0NASF0oW09IXSlbQ0gyXW4zW2NIXVtjSF1jKG4zKUMoRikoRilG

> <s_epik_cmdline>
J2VwaWtfcHl0aG9uJywgJy1waCcsICc3LjAnLCAnLXRuJywgJzgnLCAnLW1hJywgJzIwMCcsICctbWV0YWxfYmluZGluZycsICctaW1hZScsICc8aW5maWxlLm1hZT4nLCAnLW9tYWUnLCAnPG91dGZpbGUubWFlPic=

> <r_lp_tautomer_probability>
1

> <r_epik_Ionization_Penalty>
1.09214

> <r_epik_Ionization_Penalty_Charging>
1.09214

> <r_epik_Ionization_Penalty_Neutral>
2.80082e-06

> <r_epik_State_Penalty>
1.14852

> <r_epik_Charging_Adjusted_Penalty>
2.24066

> <i_epik_Tot_Q>
1

> <i_epik_Tot_abs_Q>
1

> <r_epik_Metal_State_Penalty>
1.23687

> <b_epik_Metal_Only>
0

> <s_lp_Force_Field>
OPLS_2005

> <r_lp_Energy>
17.0764

> <b_lp_Chiralities_Consistent>
1

> <s_lp_Variant>
AV-unprocessed.smi:2866-4

> <Gold.Version>
5.8.1

> <Gold.Id.Protein>
6NUR|6NUR_protein|mol2

> <Gold.PLP.Fitness>
60.0661

> <Gold.PLP.PLP>
-52.5776

> <Gold.PLP.part.hbond>
-2.3139

> <Gold.PLP.part.metal>
0.0000

> <Gold.PLP.part.buried>
-6.7007

> <Gold.PLP.part.nonpolar>
-44.2444

> <Gold.PLP.part.repulsive>
0.0680

> <Gold.PLP.ligand.clash>
0.0061

> <Gold.PLP.ligand.torsion>
0.2913

> <Gold.PLP.Chemscore.Hbond>
2.6720

> <Gold.PLP.Chemscore.CHOScore>
0.0000

> <Gold.PLP.Chemscore.Metal>
0.0000

> <Gold.Chemscore.Hbonds>
donor molecule, donor type, donor heavy atom, donor atom, acceptor molecule, acceptor atom, score
      L1  H     5    42       P1  8028  2.00
      P1  H  6931  6943       L1    20  0.57

> <Gold.PLP.Chemscore.Internal.Correction>
0.0612

> <Gold.Rescore>
     Score         DG    S(hbond)    S(metal)    S(lipo)     H(rot)  DE(clash)    DE(int)     intcor
     17.34     -17.64       1.67        0.00     110.64       2.48       0.00       0.30       ----

> <Gold.Chemscore.Fitness>
17.3371

> <Gold.Chemscore.DG>
-17.6387

> <Gold.Chemscore.ZeroCoef>
-5.4800

> <Gold.Chemscore.Hbond>
1.6672

> <Gold.Chemscore.Metal>
0.0000

> <Gold.Chemscore.Lipo>
110.6439

> <Gold.Chemscore.Internal_Hbond>
0.0000

> <Gold.Chemscore.DEClash>
0.0000

> <Gold.Chemscore.DEInternal>
0.3016

> <Gold.Chemscore.Rot>
2.4825

> <Gold.Chemscore.Internal.Correction>
   9.000000E+99

> <Gold.Chemscore.Hbonds>
donor molecule, donor type, donor heavy atom, donor atom, acceptor molecule, acceptor atom, score
      L1  H     5    42       P1  8028  0.94
      P1  H  6931  6943       L1    20  0.57

> <Gold.Chemscore.Hbond.Weighted>
-5.5685

> <Gold.Chemscore.Metal.Weighted>
-0.0000

> <Gold.Chemscore.Lipo.Weighted>
-12.9453

> <Gold.Chemscore.Internal_Hbond.Weighted>
0.0000

> <Gold.Chemscore.DEClash.Weighted>
0.0000

> <Gold.Chemscore.DEInternal.Weighted>
0.3016

> <Gold.Chemscore.Rot.Weighted>
6.3551

> <Gold.Chemscore.Internal.Correction.Weighted>
   9.000000E+99

> <Gold.Protein.RotatedTorsions>
[ 6907 6896 6895 6894 ] final  108.07 input  -60.11 | X-H torsion
[ 7974 7965 7964 7962 ] final  -12.97 input  175.53 | X-H torsion
[ 8008 7997 7996 7995 ] final  167.68 input   59.86 | X-H torsion
[ 10167 10162 10161 10158 ] final   23.09 input  -65.29 | X-H torsion
[ 10718 10713 10712 10709 ] final    5.06 input   66.30 | X-H torsion
[ 10763 10752 10751 10750 ] final   -2.85 input  -60.55 | X-H torsion
[ 11005 11000 10999 10996 ] final   91.15 input  -57.11 | X-H torsion

> <Gold.Protein.ActiveResidues>
 VAL166  LYS551  ARG553  GLY616  TRP617  ASP618  TYR619  PRO620  LYS621  CYS622 
 ASP623  PHE694  ASN695  SER759  ASP760  ASP761  ALA762  ILE779  LEU786  VAL792 
 PHE793  MET794  SER795  GLU796  ALA797  LYS798  CYS799  TRP800  GLU811  SER814 

> <Gold.Protein.RotatedAtoms>
  152.5128  133.9142  159.7502 H   0  0  0  0  0  0  0  0  0  0  0  0  # atno 6907 bound_to 6896
  150.9529  133.6521  159.2775 H   0  0  0  0  0  0  0  0  0  0  0  0  # atno 6908 bound_to 6896
  151.3793  135.0942  159.9544 H   0  0  0  0  0  0  0  0  0  0  0  0  # atno 6909 bound_to 6896
  146.2132  140.3135  142.8384 H   0  0  0  0  0  0  0  0  0  0  0  0  # atno 7974 bound_to 7965
  156.1613  140.1610  156.8607 H   0  0  0  0  0  0  0  0  0  0  0  0  # atno 8008 bound_to 7997
  154.5164  140.0788  156.8124 H   0  0  0  0  0  0  0  0  0  0  0  0  # atno 8009 bound_to 7997
  155.3701  140.3400  155.4245 H   0  0  0  0  0  0  0  0  0  0  0  0  # atno 8010 bound_to 7997
  140.5296  143.9863  150.6459 H   0  0  0  0  0  0  0  0  0  0  0  0  # atno 10167 bound_to 10162
  156.9019  130.5724  149.5648 H   0  0  0  0  0  0  0  0  0  0  0  0  # atno 10718 bound_to 10713
  153.3636  135.6991  153.6693 H   0  0  0  0  0  0  0  0  0  0  0  0  # atno 10763 bound_to 10752
  153.5372  135.3580  155.2702 H   0  0  0  0  0  0  0  0  0  0  0  0  # atno 10764 bound_to 10752
  154.8671  135.4195  154.2898 H   0  0  0  0  0  0  0  0  0  0  0  0  # atno 10765 bound_to 10752
  139.8843  134.8657  156.3387 H   0  0  0  0  0  0  0  0  0  0  0  0  # atno 11005 bound_to 11000
  144.8971  140.7596  143.5890 LP  0  0  0  0  0  0  0  0  0  0  0  0  # atno 17320 bound_to 7965
  145.3060  139.1834  143.4664 LP  0  0  0  0  0  0  0  0  0  0  0  0  # atno 17321 bound_to 7965
  140.3235  143.3122  152.0760 LP  0  0  0  0  0  0  0  0  0  0  0  0  # atno 17342 bound_to 10162
  139.4950  144.6558  151.6576 LP  0  0  0  0  0  0  0  0  0  0  0  0  # atno 17343 bound_to 10162
  156.0578  130.5636  150.9128 LP  0  0  0  0  0  0  0  0  0  0  0  0  # atno 17370 bound_to 10713
  157.6021  131.0941  150.8942 LP  0  0  0  0  0  0  0  0  0  0  0  0  # atno 17371 bound_to 10713
  140.9673  133.7350  156.0485 LP  0  0  0  0  0  0  0  0  0  0  0  0  # atno 17394 bound_to 11000
  140.7915  134.3612  157.5463 LP  0  0  0  0  0  0  0  0  0  0  0  0  # atno 17395 bound_to 11000

$$$$
