AV-unprocessed.smi:2451|AV-procd|sdf|9669|dock7
  -GOLD-   2272013303D 1   1.00000     0.00000
 Structure written by MMmdl.
 38 39  0  0  0  0  0  0  0  0  1 V2000
  152.1780  145.0281  159.3338 C   0  0  0  0  0  0  0  0  0  0  0  0
  152.2638  143.5888  158.7953 C   0  0  2  0  0  0  0  0  0  0  0  0
  151.2369  143.3903  157.6619 C   0  0  0  0  0  0  0  0  0  0  0  0
  151.3086  141.9798  157.0623 C   0  0  0  0  0  0  0  0  0  0  0  0
  151.1113  140.9027  158.1388 C   0  0  0  0  0  0  0  0  0  0  0  0
  152.0856  141.0795  159.3171 C   0  0  1  0  0  0  0  0  0  0  0  0
  153.4394  140.6792  158.9124 N   0  0  0  0  0  0  0  0  0  0  0  0
  154.3335  139.6141  159.9320 S   0  0  0  0  0  0  0  0  0  0  0  0
  155.5669  139.2508  159.2178 O   0  0  0  0  0  0  0  0  0  0  0  0
  154.4118  140.2333  161.2642 O   0  0  0  0  0  0  0  0  0  0  0  0
  153.2345  138.1391  160.0330 C   0  0  0  0  0  0  0  0  0  0  0  0
  153.8461  137.1174  160.9490 C   0  0  0  0  0  0  0  0  0  0  0  0
  154.2370  137.2682  162.3083 C   0  0  0  0  0  0  0  0  0  0  0  0
  154.7266  136.0373  162.6380 C   0  0  0  0  0  0  0  0  0  0  0  0
  154.6423  135.1935  161.5789 O   0  0  0  0  0  0  0  0  0  0  0  0
  154.0775  135.8917  160.5056 N   0  0  0  0  0  0  0  0  0  0  0  0
  152.0704  142.5154  159.9006 C   0  0  1  0  0  0  0  0  0  0  0  0
  153.0479  142.6552  161.0846 C   0  0  0  0  0  0  0  0  0  0  0  0
  151.2296  145.2072  159.8409 H   0  0  0  0  0  0  0  0  0  0  0  0
  152.2625  145.7540  158.5245 H   0  0  0  0  0  0  0  0  0  0  0  0
  152.9819  145.2449  160.0369 H   0  0  0  0  0  0  0  0  0  0  0  0
  153.2595  143.4624  158.3679 H   0  0  0  0  0  0  0  0  0  0  0  0
  150.2299  143.5731  158.0397 H   0  0  0  0  0  0  0  0  0  0  0  0
  151.4062  144.1240  156.8730 H   0  0  0  0  0  0  0  0  0  0  0  0
  150.5526  141.8678  156.2846 H   0  0  0  0  0  0  0  0  0  0  0  0
  152.2736  141.8392  156.5740 H   0  0  0  0  0  0  0  0  0  0  0  0
  150.0884  140.9624  158.5128 H   0  0  0  0  0  0  0  0  0  0  0  0
  151.2162  139.9086  157.7024 H   0  0  0  0  0  0  0  0  0  0  0  0
  151.7632  140.4004  160.1080 H   0  0  0  0  0  0  0  0  0  0  0  0
  153.9963  141.4912  158.6468 H   0  0  0  0  0  0  0  0  0  0  0  0
  152.2584  138.4596  160.3970 H   0  0  0  0  0  0  0  0  0  0  0  0
  153.1008  137.7417  159.0265 H   0  0  0  0  0  0  0  0  0  0  0  0
  154.1737  138.1428  162.9387 H   0  0  0  0  0  0  0  0  0  0  0  0
  155.1498  135.6241  163.5416 H   0  0  0  0  0  0  0  0  0  0  0  0
  151.0712  142.6658  160.3131 H   0  0  0  0  0  0  0  0  0  0  0  0
  154.0864  142.6422  160.7525 H   0  0  0  0  0  0  0  0  0  0  0  0
  152.9173  141.8397  161.7965 H   0  0  0  0  0  0  0  0  0  0  0  0
  152.8858  143.5823  161.6334 H   0  0  0  0  0  0  0  0  0  0  0  0
  1  2  1  0  0  0  0
  1 19  1  0  0  0  0
  1 20  1  0  0  0  0
  1 21  1  0  0  0  0
  2 17  1  0  0  0  0
  2  3  1  0  0  0  0
  2 22  1  0  0  0  0
  3  4  1  0  0  0  0
  3 23  1  0  0  0  0
  3 24  1  0  0  0  0
  4  5  1  0  0  0  0
  4 25  1  0  0  0  0
  4 26  1  0  0  0  0
  5  6  1  0  0  0  0
  5 27  1  0  0  0  0
  5 28  1  0  0  0  0
  6  7  1  0  0  0  0
  6 17  1  0  0  0  0
  6 29  1  0  0  0  0
  7  8  1  0  0  0  0
  7 30  1  0  0  0  0
  8  9  2  0  0  0  0
  8 10  2  0  0  0  0
  8 11  1  0  0  0  0
 11 12  1  0  0  0  0
 11 31  1  0  0  0  0
 11 32  1  0  0  0  0
 12 16  2  0  0  0  0
 12 13  1  0  0  0  0
 13 14  2  0  0  0  0
 13 33  1  0  0  0  0
 14 15  1  0  0  0  0
 14 34  1  0  0  0  0
 15 16  1  0  0  0  0
 17 18  1  0  0  0  0
 17 35  1  0  0  0  0
 18 36  1  0  0  0  0
 18 37  1  0  0  0  0
 18 38  1  0  0  0  0
M  END
> <s_m_source_file>
AV-unprocessed.smi

> <i_m_source_file_index>
2451

> <i_lp_mmshare_version>
43012

> <i_f3d_flags>
0

> <s_epik_input>
W0NIM11bQ0BASF0xW0NIMl1bQ0gyXVtDSDJdW0NASF0oW0NASF0xW0NIM10pW05IXVMoPU8pKD1PKVtDSDJdYzJbY0hdW2NIXW9uMg==

> <s_epik_cmdline>
J2VwaWtfcHl0aG9uJywgJy1waCcsICc3LjAnLCAnLXRuJywgJzgnLCAnLW1hJywgJzIwMCcsICctbWV0YWxfYmluZGluZycsICctaW1hZScsICc8aW5maWxlLm1hZT4nLCAnLW9tYWUnLCAnPG91dGZpbGUubWFlPic=

> <r_lp_tautomer_probability>
1

> <r_epik_Ionization_Penalty>
8.73668e-05

> <r_epik_Ionization_Penalty_Charging>
0

> <r_epik_Ionization_Penalty_Neutral>
8.73668e-05

> <r_epik_State_Penalty>
-0

> <r_epik_Charging_Adjusted_Penalty>
0

> <i_epik_Tot_Q>
0

> <i_epik_Tot_abs_Q>
0

> <r_epik_Metal_State_Penalty>
0.0716439

> <b_epik_Metal_Only>
0

> <s_lp_Force_Field>
OPLS_2005

> <r_lp_Energy>
9.22722

> <b_lp_Chiralities_Consistent>
1

> <s_lp_Variant>
AV-unprocessed.smi:2451-1

> <Gold.Version>
5.8.1

> <Gold.Id.Protein>
6NUR|6NUR_protein|mol2

> <Gold.PLP.Fitness>
42.3532

> <Gold.PLP.PLP>
-37.7063

> <Gold.PLP.part.hbond>
-2.8493

> <Gold.PLP.part.metal>
0.0000

> <Gold.PLP.part.buried>
-4.1591

> <Gold.PLP.part.nonpolar>
-30.5510

> <Gold.PLP.part.repulsive>
0.0000

> <Gold.PLP.ligand.clash>
0.0000

> <Gold.PLP.ligand.torsion>
0.7356

> <Gold.PLP.Chemscore.Hbond>
1.9913

> <Gold.PLP.Chemscore.CHOScore>
0.0000

> <Gold.PLP.Chemscore.Metal>
0.0000

> <Gold.Chemscore.Hbonds>
donor molecule, donor type, donor heavy atom, donor atom, acceptor molecule, acceptor atom, score
      P1  H  6896  6909       L1    16  0.86
      P1  H  7997  8010       L1     9  1.00

> <Gold.PLP.Chemscore.Internal.Correction>
0.1443

> <Gold.Rescore>
     Score         DG    S(hbond)    S(metal)    S(lipo)     H(rot)  DE(clash)    DE(int)     intcor
     16.65     -19.00       1.74        0.00     102.11       1.66       0.12       2.23       ----

> <Gold.Chemscore.Fitness>
16.6494

> <Gold.Chemscore.DG>
-19.0008

> <Gold.Chemscore.ZeroCoef>
-5.4800

> <Gold.Chemscore.Hbond>
1.7425

> <Gold.Chemscore.Metal>
0.0000

> <Gold.Chemscore.Lipo>
102.1140

> <Gold.Chemscore.Internal_Hbond>
0.0000

> <Gold.Chemscore.DEClash>
0.1193

> <Gold.Chemscore.DEInternal>
2.2320

> <Gold.Chemscore.Rot>
1.6588

> <Gold.Chemscore.Internal.Correction>
   9.000000E+99

> <Gold.Chemscore.Hbonds>
donor molecule, donor type, donor heavy atom, donor atom, acceptor molecule, acceptor atom, score
      P1  H  6896  6909       L1    16  0.34
      P1  H  7997  8010       L1     9  0.66

> <Gold.Chemscore.Hbond.Weighted>
-5.8200

> <Gold.Chemscore.Metal.Weighted>
-0.0000

> <Gold.Chemscore.Lipo.Weighted>
-11.9473

> <Gold.Chemscore.Internal_Hbond.Weighted>
0.0000

> <Gold.Chemscore.DEClash.Weighted>
0.1193

> <Gold.Chemscore.DEInternal.Weighted>
2.2320

> <Gold.Chemscore.Rot.Weighted>
4.2466

> <Gold.Chemscore.Internal.Correction.Weighted>
   9.000000E+99

> <Gold.Protein.RotatedTorsions>
[ 6907 6896 6895 6894 ] final  170.65 input  -60.11 | X-H torsion
[ 7974 7965 7964 7962 ] final -140.16 input  175.53 | X-H torsion
[ 8008 7997 7996 7995 ] final  -22.31 input   59.86 | X-H torsion
[ 10167 10162 10161 10158 ] final -109.33 input  -65.29 | X-H torsion
[ 10718 10713 10712 10709 ] final   38.21 input   66.30 | X-H torsion
[ 10763 10752 10751 10750 ] final  139.76 input  -60.55 | X-H torsion
[ 11005 11000 10999 10996 ] final   80.26 input  -57.11 | X-H torsion

> <Gold.Protein.ActiveResidues>
 VAL166  LYS551  ARG553  GLY616  TRP617  ASP618  TYR619  PRO620  LYS621  CYS622 
 ASP623  PHE694  ASN695  SER759  ASP760  ASP761  ALA762  ILE779  LEU786  VAL792 
 PHE793  MET794  SER795  GLU796  ALA797  LYS798  CYS799  TRP800  GLU811  SER814 

> <Gold.Protein.RotatedAtoms>
  151.8127  133.3384  159.3560 H   0  0  0  0  0  0  0  0  0  0  0  0  # atno 6907 bound_to 6896
  150.7320  134.5648  159.5870 H   0  0  0  0  0  0  0  0  0  0  0  0  # atno 6908 bound_to 6896
  152.3063  134.7552  160.0398 H   0  0  0  0  0  0  0  0  0  0  0  0  # atno 6909 bound_to 6896
  144.8619  140.6233  143.5322 H   0  0  0  0  0  0  0  0  0  0  0  0  # atno 7974 bound_to 7965
  154.4652  140.2011  156.0138 H   0  0  0  0  0  0  0  0  0  0  0  0  # atno 8008 bound_to 7997
  156.0913  140.3257  155.7790 H   0  0  0  0  0  0  0  0  0  0  0  0  # atno 8009 bound_to 7997
  155.4952  140.0549  157.2938 H   0  0  0  0  0  0  0  0  0  0  0  0  # atno 8010 bound_to 7997
  140.1565  143.4156  152.1457 H   0  0  0  0  0  0  0  0  0  0  0  0  # atno 10167 bound_to 10162
  157.3562  130.7625  149.7014 H   0  0  0  0  0  0  0  0  0  0  0  0  # atno 10718 bound_to 10713
  153.9115  135.3010  155.3448 H   0  0  0  0  0  0  0  0  0  0  0  0  # atno 10763 bound_to 10752
  154.7621  135.4929  153.9487 H   0  0  0  0  0  0  0  0  0  0  0  0  # atno 10764 bound_to 10752
  153.1190  135.6777  153.9470 H   0  0  0  0  0  0  0  0  0  0  0  0  # atno 10765 bound_to 10752
  139.9141  134.7906  156.1886 H   0  0  0  0  0  0  0  0  0  0  0  0  # atno 11005 bound_to 11000
  145.4295  139.1551  143.4030 LP  0  0  0  0  0  0  0  0  0  0  0  0  # atno 17320 bound_to 7965
  146.2867  140.4410  142.8755 LP  0  0  0  0  0  0  0  0  0  0  0  0  # atno 17321 bound_to 7965
  139.5401  144.7248  151.4762 LP  0  0  0  0  0  0  0  0  0  0  0  0  # atno 17342 bound_to 10162
  140.6670  143.8377  150.6953 LP  0  0  0  0  0  0  0  0  0  0  0  0  # atno 17343 bound_to 10162
  155.9729  130.4126  150.4043 LP  0  0  0  0  0  0  0  0  0  0  0  0  # atno 17370 bound_to 10713
  157.2113  131.0461  151.2597 LP  0  0  0  0  0  0  0  0  0  0  0  0  # atno 17371 bound_to 10713
  141.0598  133.6847  156.1930 LP  0  0  0  0  0  0  0  0  0  0  0  0  # atno 17394 bound_to 11000
  140.6679  134.4899  157.5586 LP  0  0  0  0  0  0  0  0  0  0  0  0  # atno 17395 bound_to 11000

$$$$
