#       Name:                AV-unprocessed.smi:3110
#       Creating user name   scv26
#       Creation time:       Fri Mar 27 17:20:17 2020


#       File generated by GOLD software.
#

@<TRIPOS>MOLECULE
AV-unprocessed.smi:3110
    36    37     1
SMALL
NO_CHARGES


@<TRIPOS>ATOM
      1 ****         0.0580   1.1678  -1.5138 O.2            1 S1                 0.0000
      2 ****        -0.6255   0.1582  -1.3415 C.2            1 S1                 0.0000
      3 ****        -2.1540   0.2347  -1.4158 C.3            1 S1                 0.0000
      4 ****        -2.7365   1.4633  -0.6868 C.3            1 S1                 0.0000
      5 ****        -4.2385   1.5285  -0.7874 C.2            1 S1                 0.0000
      6 ****        -4.8271   1.6962   0.3949 C.2            1 S1                 0.0000
      7 ****        -3.8375   1.7748   1.5240 C.3            1 S1                 0.0000
      8 ****        -2.4810   1.4851   0.8446 C.3            1 S1                 0.0000
      9 ****        -0.0991  -1.0480  -1.0798 N.am           1 S1                 0.0000
     10 ****         1.3264  -1.3228  -0.9488 C.3            1 S1                 0.0000
     11 ****         1.8580  -0.8926   0.4286 C.3            1 S1                 0.0000
     12 ****         3.2966  -1.1304   0.5522 N.pl3          1 S1                 0.0000
     13 ****         3.9172  -2.2509   1.0410 C.2            1 S1                 0.0000
     14 ****         5.2659  -2.0175   0.9577 C.2            1 S1                 0.0000
     15 ****         5.4107  -0.7662   0.4205 N.pl3          1 S1                 1.0000
     16 ****         4.2115  -0.2283   0.1748 C.2            1 S1                 0.0000
     17 ****        -2.4363   0.2639  -2.4687 H              1 S1                 0.0000
     18 ****        -2.5891  -0.6780  -1.0050 H              1 S1                 0.0000
     19 ****        -2.3516   2.3793  -1.1377 H              1 S1                 0.0000
     20 ****        -4.7550   1.4618  -1.7336 H              1 S1                 0.0000
     21 ****        -5.8916   1.7855   0.5542 H              1 S1                 0.0000
     22 ****        -3.8625   2.7709   1.9670 H              1 S1                 0.0000
     23 ****        -4.0706   1.0418   2.2970 H              1 S1                 0.0000
     24 ****        -2.1097   0.5185   1.1876 H              1 S1                 0.0000
     25 ****        -1.7299   2.2284   1.1137 H              1 S1                 0.0000
     26 ****        -0.7309  -1.8263  -0.9570 H              1 S1                 0.0000
     27 ****         1.4820  -2.3926  -1.0906 H              1 S1                 0.0000
     28 ****         1.8753  -0.8209  -1.7477 H              1 S1                 0.0000
     29 ****         1.6758   0.1681   0.6082 H              1 S1                 0.0000
     30 ****         1.3559  -1.4432   1.2253 H              1 S1                 0.0000
     31 ****         3.3677  -3.1084   1.4020 H              1 S1                 0.0000
     32 ****         6.1111  -2.6321   1.2320 H              1 S1                 0.0000
     33 ****         4.0198   0.7428  -0.2465 H              1 S1                 0.0000
     34 ****         6.2958  -0.3111   0.2352 H              1 S1                 0.0000
     35 ****        -0.3841   2.0445  -1.7035 LP             1 S1                 0.0000
     36 ****         1.0551   1.1110  -1.4640 LP             1 S1                 0.0000
@<TRIPOS>BOND
    1    1    2 2     
    2    2    3 1     
    3    2    9 am    
    4    3    4 1     
    5    3   17 1     
    6    3   18 1     
    7    4    8 1     
    8    4    5 1     
    9    4   19 1     
   10    5    6 2     
   11    5   20 1     
   12    6    7 1     
   13    6   21 1     
   14    7    8 1     
   15    7   22 1     
   16    7   23 1     
   17    8   24 1     
   18    8   25 1     
   19    9   10 1     
   20    9   26 1     
   21   10   11 1     
   22   10   27 1     
   23   10   28 1     
   24   11   12 1     
   25   11   29 1     
   26   11   30 1     
   27   12   16 1     
   28   12   13 1     
   29   13   14 2     
   30   13   31 1     
   31   14   15 1     
   32   14   32 1     
   33   15   16 2     
   34   15   34 1     
   35   16   33 1     
   36    1   35 1     
   37    1   36 1     
@<TRIPOS>SUBSTRUCTURE
      1 S1             1
@<TRIPOS>SET
LONE_PAIRS      STATIC     ATOMS    <user>   **** ""
2 35 36
DONOR_HYDROGENS      STATIC     ATOMS    <user>   **** ""
2 26 34
ATOM$BLUE        STATIC     ATOMS    COLORGROUP SYSTEM
2 35 36
ATOM$RED        STATIC     ATOMS    COLORGROUP SYSTEM
2 26 34
