AV-unprocessed.smi:671|AV-procd|sdf|3279|dock3
  -GOLD-   22720 0243D 1   1.00000     0.00000
 Structure written by MMmdl.
 49 50  0  0  0  0  0  0  0  0  1 V2000
  152.3761  138.3587  154.4335 C   0  0  0  0  0  0  0  0  0  0  0  0
  151.7338  139.3305  155.3822 C   0  0  0  0  0  0  0  0  0  0  0  0
  152.4537  139.8638  156.3551 N   0  0  0  0  0  0  0  0  0  0  0  0
  151.5984  140.6742  157.0106 N   0  0  0  0  0  0  0  0  0  0  0  0
  152.0706  141.4290  158.1552 C   0  0  0  0  0  0  0  0  0  0  0  0
  150.3366  140.6563  156.4482 C   0  0  0  0  0  0  0  0  0  0  0  0
  149.2119  141.4775  156.9915 C   0  0  0  0  0  0  0  0  0  0  0  0
  150.3860  139.7940  155.3857 C   0  0  0  0  0  0  0  0  0  0  0  0
  149.2943  139.4034  154.4243 C   0  0  0  0  0  0  0  0  0  0  0  0
  148.5535  138.1247  154.8729 C   0  0  2  0  0  0  0  0  0  0  0  0
  149.4893  137.1135  155.5528 C   0  0  0  0  0  0  0  0  0  0  0  0
  147.9128  137.4808  153.7237 N   0  0  0  0  0  0  0  0  0  0  0  0
  146.5973  137.3119  153.4938 C   0  0  0  0  0  0  0  0  0  0  0  0
  145.7447  137.7101  154.2849 O   0  0  0  0  0  0  0  0  0  0  0  0
  146.3066  136.6796  152.3442 N   0  0  0  0  0  0  0  0  0  0  0  0
  144.9677  136.3322  151.8787 C   0  0  1  0  0  0  0  0  0  0  0  0
  145.0436  135.5478  150.5542 C   0  0  0  0  0  0  0  0  0  0  0  0
  144.5266  134.1399  150.8555 C   0  0  0  0  0  0  0  0  0  0  0  0
  143.5754  134.3307  152.0319 C   0  0  0  0  0  0  0  0  0  0  0  0
  144.2493  135.4075  152.8863 C   0  0  2  0  0  0  0  0  0  0  0  0
  143.2793  136.1408  153.8230 C   0  0  0  0  0  0  0  0  0  0  0  0
  152.5773  138.8292  153.4712 H   0  0  0  0  0  0  0  0  0  0  0  0
  151.7270  137.5017  154.2534 H   0  0  0  0  0  0  0  0  0  0  0  0
  153.3215  137.9784  154.8219 H   0  0  0  0  0  0  0  0  0  0  0  0
  152.1085  142.4891  157.9032 H   0  0  0  0  0  0  0  0  0  0  0  0
  153.0682  141.0990  158.4495 H   0  0  0  0  0  0  0  0  0  0  0  0
  151.3919  141.2863  158.9966 H   0  0  0  0  0  0  0  0  0  0  0  0
  148.3343  141.4247  156.3476 H   0  0  0  0  0  0  0  0  0  0  0  0
  149.5003  142.5257  157.0720 H   0  0  0  0  0  0  0  0  0  0  0  0
  148.9220  141.1280  157.9825 H   0  0  0  0  0  0  0  0  0  0  0  0
  148.5838  140.2259  154.3358 H   0  0  0  0  0  0  0  0  0  0  0  0
  149.6859  139.2641  153.4163 H   0  0  0  0  0  0  0  0  0  0  0  0
  147.7839  138.3916  155.5991 H   0  0  0  0  0  0  0  0  0  0  0  0
  149.9368  137.5306  156.4552 H   0  0  0  0  0  0  0  0  0  0  0  0
  150.2996  136.8116  154.8886 H   0  0  0  0  0  0  0  0  0  0  0  0
  148.9469  136.2142  155.8468 H   0  0  0  0  0  0  0  0  0  0  0  0
  148.5390  137.1457  153.0060 H   0  0  0  0  0  0  0  0  0  0  0  0
  147.0770  136.3965  151.7566 H   0  0  0  0  0  0  0  0  0  0  0  0
  144.3817  137.2368  151.7040 H   0  0  0  0  0  0  0  0  0  0  0  0
  144.3922  136.0218  149.8188 H   0  0  0  0  0  0  0  0  0  0  0  0
  146.0453  135.5240  150.1224 H   0  0  0  0  0  0  0  0  0  0  0  0
  144.0427  133.6780  149.9946 H   0  0  0  0  0  0  0  0  0  0  0  0
  145.3554  133.4976  151.1544 H   0  0  0  0  0  0  0  0  0  0  0  0
  142.6114  134.6873  151.6661 H   0  0  0  0  0  0  0  0  0  0  0  0
  143.4015  133.4061  152.5833 H   0  0  0  0  0  0  0  0  0  0  0  0
  144.9993  134.9036  153.4991 H   0  0  0  0  0  0  0  0  0  0  0  0
  142.5008  136.6594  153.2625 H   0  0  0  0  0  0  0  0  0  0  0  0
  143.8042  136.8812  154.4271 H   0  0  0  0  0  0  0  0  0  0  0  0
  142.7922  135.4430  154.5043 H   0  0  0  0  0  0  0  0  0  0  0  0
  1  2  1  0  0  0  0
  1 22  1  0  0  0  0
  1 23  1  0  0  0  0
  1 24  1  0  0  0  0
  2  8  1  0  0  0  0
  2  3  2  0  0  0  0
  3  4  1  0  0  0  0
  4  5  1  0  0  0  0
  4  6  1  0  0  0  0
  5 25  1  0  0  0  0
  5 26  1  0  0  0  0
  5 27  1  0  0  0  0
  6  7  1  0  0  0  0
  6  8  2  0  0  0  0
  7 28  1  0  0  0  0
  7 29  1  0  0  0  0
  7 30  1  0  0  0  0
  8  9  1  0  0  0  0
  9 10  1  0  0  0  0
  9 31  1  0  0  0  0
  9 32  1  0  0  0  0
 10 11  1  0  0  0  0
 10 12  1  0  0  0  0
 10 33  1  0  0  0  0
 11 34  1  0  0  0  0
 11 35  1  0  0  0  0
 11 36  1  0  0  0  0
 12 13  1  0  0  0  0
 12 37  1  0  0  0  0
 13 14  2  0  0  0  0
 13 15  1  0  0  0  0
 15 16  1  0  0  0  0
 15 38  1  0  0  0  0
 16 20  1  0  0  0  0
 16 17  1  0  0  0  0
 16 39  1  0  0  0  0
 17 18  1  0  0  0  0
 17 40  1  0  0  0  0
 17 41  1  0  0  0  0
 18 19  1  0  0  0  0
 18 42  1  0  0  0  0
 18 43  1  0  0  0  0
 19 20  1  0  0  0  0
 19 44  1  0  0  0  0
 19 45  1  0  0  0  0
 20 21  1  0  0  0  0
 20 46  1  0  0  0  0
 21 47  1  0  0  0  0
 21 48  1  0  0  0  0
 21 49  1  0  0  0  0
M  END
> <s_m_source_file>
AV-unprocessed.smi

> <i_m_source_file_index>
671

> <i_lp_mmshare_version>
43012

> <i_f3d_flags>
0

> <s_epik_input>
W0NIM11jMW5uKFtDSDNdKWMoW0NIM10pYzFbQ0gyXVtDQEhdKFtDSDNdKVtOSF1DKD1PKVtOSF1bQ0BASF0yW0NIMl1bQ0gyXVtDSDJdW0NASF0yW0NIM10=

> <s_epik_cmdline>
J2VwaWtfcHl0aG9uJywgJy1waCcsICc3LjAnLCAnLXRuJywgJzgnLCAnLW1hJywgJzIwMCcsICctbWV0YWxfYmluZGluZycsICctaW1hZScsICc8aW5maWxlLm1hZT4nLCAnLW9tYWUnLCAnPG91dGZpbGUubWFlPic=

> <r_lp_tautomer_probability>
1

> <r_epik_Ionization_Penalty>
0.0126855

> <r_epik_Ionization_Penalty_Charging>
0

> <r_epik_Ionization_Penalty_Neutral>
0.0126855

> <r_epik_State_Penalty>
0.00977547

> <r_epik_Charging_Adjusted_Penalty>
0.00977547

> <i_epik_Tot_Q>
0

> <i_epik_Tot_abs_Q>
0

> <r_epik_Metal_State_Penalty>
0.00957132

> <b_epik_Metal_Only>
0

> <s_lp_Force_Field>
OPLS_2005

> <r_lp_Energy>
21.5891

> <b_lp_Chiralities_Consistent>
1

> <s_lp_Variant>
AV-unprocessed.smi:671-7

> <Gold.Version>
5.8.1

> <Gold.Id.Protein>
6NUR|6NUR_protein|mol2

> <Gold.PLP.Fitness>
40.9178

> <Gold.PLP.PLP>
-33.5724

> <Gold.PLP.part.hbond>
-3.0000

> <Gold.PLP.part.metal>
0.0000

> <Gold.PLP.part.buried>
-5.0853

> <Gold.PLP.part.nonpolar>
-25.8705

> <Gold.PLP.part.repulsive>
0.1288

> <Gold.PLP.ligand.clash>
0.0000

> <Gold.PLP.ligand.torsion>
0.6368

> <Gold.PLP.Chemscore.Hbond>
2.8640

> <Gold.PLP.Chemscore.CHOScore>
0.0000

> <Gold.PLP.Chemscore.Metal>
0.0000

> <Gold.Chemscore.Hbonds>
donor molecule, donor type, donor heavy atom, donor atom, acceptor molecule, acceptor atom, score
      L1  H    12    37       P1  7948  0.96
      L1  H    15    38       P1  7948  0.80
      P1  H  7997  8008       L1     3  1.00

> <Gold.PLP.Chemscore.Internal.Correction>
0.0268

> <Gold.Rescore>
     Score         DG    S(hbond)    S(metal)    S(lipo)     H(rot)  DE(clash)    DE(int)     intcor
     19.65     -20.44       2.85        0.00      78.25       1.45       0.06       0.73       ----

> <Gold.Chemscore.Fitness>
19.6544

> <Gold.Chemscore.DG>
-20.4447

> <Gold.Chemscore.ZeroCoef>
-5.4800

> <Gold.Chemscore.Hbond>
2.8508

> <Gold.Chemscore.Metal>
0.0000

> <Gold.Chemscore.Lipo>
78.2484

> <Gold.Chemscore.Internal_Hbond>
0.0000

> <Gold.Chemscore.DEClash>
0.0640

> <Gold.Chemscore.DEInternal>
0.7263

> <Gold.Chemscore.Rot>
1.4499

> <Gold.Chemscore.Internal.Correction>
   9.000000E+99

> <Gold.Chemscore.Hbonds>
donor molecule, donor type, donor heavy atom, donor atom, acceptor molecule, acceptor atom, score
      L1  H    12    37       P1  7948  0.90
      L1  H    15    38       P1  7948  0.80
      P1  H  7997  8008       L1     3  0.99

> <Gold.Chemscore.Hbond.Weighted>
-9.5215

> <Gold.Chemscore.Metal.Weighted>
-0.0000

> <Gold.Chemscore.Lipo.Weighted>
-9.1551

> <Gold.Chemscore.Internal_Hbond.Weighted>
0.0000

> <Gold.Chemscore.DEClash.Weighted>
0.0640

> <Gold.Chemscore.DEInternal.Weighted>
0.7263

> <Gold.Chemscore.Rot.Weighted>
3.7118

> <Gold.Chemscore.Internal.Correction.Weighted>
   9.000000E+99

> <Gold.Protein.RotatedTorsions>
[ 6907 6896 6895 6894 ] final -161.81 input  -60.11 | X-H torsion
[ 7974 7965 7964 7962 ] final -122.72 input  175.53 | X-H torsion
[ 8008 7997 7996 7995 ] final  -37.58 input   59.86 | X-H torsion
[ 10167 10162 10161 10158 ] final  135.17 input  -65.29 | X-H torsion
[ 10718 10713 10712 10709 ] final   42.86 input   66.30 | X-H torsion
[ 10763 10752 10751 10750 ] final  156.57 input  -60.55 | X-H torsion
[ 11005 11000 10999 10996 ] final   45.73 input  -57.11 | X-H torsion

> <Gold.Protein.ActiveResidues>
 VAL166  LYS551  ARG553  GLY616  TRP617  ASP618  TYR619  PRO620  LYS621  CYS622 
 ASP623  PHE694  ASN695  SER759  ASP760  ASP761  ALA762  ILE779  LEU786  VAL792 
 PHE793  MET794  SER795  GLU796  ALA797  LYS798  CYS799  TRP800  GLU811  SER814 

> <Gold.Protein.RotatedAtoms>
  151.3704  133.3857  159.2698 H   0  0  0  0  0  0  0  0  0  0  0  0  # atno 6907 bound_to 6896
  150.9655  134.9037  159.7767 H   0  0  0  0  0  0  0  0  0  0  0  0  # atno 6908 bound_to 6896
  152.5165  134.3665  159.9355 H   0  0  0  0  0  0  0  0  0  0  0  0  # atno 6909 bound_to 6896
  145.0264  140.8031  143.4350 H   0  0  0  0  0  0  0  0  0  0  0  0  # atno 7974 bound_to 7965
  154.4051  140.1600  156.2560 H   0  0  0  0  0  0  0  0  0  0  0  0  # atno 8008 bound_to 7997
  155.9077  140.3429  155.6052 H   0  0  0  0  0  0  0  0  0  0  0  0  # atno 8009 bound_to 7997
  155.7372  140.0788  157.2252 H   0  0  0  0  0  0  0  0  0  0  0  0  # atno 8010 bound_to 7997
  139.5227  144.6530  151.5245 H   0  0  0  0  0  0  0  0  0  0  0  0  # atno 10167 bound_to 10162
  157.4095  130.7906  149.7418 H   0  0  0  0  0  0  0  0  0  0  0  0  # atno 10718 bound_to 10713
  154.1864  135.2797  155.3036 H   0  0  0  0  0  0  0  0  0  0  0  0  # atno 10763 bound_to 10752
  154.5963  135.5544  153.7332 H   0  0  0  0  0  0  0  0  0  0  0  0  # atno 10764 bound_to 10752
  153.0124  135.6380  154.2003 H   0  0  0  0  0  0  0  0  0  0  0  0  # atno 10765 bound_to 10752
  140.1433  134.4555  155.8434 H   0  0  0  0  0  0  0  0  0  0  0  0  # atno 11005 bound_to 11000
  145.1828  139.2342  143.5283 LP  0  0  0  0  0  0  0  0  0  0  0  0  # atno 17320 bound_to 7965
  146.3493  140.1606  142.8591 LP  0  0  0  0  0  0  0  0  0  0  0  0  # atno 17321 bound_to 7965
  140.6344  143.9014  150.6634 LP  0  0  0  0  0  0  0  0  0  0  0  0  # atno 17342 bound_to 10162
  140.2328  143.3723  152.1551 LP  0  0  0  0  0  0  0  0  0  0  0  0  # atno 17343 bound_to 10162
  155.9846  130.3990  150.3301 LP  0  0  0  0  0  0  0  0  0  0  0  0  # atno 17370 bound_to 10713
  157.1438  131.0303  151.2916 LP  0  0  0  0  0  0  0  0  0  0  0  0  # atno 17371 bound_to 10713
  141.2189  133.6842  156.7286 LP  0  0  0  0  0  0  0  0  0  0  0  0  # atno 17394 bound_to 11000
  140.2695  134.8403  157.3834 LP  0  0  0  0  0  0  0  0  0  0  0  0  # atno 17395 bound_to 11000

$$$$
