AV-unprocessed.smi:3045|AV-procd|sdf|11611|dock7
  -GOLD-   2272016593D 1   1.00000     0.00000
 Structure written by MMmdl.
 36 37  0  0  0  0  0  0  0  0  2 V2000
  154.4846  140.7692  161.3365 C   0  0  0  0  0  0  0  0  0  0  0  0
  153.6513  141.8830  160.9048 N   0  0  0  0  0  0  0  0  0  0  0  0
  153.5523  142.2468  159.5020 C   0  0  0  0  0  0  0  0  0  0  0  0
  152.4598  143.3364  159.4320 C   0  0  1  0  0  0  0  0  0  0  0  0
  151.1883  142.8405  158.7253 C   0  0  0  0  0  0  0  0  0  0  0  0
  150.1328  142.7300  159.3506 O   0  0  0  0  0  0  0  0  0  0  0  0
  151.3032  142.5419  157.4220 N   0  0  0  0  0  0  0  0  0  0  0  0
  150.2146  142.0695  156.5751 C   0  0  0  0  0  0  0  0  0  0  0  0
  150.5908  140.7795  155.8265 C   0  0  0  0  0  0  0  0  0  0  0  0
  149.4887  140.3191  154.8927 C   0  0  0  0  0  0  0  0  0  0  0  0
  148.3977  141.1677  154.6012 C   0  0  0  0  0  0  0  0  0  0  0  0
  147.3868  140.7194  153.7256 C   0  0  0  0  0  0  0  0  0  0  0  0
  147.4892  139.4309  153.1624 C   0  0  0  0  0  0  0  0  0  0  0  0
  148.5470  138.6467  153.4654 N   0  3  0  0  0  0  0  0  0  0  0  0
  149.5361  139.0395  154.2981 C   0  0  0  0  0  0  0  0  0  0  0  0
  152.1817  143.7235  160.8995 C   0  0  0  0  0  0  0  0  0  0  0  0
  152.9426  142.6837  161.7053 C   0  0  0  0  0  0  0  0  0  0  0  0
  152.8825  142.6136  162.9318 O   0  0  0  0  0  0  0  0  0  0  0  0
  155.2628  141.1140  162.0182 H   0  0  0  0  0  0  0  0  0  0  0  0
  154.9686  140.2875  160.4865 H   0  0  0  0  0  0  0  0  0  0  0  0
  153.8825  140.0203  161.8523 H   0  0  0  0  0  0  0  0  0  0  0  0
  154.5120  142.6382  159.1617 H   0  0  0  0  0  0  0  0  0  0  0  0
  153.3208  141.3693  158.8957 H   0  0  0  0  0  0  0  0  0  0  0  0
  152.8483  144.2035  158.8946 H   0  0  0  0  0  0  0  0  0  0  0  0
  152.2060  142.6617  156.9848 H   0  0  0  0  0  0  0  0  0  0  0  0
  149.3194  141.9159  157.1803 H   0  0  0  0  0  0  0  0  0  0  0  0
  149.9748  142.8571  155.8602 H   0  0  0  0  0  0  0  0  0  0  0  0
  151.5080  140.9321  155.2560 H   0  0  0  0  0  0  0  0  0  0  0  0
  150.8004  139.9755  156.5332 H   0  0  0  0  0  0  0  0  0  0  0  0
  148.3375  142.1529  155.0411 H   0  0  0  0  0  0  0  0  0  0  0  0
  146.5460  141.3554  153.4894 H   0  0  0  0  0  0  0  0  0  0  0  0
  146.7631  139.0076  152.4835 H   0  0  0  0  0  0  0  0  0  0  0  0
  150.3288  138.3236  154.4604 H   0  0  0  0  0  0  0  0  0  0  0  0
  152.5730  144.7156  161.1261 H   0  0  0  0  0  0  0  0  0  0  0  0
  151.1233  143.7109  161.1653 H   0  0  0  0  0  0  0  0  0  0  0  0
  148.6015  137.7175  153.0471 H   0  0  0  0  0  0  0  0  0  0  0  0
  1  2  1  0  0  0  0
  1 19  1  0  0  0  0
  1 20  1  0  0  0  0
  1 21  1  0  0  0  0
  2 17  1  0  0  0  0
  2  3  1  0  0  0  0
  3  4  1  0  0  0  0
  3 22  1  0  0  0  0
  3 23  1  0  0  0  0
  4  5  1  0  0  0  0
  4 16  1  0  0  0  0
  4 24  1  0  0  0  0
  5  6  2  0  0  0  0
  5  7  1  0  0  0  0
  7  8  1  0  0  0  0
  7 25  1  0  0  0  0
  8  9  1  0  0  0  0
  8 26  1  0  0  0  0
  8 27  1  0  0  0  0
  9 10  1  0  0  0  0
  9 28  1  0  0  0  0
  9 29  1  0  0  0  0
 10 15  1  0  0  0  0
 10 11  2  0  0  0  0
 11 12  1  0  0  0  0
 11 30  1  0  0  0  0
 12 13  2  0  0  0  0
 12 31  1  0  0  0  0
 13 14  1  0  0  0  0
 13 32  1  0  0  0  0
 14 15  2  0  0  0  0
 14 36  1  0  0  0  0
 15 33  1  0  0  0  0
 16 17  1  0  0  0  0
 16 34  1  0  0  0  0
 16 35  1  0  0  0  0
 17 18  2  0  0  0  0
M  CHG  1  14   1
M  END
> <s_m_source_file>
AV-unprocessed.smi

> <i_m_source_file_index>
3045

> <i_lp_mmshare_version>
43012

> <i_f3d_flags>
0

> <s_epik_input>
W0NIM11OMVtDSDJdW0NASF0oW0NIMl1DMT1PKUMoPU8pW05IXVtDSDJdW0NIMl1jMltjSF1bY0hdW2NIXW5bY0hdMg==

> <s_epik_cmdline>
J2VwaWtfcHl0aG9uJywgJy1waCcsICc3LjAnLCAnLXRuJywgJzgnLCAnLW1hJywgJzIwMCcsICctbWV0YWxfYmluZGluZycsICctaW1hZScsICc8aW5maWxlLm1hZT4nLCAnLW9tYWUnLCAnPG91dGZpbGUubWFlPic=

> <r_epik_Ionization_Penalty>
2.26523

> <r_epik_Ionization_Penalty_Charging>
2.26523

> <r_epik_Ionization_Penalty_Neutral>
2.92809e-08

> <r_epik_State_Penalty>
2.41338

> <r_epik_Charging_Adjusted_Penalty>
4.67861

> <i_epik_Tot_Q>
1

> <i_epik_Tot_abs_Q>
1

> <r_epik_Metal_State_Penalty>
2.42626

> <b_epik_Metal_Only>
0

> <s_lp_Force_Field>
OPLS_2005

> <r_lp_Energy>
17.4677

> <b_lp_Chiralities_Consistent>
1

> <s_lp_Variant>
AV-unprocessed.smi:3045-3

> <Gold.Version>
5.8.1

> <Gold.Id.Protein>
6NUR|6NUR_protein|mol2

> <Gold.PLP.Fitness>
48.4177

> <Gold.PLP.PLP>
-42.7955

> <Gold.PLP.part.hbond>
-3.0000

> <Gold.PLP.part.metal>
0.0000

> <Gold.PLP.part.buried>
-0.8125

> <Gold.PLP.part.nonpolar>
-39.4725

> <Gold.PLP.part.repulsive>
0.3011

> <Gold.PLP.ligand.clash>
0.0000

> <Gold.PLP.ligand.torsion>
0.1934

> <Gold.PLP.Chemscore.Hbond>
2.0000

> <Gold.PLP.Chemscore.CHOScore>
0.0000

> <Gold.PLP.Chemscore.Metal>
0.0000

> <Gold.Chemscore.Hbonds>
donor molecule, donor type, donor heavy atom, donor atom, acceptor molecule, acceptor atom, score
      L1  H    14    36       P1  7948  2.00

> <Gold.PLP.Chemscore.Internal.Correction>
0.0090

> <Gold.Rescore>
     Score         DG    S(hbond)    S(metal)    S(lipo)     H(rot)  DE(clash)    DE(int)     intcor
     14.96     -15.03       1.00        0.00      90.57       1.71       0.03       0.04       ----

> <Gold.Chemscore.Fitness>
14.9614

> <Gold.Chemscore.DG>
-15.0346

> <Gold.Chemscore.ZeroCoef>
-5.4800

> <Gold.Chemscore.Hbond>
0.9991

> <Gold.Chemscore.Metal>
0.0000

> <Gold.Chemscore.Lipo>
90.5689

> <Gold.Chemscore.Internal_Hbond>
0.0000

> <Gold.Chemscore.DEClash>
0.0340

> <Gold.Chemscore.DEInternal>
0.0392

> <Gold.Chemscore.Rot>
1.7105

> <Gold.Chemscore.Internal.Correction>
   9.000000E+99

> <Gold.Chemscore.Hbonds>
donor molecule, donor type, donor heavy atom, donor atom, acceptor molecule, acceptor atom, score
      L1  H    14    36       P1  7948  1.00

> <Gold.Chemscore.Hbond.Weighted>
-3.3369

> <Gold.Chemscore.Metal.Weighted>
-0.0000

> <Gold.Chemscore.Lipo.Weighted>
-10.5966

> <Gold.Chemscore.Internal_Hbond.Weighted>
0.0000

> <Gold.Chemscore.DEClash.Weighted>
0.0340

> <Gold.Chemscore.DEInternal.Weighted>
0.0392

> <Gold.Chemscore.Rot.Weighted>
4.3789

> <Gold.Chemscore.Internal.Correction.Weighted>
   9.000000E+99

> <Gold.Protein.RotatedTorsions>
[ 6907 6896 6895 6894 ] final   36.98 input  -60.11 | X-H torsion
[ 7974 7965 7964 7962 ] final   -2.49 input  175.53 | X-H torsion
[ 8008 7997 7996 7995 ] final  -84.24 input   59.86 | X-H torsion
[ 10167 10162 10161 10158 ] final  127.99 input  -65.29 | X-H torsion
[ 10718 10713 10712 10709 ] final  -43.69 input   66.30 | X-H torsion
[ 10763 10752 10751 10750 ] final   33.59 input  -60.55 | X-H torsion
[ 11005 11000 10999 10996 ] final   34.45 input  -57.11 | X-H torsion

> <Gold.Protein.ActiveResidues>
 VAL166  LYS551  ARG553  GLY616  TRP617  ASP618  TYR619  PRO620  LYS621  CYS622 
 ASP623  PHE694  ASN695  SER759  ASP760  ASP761  ALA762  ILE779  LEU786  VAL792 
 PHE793  MET794  SER795  GLU796  ALA797  LYS798  CYS799  TRP800  GLU811  SER814 

> <Gold.Protein.RotatedAtoms>
  152.1370  134.9091  160.0555 H   0  0  0  0  0  0  0  0  0  0  0  0  # atno 6907 bound_to 6896
  152.0174  133.3880  159.4252 H   0  0  0  0  0  0  0  0  0  0  0  0  # atno 6908 bound_to 6896
  150.6861  134.3585  159.4984 H   0  0  0  0  0  0  0  0  0  0  0  0  # atno 6909 bound_to 6896
  146.2403  140.1579  142.8333 H   0  0  0  0  0  0  0  0  0  0  0  0  # atno 7974 bound_to 7965
  154.6277  140.0607  156.9694 H   0  0  0  0  0  0  0  0  0  0  0  0  # atno 8008 bound_to 7997
  155.1715  140.3291  155.4373 H   0  0  0  0  0  0  0  0  0  0  0  0  # atno 8009 bound_to 7997
  156.2466  140.1913  156.6817 H   0  0  0  0  0  0  0  0  0  0  0  0  # atno 8010 bound_to 7997
  139.5550  144.6842  151.4210 H   0  0  0  0  0  0  0  0  0  0  0  0  # atno 10167 bound_to 10162
  156.2464  130.4184  149.8701 H   0  0  0  0  0  0  0  0  0  0  0  0  # atno 10718 bound_to 10713
  153.0205  135.6383  154.1535 H   0  0  0  0  0  0  0  0  0  0  0  0  # atno 10763 bound_to 10752
  154.1270  135.2843  155.3196 H   0  0  0  0  0  0  0  0  0  0  0  0  # atno 10764 bound_to 10752
  154.6222  135.5521  153.7650 H   0  0  0  0  0  0  0  0  0  0  0  0  # atno 10765 bound_to 10752
  140.2527  134.3284  155.7884 H   0  0  0  0  0  0  0  0  0  0  0  0  # atno 11005 bound_to 11000
  145.0114  140.8717  143.5222 LP  0  0  0  0  0  0  0  0  0  0  0  0  # atno 17320 bound_to 7965
  145.1613  139.2457  143.5390 LP  0  0  0  0  0  0  0  0  0  0  0  0  # atno 17321 bound_to 7965
  140.6821  143.8058  150.7135 LP  0  0  0  0  0  0  0  0  0  0  0  0  # atno 17342 bound_to 10162
  140.1515  143.4354  152.2128 LP  0  0  0  0  0  0  0  0  0  0  0  0  # atno 17343 bound_to 10162
  156.6265  130.8648  151.3486 LP  0  0  0  0  0  0  0  0  0  0  0  0  # atno 17370 bound_to 10713
  157.7196  130.9542  150.1388 LP  0  0  0  0  0  0  0  0  0  0  0  0  # atno 17371 bound_to 10713
  141.2199  133.7363  156.9063 LP  0  0  0  0  0  0  0  0  0  0  0  0  # atno 17394 bound_to 11000
  140.1542  134.9210  157.2631 LP  0  0  0  0  0  0  0  0  0  0  0  0  # atno 17395 bound_to 11000

$$$$
