#       Name:                AV-unprocessed.smi:3032
#       Creating user name   scv26
#       Creation time:       Fri Mar 27 16:53:11 2020


#       File generated by GOLD software.
#

@<TRIPOS>MOLECULE
AV-unprocessed.smi:3032
    41    42     1
SMALL
NO_CHARGES


@<TRIPOS>ATOM
      1 ****        -3.1465   2.6587  -0.9993 C.3            1 S1                 0.0000
      2 ****        -2.4404   1.7599   0.0256 C.3            1 S1                 0.0000
      3 ****        -3.1293   1.8280   1.4009 C.3            1 S1                 0.0000
      4 ****        -2.4204   0.9371   2.4318 C.3            1 S1                 0.0000
      5 ****        -2.3302  -0.5217   1.9469 C.3            1 S1                 0.0000
      6 ****        -1.7030  -0.6702   0.5405 C.3            1 S1                 0.0000
      7 ****        -0.1672  -0.5475   0.5506 C.2            1 S1                 0.0000
      8 ****         0.3856   0.4643   0.9815 O.2            1 S1                 0.0000
      9 ****         0.5150  -1.5969   0.0659 N.am           1 S1                 0.0000
     10 ****         1.9677  -1.6824  -0.0314 C.3            1 S1                 0.0000
     11 ****         2.4992  -0.9236  -1.2586 C.3            1 S1                 0.0000
     12 ****         3.9801  -1.0501  -1.4001 C.2            1 S1                 0.0000
     13 ****         4.8066  -0.1925  -0.7991 N.2            1 S1                 0.0000
     14 ****         6.0183  -0.6773  -1.1458 N.pl3          1 S1                 0.0000
     15 ****         5.8464  -1.7654  -1.8945 C.2            1 S1                 0.0000
     16 ****         4.5711  -2.0711  -2.0937 N.2            1 S1                 0.0000
     17 ****        -2.3677   0.2981  -0.4665 C.3            1 S1                 0.0000
     18 ****        -4.1762   2.3407  -1.1649 H              1 S1                 0.0000
     19 ****        -2.6321   2.6361  -1.9604 H              1 S1                 0.0000
     20 ****        -3.1681   3.6955  -0.6626 H              1 S1                 0.0000
     21 ****        -1.4259   2.1426   0.1370 H              1 S1                 0.0000
     22 ****        -3.1461   2.8577   1.7599 H              1 S1                 0.0000
     23 ****        -4.1708   1.5168   1.3075 H              1 S1                 0.0000
     24 ****        -1.4252   1.3317   2.6358 H              1 S1                 0.0000
     25 ****        -2.9575   0.9746   3.3799 H              1 S1                 0.0000
     26 ****        -1.7737  -1.1149   2.6739 H              1 S1                 0.0000
     27 ****        -3.3347  -0.9461   1.9269 H              1 S1                 0.0000
     28 ****        -1.9285  -1.6832   0.2025 H              1 S1                 0.0000
     29 ****        -0.0117  -2.3915  -0.2669 H              1 S1                 0.0000
     30 ****         2.4283  -1.3039   0.8828 H              1 S1                 0.0000
     31 ****         2.2382  -2.7363  -0.1018 H              1 S1                 0.0000
     32 ****         2.0248  -1.3011  -2.1652 H              1 S1                 0.0000
     33 ****         2.2391   0.1338  -1.1926 H              1 S1                 0.0000
     34 ****         6.6648  -2.3446  -2.2964 H              1 S1                 0.0000
     35 ****        -3.3782  -0.0572  -0.6732 H              1 S1                 0.0000
     36 ****        -1.8415   0.2582  -1.4215 H              1 S1                 0.0000
     37 ****         6.8889  -0.2551  -0.8562 H              1 S1                 0.0000
     38 ****        -0.1633   1.2230   1.3323 LP             1 S1                 0.0000
     39 ****         1.3836   0.5276   0.9808 LP             1 S1                 0.0000
     40 ****         4.5857   0.6042  -0.2366 LP             1 S1                 0.0000
     41 ****         4.1608  -2.8278  -2.6027 LP             1 S1                 0.0000
@<TRIPOS>BOND
    1    1    2 1     
    2    1   18 1     
    3    1   19 1     
    4    1   20 1     
    5    2   17 1     
    6    2    3 1     
    7    2   21 1     
    8    3    4 1     
    9    3   22 1     
   10    3   23 1     
   11    4    5 1     
   12    4   24 1     
   13    4   25 1     
   14    5    6 1     
   15    5   26 1     
   16    5   27 1     
   17    6    7 1     
   18    6   17 1     
   19    6   28 1     
   20    7    8 2     
   21    7    9 am    
   22    9   10 1     
   23    9   29 1     
   24   10   11 1     
   25   10   30 1     
   26   10   31 1     
   27   11   32 1     
   28   11   33 1     
   29   11   12 1     
   30   12   16 1     
   31   12   13 2     
   32   13   14 1     
   33   14   15 1     
   34   14   37 1     
   35   15   16 2     
   36   15   34 1     
   37   17   35 1     
   38   17   36 1     
   39    8   38 1     
   40    8   39 1     
   41   13   40 1     
   42   16   41 1     
@<TRIPOS>SUBSTRUCTURE
      1 S1             1
@<TRIPOS>SET
LONE_PAIRS      STATIC     ATOMS    <user>   **** ""
4 38 39 40 41
DONOR_HYDROGENS      STATIC     ATOMS    <user>   **** ""
2 29 37
ATOM$BLUE        STATIC     ATOMS    COLORGROUP SYSTEM
4 38 39 40 41
ATOM$RED        STATIC     ATOMS    COLORGROUP SYSTEM
2 29 37
