#       Name:                AV-unprocessed.smi:2888
#       Creating user name   scv26
#       Creation time:       Fri Mar 27 15:57:00 2020


#       File generated by GOLD software.
#

@<TRIPOS>MOLECULE
AV-unprocessed.smi:2888
    37    39     1
SMALL
NO_CHARGES


@<TRIPOS>ATOM
      1 ****        -3.5166  -1.6382   0.0364 C.3            1 S1                 0.0000
      2 ****        -2.8164  -0.3017  -0.0858 C.ar           1 S1                 0.0000
      3 ****        -3.5299   0.9141  -0.0360 C.ar           1 S1                 0.0000
      4 ****        -2.7606   2.0899  -0.1616 C.ar           1 S1                 0.0000
      5 ****        -3.3991   3.4620  -0.1216 C.3            1 S1                 0.0000
      6 ****        -1.4187   2.0499  -0.3189 N.ar           1 S1                 0.0000
      7 ****        -0.8461   0.8437  -0.3486 C.ar           1 S1                 0.0000
      8 ****         0.5281   0.8413  -0.5015 N.pl3          1 S1                 0.0000
      9 ****         1.3694  -0.3402  -0.3578 C.3            1 S1                 0.0000
     10 ****         1.5267  -0.7891   1.1005 C.3            1 S1                 0.0000
     11 ****         3.0511  -0.7915   1.2678 C.3            1 S1                 0.0000
     12 ****         3.7236  -1.9069   0.4556 C.3            1 S1                 0.0000
     13 ****         3.5974  -1.3736  -0.9713 C.3            1 S1                 0.0000
     14 ****         2.8297  -0.0627  -0.7525 C.3            1 S1                 0.0000
     15 ****         3.3879   0.3419   0.4876 O.3            1 S1                 0.0000
     16 ****        -1.4748  -0.3333  -0.2411 N.ar           1 S1                 0.0000
     17 ****        -4.5991  -1.5136   0.0767 H              1 S1                 0.0000
     18 ****        -3.1972  -2.1499   0.9446 H              1 S1                 0.0000
     19 ****        -3.2786  -2.2719  -0.8183 H              1 S1                 0.0000
     20 ****        -4.6021   0.9428   0.0919 H              1 S1                 0.0000
     21 ****        -4.4868   3.3894  -0.1066 H              1 S1                 0.0000
     22 ****        -3.1095   4.0430  -0.9977 H              1 S1                 0.0000
     23 ****        -3.0804   4.0015   0.7704 H              1 S1                 0.0000
     24 ****         0.9840   1.7406  -0.5537 H              1 S1                 0.0000
     25 ****         0.9628  -1.1398  -0.9786 H              1 S1                 0.0000
     26 ****         1.0749  -0.0768   1.7928 H              1 S1                 0.0000
     27 ****         1.0838  -1.7677   1.2887 H              1 S1                 0.0000
     28 ****         3.3817  -0.7368   2.3053 H              1 S1                 0.0000
     29 ****         4.7730  -2.0135   0.7326 H              1 S1                 0.0000
     30 ****         3.2331  -2.8710   0.5937 H              1 S1                 0.0000
     31 ****         4.5834  -1.1770  -1.3937 H              1 S1                 0.0000
     32 ****         3.0722  -2.0600  -1.6362 H              1 S1                 0.0000
     33 ****         2.9527   0.6554  -1.5643 H              1 S1                 0.0000
     34 ****        -0.8785   2.8866  -0.4090 LP             1 S1                 0.0000
     35 ****         4.3773   0.4741   0.4273 LP             1 S1                 0.0000
     36 ****         2.9607   1.1763   0.8359 LP             1 S1                 0.0000
     37 ****        -0.9734  -1.1979  -0.2743 LP             1 S1                 0.0000
@<TRIPOS>BOND
    1    1    2 1     
    2    1   17 1     
    3    1   18 1     
    4    1   19 1     
    5    2   16 ar    
    6    2    3 ar    
    7    3    4 ar    
    8    3   20 1     
    9    4    5 1     
   10    4    6 ar    
   11    5   21 1     
   12    5   22 1     
   13    5   23 1     
   14    6    7 ar    
   15    7    8 1     
   16    7   16 ar    
   17    8    9 1     
   18    8   24 1     
   19    9   14 1     
   20    9   10 1     
   21    9   25 1     
   22   10   11 1     
   23   10   26 1     
   24   10   27 1     
   25   11   15 1     
   26   11   12 1     
   27   11   28 1     
   28   12   13 1     
   29   12   29 1     
   30   12   30 1     
   31   13   14 1     
   32   13   31 1     
   33   13   32 1     
   34   14   15 1     
   35   14   33 1     
   36    6   34 1     
   37   15   35 1     
   38   15   36 1     
   39   16   37 1     
@<TRIPOS>SUBSTRUCTURE
      1 S1             1
@<TRIPOS>SET
LONE_PAIRS      STATIC     ATOMS    <user>   **** ""
4 34 35 36 37
DONOR_HYDROGENS      STATIC     ATOMS    <user>   **** ""
1 24
ATOM$BLUE        STATIC     ATOMS    COLORGROUP SYSTEM
4 34 35 36 37
ATOM$RED        STATIC     ATOMS    COLORGROUP SYSTEM
1 24
