AV-unprocessed.smi:252|AV-procd|sdf|1942|dock6
  -GOLD-   2262021 73D 1   1.00000     0.00000
 Structure written by MMmdl.
 56 59  0  0  0  0  0  0  0  0  1 V2000
  152.8943  142.7224  161.2066 C   0  0  0  0  0  0  0  0  0  0  0  0
  153.5997  141.7043  160.2971 C   0  0  0  0  0  0  0  0  0  0  0  0
  152.6399  140.8866  159.4264 C   0  0  0  0  0  0  0  0  0  0  0  0
  152.6237  139.6566  159.4817 O   0  0  0  0  0  0  0  0  0  0  0  0
  151.8362  141.5968  158.6209 N   0  0  0  0  0  0  0  0  0  0  0  0
  150.8361  141.0386  157.7170 C   0  0  2  0  0  0  0  0  0  0  0  0
  151.3713  140.9920  156.2720 C   0  0  0  0  0  0  0  0  0  0  0  0
  150.2745  140.5153  155.3083 C   0  0  0  0  0  0  0  0  0  0  0  0
  149.0122  141.3821  155.4384 C   0  0  0  0  0  0  0  0  0  0  0  0
  148.5563  141.4276  156.8283 N   0  0  0  0  0  0  0  0  0  0  0  0
  147.2999  141.8819  157.0649 C   0  0  0  0  0  0  0  0  0  0  0  0
  146.7905  141.8485  158.3256 N   0  0  0  0  0  0  0  0  0  0  0  0
  145.5494  142.2832  158.5629 C   0  0  0  0  0  0  0  0  0  0  0  0
  144.6614  142.7834  157.7019 N   0  0  0  0  0  0  0  0  0  0  0  0
  145.1671  142.8229  156.4361 C   0  0  0  0  0  0  0  0  0  0  0  0
  146.4657  142.3999  156.0346 C   0  0  0  0  0  0  0  0  0  0  0  0
  146.6317  142.6120  154.6709 N   0  0  0  0  0  0  0  0  0  0  0  0
  145.4951  143.1262  154.2879 C   0  0  0  0  0  0  0  0  0  0  0  0
  144.5530  143.2751  155.2809 N   0  0  0  0  0  0  0  0  0  0  0  0
  143.2122  143.8199  155.1346 C   0  0  0  0  0  0  0  0  0  0  0  0
  143.1673  145.2360  154.4964 C   0  0  2  0  0  0  0  0  0  0  0  0
  143.5265  145.1542  153.1302 O   0  0  0  0  0  0  0  0  0  0  0  0
  144.0682  146.2548  155.1843 C   0  0  0  0  0  0  0  0  0  0  0  0
  143.2101  146.7188  156.3577 C   0  0  0  0  0  0  0  0  0  0  0  0
  141.8598  146.5956  155.9200 O   0  0  0  0  0  0  0  0  0  0  0  0
  141.8103  145.9493  154.6506 C   0  0  2  0  0  0  0  0  0  0  0  0
  140.5521  145.0766  154.5328 C   0  0  0  0  0  0  0  0  0  0  0  0
  149.5539  141.8872  157.7935 C   0  0  0  0  0  0  0  0  0  0  0  0
  153.6193  143.2534  161.8236 H   0  0  0  0  0  0  0  0  0  0  0  0
  152.1861  142.2341  161.8770 H   0  0  0  0  0  0  0  0  0  0  0  0
  152.3510  143.4672  160.6239 H   0  0  0  0  0  0  0  0  0  0  0  0
  154.3035  142.2224  159.6450 H   0  0  0  0  0  0  0  0  0  0  0  0
  154.1859  141.0187  160.9102 H   0  0  0  0  0  0  0  0  0  0  0  0
  151.9184  142.6029  158.6405 H   0  0  0  0  0  0  0  0  0  0  0  0
  150.5887  140.0241  158.0368 H   0  0  0  0  0  0  0  0  0  0  0  0
  151.7131  141.9829  155.9700 H   0  0  0  0  0  0  0  0  0  0  0  0
  152.2352  140.3299  156.2058 H   0  0  0  0  0  0  0  0  0  0  0  0
  150.6403  140.5403  154.2817 H   0  0  0  0  0  0  0  0  0  0  0  0
  150.0266  139.4753  155.5247 H   0  0  0  0  0  0  0  0  0  0  0  0
  149.2198  142.3961  155.0932 H   0  0  0  0  0  0  0  0  0  0  0  0
  148.2267  140.9766  154.7992 H   0  0  0  0  0  0  0  0  0  0  0  0
  145.2195  142.2191  159.5894 H   0  0  0  0  0  0  0  0  0  0  0  0
  145.3088  143.4073  153.2615 H   0  0  0  0  0  0  0  0  0  0  0  0
  142.6319  143.1170  154.5360 H   0  0  0  0  0  0  0  0  0  0  0  0
  142.7468  143.8331  156.1207 H   0  0  0  0  0  0  0  0  0  0  0  0
  143.0052  144.4800  152.7220 H   0  0  0  0  0  0  0  0  0  0  0  0
  145.0430  145.8754  155.4876 H   0  0  0  0  0  0  0  0  0  0  0  0
  144.2477  147.1057  154.5246 H   0  0  0  0  0  0  0  0  0  0  0  0
  143.3583  146.0710  157.2224 H   0  0  0  0  0  0  0  0  0  0  0  0
  143.4386  147.7412  156.6589 H   0  0  0  0  0  0  0  0  0  0  0  0
  141.7474  146.7478  153.9085 H   0  0  0  0  0  0  0  0  0  0  0  0
  140.5273  144.5527  153.5770 H   0  0  0  0  0  0  0  0  0  0  0  0
  139.6524  145.6886  154.5989 H   0  0  0  0  0  0  0  0  0  0  0  0
  140.4988  144.3334  155.3284 H   0  0  0  0  0  0  0  0  0  0  0  0
  149.1629  141.8582  158.8104 H   0  0  0  0  0  0  0  0  0  0  0  0
  149.7841  142.9320  157.5788 H   0  0  0  0  0  0  0  0  0  0  0  0
  1  2  1  0  0  0  0
  1 29  1  0  0  0  0
  1 30  1  0  0  0  0
  1 31  1  0  0  0  0
  2  3  1  0  0  0  0
  2 32  1  0  0  0  0
  2 33  1  0  0  0  0
  3  4  2  0  0  0  0
  3  5  1  0  0  0  0
  5  6  1  0  0  0  0
  5 34  1  0  0  0  0
  6 28  1  0  0  0  0
  6  7  1  0  0  0  0
  6 35  1  0  0  0  0
  7  8  1  0  0  0  0
  7 36  1  0  0  0  0
  7 37  1  0  0  0  0
  8  9  1  0  0  0  0
  8 38  1  0  0  0  0
  8 39  1  0  0  0  0
  9 10  1  0  0  0  0
  9 40  1  0  0  0  0
  9 41  1  0  0  0  0
 10 11  1  0  0  0  0
 10 28  1  0  0  0  0
 11 16  1  0  0  0  0
 11 12  2  0  0  0  0
 12 13  1  0  0  0  0
 13 14  2  0  0  0  0
 13 42  1  0  0  0  0
 14 15  1  0  0  0  0
 15 19  1  0  0  0  0
 15 16  2  0  0  0  0
 16 17  1  0  0  0  0
 17 18  2  0  0  0  0
 18 19  1  0  0  0  0
 18 43  1  0  0  0  0
 19 20  1  0  0  0  0
 20 21  1  0  0  0  0
 20 44  1  0  0  0  0
 20 45  1  0  0  0  0
 21 26  1  0  0  0  0
 21 22  1  0  0  0  0
 21 23  1  0  0  0  0
 22 46  1  0  0  0  0
 23 24  1  0  0  0  0
 23 47  1  0  0  0  0
 23 48  1  0  0  0  0
 24 25  1  0  0  0  0
 24 49  1  0  0  0  0
 24 50  1  0  0  0  0
 25 26  1  0  0  0  0
 26 27  1  0  0  0  0
 26 51  1  0  0  0  0
 27 52  1  0  0  0  0
 27 53  1  0  0  0  0
 27 54  1  0  0  0  0
 28 55  1  0  0  0  0
 28 56  1  0  0  0  0
M  END
> <s_m_source_file>
AV-unprocessed.smi

> <i_m_source_file_index>
252

> <i_lp_mmshare_version>
43012

> <i_f3d_flags>
0

> <s_epik_input>
W0NIM11bQ0gyXUMoPU8pW05IXVtDQEBIXTFbQ0gyXVtDSDJdW0NIMl1OKFtDSDJdMSljKG5bY0hdbjIpYyhjMjMpbltjSF1uM1tDSDJdW0NAQF00KFtPSF0pW0NIMl1bQ0gyXU9bQ0BIXTRbQ0gzXQ==

> <s_epik_cmdline>
J2VwaWtfcHl0aG9uJywgJy1waCcsICc3LjAnLCAnLXRuJywgJzgnLCAnLW1hJywgJzIwMCcsICctbWV0YWxfYmluZGluZycsICctaW1hZScsICc8aW5maWxlLm1hZT4nLCAnLW9tYWUnLCAnPG91dGZpbGUubWFlPic=

> <r_lp_tautomer_probability>
1

> <r_epik_Ionization_Penalty>
0.00182575

> <r_epik_Ionization_Penalty_Charging>
0

> <r_epik_Ionization_Penalty_Neutral>
0.00182575

> <r_epik_State_Penalty>
0.00104524

> <r_epik_Charging_Adjusted_Penalty>
0.00104524

> <i_epik_Tot_Q>
0

> <i_epik_Tot_abs_Q>
0

> <r_epik_Metal_State_Penalty>
-0

> <b_epik_Metal_Only>
0

> <s_lp_Force_Field>
OPLS_2005

> <r_lp_Energy>
36.2255

> <b_lp_Chiralities_Consistent>
1

> <s_lp_Variant>
AV-unprocessed.smi:252-7

> <Gold.Version>
5.8.1

> <Gold.Id.Protein>
6NUR|6NUR_protein|mol2

> <Gold.PLP.Fitness>
44.7682

> <Gold.PLP.PLP>
-42.5273

> <Gold.PLP.part.hbond>
-2.0057

> <Gold.PLP.part.metal>
0.0000

> <Gold.PLP.part.buried>
-7.5806

> <Gold.PLP.part.nonpolar>
-33.3391

> <Gold.PLP.part.repulsive>
0.4635

> <Gold.PLP.ligand.clash>
0.0000

> <Gold.PLP.ligand.torsion>
0.5817

> <Gold.PLP.Chemscore.Hbond>
1.0000

> <Gold.PLP.Chemscore.CHOScore>
0.0000

> <Gold.PLP.Chemscore.Metal>
0.0000

> <Gold.Chemscore.Hbonds>
donor molecule, donor type, donor heavy atom, donor atom, acceptor molecule, acceptor atom, score
      L1  H    22    46       P1 10174  0.89

> <Gold.PLP.Chemscore.Internal.Correction>
0.4042

> <Gold.Rescore>
     Score         DG    S(hbond)    S(metal)    S(lipo)     H(rot)  DE(clash)    DE(int)     intcor
      9.26     -12.93       0.99        0.00      94.68       2.70       1.77       1.91       ----

> <Gold.Chemscore.Fitness>
9.2578

> <Gold.Chemscore.DG>
-12.9348

> <Gold.Chemscore.ZeroCoef>
-5.4800

> <Gold.Chemscore.Hbond>
0.9881

> <Gold.Chemscore.Metal>
0.0000

> <Gold.Chemscore.Lipo>
94.6766

> <Gold.Chemscore.Internal_Hbond>
0.0000

> <Gold.Chemscore.DEClash>
1.7654

> <Gold.Chemscore.DEInternal>
1.9115

> <Gold.Chemscore.Rot>
2.7041

> <Gold.Chemscore.Internal.Correction>
   9.000000E+99

> <Gold.Chemscore.Hbonds>
donor molecule, donor type, donor heavy atom, donor atom, acceptor molecule, acceptor atom, score
      L1  H    22    46       P1 10174  0.83

> <Gold.Chemscore.Hbond.Weighted>
-3.3001

> <Gold.Chemscore.Metal.Weighted>
-0.0000

> <Gold.Chemscore.Lipo.Weighted>
-11.0772

> <Gold.Chemscore.Internal_Hbond.Weighted>
0.0000

> <Gold.Chemscore.DEClash.Weighted>
1.7654

> <Gold.Chemscore.DEInternal.Weighted>
1.9115

> <Gold.Chemscore.Rot.Weighted>
6.9225

> <Gold.Chemscore.Internal.Correction.Weighted>
   9.000000E+99

> <Gold.Protein.RotatedTorsions>
[ 6907 6896 6895 6894 ] final  -83.83 input  -60.11 | X-H torsion
[ 7974 7965 7964 7962 ] final   77.64 input  175.53 | X-H torsion
[ 8008 7997 7996 7995 ] final  143.65 input   59.86 | X-H torsion
[ 10167 10162 10161 10158 ] final  173.90 input  -65.29 | X-H torsion
[ 10718 10713 10712 10709 ] final   47.31 input   66.30 | X-H torsion
[ 10763 10752 10751 10750 ] final  109.89 input  -60.55 | X-H torsion
[ 11005 11000 10999 10996 ] final  167.89 input  -57.11 | X-H torsion

> <Gold.Protein.ActiveResidues>
 VAL166  LYS551  ARG553  GLY616  TRP617  ASP618  TYR619  PRO620  LYS621  CYS622 
 ASP623  PHE694  ASN695  SER759  ASP760  ASP761  ALA762  ILE779  LEU786  VAL792 
 PHE793  MET794  SER795  GLU796  ALA797  LYS798  CYS799  TRP800  GLU811  SER814 

> <Gold.Protein.RotatedAtoms>
  150.6881  134.3451  159.4884 H   0  0  0  0  0  0  0  0  0  0  0  0  # atno 6907 bound_to 6896
  152.1299  134.9140  160.0568 H   0  0  0  0  0  0  0  0  0  0  0  0  # atno 6908 bound_to 6896
  152.0313  133.3904  159.4335 H   0  0  0  0  0  0  0  0  0  0  0  0  # atno 6909 bound_to 6896
  145.6875  139.2542  143.1779 H   0  0  0  0  0  0  0  0  0  0  0  0  # atno 7974 bound_to 7965
  156.2926  140.2257  156.4924 H   0  0  0  0  0  0  0  0  0  0  0  0  # atno 8008 bound_to 7997
  154.7759  140.0463  157.1110 H   0  0  0  0  0  0  0  0  0  0  0  0  # atno 8009 bound_to 7997
  154.9817  140.3079  155.4947 H   0  0  0  0  0  0  0  0  0  0  0  0  # atno 8010 bound_to 7997
  139.5124  144.3208  152.0204 H   0  0  0  0  0  0  0  0  0  0  0  0  # atno 10167 bound_to 10162
  157.4571  130.8174  149.7848 H   0  0  0  0  0  0  0  0  0  0  0  0  # atno 10718 bound_to 10713
  153.4411  135.3766  155.2228 H   0  0  0  0  0  0  0  0  0  0  0  0  # atno 10763 bound_to 10752
  154.8754  135.3863  154.4151 H   0  0  0  0  0  0  0  0  0  0  0  0  # atno 10764 bound_to 10752
  153.4697  135.7087  153.6064 H   0  0  0  0  0  0  0  0  0  0  0  0  # atno 10765 bound_to 10752
  140.2815  134.7746  157.3762 H   0  0  0  0  0  0  0  0  0  0  0  0  # atno 11005 bound_to 11000
  146.0911  140.7654  142.9595 LP  0  0  0  0  0  0  0  0  0  0  0  0  # atno 17320 bound_to 7965
  144.7007  140.3639  143.7158 LP  0  0  0  0  0  0  0  0  0  0  0  0  # atno 17321 bound_to 7965
  140.2650  144.4026  150.6172 LP  0  0  0  0  0  0  0  0  0  0  0  0  # atno 17342 bound_to 10162
  140.6130  143.2170  151.6848 LP  0  0  0  0  0  0  0  0  0  0  0  0  # atno 17343 bound_to 10162
  156.0012  130.3879  150.2599 LP  0  0  0  0  0  0  0  0  0  0  0  0  # atno 17370 bound_to 10713
  157.0774  131.0134  151.3169 LP  0  0  0  0  0  0  0  0  0  0  0  0  # atno 17371 bound_to 10713
  140.1278  134.5134  155.8130 LP  0  0  0  0  0  0  0  0  0  0  0  0  # atno 17394 bound_to 11000
  141.2162  133.6779  156.6985 LP  0  0  0  0  0  0  0  0  0  0  0  0  # atno 17395 bound_to 11000

$$$$
