AV-unprocessed.smi:2983|AV-procd|sdf|11377|dock1
  -GOLD-   2272016293D 1   1.00000     0.00000
 Structure written by MMmdl.
 39 40  0  0  0  0  0  0  0  0  1 V2000
  151.3852  145.2852  159.4524 C   0  0  0  0  0  0  0  0  0  0  0  0
  152.0611  144.0860  158.7790 C   0  0  0  0  0  0  0  0  0  0  0  0
  153.1025  143.4136  159.6834 C   0  0  0  0  0  0  0  0  0  0  0  0
  152.4574  142.6431  160.8472 C   0  0  0  0  0  0  0  0  0  0  0  0
  153.4240  142.2357  161.8471 N   0  0  0  0  0  0  0  0  0  0  0  0
  153.3951  142.6724  163.1748 C   0  0  0  0  0  0  0  0  0  0  0  0
  152.3848  143.5406  163.5561 N   0  0  0  0  0  0  0  0  0  0  0  0
  154.3214  142.2620  164.0887 C   0  0  0  0  0  0  0  0  0  0  0  0
  154.3236  142.6623  165.4203 N   0  0  0  0  0  0  0  0  0  0  0  0
  154.2605  144.0559  165.8413 C   0  0  0  0  0  0  0  0  0  0  0  0
  155.5093  144.4317  166.6607 C   0  0  0  0  0  0  0  0  0  0  0  0
  155.6656  143.5220  167.7461 O   0  0  0  0  0  0  0  0  0  0  0  0
  155.8222  142.1769  167.3031 C   0  0  0  0  0  0  0  0  0  0  0  0
  154.5678  141.7447  166.5245 C   0  0  0  0  0  0  0  0  0  0  0  0
  155.3891  141.3347  163.7005 C   0  0  0  0  0  0  0  0  0  0  0  0
  156.2785  140.9142  164.4398 O   0  0  0  0  0  0  0  0  0  0  0  0
  155.3480  140.9137  162.3734 N   0  0  0  0  0  0  0  0  0  0  0  0
  154.4081  141.3088  161.4278 C   0  0  0  0  0  0  0  0  0  0  0  0
  154.4660  140.8455  160.2883 O   0  0  0  0  0  0  0  0  0  0  0  0
  156.0569  140.2600  162.0744 H   0  0  0  0  0  0  0  0  0  0  0  0
  150.6501  145.7413  158.7888 H   0  0  0  0  0  0  0  0  0  0  0  0
  152.1154  146.0507  159.7162 H   0  0  0  0  0  0  0  0  0  0  0  0
  150.8689  144.9845  160.3643 H   0  0  0  0  0  0  0  0  0  0  0  0
  151.3007  143.3578  158.4937 H   0  0  0  0  0  0  0  0  0  0  0  0
  152.5370  144.4149  157.8544 H   0  0  0  0  0  0  0  0  0  0  0  0
  153.7118  142.7311  159.0897 H   0  0  0  0  0  0  0  0  0  0  0  0
  153.7825  144.1707  160.0761 H   0  0  0  0  0  0  0  0  0  0  0  0
  151.6767  143.2228  161.3431 H   0  0  0  0  0  0  0  0  0  0  0  0
  151.9580  141.7386  160.5012 H   0  0  0  0  0  0  0  0  0  0  0  0
  151.6837  143.8556  162.9013 H   0  0  0  0  0  0  0  0  0  0  0  0
  152.2918  143.8669  164.5072 H   0  0  0  0  0  0  0  0  0  0  0  0
  154.1703  144.7090  164.9725 H   0  0  0  0  0  0  0  0  0  0  0  0
  153.3595  144.2008  166.4389 H   0  0  0  0  0  0  0  0  0  0  0  0
  156.4052  144.4258  166.0391 H   0  0  0  0  0  0  0  0  0  0  0  0
  155.4077  145.4420  167.0569 H   0  0  0  0  0  0  0  0  0  0  0  0
  156.7161  142.0879  166.6839 H   0  0  0  0  0  0  0  0  0  0  0  0
  155.9688  141.5322  168.1697 H   0  0  0  0  0  0  0  0  0  0  0  0
  153.6968  141.7368  167.1806 H   0  0  0  0  0  0  0  0  0  0  0  0
  154.6905  140.7274  166.1503 H   0  0  0  0  0  0  0  0  0  0  0  0
  1  2  1  0  0  0  0
  1 21  1  0  0  0  0
  1 22  1  0  0  0  0
  1 23  1  0  0  0  0
  2  3  1  0  0  0  0
  2 24  1  0  0  0  0
  2 25  1  0  0  0  0
  3  4  1  0  0  0  0
  3 26  1  0  0  0  0
  3 27  1  0  0  0  0
  4  5  1  0  0  0  0
  4 28  1  0  0  0  0
  4 29  1  0  0  0  0
  5 18  1  0  0  0  0
  5  6  1  0  0  0  0
  6  7  1  0  0  0  0
  6  8  2  0  0  0  0
  7 30  1  0  0  0  0
  7 31  1  0  0  0  0
  8  9  1  0  0  0  0
  8 15  1  0  0  0  0
  9 14  1  0  0  0  0
  9 10  1  0  0  0  0
 10 11  1  0  0  0  0
 10 32  1  0  0  0  0
 10 33  1  0  0  0  0
 11 12  1  0  0  0  0
 11 34  1  0  0  0  0
 11 35  1  0  0  0  0
 12 13  1  0  0  0  0
 13 14  1  0  0  0  0
 13 36  1  0  0  0  0
 13 37  1  0  0  0  0
 14 38  1  0  0  0  0
 14 39  1  0  0  0  0
 15 16  2  0  0  0  0
 15 17  1  0  0  0  0
 17 20  1  0  0  0  0
 17 18  1  0  0  0  0
 18 19  2  0  0  0  0
M  END
> <s_m_source_file>
AV-unprocessed.smi

> <i_m_source_file_index>
2983

> <i_lp_mmshare_version>
43012

> <i_f3d_flags>
0

> <s_epik_input>
W0NIM11bQ0gyXVtDSDJdW0NIMl1uMWMoW05IMl0pYyhjKD1PKVtuSF1jMT1PKU4yW0NIMl1bQ0gyXU9bQ0gyXVtDSDJdMg==

> <s_epik_cmdline>
J2VwaWtfcHl0aG9uJywgJy1waCcsICc3LjAnLCAnLXRuJywgJzgnLCAnLW1hJywgJzIwMCcsICctbWV0YWxfYmluZGluZycsICctaW1hZScsICc8aW5maWxlLm1hZT4nLCAnLW9tYWUnLCAnPG91dGZpbGUubWFlPic=

> <r_lp_tautomer_probability>
1

> <r_epik_Ionization_Penalty>
1.02563e-05

> <r_epik_Ionization_Penalty_Charging>
2.70122e-06

> <r_epik_Ionization_Penalty_Neutral>
7.55508e-06

> <r_epik_State_Penalty>
-0

> <r_epik_Charging_Adjusted_Penalty>
2.70122e-06

> <i_epik_Tot_Q>
0

> <i_epik_Tot_abs_Q>
0

> <r_epik_Metal_State_Penalty>
-0

> <b_epik_Metal_Only>
0

> <s_epik_Chemistry_Notes>
This compound has an imine and may undergo hydrolysis.

> <s_lp_Force_Field>
OPLS_2005

> <r_lp_Energy>
27.0785

> <b_lp_Chiralities_Consistent>
1

> <s_lp_Variant>
AV-unprocessed.smi:2983-1

> <Gold.Version>
5.8.1

> <Gold.Id.Protein>
6NUR|6NUR_protein|mol2

> <Gold.PLP.Fitness>
41.5700

> <Gold.PLP.PLP>
-41.7185

> <Gold.PLP.part.hbond>
-1.5889

> <Gold.PLP.part.metal>
0.0000

> <Gold.PLP.part.buried>
1.9983

> <Gold.PLP.part.nonpolar>
-40.2136

> <Gold.PLP.part.repulsive>
0.0954

> <Gold.PLP.ligand.clash>
0.0000

> <Gold.PLP.ligand.torsion>
0.8836

> <Gold.PLP.Chemscore.Hbond>
0.0000

> <Gold.PLP.Chemscore.CHOScore>
0.0000

> <Gold.PLP.Chemscore.Metal>
0.0000

> <Gold.PLP.Chemscore.Internal.Correction>
1.6187

> <Gold.Rescore>
     Score         DG    S(hbond)    S(metal)    S(lipo)     H(rot)  DE(clash)    DE(int)     intcor
     10.41     -14.08       0.93        0.00      78.79       1.45       0.13       3.54       ----

> <Gold.Chemscore.Fitness>
10.4115

> <Gold.Chemscore.DG>
-14.0826

> <Gold.Chemscore.ZeroCoef>
-5.4800

> <Gold.Chemscore.Hbond>
0.9280

> <Gold.Chemscore.Metal>
0.0000

> <Gold.Chemscore.Lipo>
78.7947

> <Gold.Chemscore.Internal_Hbond>
0.0000

> <Gold.Chemscore.DEClash>
0.1326

> <Gold.Chemscore.DEInternal>
3.5386

> <Gold.Chemscore.Rot>
1.4515

> <Gold.Chemscore.Internal.Correction>
   9.000000E+99

> <Gold.Chemscore.Hbond.Weighted>
-3.0995

> <Gold.Chemscore.Metal.Weighted>
-0.0000

> <Gold.Chemscore.Lipo.Weighted>
-9.2190

> <Gold.Chemscore.Internal_Hbond.Weighted>
0.0000

> <Gold.Chemscore.DEClash.Weighted>
0.1326

> <Gold.Chemscore.DEInternal.Weighted>
3.5386

> <Gold.Chemscore.Rot.Weighted>
3.7159

> <Gold.Chemscore.Internal.Correction.Weighted>
   9.000000E+99

> <Gold.Protein.RotatedTorsions>
[ 6907 6896 6895 6894 ] final  -88.65 input  -60.11 | X-H torsion
[ 7974 7965 7964 7962 ] final   17.69 input  175.53 | X-H torsion
[ 8008 7997 7996 7995 ] final  139.24 input   59.86 | X-H torsion
[ 10167 10162 10161 10158 ] final -142.29 input  -65.29 | X-H torsion
[ 10718 10713 10712 10709 ] final   83.07 input   66.30 | X-H torsion
[ 10763 10752 10751 10750 ] final  -19.49 input  -60.55 | X-H torsion
[ 11005 11000 10999 10996 ] final  -77.91 input  -57.11 | X-H torsion

> <Gold.Protein.ActiveResidues>
 VAL166  LYS551  ARG553  GLY616  TRP617  ASP618  TYR619  PRO620  LYS621  CYS622 
 ASP623  PHE694  ASN695  SER759  ASP760  ASP761  ALA762  ILE779  LEU786  VAL792 
 PHE793  MET794  SER795  GLU796  ALA797  LYS798  CYS799  TRP800  GLU811  SER814 

> <Gold.Protein.RotatedAtoms>
  150.6869  134.2709  159.4587 H   0  0  0  0  0  0  0  0  0  0  0  0  # atno 6907 bound_to 6896
  152.0632  134.9578  160.0584 H   0  0  0  0  0  0  0  0  0  0  0  0  # atno 6908 bound_to 6896
  152.0997  133.4209  159.4618 H   0  0  0  0  0  0  0  0  0  0  0  0  # atno 6909 bound_to 6896
  146.2210  139.8565  142.8613 H   0  0  0  0  0  0  0  0  0  0  0  0  # atno 7974 bound_to 7965
  156.2991  140.2373  156.4205 H   0  0  0  0  0  0  0  0  0  0  0  0  # atno 8008 bound_to 7997
  154.8360  140.0430  157.1529 H   0  0  0  0  0  0  0  0  0  0  0  0  # atno 8009 bound_to 7997
  154.9155  140.2996  155.5247 H   0  0  0  0  0  0  0  0  0  0  0  0  # atno 8010 bound_to 7997
  139.8103  143.7712  152.2663 H   0  0  0  0  0  0  0  0  0  0  0  0  # atno 10167 bound_to 10162
  157.6871  131.0075  150.2469 H   0  0  0  0  0  0  0  0  0  0  0  0  # atno 10718 bound_to 10713
  153.6056  135.6998  153.5367 H   0  0  0  0  0  0  0  0  0  0  0  0  # atno 10763 bound_to 10752
  153.3060  135.4115  155.1294 H   0  0  0  0  0  0  0  0  0  0  0  0  # atno 10764 bound_to 10752
  154.8574  135.3660  154.5593 H   0  0  0  0  0  0  0  0  0  0  0  0  # atno 10765 bound_to 10752
  141.1662  133.7041  156.7891 H   0  0  0  0  0  0  0  0  0  0  0  0  # atno 11005 bound_to 11000
  145.2748  141.0120  143.3751 LP  0  0  0  0  0  0  0  0  0  0  0  0  # atno 17320 bound_to 7965
  144.9195  139.4429  143.6548 LP  0  0  0  0  0  0  0  0  0  0  0  0  # atno 17321 bound_to 7965
  139.7859  144.7428  151.0023 LP  0  0  0  0  0  0  0  0  0  0  0  0  # atno 17342 bound_to 10162
  140.7818  143.4493  151.0436 LP  0  0  0  0  0  0  0  0  0  0  0  0  # atno 17343 bound_to 10162
  156.3073  130.3767  149.7694 LP  0  0  0  0  0  0  0  0  0  0  0  0  # atno 17370 bound_to 10713
  156.5306  130.8256  151.3235 LP  0  0  0  0  0  0  0  0  0  0  0  0  # atno 17371 bound_to 10713
  140.2338  134.8665  157.3504 LP  0  0  0  0  0  0  0  0  0  0  0  0  # atno 17394 bound_to 11000
  140.1864  134.4426  155.7741 LP  0  0  0  0  0  0  0  0  0  0  0  0  # atno 17395 bound_to 11000

$$$$
