#       Name:                AV-unprocessed.smi:1978
#       Creating user name   scv26
#       Creation time:       Fri Mar 27 10:17:33 2020


#       File generated by GOLD software.
#

@<TRIPOS>MOLECULE
AV-unprocessed.smi:1978
    50    51     1
SMALL
NO_CHARGES


@<TRIPOS>ATOM
      1 ****        -4.5043   6.5449  -2.6000 C.3            1 S1                 0.0000
      2 ****        -3.8998   5.2335  -2.2316 C.2            1 S1                 0.0000
      3 ****        -3.1414   4.8240  -1.1709 C.2            1 S1                 0.0000
      4 ****        -2.9104   3.4516  -1.4543 C.2            1 S1                 0.0000
      5 ****        -2.1416   2.6454  -0.5760 N.am           1 S1                 0.0000
      6 ****        -1.8188   1.3496  -0.7281 C.2            1 S1                 0.0000
      7 ****        -2.1557   0.6415  -1.6773 O.2            1 S1                 0.0000
      8 ****        -1.0620   0.9117   0.2897 N.am           1 S1                 0.0000
      9 ****        -0.5469  -0.4486   0.4365 C.3            1 S1                 0.0000
     10 ****         0.9915  -0.5507   0.2207 C.3            1 S1                 0.0000
     11 ****         1.3706   0.0249  -1.1673 C.3            1 S1                 0.0000
     12 ****         1.5120  -1.9544   0.3843 N.4            1 S1                 1.0000
     13 ****         3.0018  -2.0614   0.3096 C.3            1 S1                 0.0000
     14 ****         3.4682  -3.5245   0.2345 C.3            1 S1                 0.0000
     15 ****         2.9408  -4.3419   1.4148 C.3            1 S1                 0.0000
     16 ****         1.4167  -4.2042   1.4909 C.3            1 S1                 0.0000
     17 ****         0.9647  -2.7294   1.5488 C.3            1 S1                 0.0000
     18 ****         1.2754  -2.0838   2.9183 C.3            1 S1                 0.0000
     19 ****        -3.4777   3.0585  -2.5843 N.2            1 S1                 0.0000
     20 ****        -4.1155   4.1982  -3.0877 O.3            1 S1                 0.0000
     21 ****        -4.0684   7.3530  -2.0124 H              1 S1                 0.0000
     22 ****        -5.5794   6.5373  -2.4210 H              1 S1                 0.0000
     23 ****        -4.3374   6.7667  -3.6543 H              1 S1                 0.0000
     24 ****        -2.8069   5.4146  -0.3310 H              1 S1                 0.0000
     25 ****        -1.7947   3.1080   0.2510 H              1 S1                 0.0000
     26 ****        -0.8326   1.5656   1.0243 H              1 S1                 0.0000
     27 ****        -0.8239  -0.7349   1.4495 H              1 S1                 0.0000
     28 ****        -1.0655  -1.1409  -0.2289 H              1 S1                 0.0000
     29 ****         1.4726   0.0703   0.9779 H              1 S1                 0.0000
     30 ****         0.9649   1.0233  -1.3237 H              1 S1                 0.0000
     31 ****         0.9963  -0.6087  -1.9722 H              1 S1                 0.0000
     32 ****         2.4438   0.1443  -1.3010 H              1 S1                 0.0000
     33 ****         3.3943  -1.5722  -0.5776 H              1 S1                 0.0000
     34 ****         3.4573  -1.5575   1.1623 H              1 S1                 0.0000
     35 ****         3.1225  -3.9681  -0.7001 H              1 S1                 0.0000
     36 ****         4.5577  -3.5672   0.2115 H              1 S1                 0.0000
     37 ****         3.2182  -5.3901   1.2992 H              1 S1                 0.0000
     38 ****         3.4007  -4.0006   2.3426 H              1 S1                 0.0000
     39 ****         0.9739  -4.6801   0.6147 H              1 S1                 0.0000
     40 ****         1.0363  -4.7517   2.3541 H              1 S1                 0.0000
     41 ****        -0.1184  -2.7808   1.4497 H              1 S1                 0.0000
     42 ****         0.8226  -2.6618   3.7245 H              1 S1                 0.0000
     43 ****         0.8801  -1.0718   2.9953 H              1 S1                 0.0000
     44 ****         2.3443  -2.0327   3.1221 H              1 S1                 0.0000
     45 ****         1.1719  -2.4471  -0.4292 H              1 S1                 0.0000
     46 ****        -2.7139   1.0243  -2.4133 LP             1 S1                 0.0000
     47 ****        -1.8710  -0.3165  -1.7122 LP             1 S1                 0.0000
     48 ****        -3.4553   2.1449  -2.9902 LP             1 S1                 0.0000
     49 ****        -3.7421   4.4226  -3.9878 LP             1 S1                 0.0000
     50 ****        -5.0974   4.0266  -3.1674 LP             1 S1                 0.0000
@<TRIPOS>BOND
    1    1    2 1     
    2    1   21 1     
    3    1   22 1     
    4    1   23 1     
    5    2   20 1     
    6    2    3 2     
    7    3    4 1     
    8    3   24 1     
    9    4    5 1     
   10    4   19 2     
   11    5    6 am    
   12    5   25 1     
   13    6    7 2     
   14    6    8 am    
   15    8    9 1     
   16    8   26 1     
   17    9   10 1     
   18    9   27 1     
   19    9   28 1     
   20   10   11 1     
   21   10   12 1     
   22   10   29 1     
   23   11   30 1     
   24   11   31 1     
   25   11   32 1     
   26   12   17 1     
   27   12   13 1     
   28   12   45 1     
   29   13   14 1     
   30   13   33 1     
   31   13   34 1     
   32   14   15 1     
   33   14   35 1     
   34   14   36 1     
   35   15   16 1     
   36   15   37 1     
   37   15   38 1     
   38   16   17 1     
   39   16   39 1     
   40   16   40 1     
   41   17   18 1     
   42   17   41 1     
   43   18   42 1     
   44   18   43 1     
   45   18   44 1     
   46   19   20 1     
   47    7   46 1     
   48    7   47 1     
   49   19   48 1     
   50   20   49 1     
   51   20   50 1     
@<TRIPOS>SUBSTRUCTURE
      1 S1             1
@<TRIPOS>SET
LONE_PAIRS      STATIC     ATOMS    <user>   **** ""
5 46 47 48 49 50
DONOR_HYDROGENS      STATIC     ATOMS    <user>   **** ""
3 25 26 45
ATOM$BLUE        STATIC     ATOMS    COLORGROUP SYSTEM
5 46 47 48 49 50
ATOM$RED        STATIC     ATOMS    COLORGROUP SYSTEM
3 25 26 45
