AV-unprocessed.smi:1230|AV-procd|sdf|5159|dock7
  -GOLD-   22720 4233D 1   1.00000     0.00000
 Structure written by MMmdl.
 39 40  0  0  0  0  0  0  0  0  1 V2000
  153.0376  141.8735  161.3625 C   0  0  0  0  0  0  0  0  0  0  0  0
  152.1697  142.8050  160.5004 C   0  0  1  0  0  0  0  0  0  0  0  0
  152.2462  144.2543  161.0212 C   0  0  0  0  0  0  0  0  0  0  0  0
  151.3942  145.2113  160.1739 C   0  0  0  0  0  0  0  0  0  0  0  0
  151.8006  145.1474  158.6954 C   0  0  0  0  0  0  0  0  0  0  0  0
  151.7165  143.7096  158.1623 C   0  0  0  0  0  0  0  0  0  0  0  0
  152.5674  142.7385  159.0082 C   0  0  2  0  0  0  0  0  0  0  0  0
  152.3548  141.4056  158.5587 O   0  0  0  0  0  0  0  0  0  0  0  0
  151.0084  140.9651  158.6435 C   0  0  0  0  0  0  0  0  0  0  0  0
  150.4635  140.7906  157.2180 C   0  0  0  0  0  0  0  0  0  0  0  0
  150.6466  139.4548  156.7083 N   0  0  0  0  0  0  0  0  0  0  0  0
  150.1250  138.3385  157.3444 C   0  0  0  0  0  0  0  0  0  0  0  0
  150.3084  137.0791  156.8822 C   0  0  0  0  0  0  0  0  0  0  0  0
  149.7674  135.9407  157.5487 C   0  0  0  0  0  0  0  0  0  0  0  0
  149.3395  135.0246  158.1116 N   0  0  0  0  0  0  0  0  0  0  0  0
  151.0834  136.8344  155.6669 C   0  0  0  0  0  0  0  0  0  0  0  0
  151.3037  135.7333  155.1664 O   0  0  0  0  0  0  0  0  0  0  0  0
  151.5948  137.9901  155.0674 N   0  0  0  0  0  0  0  0  0  0  0  0
  151.4176  139.2948  155.5327 C   0  0  0  0  0  0  0  0  0  0  0  0
  151.9260  140.2371  154.9248 O   0  0  0  0  0  0  0  0  0  0  0  0
  152.1424  137.8706  154.2274 H   0  0  0  0  0  0  0  0  0  0  0  0
  154.0921  142.1444  161.3005 H   0  0  0  0  0  0  0  0  0  0  0  0
  152.9425  140.8348  161.0456 H   0  0  0  0  0  0  0  0  0  0  0  0
  152.7429  141.9218  162.4112 H   0  0  0  0  0  0  0  0  0  0  0  0
  151.1345  142.4718  160.5906 H   0  0  0  0  0  0  0  0  0  0  0  0
  151.9139  144.2955  162.0591 H   0  0  0  0  0  0  0  0  0  0  0  0
  153.2831  144.5933  161.0165 H   0  0  0  0  0  0  0  0  0  0  0  0
  150.3398  144.9519  160.2766 H   0  0  0  0  0  0  0  0  0  0  0  0
  151.5002  146.2309  160.5451 H   0  0  0  0  0  0  0  0  0  0  0  0
  151.1584  145.8013  158.1047 H   0  0  0  0  0  0  0  0  0  0  0  0
  152.8178  145.5231  158.5775 H   0  0  0  0  0  0  0  0  0  0  0  0
  150.6760  143.3822  158.1673 H   0  0  0  0  0  0  0  0  0  0  0  0
  152.0376  143.6955  157.1212 H   0  0  0  0  0  0  0  0  0  0  0  0
  153.6229  143.0040  158.9211 H   0  0  0  0  0  0  0  0  0  0  0  0
  150.9455  140.0261  159.1931 H   0  0  0  0  0  0  0  0  0  0  0  0
  150.4109  141.7024  159.1819 H   0  0  0  0  0  0  0  0  0  0  0  0
  149.3900  140.9834  157.1902 H   0  0  0  0  0  0  0  0  0  0  0  0
  150.9177  141.4843  156.5070 H   0  0  0  0  0  0  0  0  0  0  0  0
  149.5493  138.4729  158.2495 H   0  0  0  0  0  0  0  0  0  0  0  0
  1  2  1  0  0  0  0
  1 22  1  0  0  0  0
  1 23  1  0  0  0  0
  1 24  1  0  0  0  0
  2  7  1  0  0  0  0
  2  3  1  0  0  0  0
  2 25  1  0  0  0  0
  3  4  1  0  0  0  0
  3 26  1  0  0  0  0
  3 27  1  0  0  0  0
  4  5  1  0  0  0  0
  4 28  1  0  0  0  0
  4 29  1  0  0  0  0
  5  6  1  0  0  0  0
  5 30  1  0  0  0  0
  5 31  1  0  0  0  0
  6  7  1  0  0  0  0
  6 32  1  0  0  0  0
  6 33  1  0  0  0  0
  7  8  1  0  0  0  0
  7 34  1  0  0  0  0
  8  9  1  0  0  0  0
  9 10  1  0  0  0  0
  9 35  1  0  0  0  0
  9 36  1  0  0  0  0
 10 11  1  0  0  0  0
 10 37  1  0  0  0  0
 10 38  1  0  0  0  0
 11 19  1  0  0  0  0
 11 12  1  0  0  0  0
 12 13  2  0  0  0  0
 12 39  1  0  0  0  0
 13 14  1  0  0  0  0
 13 16  1  0  0  0  0
 14 15  3  0  0  0  0
 16 17  2  0  0  0  0
 16 18  1  0  0  0  0
 18 21  1  0  0  0  0
 18 19  1  0  0  0  0
 19 20  2  0  0  0  0
M  END
> <s_m_source_file>
AV-unprocessed.smi

> <i_m_source_file_index>
1230

> <i_lp_mmshare_version>
43012

> <i_f3d_flags>
0

> <s_epik_input>
W0NIM11bQ0BASF0xW0NIMl1bQ0gyXVtDSDJdW0NIMl1bQ0BIXTFPW0NIMl1bQ0gyXW4yW2NIXWMoQyNOKWMoPU8pW25IXWMyPU8=

> <s_epik_cmdline>
J2VwaWtfcHl0aG9uJywgJy1waCcsICc3LjAnLCAnLXRuJywgJzgnLCAnLW1hJywgJzIwMCcsICctbWV0YWxfYmluZGluZycsICctaW1hZScsICc8aW5maWxlLm1hZT4nLCAnLW9tYWUnLCAnPG91dGZpbGUubWFlPic=

> <r_epik_Ionization_Penalty>
0.421541

> <r_epik_Ionization_Penalty_Charging>
0.421541

> <r_epik_Ionization_Penalty_Neutral>
2.29267e-11

> <r_epik_State_Penalty>
0.422277

> <r_epik_Charging_Adjusted_Penalty>
0.843818

> <i_epik_Tot_Q>
0

> <i_epik_Tot_abs_Q>
0

> <r_epik_Metal_State_Penalty>
4.11629

> <b_epik_Metal_Only>
0

> <s_lp_Force_Field>
OPLS_2005

> <r_lp_Energy>
13.3669

> <b_lp_Chiralities_Consistent>
1

> <s_lp_Variant>
AV-unprocessed.smi:1230-8

> <Gold.Version>
5.8.1

> <Gold.Id.Protein>
6NUR|6NUR_protein|mol2

> <Gold.PLP.Fitness>
47.0327

> <Gold.PLP.PLP>
-39.7510

> <Gold.PLP.part.hbond>
-2.9492

> <Gold.PLP.part.metal>
0.0000

> <Gold.PLP.part.buried>
-6.3579

> <Gold.PLP.part.nonpolar>
-31.2597

> <Gold.PLP.part.repulsive>
0.2696

> <Gold.PLP.ligand.clash>
0.0000

> <Gold.PLP.ligand.torsion>
0.5625

> <Gold.PLP.Chemscore.Hbond>
2.8000

> <Gold.PLP.Chemscore.CHOScore>
0.0000

> <Gold.PLP.Chemscore.Metal>
0.0000

> <Gold.Chemscore.Hbonds>
donor molecule, donor type, donor heavy atom, donor atom, acceptor molecule, acceptor atom, score
      P1  H  6896  6909       L1    15  1.00
      P1  H  7989  7998       L1    20  0.82
      P1  H 10752 10763       L1    17  1.00

> <Gold.PLP.Chemscore.Internal.Correction>
0.0067

> <Gold.Rescore>
     Score         DG    S(hbond)    S(metal)    S(lipo)     H(rot)  DE(clash)    DE(int)     intcor
     20.47     -21.08       2.72        0.00      97.98       1.94       0.04       0.56       ----

> <Gold.Chemscore.Fitness>
20.4719

> <Gold.Chemscore.DG>
-21.0764

> <Gold.Chemscore.ZeroCoef>
-5.4800

> <Gold.Chemscore.Hbond>
2.7233

> <Gold.Chemscore.Metal>
0.0000

> <Gold.Chemscore.Lipo>
97.9759

> <Gold.Chemscore.Internal_Hbond>
0.0000

> <Gold.Chemscore.DEClash>
0.0422

> <Gold.Chemscore.DEInternal>
0.5623

> <Gold.Chemscore.Rot>
1.9385

> <Gold.Chemscore.Internal.Correction>
   9.000000E+99

> <Gold.Chemscore.Hbonds>
donor molecule, donor type, donor heavy atom, donor atom, acceptor molecule, acceptor atom, score
      P1  H  6896  6909       L1    15  0.81
      P1  H  7989  7998       L1    20  0.77
      P1  H 10752 10763       L1    17  0.75

> <Gold.Chemscore.Hbond.Weighted>
-9.0957

> <Gold.Chemscore.Metal.Weighted>
-0.0000

> <Gold.Chemscore.Lipo.Weighted>
-11.4632

> <Gold.Chemscore.Internal_Hbond.Weighted>
0.0000

> <Gold.Chemscore.DEClash.Weighted>
0.0422

> <Gold.Chemscore.DEInternal.Weighted>
0.5623

> <Gold.Chemscore.Rot.Weighted>
4.9625

> <Gold.Chemscore.Internal.Correction.Weighted>
   9.000000E+99

> <Gold.Protein.RotatedTorsions>
[ 6907 6896 6895 6894 ] final   21.51 input  -60.11 | X-H torsion
[ 7974 7965 7964 7962 ] final   32.21 input  175.53 | X-H torsion
[ 8008 7997 7996 7995 ] final  132.16 input   59.86 | X-H torsion
[ 10167 10162 10161 10158 ] final  -89.97 input  -65.29 | X-H torsion
[ 10718 10713 10712 10709 ] final -104.81 input   66.30 | X-H torsion
[ 10763 10752 10751 10750 ] final   80.80 input  -60.55 | X-H torsion
[ 11005 11000 10999 10996 ] final  111.70 input  -57.11 | X-H torsion

> <Gold.Protein.ActiveResidues>
 VAL166  LYS551  ARG553  GLY616  TRP617  ASP618  TYR619  PRO620  LYS621  CYS622 
 ASP623  PHE694  ASN695  SER759  ASP760  ASP761  ALA762  ILE779  LEU786  VAL792 
 PHE793  MET794  SER795  GLU796  ALA797  LYS798  CYS799  TRP800  GLU811  SER814 

> <Gold.Protein.RotatedAtoms>
  151.9128  135.0331  160.0515 H   0  0  0  0  0  0  0  0  0  0  0  0  # atno 6907 bound_to 6896
  152.2265  133.5019  159.5200 H   0  0  0  0  0  0  0  0  0  0  0  0  # atno 6908 bound_to 6896
  150.7013  134.1190  159.4070 H   0  0  0  0  0  0  0  0  0  0  0  0  # atno 6909 bound_to 6896
  146.1501  139.6555  142.9105 H   0  0  0  0  0  0  0  0  0  0  0  0  # atno 7974 bound_to 7965
  156.2979  140.2553  156.3044 H   0  0  0  0  0  0  0  0  0  0  0  0  # atno 8008 bound_to 7997
  154.9386  140.0396  157.2104 H   0  0  0  0  0  0  0  0  0  0  0  0  # atno 8009 bound_to 7997
  154.8148  140.2850  155.5832 H   0  0  0  0  0  0  0  0  0  0  0  0  # atno 8010 bound_to 7997
  140.3595  143.2849  151.9631 H   0  0  0  0  0  0  0  0  0  0  0  0  # atno 10167 bound_to 10162
  156.0320  130.5533  150.7449 H   0  0  0  0  0  0  0  0  0  0  0  0  # atno 10718 bound_to 10713
  153.1064  135.4789  154.8958 H   0  0  0  0  0  0  0  0  0  0  0  0  # atno 10763 bound_to 10752
  154.7434  135.3088  154.8690 H   0  0  0  0  0  0  0  0  0  0  0  0  # atno 10764 bound_to 10752
  153.9292  135.6846  153.4799 H   0  0  0  0  0  0  0  0  0  0  0  0  # atno 10765 bound_to 10752
  139.8910  134.9514  156.6472 H   0  0  0  0  0  0  0  0  0  0  0  0  # atno 11005 bound_to 11000
  145.4844  141.0438  143.2628 LP  0  0  0  0  0  0  0  0  0  0  0  0  # atno 17320 bound_to 7965
  144.7893  139.6361  143.7120 LP  0  0  0  0  0  0  0  0  0  0  0  0  # atno 17321 bound_to 7965
  139.4816  144.6005  151.7614 LP  0  0  0  0  0  0  0  0  0  0  0  0  # atno 17342 bound_to 10162
  140.5141  144.0980  150.6003 LP  0  0  0  0  0  0  0  0  0  0  0  0  # atno 17343 bound_to 10162
  157.5009  131.0918  151.0316 LP  0  0  0  0  0  0  0  0  0  0  0  0  # atno 17370 bound_to 10713
  157.0697  130.5859  149.5400 LP  0  0  0  0  0  0  0  0  0  0  0  0  # atno 17371 bound_to 10713
  140.7548  133.8867  155.8374 LP  0  0  0  0  0  0  0  0  0  0  0  0  # atno 17394 bound_to 11000
  140.9971  134.1201  157.4353 LP  0  0  0  0  0  0  0  0  0  0  0  0  # atno 17395 bound_to 11000

$$$$
