AV-unprocessed.smi:1570|AV-procd|sdf|6320|dock10
  -GOLD-   22720 6523D 1   1.00000     0.00000
 Structure written by MMmdl.
 52 54  0  0  0  0  0  0  0  0  2 V2000
  155.0148  140.2379  160.8861 C   0  0  0  0  0  0  0  0  0  0  0  0
  153.6544  139.7648  160.3575 C   0  0  0  0  0  0  0  0  0  0  0  0
  152.9047  140.8704  159.7668 N   0  0  0  0  0  0  0  0  0  0  0  0
  152.4559  140.9486  158.4921 C   0  0  0  0  0  0  0  0  0  0  0  0
  152.5963  140.0902  157.6213 O   0  0  0  0  0  0  0  0  0  0  0  0
  151.8599  142.1536  158.3282 N   0  0  0  0  0  0  0  0  0  0  0  0
  151.2752  142.6799  157.0953 C   0  0  0  0  0  0  0  0  0  0  0  0
  150.1165  141.8012  156.5812 C   0  0  2  0  0  0  0  0  0  0  0  0
  149.7786  142.2475  155.2836 O   0  0  0  0  0  0  0  0  0  0  0  0
  148.8562  141.8723  157.4707 C   0  0  0  0  0  0  0  0  0  0  0  0
  147.6388  142.2441  156.7075 N   0  3  1  0  0  0  0  0  0  0  0  0
  147.0682  141.1233  155.9198 C   0  0  0  0  0  0  0  0  0  0  0  0
  145.8429  141.5850  155.1071 C   0  0  2  0  0  0  0  0  0  0  0  0
  146.2060  142.4555  153.8910 C   0  0  0  0  0  0  0  0  0  0  0  0
  144.8932  142.2194  155.9639 O   0  0  0  0  0  0  0  0  0  0  0  0
  145.4035  143.3193  156.7133 C   0  0  1  0  0  0  0  0  0  0  0  0
  144.2633  143.8737  157.5746 C   0  0  0  0  0  0  0  0  0  0  0  0
  146.5953  142.8498  157.5659 C   0  0  0  0  0  0  0  0  0  0  0  0
  151.9425  142.8717  159.5297 C   0  0  0  0  0  0  0  0  0  0  0  0
  151.4947  144.1605  159.8680 C   0  0  0  0  0  0  0  0  0  0  0  0
  151.7498  144.6082  161.1854 C   0  0  0  0  0  0  0  0  0  0  0  0
  152.4310  143.7805  162.1154 C   0  0  0  0  0  0  0  0  0  0  0  0
  152.8708  142.4869  161.7482 C   0  0  0  0  0  0  0  0  0  0  0  0
  152.6020  142.0661  160.4339 C   0  0  0  0  0  0  0  0  0  0  0  0
  155.5697  139.4090  161.3258 H   0  0  0  0  0  0  0  0  0  0  0  0
  154.8953  141.0024  161.6544 H   0  0  0  0  0  0  0  0  0  0  0  0
  155.6247  140.6582  160.0857 H   0  0  0  0  0  0  0  0  0  0  0  0
  153.7988  138.9771  159.6161 H   0  0  0  0  0  0  0  0  0  0  0  0
  153.0742  139.3167  161.1644 H   0  0  0  0  0  0  0  0  0  0  0  0
  150.9365  143.7068  157.2438 H   0  0  0  0  0  0  0  0  0  0  0  0
  152.0648  142.7334  156.3445 H   0  0  0  0  0  0  0  0  0  0  0  0
  150.4698  140.7744  156.4935 H   0  0  0  0  0  0  0  0  0  0  0  0
  149.6406  143.1825  155.3120 H   0  0  0  0  0  0  0  0  0  0  0  0
  148.6717  140.9210  157.9697 H   0  0  0  0  0  0  0  0  0  0  0  0
  149.0340  142.6004  158.2639 H   0  0  0  0  0  0  0  0  0  0  0  0
  147.8135  140.6981  155.2483 H   0  0  0  0  0  0  0  0  0  0  0  0
  146.7718  140.3244  156.6014 H   0  0  0  0  0  0  0  0  0  0  0  0
  145.3491  140.6938  154.7186 H   0  0  0  0  0  0  0  0  0  0  0  0
  146.8256  141.8974  153.1886 H   0  0  0  0  0  0  0  0  0  0  0  0
  146.7622  143.3497  154.1712 H   0  0  0  0  0  0  0  0  0  0  0  0
  145.3092  142.7720  153.3581 H   0  0  0  0  0  0  0  0  0  0  0  0
  145.7271  144.1089  156.0349 H   0  0  0  0  0  0  0  0  0  0  0  0
  144.5973  144.7264  158.1668 H   0  0  0  0  0  0  0  0  0  0  0  0
  143.8828  143.1173  158.2620 H   0  0  0  0  0  0  0  0  0  0  0  0
  143.4320  144.2071  156.9530 H   0  0  0  0  0  0  0  0  0  0  0  0
  146.2692  142.1223  158.3113 H   0  0  0  0  0  0  0  0  0  0  0  0
  147.0116  143.6998  158.1077 H   0  0  0  0  0  0  0  0  0  0  0  0
  150.9792  144.7867  159.1551 H   0  0  0  0  0  0  0  0  0  0  0  0
  151.4228  145.5925  161.4867 H   0  0  0  0  0  0  0  0  0  0  0  0
  152.6168  144.1429  163.1158 H   0  0  0  0  0  0  0  0  0  0  0  0
  153.3925  141.8543  162.4508 H   0  0  0  0  0  0  0  0  0  0  0  0
  147.9206  142.9606  156.0534 H   0  0  0  0  0  0  0  0  0  0  0  0
  1  2  1  0  0  0  0
  1 25  1  0  0  0  0
  1 26  1  0  0  0  0
  1 27  1  0  0  0  0
  2  3  1  0  0  0  0
  2 28  1  0  0  0  0
  2 29  1  0  0  0  0
  3 24  1  0  0  0  0
  3  4  1  0  0  0  0
  4  5  2  0  0  0  0
  4  6  1  0  0  0  0
  6  7  1  0  0  0  0
  6 19  1  0  0  0  0
  7  8  1  0  0  0  0
  7 30  1  0  0  0  0
  7 31  1  0  0  0  0
  8  9  1  0  0  0  0
  8 10  1  0  0  0  0
  8 32  1  0  0  0  0
  9 33  1  0  0  0  0
 10 11  1  0  0  0  0
 10 34  1  0  0  0  0
 10 35  1  0  0  0  0
 11 18  1  0  0  0  0
 11 12  1  0  0  0  0
 11 52  1  0  0  0  0
 12 13  1  0  0  0  0
 12 36  1  0  0  0  0
 12 37  1  0  0  0  0
 13 14  1  0  0  0  0
 13 15  1  0  0  0  0
 13 38  1  0  0  0  0
 14 39  1  0  0  0  0
 14 40  1  0  0  0  0
 14 41  1  0  0  0  0
 15 16  1  0  0  0  0
 16 17  1  0  0  0  0
 16 18  1  0  0  0  0
 16 42  1  0  0  0  0
 17 43  1  0  0  0  0
 17 44  1  0  0  0  0
 17 45  1  0  0  0  0
 18 46  1  0  0  0  0
 18 47  1  0  0  0  0
 19 24  2  0  0  0  0
 19 20  1  0  0  0  0
 20 21  2  0  0  0  0
 20 48  1  0  0  0  0
 21 22  1  0  0  0  0
 21 49  1  0  0  0  0
 22 23  2  0  0  0  0
 22 50  1  0  0  0  0
 23 24  1  0  0  0  0
 23 51  1  0  0  0  0
M  CHG  1  11   1
M  END
> <s_m_source_file>
AV-unprocessed.smi

> <i_m_source_file_index>
1570

> <i_lp_mmshare_version>
43012

> <i_f3d_flags>
0

> <s_epik_input>
W2NIXTFbY0hdW2NIXVtjSF1jKGMxMiluKFtDSDJdW0NIM10pYyg9TyluMltDSDJdW0NASF0oW09IXSlbQ0gyXU4zW0NIMl1bQ0BASF0oW0NIM10pT1tDQEBIXShbQ0gzXSlbQ0gyXTM=

> <s_epik_cmdline>
J2VwaWtfcHl0aG9uJywgJy1waCcsICc3LjAnLCAnLXRuJywgJzgnLCAnLW1hJywgJzIwMCcsICctbWV0YWxfYmluZGluZycsICctaW1hZScsICc8aW5maWxlLm1hZT4nLCAnLW9tYWUnLCAnPG91dGZpbGUubWFlPic=

> <r_epik_Ionization_Penalty>
0.706332

> <r_epik_Ionization_Penalty_Charging>
0.706318

> <r_epik_Ionization_Penalty_Neutral>
1.42224e-05

> <r_epik_State_Penalty>
0.729493

> <r_epik_Charging_Adjusted_Penalty>
1.43581

> <i_epik_Tot_Q>
1

> <i_epik_Tot_abs_Q>
1

> <r_epik_Metal_State_Penalty>
0.729493

> <b_epik_Metal_Only>
0

> <s_lp_Force_Field>
OPLS_2005

> <r_lp_Energy>
53.5828

> <b_lp_Chiralities_Consistent>
1

> <s_lp_Variant>
AV-unprocessed.smi:1570-9

> <Gold.Version>
5.8.1

> <Gold.Id.Protein>
6NUR|6NUR_protein|mol2

> <Gold.PLP.Fitness>
58.4879

> <Gold.PLP.PLP>
-48.4133

> <Gold.PLP.part.hbond>
-3.0000

> <Gold.PLP.part.metal>
0.0000

> <Gold.PLP.part.buried>
-5.3904

> <Gold.PLP.part.nonpolar>
-40.1470

> <Gold.PLP.part.repulsive>
0.0942

> <Gold.PLP.ligand.clash>
0.0000

> <Gold.PLP.ligand.torsion>
1.0009

> <Gold.PLP.Chemscore.Hbond>
4.0000

> <Gold.PLP.Chemscore.CHOScore>
0.0000

> <Gold.PLP.Chemscore.Metal>
0.0000

> <Gold.Chemscore.Hbonds>
donor molecule, donor type, donor heavy atom, donor atom, acceptor molecule, acceptor atom, score
      L1  H     9    33       P1  8028  1.00
      L1  H    11    52       P1  8028  2.00
      P1  H  7997  8008       L1     5  1.00

> <Gold.PLP.Chemscore.Internal.Correction>
0.0764

> <Gold.Rescore>
     Score         DG    S(hbond)    S(metal)    S(lipo)     H(rot)  DE(clash)    DE(int)     intcor
     20.56     -21.72       2.31        0.00     119.52       2.13       0.07       1.09       ----

> <Gold.Chemscore.Fitness>
20.5571

> <Gold.Chemscore.DG>
-21.7155

> <Gold.Chemscore.ZeroCoef>
-5.4800

> <Gold.Chemscore.Hbond>
2.3070

> <Gold.Chemscore.Metal>
0.0000

> <Gold.Chemscore.Lipo>
119.5175

> <Gold.Chemscore.Internal_Hbond>
0.0000

> <Gold.Chemscore.DEClash>
0.0703

> <Gold.Chemscore.DEInternal>
1.0882

> <Gold.Chemscore.Rot>
2.1303

> <Gold.Chemscore.Internal.Correction>
   9.000000E+99

> <Gold.Chemscore.Hbonds>
donor molecule, donor type, donor heavy atom, donor atom, acceptor molecule, acceptor atom, score
      L1  H     9    33       P1  8028  1.00
      L1  H    11    52       P1  8028  0.44
      P1  H  7997  8008       L1     5  0.83

> <Gold.Chemscore.Hbond.Weighted>
-7.7055

> <Gold.Chemscore.Metal.Weighted>
-0.0000

> <Gold.Chemscore.Lipo.Weighted>
-13.9835

> <Gold.Chemscore.Internal_Hbond.Weighted>
0.0000

> <Gold.Chemscore.DEClash.Weighted>
0.0703

> <Gold.Chemscore.DEInternal.Weighted>
1.0882

> <Gold.Chemscore.Rot.Weighted>
5.4535

> <Gold.Chemscore.Internal.Correction.Weighted>
   9.000000E+99

> <Gold.Protein.RotatedTorsions>
[ 6907 6896 6895 6894 ] final -120.10 input  -60.11 | X-H torsion
[ 7974 7965 7964 7962 ] final  -48.67 input  175.53 | X-H torsion
[ 8008 7997 7996 7995 ] final  -64.45 input   59.86 | X-H torsion
[ 10167 10162 10161 10158 ] final  153.41 input  -65.29 | X-H torsion
[ 10718 10713 10712 10709 ] final   14.10 input   66.30 | X-H torsion
[ 10763 10752 10751 10750 ] final  -76.44 input  -60.55 | X-H torsion
[ 11005 11000 10999 10996 ] final  129.74 input  -57.11 | X-H torsion

> <Gold.Protein.ActiveResidues>
 VAL166  LYS551  ARG553  GLY616  TRP617  ASP618  TYR619  PRO620  LYS621  CYS622 
 ASP623  PHE694  ASN695  SER759  ASP760  ASP761  ALA762  ILE779  LEU786  VAL792 
 PHE793  MET794  SER795  GLU796  ALA797  LYS798  CYS799  TRP800  GLU811  SER814 

> <Gold.Protein.RotatedAtoms>
  150.8363  133.8009  159.3078 H   0  0  0  0  0  0  0  0  0  0  0  0  # atno 6907 bound_to 6896
  151.5723  135.1060  160.0007 H   0  0  0  0  0  0  0  0  0  0  0  0  # atno 6908 bound_to 6896
  152.4435  133.7449  159.6718 H   0  0  0  0  0  0  0  0  0  0  0  0  # atno 6909 bound_to 6896
  145.9486  140.7593  142.9516 H   0  0  0  0  0  0  0  0  0  0  0  0  # atno 7974 bound_to 7965
  154.4613  140.0953  156.6899 H   0  0  0  0  0  0  0  0  0  0  0  0  # atno 8008 bound_to 7997
  155.4987  140.3473  155.4349 H   0  0  0  0  0  0  0  0  0  0  0  0  # atno 8009 bound_to 7997
  156.0875  140.1388  156.9624 H   0  0  0  0  0  0  0  0  0  0  0  0  # atno 8010 bound_to 7997
  139.4827  144.5275  151.7777 H   0  0  0  0  0  0  0  0  0  0  0  0  # atno 10167 bound_to 10162
  157.0342  130.6205  149.5740 H   0  0  0  0  0  0  0  0  0  0  0  0  # atno 10718 bound_to 10713
  154.4999  135.5797  153.6523 H   0  0  0  0  0  0  0  0  0  0  0  0  # atno 10763 bound_to 10752
  152.9877  135.6133  154.3016 H   0  0  0  0  0  0  0  0  0  0  0  0  # atno 10764 bound_to 10752
  154.2922  135.2848  155.2629 H   0  0  0  0  0  0  0  0  0  0  0  0  # atno 10765 bound_to 10752
  139.9633  134.9597  156.9193 H   0  0  0  0  0  0  0  0  0  0  0  0  # atno 11005 bound_to 11000
  144.6792  140.2398  143.7345 LP  0  0  0  0  0  0  0  0  0  0  0  0  # atno 17320 bound_to 7965
  145.8201  139.2040  143.1943 LP  0  0  0  0  0  0  0  0  0  0  0  0  # atno 17321 bound_to 7965
  140.4797  144.1468  150.5930 LP  0  0  0  0  0  0  0  0  0  0  0  0  # atno 17342 bound_to 10162
  140.4292  143.2576  151.9618 LP  0  0  0  0  0  0  0  0  0  0  0  0  # atno 17343 bound_to 10162
  156.0059  130.5146  150.7829 LP  0  0  0  0  0  0  0  0  0  0  0  0  # atno 17370 bound_to 10713
  157.5154  131.0928  151.0145 LP  0  0  0  0  0  0  0  0  0  0  0  0  # atno 17371 bound_to 10713
  140.5453  134.0680  155.7353 LP  0  0  0  0  0  0  0  0  0  0  0  0  # atno 17394 bound_to 11000
  141.1311  133.9300  157.2533 LP  0  0  0  0  0  0  0  0  0  0  0  0  # atno 17395 bound_to 11000

$$$$
