AV-unprocessed.smi:108|AV-procd|sdf|1030|dock3
  -GOLD-   2262018 33D 1   1.00000     0.00000
 Structure written by MMmdl.
 59 62  0  0  0  0  0  0  0  0  1 V2000
  145.2829  133.7111  156.7230 O   0  0  0  0  0  0  0  0  0  0  0  0
  145.9827  134.7258  156.7541 C   0  0  0  0  0  0  0  0  0  0  0  0
  145.6743  135.8829  155.7793 C   0  0  0  0  0  0  0  0  0  0  0  0
  144.8663  135.4703  154.6106 N   0  0  0  0  0  0  0  0  0  0  0  0
  143.4555  135.5581  154.6986 C   0  0  0  0  0  0  0  0  0  0  0  0
  142.9016  135.9552  155.7250 O   0  0  0  0  0  0  0  0  0  0  0  0
  142.7265  135.1526  153.5036 C   0  0  0  0  0  0  0  0  0  0  0  0
  141.3871  135.2570  153.4739 F   0  0  0  0  0  0  0  0  0  0  0  0
  143.3765  134.6890  152.4165 C   0  0  0  0  0  0  0  0  0  0  0  0
  144.7537  134.5468  152.3638 N   0  0  0  0  0  0  0  0  0  0  0  0
  145.4846  134.0830  151.1120 C   0  0  1  0  0  0  0  0  0  0  0  0
  146.2077  132.7380  151.2643 C   0  0  0  0  0  0  0  0  0  0  0  0
  145.2134  131.7368  150.6821 C   0  0  0  0  0  0  0  0  0  0  0  0
  144.0196  132.5863  150.2329 C   0  0  0  0  0  0  0  0  0  0  0  0
  144.5493  133.8980  150.0979 O   0  0  0  0  0  0  0  0  0  0  0  0
  145.5318  134.9812  153.4608 C   0  0  0  0  0  0  0  0  0  0  0  0
  146.7632  134.9261  153.4211 O   0  0  0  0  0  0  0  0  0  0  0  0
  147.0249  134.8513  157.6132 N   0  0  0  0  0  0  0  0  0  0  0  0
  147.8226  136.0887  157.6585 C   0  0  0  0  0  0  0  0  0  0  0  0
  149.2817  135.8807  157.1985 C   0  0  0  0  0  0  0  0  0  0  0  0
  150.0118  137.1772  156.8903 C   0  0  0  0  0  0  0  0  0  0  0  0
  150.5262  137.4130  155.5972 C   0  0  0  0  0  0  0  0  0  0  0  0
  151.1853  138.6232  155.3079 C   0  0  0  0  0  0  0  0  0  0  0  0
  151.3346  139.6010  156.3105 C   0  0  0  0  0  0  0  0  0  0  0  0
  150.8241  139.3682  157.6023 C   0  0  0  0  0  0  0  0  0  0  0  0
  150.1639  138.1583  157.8922 C   0  0  0  0  0  0  0  0  0  0  0  0
  147.4444  133.7927  158.5482 C   0  0  0  0  0  0  0  0  0  0  0  0
  147.3554  134.1643  160.0247 C   0  0  0  0  0  0  0  0  0  0  0  0
  148.0328  135.2890  160.5502 C   0  0  0  0  0  0  0  0  0  0  0  0
  147.9314  135.6040  161.9190 C   0  0  0  0  0  0  0  0  0  0  0  0
  147.1489  134.8025  162.7717 C   0  0  0  0  0  0  0  0  0  0  0  0
  146.4650  133.6866  162.2535 C   0  0  0  0  0  0  0  0  0  0  0  0
  146.5673  133.3705  160.8848 C   0  0  0  0  0  0  0  0  0  0  0  0
  145.1745  136.6874  156.3190 H   0  0  0  0  0  0  0  0  0  0  0  0
  146.6152  136.3250  155.4491 H   0  0  0  0  0  0  0  0  0  0  0  0
  142.7735  134.4341  151.5594 H   0  0  0  0  0  0  0  0  0  0  0  0
  146.1853  134.8841  150.8712 H   0  0  0  0  0  0  0  0  0  0  0  0
  147.1059  132.7629  150.6460 H   0  0  0  0  0  0  0  0  0  0  0  0
  146.5208  132.5392  152.2890 H   0  0  0  0  0  0  0  0  0  0  0  0
  145.6589  131.2220  149.8303 H   0  0  0  0  0  0  0  0  0  0  0  0
  144.9146  130.9803  151.4080 H   0  0  0  0  0  0  0  0  0  0  0  0
  143.5857  132.2352  149.2965 H   0  0  0  0  0  0  0  0  0  0  0  0
  143.2329  132.5839  150.9882 H   0  0  0  0  0  0  0  0  0  0  0  0
  147.3590  136.8547  157.0358 H   0  0  0  0  0  0  0  0  0  0  0  0
  147.8091  136.5050  158.6672 H   0  0  0  0  0  0  0  0  0  0  0  0
  149.8331  135.3384  157.9673 H   0  0  0  0  0  0  0  0  0  0  0  0
  149.3057  135.2443  156.3131 H   0  0  0  0  0  0  0  0  0  0  0  0
  150.4085  136.6701  154.8214 H   0  0  0  0  0  0  0  0  0  0  0  0
  151.5749  138.8021  154.3167 H   0  0  0  0  0  0  0  0  0  0  0  0
  151.8400  140.5293  156.0882 H   0  0  0  0  0  0  0  0  0  0  0  0
  150.9376  140.1184  158.3709 H   0  0  0  0  0  0  0  0  0  0  0  0
  149.7696  137.9871  158.8831 H   0  0  0  0  0  0  0  0  0  0  0  0
  146.8422  132.8956  158.4019 H   0  0  0  0  0  0  0  0  0  0  0  0
  148.4594  133.4709  158.3138 H   0  0  0  0  0  0  0  0  0  0  0  0
  148.6355  135.9190  159.9130 H   0  0  0  0  0  0  0  0  0  0  0  0
  148.4548  136.4619  162.3146 H   0  0  0  0  0  0  0  0  0  0  0  0
  147.0714  135.0449  163.8213 H   0  0  0  0  0  0  0  0  0  0  0  0
  145.8616  133.0725  162.9060 H   0  0  0  0  0  0  0  0  0  0  0  0
  146.0392  132.5116  160.4971 H   0  0  0  0  0  0  0  0  0  0  0  0
  1  2  2  0  0  0  0
  2  3  1  0  0  0  0
  2 18  1  0  0  0  0
  3  4  1  0  0  0  0
  3 34  1  0  0  0  0
  3 35  1  0  0  0  0
  4 16  1  0  0  0  0
  4  5  1  0  0  0  0
  5  6  2  0  0  0  0
  5  7  1  0  0  0  0
  7  8  1  0  0  0  0
  7  9  2  0  0  0  0
  9 10  1  0  0  0  0
  9 36  1  0  0  0  0
 10 11  1  0  0  0  0
 10 16  1  0  0  0  0
 11 15  1  0  0  0  0
 11 12  1  0  0  0  0
 11 37  1  0  0  0  0
 12 13  1  0  0  0  0
 12 38  1  0  0  0  0
 12 39  1  0  0  0  0
 13 14  1  0  0  0  0
 13 40  1  0  0  0  0
 13 41  1  0  0  0  0
 14 15  1  0  0  0  0
 14 42  1  0  0  0  0
 14 43  1  0  0  0  0
 16 17  2  0  0  0  0
 18 19  1  0  0  0  0
 18 27  1  0  0  0  0
 19 20  1  0  0  0  0
 19 44  1  0  0  0  0
 19 45  1  0  0  0  0
 20 21  1  0  0  0  0
 20 46  1  0  0  0  0
 20 47  1  0  0  0  0
 21 26  1  0  0  0  0
 21 22  2  0  0  0  0
 22 23  1  0  0  0  0
 22 48  1  0  0  0  0
 23 24  2  0  0  0  0
 23 49  1  0  0  0  0
 24 25  1  0  0  0  0
 24 50  1  0  0  0  0
 25 26  2  0  0  0  0
 25 51  1  0  0  0  0
 26 52  1  0  0  0  0
 27 28  1  0  0  0  0
 27 53  1  0  0  0  0
 27 54  1  0  0  0  0
 28 33  1  0  0  0  0
 28 29  2  0  0  0  0
 29 30  1  0  0  0  0
 29 55  1  0  0  0  0
 30 31  2  0  0  0  0
 30 56  1  0  0  0  0
 31 32  1  0  0  0  0
 31 57  1  0  0  0  0
 32 33  2  0  0  0  0
 32 58  1  0  0  0  0
 33 59  1  0  0  0  0
M  END
> <s_m_source_file>
AV-unprocessed.smi

> <i_m_source_file_index>
108

> <i_lp_mmshare_version>
43012

> <i_f3d_flags>
0

> <s_epik_input>
W2NIXTFbY0hdW2NIXVtjSF1bY0hdYzFbQ0gyXVtDSDJdTihbQ0gyXWMyW2NIXVtjSF1bY0hdW2NIXVtjSF0yKUMoPU8pW0NIMl1uM2MoPU8pYyhGKVtjSF1uKGMzPU8pW0NAQEhdNFtDSDJdW0NIMl1bQ0gyXU80

> <s_epik_cmdline>
J2VwaWtfcHl0aG9uJywgJy1waCcsICc3LjAnLCAnLXRuJywgJzgnLCAnLW1hJywgJzIwMCcsICctbWV0YWxfYmluZGluZycsICctaW1hZScsICc8aW5maWxlLm1hZT4nLCAnLW9tYWUnLCAnPG91dGZpbGUubWFlPic=

> <r_lp_tautomer_probability>
1

> <r_epik_Ionization_Penalty>
5.46209e-09

> <r_epik_Ionization_Penalty_Charging>
4.22697e-09

> <r_epik_Ionization_Penalty_Neutral>
1.23512e-09

> <r_epik_State_Penalty>
-0

> <r_epik_Charging_Adjusted_Penalty>
4.22697e-09

> <i_epik_Tot_Q>
0

> <i_epik_Tot_abs_Q>
0

> <r_epik_Metal_State_Penalty>
-0

> <b_epik_Metal_Only>
0

> <s_epik_Chemistry_Notes>
This compound contains an acetal/aminal-like group ( X-CH(R)-Y where X, Y are N, S, or O) that may be acid/base labile, releasing an aldehyde.

> <s_lp_Force_Field>
OPLS_2005

> <r_lp_Energy>
38.0932

> <b_lp_Chiralities_Consistent>
1

> <s_lp_Variant>
AV-unprocessed.smi:108-2

> <Gold.Version>
5.8.1

> <Gold.Id.Protein>
6NUR|6NUR_protein|mol2

> <Gold.PLP.Fitness>
48.6628

> <Gold.PLP.PLP>
-48.1892

> <Gold.PLP.part.hbond>
-0.4498

> <Gold.PLP.part.metal>
0.0000

> <Gold.PLP.part.buried>
-8.4231

> <Gold.PLP.part.nonpolar>
-39.9699

> <Gold.PLP.part.repulsive>
0.9586

> <Gold.PLP.ligand.clash>
0.0000

> <Gold.PLP.ligand.torsion>
0.8626

> <Gold.PLP.Chemscore.Hbond>
0.0000

> <Gold.PLP.Chemscore.CHOScore>
0.6520

> <Gold.PLP.Chemscore.Metal>
0.0000

> <Gold.Chemscore.Hbonds>
donor molecule, donor type, donor heavy atom, donor atom, acceptor molecule, acceptor atom, score
      L1  C     9    36       P1 10186  0.41

> <Gold.PLP.Chemscore.Internal.Correction>
0.2430

> <Gold.Rescore>
     Score         DG    S(hbond)    S(metal)    S(lipo)     H(rot)  DE(clash)    DE(int)     intcor
     11.09     -12.69       0.00        0.00     111.41       2.28       0.08       1.52       ----

> <Gold.Chemscore.Fitness>
11.0864

> <Gold.Chemscore.DG>
-12.6890

> <Gold.Chemscore.ZeroCoef>
-5.4800

> <Gold.Chemscore.Hbond>
0.0000

> <Gold.Chemscore.Metal>
0.0000

> <Gold.Chemscore.Lipo>
111.4056

> <Gold.Chemscore.Internal_Hbond>
0.0000

> <Gold.Chemscore.DEClash>
0.0785

> <Gold.Chemscore.DEInternal>
1.5240

> <Gold.Chemscore.Rot>
2.2756

> <Gold.Chemscore.Internal.Correction>
   9.000000E+99

> <Gold.Chemscore.Hbond.Weighted>
-0.0000

> <Gold.Chemscore.Metal.Weighted>
-0.0000

> <Gold.Chemscore.Lipo.Weighted>
-13.0345

> <Gold.Chemscore.Internal_Hbond.Weighted>
0.0000

> <Gold.Chemscore.DEClash.Weighted>
0.0785

> <Gold.Chemscore.DEInternal.Weighted>
1.5240

> <Gold.Chemscore.Rot.Weighted>
5.8255

> <Gold.Chemscore.Internal.Correction.Weighted>
   9.000000E+99

> <Gold.Protein.RotatedTorsions>
[ 6907 6896 6895 6894 ] final -140.79 input  -60.11 | X-H torsion
[ 7974 7965 7964 7962 ] final  -98.51 input  175.53 | X-H torsion
[ 8008 7997 7996 7995 ] final -114.51 input   59.86 | X-H torsion
[ 10167 10162 10161 10158 ] final   32.20 input  -65.29 | X-H torsion
[ 10718 10713 10712 10709 ] final   54.03 input   66.30 | X-H torsion
[ 10763 10752 10751 10750 ] final    6.60 input  -60.55 | X-H torsion
[ 11005 11000 10999 10996 ] final   97.99 input  -57.11 | X-H torsion

> <Gold.Protein.ActiveResidues>
 VAL166  LYS551  ARG553  GLY616  TRP617  ASP618  TYR619  PRO620  LYS621  CYS622 
 ASP623  PHE694  ASN695  SER759  ASP760  ASP761  ALA762  ILE779  LEU786  VAL792 
 PHE793  MET794  SER795  GLU796  ALA797  LYS798  CYS799  TRP800  GLU811  SER814 

> <Gold.Protein.RotatedAtoms>
  151.0653  133.5510  159.2630 H   0  0  0  0  0  0  0  0  0  0  0  0  # atno 6907 bound_to 6896
  151.2470  135.0608  159.9057 H   0  0  0  0  0  0  0  0  0  0  0  0  # atno 6908 bound_to 6896
  152.5404  134.0419  159.8125 H   0  0  0  0  0  0  0  0  0  0  0  0  # atno 6909 bound_to 6896
  145.3196  140.9419  143.2723 H   0  0  0  0  0  0  0  0  0  0  0  0  # atno 7974 bound_to 7965
  155.0374  140.0392  157.2497 H   0  0  0  0  0  0  0  0  0  0  0  0  # atno 8008 bound_to 7997
  154.7245  140.2718  155.6488 H   0  0  0  0  0  0  0  0  0  0  0  0  # atno 8009 bound_to 7997
  156.2825  140.2696  156.1926 H   0  0  0  0  0  0  0  0  0  0  0  0  # atno 8010 bound_to 7997
  140.4520  144.1034  150.6194 H   0  0  0  0  0  0  0  0  0  0  0  0  # atno 10167 bound_to 10162
  157.5220  130.8571  149.8571 H   0  0  0  0  0  0  0  0  0  0  0  0  # atno 10718 bound_to 10713
  153.2459  135.6908  153.7732 H   0  0  0  0  0  0  0  0  0  0  0  0  # atno 10763 bound_to 10752
  153.6845  135.3323  155.3187 H   0  0  0  0  0  0  0  0  0  0  0  0  # atno 10764 bound_to 10752
  154.8374  135.4530  154.1398 H   0  0  0  0  0  0  0  0  0  0  0  0  # atno 10765 bound_to 10752
  139.8774  134.9028  156.4390 H   0  0  0  0  0  0  0  0  0  0  0  0  # atno 11005 bound_to 11000
  144.8949  139.4725  143.6660 LP  0  0  0  0  0  0  0  0  0  0  0  0  # atno 17320 bound_to 7965
  146.3087  139.7670  142.9036 LP  0  0  0  0  0  0  0  0  0  0  0  0  # atno 17321 bound_to 7965
  140.4196  143.2618  151.9732 LP  0  0  0  0  0  0  0  0  0  0  0  0  # atno 17342 bound_to 10162
  139.4797  144.5843  151.7880 LP  0  0  0  0  0  0  0  0  0  0  0  0  # atno 17343 bound_to 10162
  156.0360  130.3751  150.1559 LP  0  0  0  0  0  0  0  0  0  0  0  0  # atno 17370 bound_to 10713
  156.9747  130.9845  151.3451 LP  0  0  0  0  0  0  0  0  0  0  0  0  # atno 17371 bound_to 10713
  140.9013  133.7777  155.9683 LP  0  0  0  0  0  0  0  0  0  0  0  0  # atno 17394 bound_to 11000
  140.8648  134.2797  157.5218 LP  0  0  0  0  0  0  0  0  0  0  0  0  # atno 17395 bound_to 11000

$$$$
