AV-unprocessed.smi:1993|AV-procd|sdf|8070|dock5
  -GOLD-   2272010273D 1   1.00000     0.00000
 Structure written by MMmdl.
 50 51  0  0  0  0  0  0  0  0  1 V2000
  148.2281  132.0665  161.7832 C   0  0  0  0  0  0  0  0  0  0  0  0
  147.2182  133.1076  161.3116 C   0  0  0  0  0  0  0  0  0  0  0  0
  146.1750  132.7474  160.7676 O   0  0  0  0  0  0  0  0  0  0  0  0
  147.5381  134.3944  161.5229 N   0  0  0  0  0  0  0  0  0  0  0  0
  146.7190  135.5458  161.1401 C   0  0  2  0  0  0  0  0  0  0  0  0
  147.5478  136.4373  160.1967 C   0  0  0  0  0  0  0  0  0  0  0  0
  148.6026  136.9447  160.5821 O   0  0  0  0  0  0  0  0  0  0  0  0
  147.0440  136.6311  158.9688 N   0  0  0  0  0  0  0  0  0  0  0  0
  147.6368  137.4824  157.9454 C   0  0  0  0  0  0  0  0  0  0  0  0
  146.5912  138.1428  157.0562 C   0  0  0  0  0  0  0  0  0  0  0  0
  145.2223  137.8963  157.2925 C   0  0  0  0  0  0  0  0  0  0  0  0
  144.2623  138.5074  156.4657 C   0  0  0  0  0  0  0  0  0  0  0  0
  144.7117  139.3456  155.4289 C   0  0  0  0  0  0  0  0  0  0  0  0
  146.0168  139.5889  155.1885 N   0  0  0  0  0  0  0  0  0  0  0  0
  146.9443  139.0019  155.9833 C   0  0  0  0  0  0  0  0  0  0  0  0
  148.2956  139.2572  155.6970 N   0  0  0  0  0  0  0  0  0  0  0  0
  148.6828  140.6627  155.7092 C   0  0  0  0  0  0  0  0  0  0  0  0
  150.2079  140.7830  155.5467 C   0  0  0  0  0  0  0  0  0  0  0  0
  150.6146  140.1198  154.3524 O   0  0  0  0  0  0  0  0  0  0  0  0
  150.2900  138.7322  154.3710 C   0  0  0  0  0  0  0  0  0  0  0  0
  148.7679  138.5600  154.5086 C   0  0  0  0  0  0  0  0  0  0  0  0
  146.3329  136.3391  162.4238 C   0  0  0  0  0  0  0  0  0  0  0  0
  145.4132  137.5347  162.1059 C   0  0  0  0  0  0  0  0  0  0  0  0
  147.5583  136.8447  163.2133 C   0  0  0  0  0  0  0  0  0  0  0  0
  148.7030  131.5897  160.9257 H   0  0  0  0  0  0  0  0  0  0  0  0
  147.7288  131.2961  162.3714 H   0  0  0  0  0  0  0  0  0  0  0  0
  149.0067  132.5146  162.4015 H   0  0  0  0  0  0  0  0  0  0  0  0
  148.4210  134.5959  161.9694 H   0  0  0  0  0  0  0  0  0  0  0  0
  145.8112  135.2058  160.6366 H   0  0  0  0  0  0  0  0  0  0  0  0
  146.1770  136.1704  158.7329 H   0  0  0  0  0  0  0  0  0  0  0  0
  148.2703  138.2420  158.4069 H   0  0  0  0  0  0  0  0  0  0  0  0
  148.3024  136.8744  157.3320 H   0  0  0  0  0  0  0  0  0  0  0  0
  144.9100  137.2448  158.0955 H   0  0  0  0  0  0  0  0  0  0  0  0
  143.2074  138.3372  156.6223 H   0  0  0  0  0  0  0  0  0  0  0  0
  144.0048  139.8325  154.7737 H   0  0  0  0  0  0  0  0  0  0  0  0
  148.1837  141.1940  154.8976 H   0  0  0  0  0  0  0  0  0  0  0  0
  148.3657  141.1253  156.6446 H   0  0  0  0  0  0  0  0  0  0  0  0
  150.4988  141.8318  155.4882 H   0  0  0  0  0  0  0  0  0  0  0  0
  150.7260  140.3553  156.4066 H   0  0  0  0  0  0  0  0  0  0  0  0
  150.6383  138.2719  153.4464 H   0  0  0  0  0  0  0  0  0  0  0  0
  150.8121  138.2365  155.1911 H   0  0  0  0  0  0  0  0  0  0  0  0
  148.5160  137.5024  154.5711 H   0  0  0  0  0  0  0  0  0  0  0  0
  148.2643  138.9593  153.6269 H   0  0  0  0  0  0  0  0  0  0  0  0
  145.7738  135.6762  163.0868 H   0  0  0  0  0  0  0  0  0  0  0  0
  145.8934  138.2290  161.4156 H   0  0  0  0  0  0  0  0  0  0  0  0
  145.1627  138.0884  163.0113 H   0  0  0  0  0  0  0  0  0  0  0  0
  144.4711  137.2184  161.6580 H   0  0  0  0  0  0  0  0  0  0  0  0
  148.1735  137.5049  162.6018 H   0  0  0  0  0  0  0  0  0  0  0  0
  148.1898  136.0295  163.5671 H   0  0  0  0  0  0  0  0  0  0  0  0
  147.2498  137.4075  164.0947 H   0  0  0  0  0  0  0  0  0  0  0  0
  1  2  1  0  0  0  0
  1 25  1  0  0  0  0
  1 26  1  0  0  0  0
  1 27  1  0  0  0  0
  2  3  2  0  0  0  0
  2  4  1  0  0  0  0
  4  5  1  0  0  0  0
  4 28  1  0  0  0  0
  5  6  1  0  0  0  0
  5 22  1  0  0  0  0
  5 29  1  0  0  0  0
  6  7  2  0  0  0  0
  6  8  1  0  0  0  0
  8  9  1  0  0  0  0
  8 30  1  0  0  0  0
  9 10  1  0  0  0  0
  9 31  1  0  0  0  0
  9 32  1  0  0  0  0
 10 15  1  0  0  0  0
 10 11  2  0  0  0  0
 11 12  1  0  0  0  0
 11 33  1  0  0  0  0
 12 13  2  0  0  0  0
 12 34  1  0  0  0  0
 13 14  1  0  0  0  0
 13 35  1  0  0  0  0
 14 15  2  0  0  0  0
 15 16  1  0  0  0  0
 16 21  1  0  0  0  0
 16 17  1  0  0  0  0
 17 18  1  0  0  0  0
 17 36  1  0  0  0  0
 17 37  1  0  0  0  0
 18 19  1  0  0  0  0
 18 38  1  0  0  0  0
 18 39  1  0  0  0  0
 19 20  1  0  0  0  0
 20 21  1  0  0  0  0
 20 40  1  0  0  0  0
 20 41  1  0  0  0  0
 21 42  1  0  0  0  0
 21 43  1  0  0  0  0
 22 23  1  0  0  0  0
 22 24  1  0  0  0  0
 22 44  1  0  0  0  0
 23 45  1  0  0  0  0
 23 46  1  0  0  0  0
 23 47  1  0  0  0  0
 24 48  1  0  0  0  0
 24 49  1  0  0  0  0
 24 50  1  0  0  0  0
M  END
> <s_m_source_file>
AV-unprocessed.smi

> <i_m_source_file_index>
1993

> <i_lp_mmshare_version>
43012

> <i_f3d_flags>
0

> <s_epik_input>
W0NIM11DKD1PKVtOSF1bQ0BASF0oW0NIXShbQ0gzXSlbQ0gzXSlDKD1PKVtOSF1bQ0gyXWMxW2NIXVtjSF1bY0hdbmMxTjJbQ0gyXVtDSDJdT1tDSDJdW0NIMl0y

> <s_epik_cmdline>
J2VwaWtfcHl0aG9uJywgJy1waCcsICc3LjAnLCAnLXRuJywgJzgnLCAnLW1hJywgJzIwMCcsICctbWV0YWxfYmluZGluZycsICctaW1hZScsICc8aW5maWxlLm1hZT4nLCAnLW9tYWUnLCAnPG91dGZpbGUubWFlPic=

> <r_lp_tautomer_probability>
1

> <r_epik_Ionization_Penalty>
0.00485175

> <r_epik_Ionization_Penalty_Charging>
0

> <r_epik_Ionization_Penalty_Neutral>
0.00485175

> <r_epik_State_Penalty>
0.00351951

> <r_epik_Charging_Adjusted_Penalty>
0.00351951

> <i_epik_Tot_Q>
0

> <i_epik_Tot_abs_Q>
0

> <r_epik_Metal_State_Penalty>
-0

> <b_epik_Metal_Only>
0

> <s_lp_Force_Field>
OPLS_2005

> <r_lp_Energy>
19.1581

> <b_lp_Chiralities_Consistent>
1

> <s_lp_Variant>
AV-unprocessed.smi:1993-1

> <Gold.Version>
5.8.1

> <Gold.Id.Protein>
6NUR|6NUR_protein|mol2

> <Gold.PLP.Fitness>
37.5200

> <Gold.PLP.PLP>
-29.5686

> <Gold.PLP.part.hbond>
-1.9180

> <Gold.PLP.part.metal>
0.0000

> <Gold.PLP.part.buried>
-5.8161

> <Gold.PLP.part.nonpolar>
-22.7127

> <Gold.PLP.part.repulsive>
0.3158

> <Gold.PLP.ligand.clash>
0.0000

> <Gold.PLP.ligand.torsion>
0.3732

> <Gold.PLP.Chemscore.Hbond>
1.8393

> <Gold.PLP.Chemscore.CHOScore>
1.0000

> <Gold.PLP.Chemscore.Metal>
0.0000

> <Gold.Chemscore.Hbonds>
donor molecule, donor type, donor heavy atom, donor atom, acceptor molecule, acceptor atom, score
      P1  H  6931  6943       L1     7  0.85
      P1  H  7989  7998       L1    19  0.98
      L1  C    13    35       P1 10175  1.00

> <Gold.PLP.Chemscore.Internal.Correction>
0.1800

> <Gold.Rescore>
     Score         DG    S(hbond)    S(metal)    S(lipo)     H(rot)  DE(clash)    DE(int)     intcor
     12.20     -13.79       1.93        0.00      63.73       2.18       0.03       1.57       ----

> <Gold.Chemscore.Fitness>
12.1952

> <Gold.Chemscore.DG>
-13.7885

> <Gold.Chemscore.ZeroCoef>
-5.4800

> <Gold.Chemscore.Hbond>
1.9272

> <Gold.Chemscore.Metal>
0.0000

> <Gold.Chemscore.Lipo>
63.7261

> <Gold.Chemscore.Internal_Hbond>
0.0000

> <Gold.Chemscore.DEClash>
0.0255

> <Gold.Chemscore.DEInternal>
1.5678

> <Gold.Chemscore.Rot>
2.1813

> <Gold.Chemscore.Internal.Correction>
   9.000000E+99

> <Gold.Chemscore.Hbonds>
donor molecule, donor type, donor heavy atom, donor atom, acceptor molecule, acceptor atom, score
      P1  H  6931  6943       L1     7  0.83
      P1  H  7989  7998       L1    19  0.85

> <Gold.Chemscore.Hbond.Weighted>
-6.4367

> <Gold.Chemscore.Metal.Weighted>
-0.0000

> <Gold.Chemscore.Lipo.Weighted>
-7.4560

> <Gold.Chemscore.Internal_Hbond.Weighted>
0.0000

> <Gold.Chemscore.DEClash.Weighted>
0.0255

> <Gold.Chemscore.DEInternal.Weighted>
1.5678

> <Gold.Chemscore.Rot.Weighted>
5.5842

> <Gold.Chemscore.Internal.Correction.Weighted>
   9.000000E+99

> <Gold.Protein.RotatedTorsions>
[ 6907 6896 6895 6894 ] final   13.14 input  -60.11 | X-H torsion
[ 7974 7965 7964 7962 ] final  115.22 input  175.53 | X-H torsion
[ 8008 7997 7996 7995 ] final -166.57 input   59.86 | X-H torsion
[ 10167 10162 10161 10158 ] final  150.49 input  -65.29 | X-H torsion
[ 10718 10713 10712 10709 ] final   52.69 input   66.30 | X-H torsion
[ 10763 10752 10751 10750 ] final  132.59 input  -60.55 | X-H torsion
[ 11005 11000 10999 10996 ] final   69.84 input  -57.11 | X-H torsion

> <Gold.Protein.ActiveResidues>
 VAL166  LYS551  ARG553  GLY616  TRP617  ASP618  TYR619  PRO620  LYS621  CYS622 
 ASP623  PHE694  ASN695  SER759  ASP760  ASP761  ALA762  ILE779  LEU786  VAL792 
 PHE793  MET794  SER795  GLU796  ALA797  LYS798  CYS799  TRP800  GLU811  SER814 

> <Gold.Protein.RotatedAtoms>
  151.7816  135.0760  160.0374 H   0  0  0  0  0  0  0  0  0  0  0  0  # atno 6907 bound_to 6896
  152.3219  133.5858  159.5758 H   0  0  0  0  0  0  0  0  0  0  0  0  # atno 6908 bound_to 6896
  150.7374  133.9914  159.3650 H   0  0  0  0  0  0  0  0  0  0  0  0  # atno 6909 bound_to 6896
  145.1947  139.2982  143.4350 H   0  0  0  0  0  0  0  0  0  0  0  0  # atno 7974 bound_to 7965
  155.8657  140.0985  157.1584 H   0  0  0  0  0  0  0  0  0  0  0  0  # atno 8008 bound_to 7997
  154.3993  140.1356  156.4078 H   0  0  0  0  0  0  0  0  0  0  0  0  # atno 8009 bound_to 7997
  155.7807  140.3458  155.5298 H   0  0  0  0  0  0  0  0  0  0  0  0  # atno 8010 bound_to 7997
  139.4849  144.5518  151.7387 H   0  0  0  0  0  0  0  0  0  0  0  0  # atno 10167 bound_to 10162
  157.5098  130.8493  149.8421 H   0  0  0  0  0  0  0  0  0  0  0  0  # atno 10718 bound_to 10713
  153.7932  135.3152  155.3381 H   0  0  0  0  0  0  0  0  0  0  0  0  # atno 10763 bound_to 10752
  154.8118  135.4662  154.0539 H   0  0  0  0  0  0  0  0  0  0  0  0  # atno 10764 bound_to 10752
  153.1863  135.6901  153.8497 H   0  0  0  0  0  0  0  0  0  0  0  0  # atno 10765 bound_to 10752
  139.9631  134.7027  156.0604 H   0  0  0  0  0  0  0  0  0  0  0  0  # atno 11005 bound_to 11000
  146.3429  140.2172  142.8591 LP  0  0  0  0  0  0  0  0  0  0  0  0  # atno 17320 bound_to 7965
  145.0006  140.8629  143.5284 LP  0  0  0  0  0  0  0  0  0  0  0  0  # atno 17321 bound_to 7965
  140.5073  144.1078  150.5986 LP  0  0  0  0  0  0  0  0  0  0  0  0  # atno 17342 bound_to 10162
  140.3992  143.2712  151.9968 LP  0  0  0  0  0  0  0  0  0  0  0  0  # atno 17343 bound_to 10162
  156.0282  130.3773  150.1763 LP  0  0  0  0  0  0  0  0  0  0  0  0  # atno 17370 bound_to 10713
  156.9952  130.9905  151.3405 LP  0  0  0  0  0  0  0  0  0  0  0  0  # atno 17371 bound_to 10713
  141.1309  133.6587  156.3462 LP  0  0  0  0  0  0  0  0  0  0  0  0  # atno 17394 bound_to 11000
  140.5456  134.6077  157.5393 LP  0  0  0  0  0  0  0  0  0  0  0  0  # atno 17395 bound_to 11000

$$$$
