#       Name:                AV-unprocessed.smi:1605
#       Creating user name   scv26
#       Creation time:       Fri Mar 27 07:10:18 2020


#       File generated by GOLD software.
#

@<TRIPOS>MOLECULE
AV-unprocessed.smi:1605
    56    58     1
SMALL
NO_CHARGES


@<TRIPOS>ATOM
      1 ****        -3.2867   5.6584   0.4393 C.3            1 S1                 0.0000
      2 ****        -3.3946   4.6585  -0.5626 O.3            1 S1                 0.0000
      3 ****        -2.6376   3.4842  -0.3020 C.3            1 S1                 0.0000
      4 ****        -1.1474   3.6947  -0.6267 C.3            1 S1                 0.0000
      5 ****        -0.3620   2.3802  -0.4888 C.3            1 S1                 0.0000
      6 ****        -0.9355   1.3150  -1.3545 N.4            1 S1                 1.0000
      7 ****        -0.1374   0.0628  -1.3418 C.3            1 S1                 0.0000
      8 ****         1.1102   0.1503  -2.2489 C.3            1 S1                 0.0000
      9 ****         0.6891   0.2358  -3.5952 O.3            1 S1                 0.0000
     10 ****         2.0493  -1.0648  -2.1229 C.3            1 S1                 0.0000
     11 ****         2.5869  -1.2109  -0.7825 N.pl3          1 S1                 0.0000
     12 ****         3.6152  -0.5261  -0.2459 C.2            1 S1                 0.0000
     13 ****         3.9443  -0.8083   1.0109 N.2            1 S1                 0.0000
     14 ****         3.0282  -1.7975   1.3248 C.ar           1 S1                 0.0000
     15 ****         2.8395  -2.5270   2.5188 C.ar           1 S1                 0.0000
     16 ****         1.8223  -3.5028   2.6189 C.ar           1 S1                 0.0000
     17 ****         1.6579  -4.2665   3.9212 C.3            1 S1                 0.0000
     18 ****         0.9718  -3.7588   1.5134 C.ar           1 S1                 0.0000
     19 ****        -0.1293  -4.8008   1.5993 C.3            1 S1                 0.0000
     20 ****         1.1472  -3.0398   0.3124 C.ar           1 S1                 0.0000
     21 ****         2.1648  -2.0732   0.2242 C.ar           1 S1                 0.0000
     22 ****        -2.3680   1.0737  -1.0433 C.3            1 S1                 0.0000
     23 ****        -3.1936   2.3625  -1.1913 C.3            1 S1                 0.0000
     24 ****        -3.9265   6.5015   0.1792 H              1 S1                 0.0000
     25 ****        -2.2681   6.0347   0.5312 H              1 S1                 0.0000
     26 ****        -3.6108   5.2819   1.4101 H              1 S1                 0.0000
     27 ****        -2.7549   3.1891   0.7426 H              1 S1                 0.0000
     28 ****        -1.0415   4.0787  -1.6423 H              1 S1                 0.0000
     29 ****        -0.7107   4.4427   0.0346 H              1 S1                 0.0000
     30 ****         0.6799   2.5634  -0.7487 H              1 S1                 0.0000
     31 ****        -0.3713   2.0490   0.5509 H              1 S1                 0.0000
     32 ****         0.1359  -0.1587  -0.3098 H              1 S1                 0.0000
     33 ****        -0.7486  -0.7773  -1.6758 H              1 S1                 0.0000
     34 ****         1.6840   1.0489  -2.0236 H              1 S1                 0.0000
     35 ****         0.2796  -0.5809  -3.8388 H              1 S1                 0.0000
     36 ****         1.5284  -1.9840  -2.3937 H              1 S1                 0.0000
     37 ****         2.8881  -0.9678  -2.8141 H              1 S1                 0.0000
     38 ****         4.1488   0.2263  -0.8083 H              1 S1                 0.0000
     39 ****         3.4864  -2.3308   3.3613 H              1 S1                 0.0000
     40 ****         1.7346  -5.3402   3.7485 H              1 S1                 0.0000
     41 ****         0.6862  -4.0550   4.3682 H              1 S1                 0.0000
     42 ****         2.4265  -3.9906   4.6437 H              1 S1                 0.0000
     43 ****        -0.7155  -4.8374   0.6810 H              1 S1                 0.0000
     44 ****        -0.8096  -4.5735   2.4203 H              1 S1                 0.0000
     45 ****         0.2952  -5.7910   1.7654 H              1 S1                 0.0000
     46 ****         0.5067  -3.2269  -0.5366 H              1 S1                 0.0000
     47 ****        -2.7688   0.3158  -1.7175 H              1 S1                 0.0000
     48 ****        -2.4606   0.6793  -0.0300 H              1 S1                 0.0000
     49 ****        -4.2352   2.1663  -0.9348 H              1 S1                 0.0000
     50 ****        -3.1871   2.6812  -2.2348 H              1 S1                 0.0000
     51 ****        -0.9077   1.6570  -2.3051 H              1 S1                 0.0000
     52 ****        -3.0803   5.0477  -1.4285 LP             1 S1                 0.0000
     53 ****        -4.3569   4.3990  -0.6435 LP             1 S1                 0.0000
     54 ****         1.4793   0.4045  -4.1844 LP             1 S1                 0.0000
     55 ****         0.0330   0.9837  -3.6953 LP             1 S1                 0.0000
     56 ****         4.6642  -0.4107   1.5798 LP             1 S1                 0.0000
@<TRIPOS>BOND
    1    1    2 1     
    2    1   24 1     
    3    1   25 1     
    4    1   26 1     
    5    2    3 1     
    6    3   23 1     
    7    3    4 1     
    8    3   27 1     
    9    4    5 1     
   10    4   28 1     
   11    4   29 1     
   12    5    6 1     
   13    5   30 1     
   14    5   31 1     
   15    6    7 1     
   16    6   22 1     
   17    6   51 1     
   18    7    8 1     
   19    7   32 1     
   20    7   33 1     
   21    8    9 1     
   22    8   10 1     
   23    8   34 1     
   24    9   35 1     
   25   10   11 1     
   26   10   36 1     
   27   10   37 1     
   28   11   21 1     
   29   11   12 1     
   30   12   13 2     
   31   12   38 1     
   32   13   14 1     
   33   14   21 ar    
   34   14   15 ar    
   35   15   16 ar    
   36   15   39 1     
   37   16   17 1     
   38   16   18 ar    
   39   17   40 1     
   40   17   41 1     
   41   17   42 1     
   42   18   19 1     
   43   18   20 ar    
   44   19   43 1     
   45   19   44 1     
   46   19   45 1     
   47   20   21 ar    
   48   20   46 1     
   49   22   23 1     
   50   22   47 1     
   51   22   48 1     
   52   23   49 1     
   53   23   50 1     
   54    2   52 1     
   55    2   53 1     
   56    9   54 1     
   57    9   55 1     
   58   13   56 1     
@<TRIPOS>SUBSTRUCTURE
      1 S1             1
@<TRIPOS>SET
LONE_PAIRS      STATIC     ATOMS    <user>   **** ""
5 52 53 54 55 56
DONOR_HYDROGENS      STATIC     ATOMS    <user>   **** ""
2 51 35
ATOM$BLUE        STATIC     ATOMS    COLORGROUP SYSTEM
5 52 53 54 55 56
ATOM$RED        STATIC     ATOMS    COLORGROUP SYSTEM
2 51 35
