#       Name:                AV-unprocessed.smi:2228
#       Creating user name   scv26
#       Creation time:       Fri Mar 27 12:23:05 2020


#       File generated by GOLD software.
#

@<TRIPOS>MOLECULE
AV-unprocessed.smi:2228
    45    46     1
SMALL
NO_CHARGES


@<TRIPOS>ATOM
      1 ****        -2.9602  -0.6692   2.8719 C.3            1 S1                 0.0000
      2 ****        -3.8134  -1.3756   1.9845 O.3            1 S1                 0.0000
      3 ****        -3.1238  -2.0158   0.9196 C.3            1 S1                 0.0000
      4 ****        -4.0811  -2.9528   0.1782 C.3            1 S1                 0.0000
      5 ****        -3.5189  -3.0229  -1.2372 C.3            1 S1                 0.0000
      6 ****        -3.0386  -1.5979  -1.5129 C.3            1 S1                 0.0000
      7 ****        -2.6063  -1.0258  -0.1490 C.3            1 S1                 0.0000
      8 ****        -1.1524  -0.9061  -0.0729 N.am           1 S1                 0.0000
      9 ****        -0.4522   0.2069  -0.3329 C.2            1 S1                 0.0000
     10 ****        -0.9667   1.2644  -0.6979 O.2            1 S1                 0.0000
     11 ****         0.8632   0.0074  -0.1380 N.am           1 S1                 0.0000
     12 ****         1.9225   0.9433  -0.2733 C.ar           1 S1                 0.0000
     13 ****         3.2053   0.4460   0.0486 C.ar           1 S1                 0.0000
     14 ****         4.3248   1.2965  -0.0495 C.ar           1 S1                 0.0000
     15 ****         5.7083   0.7837   0.2916 C.3            1 S1                 0.0000
     16 ****         4.1294   2.6256  -0.4707 C.ar           1 S1                 0.0000
     17 ****         2.8180   3.0411  -0.7738 C.ar           1 S1                 0.0000
     18 ****         2.5358   4.4550  -1.2365 C.3            1 S1                 0.0000
     19 ****         1.7464   2.2255  -0.6785 N.ar           1 S1                 0.0000
     20 ****        -3.5524  -0.2362   3.6779 H              1 S1                 0.0000
     21 ****        -2.4394   0.1460   2.3685 H              1 S1                 0.0000
     22 ****        -2.2190  -1.3324   3.3192 H              1 S1                 0.0000
     23 ****        -2.3052  -2.6218   1.3145 H              1 S1                 0.0000
     24 ****        -4.1612  -3.9321   0.6511 H              1 S1                 0.0000
     25 ****        -5.0807  -2.5164   0.1464 H              1 S1                 0.0000
     26 ****        -2.6727  -3.7106  -1.2636 H              1 S1                 0.0000
     27 ****        -4.2535  -3.3673  -1.9655 H              1 S1                 0.0000
     28 ****        -2.2499  -1.5699  -2.2663 H              1 S1                 0.0000
     29 ****        -3.8703  -1.0078  -1.9003 H              1 S1                 0.0000
     30 ****        -3.0803  -0.0521  -0.0102 H              1 S1                 0.0000
     31 ****        -0.6458  -1.7301   0.2159 H              1 S1                 0.0000
     32 ****         1.1371  -0.9174   0.1586 H              1 S1                 0.0000
     33 ****         3.3326  -0.5779   0.3698 H              1 S1                 0.0000
     34 ****         6.4522   1.5786   0.2313 H              1 S1                 0.0000
     35 ****         5.9982  -0.0079  -0.3995 H              1 S1                 0.0000
     36 ****         5.7235   0.3793   1.3039 H              1 S1                 0.0000
     37 ****         4.9621   3.3081  -0.5599 H              1 S1                 0.0000
     38 ****         3.4288   5.0772  -1.1725 H              1 S1                 0.0000
     39 ****         1.7603   4.9109  -0.6202 H              1 S1                 0.0000
     40 ****         2.1950   4.4521  -2.2722 H              1 S1                 0.0000
     41 ****        -4.4679  -0.7286   1.5934 LP             1 S1                 0.0000
     42 ****        -4.3051  -2.0725   2.5067 LP             1 S1                 0.0000
     43 ****        -1.9581   1.3239  -0.8146 LP             1 S1                 0.0000
     44 ****        -0.3932   2.0636  -0.8775 LP             1 S1                 0.0000
     45 ****         0.8326   2.5631  -0.9042 LP             1 S1                 0.0000
@<TRIPOS>BOND
    1    1    2 1     
    2    1   20 1     
    3    1   21 1     
    4    1   22 1     
    5    2    3 1     
    6    3    7 1     
    7    3    4 1     
    8    3   23 1     
    9    4    5 1     
   10    4   24 1     
   11    4   25 1     
   12    5    6 1     
   13    5   26 1     
   14    5   27 1     
   15    6    7 1     
   16    6   28 1     
   17    6   29 1     
   18    7    8 1     
   19    7   30 1     
   20    8    9 am    
   21    8   31 1     
   22    9   10 2     
   23    9   11 am    
   24   11   12 1     
   25   11   32 1     
   26   12   19 ar    
   27   12   13 ar    
   28   13   14 ar    
   29   13   33 1     
   30   14   15 1     
   31   14   16 ar    
   32   15   34 1     
   33   15   35 1     
   34   15   36 1     
   35   16   17 ar    
   36   16   37 1     
   37   17   18 1     
   38   17   19 ar    
   39   18   38 1     
   40   18   39 1     
   41   18   40 1     
   42    2   41 1     
   43    2   42 1     
   44   10   43 1     
   45   10   44 1     
   46   19   45 1     
@<TRIPOS>SUBSTRUCTURE
      1 S1             1
@<TRIPOS>SET
LONE_PAIRS      STATIC     ATOMS    <user>   **** ""
5 41 42 43 44 45
DONOR_HYDROGENS      STATIC     ATOMS    <user>   **** ""
2 31 32
ATOM$BLUE        STATIC     ATOMS    COLORGROUP SYSTEM
5 41 42 43 44 45
ATOM$RED        STATIC     ATOMS    COLORGROUP SYSTEM
2 31 32
