AV-unprocessed.smi:89|AV-procd|sdf|825|dock9
  -GOLD-   2262017233D 1   1.00000     0.00000
 Structure written by MMmdl.
 54 56  0  0  0  0  0  0  0  0  1 V2000
  142.2501  137.8215  156.7406 C   0  0  0  0  0  0  0  0  0  0  0  0
  141.6125  138.2854  155.4208 C   0  0  0  0  0  0  0  0  0  0  0  0
  140.7942  137.2543  154.7765 N   0  0  0  0  0  0  0  0  0  0  0  0
  141.4160  136.3509  153.9809 C   0  0  0  0  0  0  0  0  0  0  0  0
  140.8099  135.1475  153.8209 N   0  0  0  0  0  0  0  0  0  0  0  0
  141.3705  134.2102  153.0520 C   0  0  0  0  0  0  0  0  0  0  0  0
  142.5089  134.2716  152.3586 N   0  0  0  0  0  0  0  0  0  0  0  0
  143.1132  135.4859  152.5021 C   0  0  0  0  0  0  0  0  0  0  0  0
  142.6427  136.5734  153.2918 C   0  0  0  0  0  0  0  0  0  0  0  0
  143.5241  137.6435  153.1923 N   0  0  0  0  0  0  0  0  0  0  0  0
  144.4647  137.2106  152.3988 C   0  0  0  0  0  0  0  0  0  0  0  0
  144.2897  135.9306  151.9238 N   0  0  0  0  0  0  0  0  0  0  0  0
  145.1753  135.2070  151.0235 C   0  0  0  0  0  0  0  0  0  0  0  0
  145.3488  133.7057  151.3707 C   0  0  1  0  0  0  0  0  0  0  0  0
  145.4068  133.5548  152.7768 O   0  0  0  0  0  0  0  0  0  0  0  0
  144.2467  132.7988  150.8169 C   0  0  0  0  0  0  0  0  0  0  0  0
  144.8824  132.2093  149.5662 C   0  0  0  0  0  0  0  0  0  0  0  0
  146.2182  131.9904  149.9821 O   0  0  0  0  0  0  0  0  0  0  0  0
  146.6294  133.1229  150.7380 C   0  0  0  0  0  0  0  0  0  0  0  0
  139.4166  137.5542  154.3696 C   0  0  2  0  0  0  0  0  0  0  0  0
  139.2861  137.6654  152.8406 C   0  0  0  0  0  0  0  0  0  0  0  0
  138.8523  138.7979  155.0836 C   0  0  0  0  0  0  0  0  0  0  0  0
  137.0268  138.9554  154.8391 S   0  0  0  0  0  0  0  0  0  0  0  0
  136.3906  139.0580  156.1611 O   0  0  0  0  0  0  0  0  0  0  0  0
  136.7856  140.0003  153.8321 O   0  0  0  0  0  0  0  0  0  0  0  0
  136.5835  137.3217  154.1042 C   0  0  0  0  0  0  0  0  0  0  0  0
  135.0820  137.2078  153.8156 C   0  0  0  0  0  0  0  0  0  0  0  0
  142.7892  138.6414  157.2147 H   0  0  0  0  0  0  0  0  0  0  0  0
  142.9611  137.0093  156.5893 H   0  0  0  0  0  0  0  0  0  0  0  0
  141.4893  137.4762  157.4411 H   0  0  0  0  0  0  0  0  0  0  0  0
  140.9912  139.1545  155.6307 H   0  0  0  0  0  0  0  0  0  0  0  0
  142.3832  138.6325  154.7335 H   0  0  0  0  0  0  0  0  0  0  0  0
  140.8284  133.2787  152.9811 H   0  0  0  0  0  0  0  0  0  0  0  0
  145.3139  137.8214  152.1288 H   0  0  0  0  0  0  0  0  0  0  0  0
  144.7845  135.3136  150.0107 H   0  0  0  0  0  0  0  0  0  0  0  0
  146.1449  135.7071  151.0284 H   0  0  0  0  0  0  0  0  0  0  0  0
  144.5731  133.8103  153.1408 H   0  0  0  0  0  0  0  0  0  0  0  0
  144.0296  131.9861  151.5125 H   0  0  0  0  0  0  0  0  0  0  0  0
  143.3049  133.3032  150.6078 H   0  0  0  0  0  0  0  0  0  0  0  0
  144.4026  131.2854  149.2428 H   0  0  0  0  0  0  0  0  0  0  0  0
  144.8617  132.9215  148.7399 H   0  0  0  0  0  0  0  0  0  0  0  0
  147.0959  133.8380  150.0586 H   0  0  0  0  0  0  0  0  0  0  0  0
  147.3823  132.8346  151.4727 H   0  0  0  0  0  0  0  0  0  0  0  0
  138.7810  136.7185  154.6667 H   0  0  0  0  0  0  0  0  0  0  0  0
  138.2451  137.8031  152.5476 H   0  0  0  0  0  0  0  0  0  0  0  0
  139.6474  136.7631  152.3465 H   0  0  0  0  0  0  0  0  0  0  0  0
  139.8527  138.5105  152.4488 H   0  0  0  0  0  0  0  0  0  0  0  0
  139.0666  138.7879  156.1509 H   0  0  0  0  0  0  0  0  0  0  0  0
  139.3110  139.6975  154.6734 H   0  0  0  0  0  0  0  0  0  0  0  0
  137.1688  137.1830  153.1954 H   0  0  0  0  0  0  0  0  0  0  0  0
  136.8878  136.5487  154.8101 H   0  0  0  0  0  0  0  0  0  0  0  0
  134.8415  136.2231  153.4142 H   0  0  0  0  0  0  0  0  0  0  0  0
  134.7571  137.9480  153.0854 H   0  0  0  0  0  0  0  0  0  0  0  0
  134.4935  137.3480  154.7222 H   0  0  0  0  0  0  0  0  0  0  0  0
  1  2  1  0  0  0  0
  1 28  1  0  0  0  0
  1 29  1  0  0  0  0
  1 30  1  0  0  0  0
  2  3  1  0  0  0  0
  2 31  1  0  0  0  0
  2 32  1  0  0  0  0
  3  4  1  0  0  0  0
  3 20  1  0  0  0  0
  4  9  1  0  0  0  0
  4  5  2  0  0  0  0
  5  6  1  0  0  0  0
  6  7  2  0  0  0  0
  6 33  1  0  0  0  0
  7  8  1  0  0  0  0
  8 12  1  0  0  0  0
  8  9  2  0  0  0  0
  9 10  1  0  0  0  0
 10 11  2  0  0  0  0
 11 12  1  0  0  0  0
 11 34  1  0  0  0  0
 12 13  1  0  0  0  0
 13 14  1  0  0  0  0
 13 35  1  0  0  0  0
 13 36  1  0  0  0  0
 14 19  1  0  0  0  0
 14 15  1  0  0  0  0
 14 16  1  0  0  0  0
 15 37  1  0  0  0  0
 16 17  1  0  0  0  0
 16 38  1  0  0  0  0
 16 39  1  0  0  0  0
 17 18  1  0  0  0  0
 17 40  1  0  0  0  0
 17 41  1  0  0  0  0
 18 19  1  0  0  0  0
 19 42  1  0  0  0  0
 19 43  1  0  0  0  0
 20 21  1  0  0  0  0
 20 22  1  0  0  0  0
 20 44  1  0  0  0  0
 21 45  1  0  0  0  0
 21 46  1  0  0  0  0
 21 47  1  0  0  0  0
 22 23  1  0  0  0  0
 22 48  1  0  0  0  0
 22 49  1  0  0  0  0
 23 24  2  0  0  0  0
 23 25  2  0  0  0  0
 23 26  1  0  0  0  0
 26 27  1  0  0  0  0
 26 50  1  0  0  0  0
 26 51  1  0  0  0  0
 27 52  1  0  0  0  0
 27 53  1  0  0  0  0
 27 54  1  0  0  0  0
M  END
> <s_m_source_file>
AV-unprocessed.smi

> <i_m_source_file_index>
89

> <i_lp_mmshare_version>
43012

> <i_f3d_flags>
0

> <s_epik_input>
W0NIM11bQ0gyXVMoPU8pKD1PKVtDSDJdW0NAQEhdKFtDSDNdKU4oW0NIMl1bQ0gzXSljKG5bY0hdbjEpYyhjMTIpbltjSF1uMltDSDJdW0NAQF0zKFtPSF0pW0NIMl1bQ0gyXU9bQ0gyXTM=

> <s_epik_cmdline>
J2VwaWtfcHl0aG9uJywgJy1waCcsICc3LjAnLCAnLXRuJywgJzgnLCAnLW1hJywgJzIwMCcsICctbWV0YWxfYmluZGluZycsICctaW1hZScsICc8aW5maWxlLm1hZT4nLCAnLW9tYWUnLCAnPG91dGZpbGUubWFlPic=

> <r_lp_tautomer_probability>
1

> <r_epik_Ionization_Penalty>
0.00103773

> <r_epik_Ionization_Penalty_Charging>
0

> <r_epik_Ionization_Penalty_Neutral>
0.00103773

> <r_epik_State_Penalty>
0.000558914

> <r_epik_Charging_Adjusted_Penalty>
0.000558914

> <i_epik_Tot_Q>
0

> <i_epik_Tot_abs_Q>
0

> <r_epik_Metal_State_Penalty>
-0

> <b_epik_Metal_Only>
0

> <s_lp_Force_Field>
OPLS_2005

> <r_lp_Energy>
26.0666

> <b_lp_Chiralities_Consistent>
1

> <s_lp_Variant>
AV-unprocessed.smi:89-1

> <Gold.Version>
5.8.1

> <Gold.Id.Protein>
6NUR|6NUR_protein|mol2

> <Gold.PLP.Fitness>
40.9574

> <Gold.PLP.PLP>
-40.7555

> <Gold.PLP.part.hbond>
-1.1722

> <Gold.PLP.part.metal>
0.0000

> <Gold.PLP.part.buried>
-7.8884

> <Gold.PLP.part.nonpolar>
-32.8538

> <Gold.PLP.part.repulsive>
0.9625

> <Gold.PLP.ligand.clash>
0.0000

> <Gold.PLP.ligand.torsion>
2.1510

> <Gold.PLP.Chemscore.Hbond>
0.9913

> <Gold.PLP.Chemscore.CHOScore>
0.0000

> <Gold.PLP.Chemscore.Metal>
0.0000

> <Gold.Chemscore.Hbonds>
donor molecule, donor type, donor heavy atom, donor atom, acceptor molecule, acceptor atom, score
      P1  H 11000 11005       L1     5  0.75
      L1  C    11    34       P1 10171  0.04

> <Gold.PLP.Chemscore.Internal.Correction>
1.5301

> <Gold.Rescore>
     Score         DG    S(hbond)    S(metal)    S(lipo)     H(rot)  DE(clash)    DE(int)     intcor
      4.44      -8.23       0.66        0.00      73.42       3.14       0.09       3.70       ----

> <Gold.Chemscore.Fitness>
4.4391

> <Gold.Chemscore.DG>
-8.2275

> <Gold.Chemscore.ZeroCoef>
-5.4800

> <Gold.Chemscore.Hbond>
0.6563

> <Gold.Chemscore.Metal>
0.0000

> <Gold.Chemscore.Lipo>
73.4222

> <Gold.Chemscore.Internal_Hbond>
0.0000

> <Gold.Chemscore.DEClash>
0.0890

> <Gold.Chemscore.DEInternal>
3.6993

> <Gold.Chemscore.Rot>
3.1386

> <Gold.Chemscore.Internal.Correction>
   9.000000E+99

> <Gold.Chemscore.Hbonds>
donor molecule, donor type, donor heavy atom, donor atom, acceptor molecule, acceptor atom, score
      P1  H 11000 11005       L1     5  0.41

> <Gold.Chemscore.Hbond.Weighted>
-2.1920

> <Gold.Chemscore.Metal.Weighted>
-0.0000

> <Gold.Chemscore.Lipo.Weighted>
-8.5904

> <Gold.Chemscore.Internal_Hbond.Weighted>
0.0000

> <Gold.Chemscore.DEClash.Weighted>
0.0890

> <Gold.Chemscore.DEInternal.Weighted>
3.6993

> <Gold.Chemscore.Rot.Weighted>
8.0349

> <Gold.Chemscore.Internal.Correction.Weighted>
   9.000000E+99

> <Gold.Protein.RotatedTorsions>
[ 6907 6896 6895 6894 ] final  -81.70 input  -60.11 | X-H torsion
[ 7974 7965 7964 7962 ] final -178.74 input  175.53 | X-H torsion
[ 8008 7997 7996 7995 ] final   42.85 input   59.86 | X-H torsion
[ 10167 10162 10161 10158 ] final  146.35 input  -65.29 | X-H torsion
[ 10718 10713 10712 10709 ] final  -33.56 input   66.30 | X-H torsion
[ 10763 10752 10751 10750 ] final -107.60 input  -60.55 | X-H torsion
[ 11005 11000 10999 10996 ] final   30.96 input  -57.11 | X-H torsion

> <Gold.Protein.ActiveResidues>
 VAL166  LYS551  ARG553  GLY616  TRP617  ASP618  TYR619  PRO620  LYS621  CYS622 
 ASP623  PHE694  ASN695  SER759  ASP760  ASP761  ALA762  ILE779  LEU786  VAL792 
 PHE793  MET794  SER795  GLU796  ALA797  LYS798  CYS799  TRP800  GLU811  SER814 

> <Gold.Protein.RotatedAtoms>
  150.6908  134.3778  159.5020 H   0  0  0  0  0  0  0  0  0  0  0  0  # atno 6907 bound_to 6896
  152.1585  134.8929  160.0552 H   0  0  0  0  0  0  0  0  0  0  0  0  # atno 6908 bound_to 6896
  152.0000  133.3787  159.4215 H   0  0  0  0  0  0  0  0  0  0  0  0  # atno 6909 bound_to 6896
  144.7132  140.0823  143.6425 H   0  0  0  0  0  0  0  0  0  0  0  0  # atno 7974 bound_to 7965
  155.2930  140.3380  155.4251 H   0  0  0  0  0  0  0  0  0  0  0  0  # atno 8008 bound_to 7997
  156.2037  140.1742  156.7885 H   0  0  0  0  0  0  0  0  0  0  0  0  # atno 8009 bound_to 7997
  154.5592  140.0690  156.8777 H   0  0  0  0  0  0  0  0  0  0  0  0  # atno 8010 bound_to 7997
  139.4909  144.5835  151.6824 H   0  0  0  0  0  0  0  0  0  0  0  0  # atno 10167 bound_to 10162
  156.3612  130.4324  149.7622 H   0  0  0  0  0  0  0  0  0  0  0  0  # atno 10718 bound_to 10713
  154.8085  135.4669  154.0454 H   0  0  0  0  0  0  0  0  0  0  0  0  # atno 10763 bound_to 10752
  153.1904  135.6854  153.8367 H   0  0  0  0  0  0  0  0  0  0  0  0  # atno 10764 bound_to 10752
  153.7887  135.3246  155.3353 H   0  0  0  0  0  0  0  0  0  0  0  0  # atno 10765 bound_to 10752
  140.2888  134.2888  155.7781 H   0  0  0  0  0  0  0  0  0  0  0  0  # atno 11005 bound_to 11000
  145.9691  139.2857  143.1109 LP  0  0  0  0  0  0  0  0  0  0  0  0  # atno 17320 bound_to 7965
  145.9136  140.9163  143.0441 LP  0  0  0  0  0  0  0  0  0  0  0  0  # atno 17321 bound_to 7965
  140.5447  144.0523  150.6102 LP  0  0  0  0  0  0  0  0  0  0  0  0  # atno 17342 bound_to 10162
  140.3557  143.2937  152.0439 LP  0  0  0  0  0  0  0  0  0  0  0  0  # atno 17343 bound_to 10162
  156.4786  130.8030  151.3045 LP  0  0  0  0  0  0  0  0  0  0  0  0  # atno 17370 bound_to 10713
  157.7473  131.0013  150.2958 LP  0  0  0  0  0  0  0  0  0  0  0  0  # atno 17371 bound_to 10713
  141.2150  133.7572  156.9594 LP  0  0  0  0  0  0  0  0  0  0  0  0  # atno 17394 bound_to 11000
  140.1214  134.9414  157.2209 LP  0  0  0  0  0  0  0  0  0  0  0  0  # atno 17395 bound_to 11000

$$$$
