AV-unprocessed.smi:493|AV-procd|sdf|2712|dock7
  -GOLD-   2262023153D 1   1.00000     0.00000
 Structure written by MMmdl.
 46 47  0  0  0  0  0  0  0  0  1 V2000
  147.7785  135.7138  162.9610 C   0  0  0  0  0  0  0  0  0  0  0  0
  146.9850  134.8096  162.0013 C   0  0  0  0  0  0  0  0  0  0  0  0
  147.3694  133.3387  162.2660 C   0  0  0  0  0  0  0  0  0  0  0  0
  145.4760  135.0279  162.2403 C   0  0  0  0  0  0  0  0  0  0  0  0
  147.3563  135.2056  160.6374 N   0  0  0  0  0  0  0  0  0  0  0  0
  147.6130  136.4381  160.1645 C   0  0  0  0  0  0  0  0  0  0  0  0
  147.5498  137.4610  160.8471 O   0  0  0  0  0  0  0  0  0  0  0  0
  147.9804  136.5148  158.6758 C   0  0  0  0  0  0  0  0  0  0  0  0
  148.3179  137.8771  158.2311 N   0  0  0  0  0  0  0  0  0  0  0  0
  149.6549  138.2902  158.3896 C   0  0  0  0  0  0  0  0  0  0  0  0
  150.0721  139.5031  157.9910 C   0  0  0  0  0  0  0  0  0  0  0  0
  151.7620  140.0539  158.3369 S   0  0  0  0  0  0  0  0  0  0  0  0
  152.2947  139.1773  159.3911 O   0  0  0  0  0  0  0  0  0  0  0  0
  152.4688  140.1682  157.0513 O   0  0  0  0  0  0  0  0  0  0  0  0
  151.6393  141.6496  158.9985 N   0  0  0  0  0  0  0  0  0  0  0  0
  152.8140  142.2017  159.6867 C   0  0  0  0  0  0  0  0  0  0  0  0
  153.0960  143.5438  159.0127 C   0  0  0  0  0  0  0  0  0  0  0  0
  151.7145  144.0037  158.5733 C   0  0  0  0  0  0  0  0  0  0  0  0
  151.0257  142.6998  158.1712 C   0  0  0  0  0  0  0  0  0  0  0  0
  149.0988  140.4198  157.4452 C   0  0  0  0  0  0  0  0  0  0  0  0
  147.8139  140.0380  157.3043 C   0  0  0  0  0  0  0  0  0  0  0  0
  147.3613  138.6976  157.6959 C   0  0  0  0  0  0  0  0  0  0  0  0
  146.1930  138.3356  157.5541 O   0  0  0  0  0  0  0  0  0  0  0  0
  147.5533  135.4814  164.0025 H   0  0  0  0  0  0  0  0  0  0  0  0
  147.5430  136.7671  162.8028 H   0  0  0  0  0  0  0  0  0  0  0  0
  148.8540  135.5938  162.8241 H   0  0  0  0  0  0  0  0  0  0  0  0
  148.4268  133.1620  162.0662 H   0  0  0  0  0  0  0  0  0  0  0  0
  146.7968  132.6469  161.6484 H   0  0  0  0  0  0  0  0  0  0  0  0
  147.1829  133.0657  163.3051 H   0  0  0  0  0  0  0  0  0  0  0  0
  145.2108  134.8289  163.2792 H   0  0  0  0  0  0  0  0  0  0  0  0
  144.8638  134.3691  161.6245 H   0  0  0  0  0  0  0  0  0  0  0  0
  145.1818  136.0544  162.0180 H   0  0  0  0  0  0  0  0  0  0  0  0
  147.4349  134.4475  159.9752 H   0  0  0  0  0  0  0  0  0  0  0  0
  148.8122  135.8380  158.4708 H   0  0  0  0  0  0  0  0  0  0  0  0
  147.1428  136.1194  158.0998 H   0  0  0  0  0  0  0  0  0  0  0  0
  150.3081  137.5661  158.8543 H   0  0  0  0  0  0  0  0  0  0  0  0
  152.5693  142.3399  160.7403 H   0  0  0  0  0  0  0  0  0  0  0  0
  153.6697  141.5282  159.6229 H   0  0  0  0  0  0  0  0  0  0  0  0
  153.5904  144.2553  159.6748 H   0  0  0  0  0  0  0  0  0  0  0  0
  153.7327  143.3942  158.1395 H   0  0  0  0  0  0  0  0  0  0  0  0
  151.1899  144.4576  159.4151 H   0  0  0  0  0  0  0  0  0  0  0  0
  151.7472  144.7321  157.7628 H   0  0  0  0  0  0  0  0  0  0  0  0
  151.2115  142.4889  157.1174 H   0  0  0  0  0  0  0  0  0  0  0  0
  149.9470  142.7360  158.3248 H   0  0  0  0  0  0  0  0  0  0  0  0
  149.3990  141.4129  157.1453 H   0  0  0  0  0  0  0  0  0  0  0  0
  147.0981  140.7338  156.8919 H   0  0  0  0  0  0  0  0  0  0  0  0
  1  2  1  0  0  0  0
  1 24  1  0  0  0  0
  1 25  1  0  0  0  0
  1 26  1  0  0  0  0
  2  3  1  0  0  0  0
  2  4  1  0  0  0  0
  2  5  1  0  0  0  0
  3 27  1  0  0  0  0
  3 28  1  0  0  0  0
  3 29  1  0  0  0  0
  4 30  1  0  0  0  0
  4 31  1  0  0  0  0
  4 32  1  0  0  0  0
  5  6  1  0  0  0  0
  5 33  1  0  0  0  0
  6  7  2  0  0  0  0
  6  8  1  0  0  0  0
  8  9  1  0  0  0  0
  8 34  1  0  0  0  0
  8 35  1  0  0  0  0
  9 22  1  0  0  0  0
  9 10  1  0  0  0  0
 10 11  2  0  0  0  0
 10 36  1  0  0  0  0
 11 12  1  0  0  0  0
 11 20  1  0  0  0  0
 12 13  2  0  0  0  0
 12 14  2  0  0  0  0
 12 15  1  0  0  0  0
 15 19  1  0  0  0  0
 15 16  1  0  0  0  0
 16 17  1  0  0  0  0
 16 37  1  0  0  0  0
 16 38  1  0  0  0  0
 17 18  1  0  0  0  0
 17 39  1  0  0  0  0
 17 40  1  0  0  0  0
 18 19  1  0  0  0  0
 18 41  1  0  0  0  0
 18 42  1  0  0  0  0
 19 43  1  0  0  0  0
 19 44  1  0  0  0  0
 20 21  2  0  0  0  0
 20 45  1  0  0  0  0
 21 22  1  0  0  0  0
 21 46  1  0  0  0  0
 22 23  2  0  0  0  0
M  END
> <s_m_source_file>
AV-unprocessed.smi

> <i_m_source_file_index>
493

> <i_lp_mmshare_version>
43012

> <i_f3d_flags>
0

> <s_epik_input>
W0NIM11DKFtDSDNdKShbQ0gzXSlbTkhdQyg9TylbQ0gyXW4xW2NIXWMoW2NIXVtjSF1jMT1PKVMoPU8pKD1PKU4yW0NIMl1bQ0gyXVtDSDJdW0NIMl0y

> <s_epik_cmdline>
J2VwaWtfcHl0aG9uJywgJy1waCcsICc3LjAnLCAnLXRuJywgJzgnLCAnLW1hJywgJzIwMCcsICctbWV0YWxfYmluZGluZycsICctaW1hZScsICc8aW5maWxlLm1hZT4nLCAnLW9tYWUnLCAnPG91dGZpbGUubWFlPic=

> <r_lp_tautomer_probability>
1

> <r_epik_Ionization_Penalty>
3.47616e-08

> <r_epik_Ionization_Penalty_Charging>
1.01201e-08

> <r_epik_Ionization_Penalty_Neutral>
2.46415e-08

> <r_epik_State_Penalty>
-0

> <r_epik_Charging_Adjusted_Penalty>
1.01201e-08

> <i_epik_Tot_Q>
0

> <i_epik_Tot_abs_Q>
0

> <r_epik_Metal_State_Penalty>
-0

> <b_epik_Metal_Only>
0

> <s_lp_Force_Field>
OPLS_2005

> <r_lp_Energy>
19.4052

> <b_lp_Chiralities_Consistent>
1

> <s_lp_Variant>
AV-unprocessed.smi:493-1

> <Gold.Version>
5.8.1

> <Gold.Id.Protein>
6NUR|6NUR_protein|mol2

> <Gold.PLP.Fitness>
44.6688

> <Gold.PLP.PLP>
-38.8376

> <Gold.PLP.part.hbond>
-2.8431

> <Gold.PLP.part.metal>
0.0000

> <Gold.PLP.part.buried>
-4.1033

> <Gold.PLP.part.nonpolar>
-31.3360

> <Gold.PLP.part.repulsive>
0.0564

> <Gold.PLP.ligand.clash>
0.0000

> <Gold.PLP.ligand.torsion>
2.3152

> <Gold.PLP.Chemscore.Hbond>
2.6640

> <Gold.PLP.Chemscore.CHOScore>
0.0000

> <Gold.PLP.Chemscore.Metal>
0.0000

> <Gold.Chemscore.Hbonds>
donor molecule, donor type, donor heavy atom, donor atom, acceptor molecule, acceptor atom, score
      P1  H  6931  6943       L1     7  0.70
      P1  H  6934  6947       L1     7  0.96
      P1  H  7997  8008       L1    14  0.98

> <Gold.PLP.Chemscore.Internal.Correction>
2.4696

> <Gold.Rescore>
     Score         DG    S(hbond)    S(metal)    S(lipo)     H(rot)  DE(clash)    DE(int)     intcor
     16.35     -20.18       2.49        0.00      90.19       1.62       0.15       3.68       ----

> <Gold.Chemscore.Fitness>
16.3548

> <Gold.Chemscore.DG>
-20.1841

> <Gold.Chemscore.ZeroCoef>
-5.4800

> <Gold.Chemscore.Hbond>
2.4866

> <Gold.Chemscore.Metal>
0.0000

> <Gold.Chemscore.Lipo>
90.1868

> <Gold.Chemscore.Internal_Hbond>
0.0000

> <Gold.Chemscore.DEClash>
0.1492

> <Gold.Chemscore.DEInternal>
3.6801

> <Gold.Chemscore.Rot>
1.6222

> <Gold.Chemscore.Internal.Correction>
   9.000000E+99

> <Gold.Chemscore.Hbonds>
donor molecule, donor type, donor heavy atom, donor atom, acceptor molecule, acceptor atom, score
      P1  H  6931  6943       L1     7  0.68
      P1  H  6934  6947       L1     7  0.91
      P1  H  7997  8008       L1    14  0.91

> <Gold.Chemscore.Hbond.Weighted>
-8.3051

> <Gold.Chemscore.Metal.Weighted>
-0.0000

> <Gold.Chemscore.Lipo.Weighted>
-10.5519

> <Gold.Chemscore.Internal_Hbond.Weighted>
0.0000

> <Gold.Chemscore.DEClash.Weighted>
0.1492

> <Gold.Chemscore.DEInternal.Weighted>
3.6801

> <Gold.Chemscore.Rot.Weighted>
4.1528

> <Gold.Chemscore.Internal.Correction.Weighted>
   9.000000E+99

> <Gold.Protein.RotatedTorsions>
[ 6907 6896 6895 6894 ] final   21.34 input  -60.11 | X-H torsion
[ 7974 7965 7964 7962 ] final   74.76 input  175.53 | X-H torsion
[ 8008 7997 7996 7995 ] final  -45.09 input   59.86 | X-H torsion
[ 10167 10162 10161 10158 ] final  148.72 input  -65.29 | X-H torsion
[ 10718 10713 10712 10709 ] final  -39.89 input   66.30 | X-H torsion
[ 10763 10752 10751 10750 ] final  144.99 input  -60.55 | X-H torsion
[ 11005 11000 10999 10996 ] final  160.20 input  -57.11 | X-H torsion

> <Gold.Protein.ActiveResidues>
 VAL166  LYS551  ARG553  GLY616  TRP617  ASP618  TYR619  PRO620  LYS621  CYS622 
 ASP623  PHE694  ASN695  SER759  ASP760  ASP761  ALA762  ILE779  LEU786  VAL792 
 PHE793  MET794  SER795  GLU796  ALA797  LYS798  CYS799  TRP800  GLU811  SER814 

> <Gold.Protein.RotatedAtoms>
  151.9103  135.0341  160.0513 H   0  0  0  0  0  0  0  0  0  0  0  0  # atno 6907 bound_to 6896
  152.2285  133.5034  159.5210 H   0  0  0  0  0  0  0  0  0  0  0  0  # atno 6908 bound_to 6896
  150.7019  134.1165  159.4062 H   0  0  0  0  0  0  0  0  0  0  0  0  # atno 6909 bound_to 6896
  145.7242  139.2659  143.1578 H   0  0  0  0  0  0  0  0  0  0  0  0  # atno 7974 bound_to 7965
  154.3999  140.1405  156.3789 H   0  0  0  0  0  0  0  0  0  0  0  0  # atno 8008 bound_to 7997
  155.8022  140.3475  155.5388 H   0  0  0  0  0  0  0  0  0  0  0  0  # atno 8009 bound_to 7997
  155.8472  140.0936  157.1688 H   0  0  0  0  0  0  0  0  0  0  0  0  # atno 8010 bound_to 7997
  139.4871  144.5658  151.7148 H   0  0  0  0  0  0  0  0  0  0  0  0  # atno 10167 bound_to 10162
  156.2874  130.4224  149.8273 H   0  0  0  0  0  0  0  0  0  0  0  0  # atno 10718 bound_to 10713
  153.9980  135.2926  155.3405 H   0  0  0  0  0  0  0  0  0  0  0  0  # atno 10763 bound_to 10752
  154.7176  135.5123  153.8764 H   0  0  0  0  0  0  0  0  0  0  0  0  # atno 10764 bound_to 10752
  153.0779  135.6669  154.0225 H   0  0  0  0  0  0  0  0  0  0  0  0  # atno 10765 bound_to 10752
  140.2036  134.8320  157.3045 H   0  0  0  0  0  0  0  0  0  0  0  0  # atno 11005 bound_to 11000
  146.0597  140.7983  142.9741 LP  0  0  0  0  0  0  0  0  0  0  0  0  # atno 17320 bound_to 7965
  144.6909  140.3178  143.7237 LP  0  0  0  0  0  0  0  0  0  0  0  0  # atno 17321 bound_to 7965
  140.5236  144.0841  150.6030 LP  0  0  0  0  0  0  0  0  0  0  0  0  # atno 17342 bound_to 10162
  140.3807  143.2804  152.0173 LP  0  0  0  0  0  0  0  0  0  0  0  0  # atno 17343 bound_to 10162
  156.5698  130.8420  151.3353 LP  0  0  0  0  0  0  0  0  0  0  0  0  # atno 17370 bound_to 10713
  157.7332  130.9728  150.1969 LP  0  0  0  0  0  0  0  0  0  0  0  0  # atno 17371 bound_to 10713
  140.2027  134.4235  155.7654 LP  0  0  0  0  0  0  0  0  0  0  0  0  # atno 17394 bound_to 11000
  141.2227  133.7080  156.8210 LP  0  0  0  0  0  0  0  0  0  0  0  0  # atno 17395 bound_to 11000

$$$$
