AV-unprocessed.smi:708|AV-procd|sdf|3457|dock1
  -GOLD-   22720 0443D 1   1.00000     0.00000
 Structure written by MMmdl.
 42 43  0  0  0  0  0  0  0  0  1 V2000
  144.0307  136.8782  155.4216 O   0  0  0  0  0  0  0  0  0  0  0  0
  143.7505  137.7931  154.6464 C   0  0  0  0  0  0  0  0  0  0  0  0
  143.0635  137.4956  153.3075 C   0  0  0  0  0  0  0  0  0  0  0  0
  141.5983  137.4216  153.4283 N   0  0  0  0  0  0  0  0  0  0  0  0
  140.8482  138.4481  152.8203 C   0  0  0  0  0  0  0  0  0  0  0  0
  139.5070  138.4756  152.8763 C   0  0  0  0  0  0  0  0  0  0  0  0
  138.8310  137.4146  153.5850 C   0  0  0  0  0  0  0  0  0  0  0  0
  139.5385  136.4259  154.1665 C   0  0  0  0  0  0  0  0  0  0  0  0
  141.0043  136.3894  154.1047 C   0  0  0  0  0  0  0  0  0  0  0  0
  141.6580  135.4868  154.6290 O   0  0  0  0  0  0  0  0  0  0  0  0
  144.0220  139.0822  154.8978 N   0  0  0  0  0  0  0  0  0  0  0  0
  144.6128  139.5951  156.1292 C   0  0  0  0  0  0  0  0  0  0  0  0
  145.7132  140.6475  155.8697 C   0  0  0  0  0  0  0  0  0  0  0  0
  146.4505  140.4295  154.5264 C   0  0  0  0  0  0  0  0  0  0  0  0
  147.6120  141.4247  154.3580 C   0  0  0  0  0  0  0  0  0  0  0  0
  148.5238  141.2865  155.5004 N   0  0  0  0  0  0  0  0  0  0  0  0
  149.7584  140.7349  155.3863 C   0  0  0  0  0  0  0  0  0  0  0  0
  150.2071  140.3636  154.3000 O   0  0  0  0  0  0  0  0  0  0  0  0
  150.6412  140.5587  156.6350 C   0  0  0  0  0  0  0  0  0  0  0  0
  150.8554  141.7429  157.2098 F   0  0  0  0  0  0  0  0  0  0  0  0
  150.0523  139.7280  157.4964 F   0  0  0  0  0  0  0  0  0  0  0  0
  151.8193  140.0394  156.2850 F   0  0  0  0  0  0  0  0  0  0  0  0
  147.8689  141.6820  156.7533 C   0  0  0  0  0  0  0  0  0  0  0  0
  146.7170  140.7022  157.0424 C   0  0  0  0  0  0  0  0  0  0  0  0
  143.3357  138.2539  152.5703 H   0  0  0  0  0  0  0  0  0  0  0  0
  143.4699  136.5605  152.9199 H   0  0  0  0  0  0  0  0  0  0  0  0
  141.4278  139.2003  152.3052 H   0  0  0  0  0  0  0  0  0  0  0  0
  138.9481  139.2684  152.4014 H   0  0  0  0  0  0  0  0  0  0  0  0
  137.7528  137.4132  153.6484 H   0  0  0  0  0  0  0  0  0  0  0  0
  139.0154  135.6404  154.6919 H   0  0  0  0  0  0  0  0  0  0  0  0
  143.7641  139.7643  154.1994 H   0  0  0  0  0  0  0  0  0  0  0  0
  143.8292  140.0122  156.7639 H   0  0  0  0  0  0  0  0  0  0  0  0
  145.0317  138.7484  156.6739 H   0  0  0  0  0  0  0  0  0  0  0  0
  145.2351  141.6267  155.8177 H   0  0  0  0  0  0  0  0  0  0  0  0
  146.8356  139.4102  154.4756 H   0  0  0  0  0  0  0  0  0  0  0  0
  145.7598  140.5418  153.6902 H   0  0  0  0  0  0  0  0  0  0  0  0
  148.1037  141.2606  153.3982 H   0  0  0  0  0  0  0  0  0  0  0  0
  147.2290  142.4455  154.3205 H   0  0  0  0  0  0  0  0  0  0  0  0
  148.5417  141.7202  157.6072 H   0  0  0  0  0  0  0  0  0  0  0  0
  147.4780  142.6952  156.6494 H   0  0  0  0  0  0  0  0  0  0  0  0
  146.2033  140.9977  157.9578 H   0  0  0  0  0  0  0  0  0  0  0  0
  147.1270  139.7082  157.2260 H   0  0  0  0  0  0  0  0  0  0  0  0
  1  2  2  0  0  0  0
  2  3  1  0  0  0  0
  2 11  1  0  0  0  0
  3  4  1  0  0  0  0
  3 25  1  0  0  0  0
  3 26  1  0  0  0  0
  4  9  1  0  0  0  0
  4  5  1  0  0  0  0
  5  6  2  0  0  0  0
  5 27  1  0  0  0  0
  6  7  1  0  0  0  0
  6 28  1  0  0  0  0
  7  8  2  0  0  0  0
  7 29  1  0  0  0  0
  8  9  1  0  0  0  0
  8 30  1  0  0  0  0
  9 10  2  0  0  0  0
 11 12  1  0  0  0  0
 11 31  1  0  0  0  0
 12 13  1  0  0  0  0
 12 32  1  0  0  0  0
 12 33  1  0  0  0  0
 13 24  1  0  0  0  0
 13 14  1  0  0  0  0
 13 34  1  0  0  0  0
 14 15  1  0  0  0  0
 14 35  1  0  0  0  0
 14 36  1  0  0  0  0
 15 16  1  0  0  0  0
 15 37  1  0  0  0  0
 15 38  1  0  0  0  0
 16 17  1  0  0  0  0
 16 23  1  0  0  0  0
 17 18  2  0  0  0  0
 17 19  1  0  0  0  0
 19 20  1  0  0  0  0
 19 21  1  0  0  0  0
 19 22  1  0  0  0  0
 23 24  1  0  0  0  0
 23 39  1  0  0  0  0
 23 40  1  0  0  0  0
 24 41  1  0  0  0  0
 24 42  1  0  0  0  0
M  END
> <s_m_source_file>
AV-unprocessed.smi

> <i_m_source_file_index>
708

> <i_lp_mmshare_version>
43012

> <i_f3d_flags>
0

> <s_epik_input>
Tz1jMVtjSF1bY0hdW2NIXVtjSF1uMVtDSDJdQyg9TylbTkhdW0NIMl1bQ0hdMltDSDJdW0NIMl1OKEMoPU8pQyhGKShGKUYpW0NIMl1bQ0gyXTI=

> <s_epik_cmdline>
J2VwaWtfcHl0aG9uJywgJy1waCcsICc3LjAnLCAnLXRuJywgJzgnLCAnLW1hJywgJzIwMCcsICctbWV0YWxfYmluZGluZycsICctaW1hZScsICc8aW5maWxlLm1hZT4nLCAnLW9tYWUnLCAnPG91dGZpbGUubWFlPic=

> <r_lp_tautomer_probability>
1

> <r_epik_Ionization_Penalty>
3.72594e-07

> <r_epik_Ionization_Penalty_Charging>
3.54487e-07

> <r_epik_Ionization_Penalty_Neutral>
1.81071e-08

> <r_epik_State_Penalty>
-0

> <r_epik_Charging_Adjusted_Penalty>
3.54487e-07

> <i_epik_Tot_Q>
0

> <i_epik_Tot_abs_Q>
0

> <r_epik_Metal_State_Penalty>
-0

> <b_epik_Metal_Only>
0

> <s_lp_Force_Field>
OPLS_2005

> <r_lp_Energy>
36.5202

> <b_lp_Chiralities_Consistent>
1

> <s_lp_Variant>
AV-unprocessed.smi:708-1

> <Gold.Version>
5.8.1

> <Gold.Id.Protein>
6NUR|6NUR_protein|mol2

> <Gold.PLP.Fitness>
47.8185

> <Gold.PLP.PLP>
-37.1205

> <Gold.PLP.part.hbond>
-2.8181

> <Gold.PLP.part.metal>
0.0000

> <Gold.PLP.part.buried>
-2.7915

> <Gold.PLP.part.nonpolar>
-32.6104

> <Gold.PLP.part.repulsive>
0.9432

> <Gold.PLP.ligand.clash>
0.0000

> <Gold.PLP.ligand.torsion>
0.8898

> <Gold.PLP.Chemscore.Hbond>
2.2952

> <Gold.PLP.Chemscore.CHOScore>
1.8549

> <Gold.PLP.Chemscore.Metal>
0.0000

> <Gold.Chemscore.Hbonds>
donor molecule, donor type, donor heavy atom, donor atom, acceptor molecule, acceptor atom, score
      L1  H    11    31       P1 10175  1.00
      P1  H  7989  7998       L1    18  0.94
      P1  H 11000 11005       L1    10  0.51
      L1  C     5    27       P1 10160  0.81
      L1  C     5    27       P1 10175  0.96

> <Gold.PLP.Chemscore.Internal.Correction>
0.0273

> <Gold.Rescore>
     Score         DG    S(hbond)    S(metal)    S(lipo)     H(rot)  DE(clash)    DE(int)     intcor
      8.18     -13.47       1.96        0.00      54.12       1.91       0.06       5.23       ----

> <Gold.Chemscore.Fitness>
8.1769

> <Gold.Chemscore.DG>
-13.4667

> <Gold.Chemscore.ZeroCoef>
-5.4800

> <Gold.Chemscore.Hbond>
1.9590

> <Gold.Chemscore.Metal>
0.0000

> <Gold.Chemscore.Lipo>
54.1154

> <Gold.Chemscore.Internal_Hbond>
0.0000

> <Gold.Chemscore.DEClash>
0.0589

> <Gold.Chemscore.DEInternal>
5.2309

> <Gold.Chemscore.Rot>
1.9093

> <Gold.Chemscore.Internal.Correction>
   9.000000E+99

> <Gold.Chemscore.Hbonds>
donor molecule, donor type, donor heavy atom, donor atom, acceptor molecule, acceptor atom, score
      L1  H    11    31       P1 10175  0.99
      P1  H  7989  7998       L1    18  0.91
      P1  H 11000 11005       L1    10  0.39

> <Gold.Chemscore.Hbond.Weighted>
-6.5429

> <Gold.Chemscore.Metal.Weighted>
-0.0000

> <Gold.Chemscore.Lipo.Weighted>
-6.3315

> <Gold.Chemscore.Internal_Hbond.Weighted>
0.0000

> <Gold.Chemscore.DEClash.Weighted>
0.0589

> <Gold.Chemscore.DEInternal.Weighted>
5.2309

> <Gold.Chemscore.Rot.Weighted>
4.8877

> <Gold.Chemscore.Internal.Correction.Weighted>
   9.000000E+99

> <Gold.Protein.RotatedTorsions>
[ 6907 6896 6895 6894 ] final   67.58 input  -60.11 | X-H torsion
[ 7974 7965 7964 7962 ] final  139.72 input  175.53 | X-H torsion
[ 8008 7997 7996 7995 ] final   -7.75 input   59.86 | X-H torsion
[ 10167 10162 10161 10158 ] final -124.95 input  -65.29 | X-H torsion
[ 10718 10713 10712 10709 ] final -130.82 input   66.30 | X-H torsion
[ 10763 10752 10751 10750 ] final  -71.71 input  -60.55 | X-H torsion
[ 11005 11000 10999 10996 ] final   22.24 input  -57.11 | X-H torsion

> <Gold.Protein.ActiveResidues>
 VAL166  LYS551  ARG553  GLY616  TRP617  ASP618  TYR619  PRO620  LYS621  CYS622 
 ASP623  PHE694  ASN695  SER759  ASP760  ASP761  ALA762  ILE779  LEU786  VAL792 
 PHE793  MET794  SER795  GLU796  ALA797  LYS798  CYS799  TRP800  GLU811  SER814 

> <Gold.Protein.RotatedAtoms>
  152.4562  134.5286  159.9804 H   0  0  0  0  0  0  0  0  0  0  0  0  # atno 6907 bound_to 6896
  151.5347  133.3437  159.2932 H   0  0  0  0  0  0  0  0  0  0  0  0  # atno 6908 bound_to 6896
  150.8507  134.7861  159.7069 H   0  0  0  0  0  0  0  0  0  0  0  0  # atno 6909 bound_to 6896
  144.9252  139.5117  143.5644 H   0  0  0  0  0  0  0  0  0  0  0  0  # atno 7974 bound_to 7965
  154.5808  140.2399  155.8057 H   0  0  0  0  0  0  0  0  0  0  0  0  # atno 8008 bound_to 7997
  156.2177  140.3007  155.9835 H   0  0  0  0  0  0  0  0  0  0  0  0  # atno 8009 bound_to 7997
  155.2545  140.0412  157.2981 H   0  0  0  0  0  0  0  0  0  0  0  0  # atno 8010 bound_to 7997
  139.9873  143.5678  152.2355 H   0  0  0  0  0  0  0  0  0  0  0  0  # atno 10167 bound_to 10162
  156.2182  130.6961  151.0726 H   0  0  0  0  0  0  0  0  0  0  0  0  # atno 10718 bound_to 10713
  154.4356  135.5953  153.6096 H   0  0  0  0  0  0  0  0  0  0  0  0  # atno 10763 bound_to 10752
  152.9802  135.5985  154.3785 H   0  0  0  0  0  0  0  0  0  0  0  0  # atno 10764 bound_to 10752
  154.3629  135.2841  155.2288 H   0  0  0  0  0  0  0  0  0  0  0  0  # atno 10765 bound_to 10752
  140.3827  134.1903  155.7663 H   0  0  0  0  0  0  0  0  0  0  0  0  # atno 11005 bound_to 11000
  146.3223  139.8162  142.8936 LP  0  0  0  0  0  0  0  0  0  0  0  0  # atno 17320 bound_to 7965
  145.3231  141.0248  143.3489 LP  0  0  0  0  0  0  0  0  0  0  0  0  # atno 17321 bound_to 7965
  139.6365  144.7650  151.2426 LP  0  0  0  0  0  0  0  0  0  0  0  0  # atno 17342 bound_to 10162
  140.7467  143.6389  150.8353 LP  0  0  0  0  0  0  0  0  0  0  0  0  # atno 17343 bound_to 10162
  157.7074  131.0750  150.6620 LP  0  0  0  0  0  0  0  0  0  0  0  0  # atno 17370 bound_to 10713
  156.6682  130.4532  149.5665 LP  0  0  0  0  0  0  0  0  0  0  0  0  # atno 17371 bound_to 10713
  141.1918  133.8187  157.0865 LP  0  0  0  0  0  0  0  0  0  0  0  0  # atno 17394 bound_to 11000
  140.0466  134.9827  157.1060 LP  0  0  0  0  0  0  0  0  0  0  0  0  # atno 17395 bound_to 11000

$$$$
