AV-unprocessed.smi:1912|AV-procd|sdf|7751|dock1
  -GOLD-   22720 9493D 1   1.00000     0.00000
 Structure written by MMmdl.
 44 46  0  0  0  0  0  0  0  0  2 V2000
  147.1017  136.2475  161.3275 C   0  0  0  0  0  0  0  0  0  0  0  0
  147.9884  137.2150  160.7843 O   0  0  0  0  0  0  0  0  0  0  0  0
  148.6347  136.9120  159.6054 C   0  0  0  0  0  0  0  0  0  0  0  0
  148.2495  135.8690  158.7313 C   0  0  0  0  0  0  0  0  0  0  0  0
  148.9772  135.6208  157.5533 C   0  0  0  0  0  0  0  0  0  0  0  0
  150.1092  136.4049  157.2191 C   0  0  0  0  0  0  0  0  0  0  0  0
  150.8753  136.1891  156.0916 O   0  0  0  0  0  0  0  0  0  0  0  0
  150.4821  135.1632  155.1919 C   0  0  0  0  0  0  0  0  0  0  0  0
  150.4931  137.4554  158.0877 C   0  0  0  0  0  0  0  0  0  0  0  0
  151.7268  138.3000  157.7707 C   0  0  1  0  0  0  0  0  0  0  0  0
  152.9286  137.5536  157.7794 O   0  0  0  0  0  0  0  0  0  0  0  0
  151.5929  139.0684  156.4353 C   0  0  0  0  0  0  0  0  0  0  0  0
  151.1884  140.4785  156.5947 N   0  0  0  0  0  0  0  0  0  0  0  0
  150.2596  141.2136  155.9151 C   0  0  0  0  0  0  0  0  0  0  0  0
  149.3943  140.7586  154.7870 C   0  0  0  0  0  0  0  0  0  0  0  0
  150.2514  142.4609  156.4629 N   0  3  0  0  0  0  0  0  0  0  0  0
  151.1853  142.5308  157.4960 C   0  0  0  0  0  0  0  0  0  0  0  0
  151.5271  143.5810  158.3425 C   0  0  0  0  0  0  0  0  0  0  0  0
  152.5292  143.3215  159.3000 C   0  0  0  0  0  0  0  0  0  0  0  0
  153.1533  142.0602  159.3850 C   0  0  0  0  0  0  0  0  0  0  0  0
  152.8011  141.0055  158.5179 C   0  0  0  0  0  0  0  0  0  0  0  0
  151.8015  141.2655  157.5794 C   0  0  0  0  0  0  0  0  0  0  0  0
  149.7527  137.6973  159.2674 C   0  0  0  0  0  0  0  0  0  0  0  0
  146.6728  136.6322  162.2527 H   0  0  0  0  0  0  0  0  0  0  0  0
  147.6222  135.3192  161.5666 H   0  0  0  0  0  0  0  0  0  0  0  0
  146.2771  136.0344  160.6459 H   0  0  0  0  0  0  0  0  0  0  0  0
  147.3992  135.2389  158.9438 H   0  0  0  0  0  0  0  0  0  0  0  0
  148.6459  134.8104  156.9224 H   0  0  0  0  0  0  0  0  0  0  0  0
  151.1836  135.1289  154.3587 H   0  0  0  0  0  0  0  0  0  0  0  0
  149.4903  135.3540  154.7795 H   0  0  0  0  0  0  0  0  0  0  0  0
  150.4933  134.1839  155.6721 H   0  0  0  0  0  0  0  0  0  0  0  0
  151.8457  139.0333  158.5688 H   0  0  0  0  0  0  0  0  0  0  0  0
  152.7225  136.6543  157.5736 H   0  0  0  0  0  0  0  0  0  0  0  0
  152.5196  139.0220  155.8630 H   0  0  0  0  0  0  0  0  0  0  0  0
  150.8409  138.5864  155.8102 H   0  0  0  0  0  0  0  0  0  0  0  0
  149.0998  141.6068  154.1687 H   0  0  0  0  0  0  0  0  0  0  0  0
  148.4926  140.2841  155.1739 H   0  0  0  0  0  0  0  0  0  0  0  0
  149.9232  140.0441  154.1568 H   0  0  0  0  0  0  0  0  0  0  0  0
  151.0511  144.5482  158.2775 H   0  0  0  0  0  0  0  0  0  0  0  0
  152.8253  144.1055  159.9817 H   0  0  0  0  0  0  0  0  0  0  0  0
  153.9172  141.8973  160.1315 H   0  0  0  0  0  0  0  0  0  0  0  0
  153.2841  140.0435  158.5979 H   0  0  0  0  0  0  0  0  0  0  0  0
  150.0532  138.4858  159.9418 H   0  0  0  0  0  0  0  0  0  0  0  0
  149.6464  143.2093  156.1505 H   0  0  0  0  0  0  0  0  0  0  0  0
  1  2  1  0  0  0  0
  1 24  1  0  0  0  0
  1 25  1  0  0  0  0
  1 26  1  0  0  0  0
  2  3  1  0  0  0  0
  3 23  1  0  0  0  0
  3  4  2  0  0  0  0
  4  5  1  0  0  0  0
  4 27  1  0  0  0  0
  5  6  2  0  0  0  0
  5 28  1  0  0  0  0
  6  7  1  0  0  0  0
  6  9  1  0  0  0  0
  7  8  1  0  0  0  0
  8 29  1  0  0  0  0
  8 30  1  0  0  0  0
  8 31  1  0  0  0  0
  9 10  1  0  0  0  0
  9 23  2  0  0  0  0
 10 11  1  0  0  0  0
 10 12  1  0  0  0  0
 10 32  1  0  0  0  0
 11 33  1  0  0  0  0
 12 13  1  0  0  0  0
 12 34  1  0  0  0  0
 12 35  1  0  0  0  0
 13 22  1  0  0  0  0
 13 14  1  0  0  0  0
 14 15  1  0  0  0  0
 14 16  2  0  0  0  0
 15 36  1  0  0  0  0
 15 37  1  0  0  0  0
 15 38  1  0  0  0  0
 16 17  1  0  0  0  0
 16 44  1  0  0  0  0
 17 22  2  0  0  0  0
 17 18  1  0  0  0  0
 18 19  2  0  0  0  0
 18 39  1  0  0  0  0
 19 20  1  0  0  0  0
 19 40  1  0  0  0  0
 20 21  2  0  0  0  0
 20 41  1  0  0  0  0
 21 22  1  0  0  0  0
 21 42  1  0  0  0  0
 23 43  1  0  0  0  0
M  CHG  1  16   1
M  END
> <s_m_source_file>
AV-unprocessed.smi

> <i_m_source_file_index>
1912

> <i_lp_mmshare_version>
43012

> <i_f3d_flags>
0

> <s_epik_input>
W0NIM11PYzFbY0hdW2NIXWMoT1tDSDNdKWMoW2NIXTEpW0NASF0oW09IXSlbQ0gyXW4oYyhuMilbQ0gzXSljKGMyMylbY0hdW2NIXVtjSF1bY0hdMw==

> <s_epik_cmdline>
J2VwaWtfcHl0aG9uJywgJy1waCcsICc3LjAnLCAnLXRuJywgJzgnLCAnLW1hJywgJzIwMCcsICctbWV0YWxfYmluZGluZycsICctaW1hZScsICc8aW5maWxlLm1hZT4nLCAnLW9tYWUnLCAnPG91dGZpbGUubWFlPic=

> <r_lp_tautomer_probability>
1

> <r_epik_Ionization_Penalty>
0.963869

> <r_epik_Ionization_Penalty_Charging>
0.963868

> <r_epik_Ionization_Penalty_Neutral>
1.34362e-06

> <r_epik_State_Penalty>
1.00924

> <r_epik_Charging_Adjusted_Penalty>
1.9731

> <i_epik_Tot_Q>
1

> <i_epik_Tot_abs_Q>
1

> <r_epik_Metal_State_Penalty>
4.98304

> <b_epik_Metal_Only>
0

> <s_lp_Force_Field>
OPLS_2005

> <r_lp_Energy>
21.1539

> <b_lp_Chiralities_Consistent>
1

> <s_lp_Variant>
AV-unprocessed.smi:1912-4

> <Gold.Version>
5.8.1

> <Gold.Id.Protein>
6NUR|6NUR_protein|mol2

> <Gold.PLP.Fitness>
47.7555

> <Gold.PLP.PLP>
-38.7640

> <Gold.PLP.part.hbond>
-3.0000

> <Gold.PLP.part.metal>
0.0000

> <Gold.PLP.part.buried>
-3.4231

> <Gold.PLP.part.nonpolar>
-31.8040

> <Gold.PLP.part.repulsive>
0.0968

> <Gold.PLP.ligand.clash>
0.0000

> <Gold.PLP.ligand.torsion>
1.0265

> <Gold.PLP.Chemscore.Hbond>
3.6320

> <Gold.PLP.Chemscore.CHOScore>
0.0000

> <Gold.PLP.Chemscore.Metal>
0.0000

> <Gold.Chemscore.Hbonds>
donor molecule, donor type, donor heavy atom, donor atom, acceptor molecule, acceptor atom, score
      L1  H    16    44       P1  8028  2.00
      P1  H  6931  6943       L1     2  0.85
      P1  H  6934  6947       L1     2  0.75

> <Gold.PLP.Chemscore.Internal.Correction>
0.1486

> <Gold.Rescore>
     Score         DG    S(hbond)    S(metal)    S(lipo)     H(rot)  DE(clash)    DE(int)     intcor
     17.56     -18.77       2.11        0.00     102.41       2.24       0.26       0.95       ----

> <Gold.Chemscore.Fitness>
17.5556

> <Gold.Chemscore.DG>
-18.7672

> <Gold.Chemscore.ZeroCoef>
-5.4800

> <Gold.Chemscore.Hbond>
2.1112

> <Gold.Chemscore.Metal>
0.0000

> <Gold.Chemscore.Lipo>
102.4140

> <Gold.Chemscore.Internal_Hbond>
0.0000

> <Gold.Chemscore.DEClash>
0.2648

> <Gold.Chemscore.DEInternal>
0.9467

> <Gold.Chemscore.Rot>
2.2448

> <Gold.Chemscore.Internal.Correction>
   9.000000E+99

> <Gold.Chemscore.Hbonds>
donor molecule, donor type, donor heavy atom, donor atom, acceptor molecule, acceptor atom, score
      L1  H    16    44       P1  8028  1.00
      P1  H  6931  6943       L1     2  0.67
      P1  H  6934  6947       L1     2  0.52

> <Gold.Chemscore.Hbond.Weighted>
-7.0515

> <Gold.Chemscore.Metal.Weighted>
-0.0000

> <Gold.Chemscore.Lipo.Weighted>
-11.9824

> <Gold.Chemscore.Internal_Hbond.Weighted>
0.0000

> <Gold.Chemscore.DEClash.Weighted>
0.2648

> <Gold.Chemscore.DEInternal.Weighted>
0.9467

> <Gold.Chemscore.Rot.Weighted>
5.7467

> <Gold.Chemscore.Internal.Correction.Weighted>
   9.000000E+99

> <Gold.Protein.RotatedTorsions>
[ 6907 6896 6895 6894 ] final -108.99 input  -60.11 | X-H torsion
[ 7974 7965 7964 7962 ] final   52.12 input  175.53 | X-H torsion
[ 8008 7997 7996 7995 ] final  153.86 input   59.86 | X-H torsion
[ 10167 10162 10161 10158 ] final   41.00 input  -65.29 | X-H torsion
[ 10718 10713 10712 10709 ] final  -39.94 input   66.30 | X-H torsion
[ 10763 10752 10751 10750 ] final  -14.58 input  -60.55 | X-H torsion
[ 11005 11000 10999 10996 ] final   71.51 input  -57.11 | X-H torsion

> <Gold.Protein.ActiveResidues>
 VAL166  LYS551  ARG553  GLY616  TRP617  ASP618  TYR619  PRO620  LYS621  CYS622 
 ASP623  PHE694  ASN695  SER759  ASP760  ASP761  ALA762  ILE779  LEU786  VAL792 
 PHE793  MET794  SER795  GLU796  ALA797  LYS798  CYS799  TRP800  GLU811  SER814 

> <Gold.Protein.RotatedAtoms>
  150.7535  133.9595  159.3510 H   0  0  0  0  0  0  0  0  0  0  0  0  # atno 6907 bound_to 6896
  151.7520  135.0828  160.0341 H   0  0  0  0  0  0  0  0  0  0  0  0  # atno 6908 bound_to 6896
  152.3460  133.6085  159.5946 H   0  0  0  0  0  0  0  0  0  0  0  0  # atno 6909 bound_to 6896
  145.9845  139.4276  143.0111 H   0  0  0  0  0  0  0  0  0  0  0  0  # atno 7974 bound_to 7965
  156.2560  140.1982  156.6557 H   0  0  0  0  0  0  0  0  0  0  0  0  # atno 8008 bound_to 7997
  154.6503  140.0573  156.9973 H   0  0  0  0  0  0  0  0  0  0  0  0  # atno 8009 bound_to 7997
  155.1428  140.3244  155.4451 H   0  0  0  0  0  0  0  0  0  0  0  0  # atno 8010 bound_to 7997
  140.3686  144.2135  150.6134 H   0  0  0  0  0  0  0  0  0  0  0  0  # atno 10167 bound_to 10162
  156.2868  130.4223  149.8279 H   0  0  0  0  0  0  0  0  0  0  0  0  # atno 10718 bound_to 10713
  153.5305  135.7014  153.5686 H   0  0  0  0  0  0  0  0  0  0  0  0  # atno 10763 bound_to 10752
  153.3695  135.3948  155.1778 H   0  0  0  0  0  0  0  0  0  0  0  0  # atno 10764 bound_to 10752
  154.8685  135.3808  154.4801 H   0  0  0  0  0  0  0  0  0  0  0  0  # atno 10765 bound_to 10752
  139.9539  134.7177  156.0797 H   0  0  0  0  0  0  0  0  0  0  0  0  # atno 11005 bound_to 11000
  145.7720  140.9892  143.1144 LP  0  0  0  0  0  0  0  0  0  0  0  0  # atno 17320 bound_to 7965
  144.6871  139.9459  143.7476 LP  0  0  0  0  0  0  0  0  0  0  0  0  # atno 17321 bound_to 7965
  140.5056  143.2305  151.8613 LP  0  0  0  0  0  0  0  0  0  0  0  0  # atno 17342 bound_to 10162
  139.4806  144.5009  151.9061 LP  0  0  0  0  0  0  0  0  0  0  0  0  # atno 17343 bound_to 10162
  156.5706  130.8423  151.3355 LP  0  0  0  0  0  0  0  0  0  0  0  0  # atno 17370 bound_to 10713
  157.7331  130.9725  150.1961 LP  0  0  0  0  0  0  0  0  0  0  0  0  # atno 17371 bound_to 10713
  141.1208  133.6613  156.3209 LP  0  0  0  0  0  0  0  0  0  0  0  0  # atno 17394 bound_to 11000
  140.5653  134.5893  157.5444 LP  0  0  0  0  0  0  0  0  0  0  0  0  # atno 17395 bound_to 11000

$$$$
