AV-unprocessed.smi:1459|AV-procd|sdf|5925|dock1
  -GOLD-   22720 6 03D 1   1.00000     0.00000
 Structure written by MMmdl.
 34 35  0  0  0  0  0  0  0  0  1 V2000
  156.2924  139.4622  163.3141 C   0  0  0  0  0  0  0  0  0  0  0  0
  155.3203  140.2331  162.4890 C   0  0  0  0  0  0  0  0  0  0  0  0
  154.7169  139.9852  161.2882 C   0  0  0  0  0  0  0  0  0  0  0  0
  153.9113  141.1379  161.0916 C   0  0  0  0  0  0  0  0  0  0  0  0
  153.1094  141.2748  159.9300 N   0  0  0  0  0  0  0  0  0  0  0  0
  153.0654  140.4580  158.8640 C   0  0  0  0  0  0  0  0  0  0  0  0
  153.7422  139.4388  158.7245 O   0  0  0  0  0  0  0  0  0  0  0  0
  152.1848  140.8980  157.9528 N   0  0  0  0  0  0  0  0  0  0  0  0
  151.9073  140.2673  156.6642 C   0  0  1  0  0  0  0  0  0  0  0  0
  151.4832  138.8117  156.9132 C   0  0  0  0  0  0  0  0  0  0  0  0
  150.8299  141.0735  155.9093 C   0  0  2  0  0  0  0  0  0  0  0  0
  149.5042  141.2197  156.6594 C   0  0  0  0  0  0  0  0  0  0  0  0
  148.5299  141.4423  155.5264 C   0  0  0  0  0  0  0  0  0  0  0  0
  149.0740  140.4939  154.4642 C   0  0  0  0  0  0  0  0  0  0  0  0
  150.4800  140.4288  154.6846 O   0  0  0  0  0  0  0  0  0  0  0  0
  154.0137  142.0109  162.0821 N   0  0  0  0  0  0  0  0  0  0  0  0
  154.9173  141.4352  162.9829 O   0  0  0  0  0  0  0  0  0  0  0  0
  156.5648  138.5277  162.8233 H   0  0  0  0  0  0  0  0  0  0  0  0
  155.8669  139.2217  164.2886 H   0  0  0  0  0  0  0  0  0  0  0  0
  157.2039  140.0379  163.4750 H   0  0  0  0  0  0  0  0  0  0  0  0
  154.8346  139.1178  160.6556 H   0  0  0  0  0  0  0  0  0  0  0  0
  152.5061  142.0832  159.9068 H   0  0  0  0  0  0  0  0  0  0  0  0
  151.6781  141.7466  158.1568 H   0  0  0  0  0  0  0  0  0  0  0  0
  152.8157  140.2465  156.0595 H   0  0  0  0  0  0  0  0  0  0  0  0
  151.3231  138.2779  155.9764 H   0  0  0  0  0  0  0  0  0  0  0  0
  150.5586  138.7595  157.4889 H   0  0  0  0  0  0  0  0  0  0  0  0
  152.2512  138.2697  157.4661 H   0  0  0  0  0  0  0  0  0  0  0  0
  151.2077  142.0666  155.6596 H   0  0  0  0  0  0  0  0  0  0  0  0
  149.2558  140.2975  157.1869 H   0  0  0  0  0  0  0  0  0  0  0  0
  149.5106  142.0365  157.3815 H   0  0  0  0  0  0  0  0  0  0  0  0
  147.4955  141.2312  155.7988 H   0  0  0  0  0  0  0  0  0  0  0  0
  148.5906  142.4742  155.1778 H   0  0  0  0  0  0  0  0  0  0  0  0
  148.6578  139.4944  154.5959 H   0  0  0  0  0  0  0  0  0  0  0  0
  148.8436  140.8267  153.4519 H   0  0  0  0  0  0  0  0  0  0  0  0
  1  2  1  0  0  0  0
  1 18  1  0  0  0  0
  1 19  1  0  0  0  0
  1 20  1  0  0  0  0
  2 17  1  0  0  0  0
  2  3  2  0  0  0  0
  3  4  1  0  0  0  0
  3 21  1  0  0  0  0
  4  5  1  0  0  0  0
  4 16  2  0  0  0  0
  5  6  1  0  0  0  0
  5 22  1  0  0  0  0
  6  7  2  0  0  0  0
  6  8  1  0  0  0  0
  8  9  1  0  0  0  0
  8 23  1  0  0  0  0
  9 10  1  0  0  0  0
  9 11  1  0  0  0  0
  9 24  1  0  0  0  0
 10 25  1  0  0  0  0
 10 26  1  0  0  0  0
 10 27  1  0  0  0  0
 11 15  1  0  0  0  0
 11 12  1  0  0  0  0
 11 28  1  0  0  0  0
 12 13  1  0  0  0  0
 12 29  1  0  0  0  0
 12 30  1  0  0  0  0
 13 14  1  0  0  0  0
 13 31  1  0  0  0  0
 13 32  1  0  0  0  0
 14 15  1  0  0  0  0
 14 33  1  0  0  0  0
 14 34  1  0  0  0  0
 16 17  1  0  0  0  0
M  END
> <s_m_source_file>
AV-unprocessed.smi

> <i_m_source_file_index>
1459

> <i_lp_mmshare_version>
43012

> <i_f3d_flags>
0

> <s_epik_input>
W0NIM11jMVtjSF1jKG5vMSlbTkhdQyg9TylbTkhdW0NASF0oW0NIM10pW0NAQEhdMltDSDJdW0NIMl1bQ0gyXU8y

> <s_epik_cmdline>
J2VwaWtfcHl0aG9uJywgJy1waCcsICc3LjAnLCAnLXRuJywgJzgnLCAnLW1hJywgJzIwMCcsICctbWV0YWxfYmluZGluZycsICctaW1hZScsICc8aW5maWxlLm1hZT4nLCAnLW9tYWUnLCAnPG91dGZpbGUubWFlPic=

> <r_lp_tautomer_probability>
1

> <r_epik_Ionization_Penalty>
2.20869e-05

> <r_epik_Ionization_Penalty_Charging>
0

> <r_epik_Ionization_Penalty_Neutral>
2.20869e-05

> <r_epik_State_Penalty>
-0

> <r_epik_Charging_Adjusted_Penalty>
0

> <i_epik_Tot_Q>
0

> <i_epik_Tot_abs_Q>
0

> <r_epik_Metal_State_Penalty>
-0

> <b_epik_Metal_Only>
0

> <s_lp_Force_Field>
OPLS_2005

> <r_lp_Energy>
15.9423

> <b_lp_Chiralities_Consistent>
1

> <s_lp_Variant>
AV-unprocessed.smi:1459-2

> <Gold.Version>
5.8.1

> <Gold.Id.Protein>
6NUR|6NUR_protein|mol2

> <Gold.PLP.Fitness>
33.4677

> <Gold.PLP.PLP>
-27.5056

> <Gold.PLP.part.hbond>
-4.0000

> <Gold.PLP.part.metal>
0.0000

> <Gold.PLP.part.buried>
-3.1558

> <Gold.PLP.part.nonpolar>
-19.7601

> <Gold.PLP.part.repulsive>
0.2835

> <Gold.PLP.ligand.clash>
0.0000

> <Gold.PLP.ligand.torsion>
0.0247

> <Gold.PLP.Chemscore.Hbond>
2.0000

> <Gold.PLP.Chemscore.CHOScore>
0.0000

> <Gold.PLP.Chemscore.Metal>
0.0000

> <Gold.Chemscore.Hbonds>
donor molecule, donor type, donor heavy atom, donor atom, acceptor molecule, acceptor atom, score
      P1  H  7989  7998       L1    15  1.00
      P1  H  7997  8010       L1     7  1.00

> <Gold.PLP.Chemscore.Internal.Correction>
0.0115

> <Gold.Rescore>
     Score         DG    S(hbond)    S(metal)    S(lipo)     H(rot)  DE(clash)    DE(int)     intcor
     10.82     -13.55       1.58        0.00      51.76       1.28       0.11       2.63       ----

> <Gold.Chemscore.Fitness>
10.8164

> <Gold.Chemscore.DG>
-13.5513

> <Gold.Chemscore.ZeroCoef>
-5.4800

> <Gold.Chemscore.Hbond>
1.5826

> <Gold.Chemscore.Metal>
0.0000

> <Gold.Chemscore.Lipo>
51.7632

> <Gold.Chemscore.Internal_Hbond>
0.0000

> <Gold.Chemscore.DEClash>
0.1083

> <Gold.Chemscore.DEInternal>
2.6266

> <Gold.Chemscore.Rot>
1.2776

> <Gold.Chemscore.Internal.Correction>
   9.000000E+99

> <Gold.Chemscore.Hbonds>
donor molecule, donor type, donor heavy atom, donor atom, acceptor molecule, acceptor atom, score
      P1  H  7989  7998       L1    15  0.63
      P1  H  7997  8010       L1     7  0.29

> <Gold.Chemscore.Hbond.Weighted>
-5.2857

> <Gold.Chemscore.Metal.Weighted>
-0.0000

> <Gold.Chemscore.Lipo.Weighted>
-6.0563

> <Gold.Chemscore.Internal_Hbond.Weighted>
0.0000

> <Gold.Chemscore.DEClash.Weighted>
0.1083

> <Gold.Chemscore.DEInternal.Weighted>
2.6266

> <Gold.Chemscore.Rot.Weighted>
3.2707

> <Gold.Chemscore.Internal.Correction.Weighted>
   9.000000E+99

> <Gold.Protein.RotatedTorsions>
[ 6907 6896 6895 6894 ] final   84.81 input  -60.11 | X-H torsion
[ 7974 7965 7964 7962 ] final  -42.26 input  175.53 | X-H torsion
[ 8008 7997 7996 7995 ] final    5.14 input   59.86 | X-H torsion
[ 10167 10162 10161 10158 ] final  146.18 input  -65.29 | X-H torsion
[ 10718 10713 10712 10709 ] final  -80.76 input   66.30 | X-H torsion
[ 10763 10752 10751 10750 ] final   -6.23 input  -60.55 | X-H torsion
[ 11005 11000 10999 10996 ] final  -16.98 input  -57.11 | X-H torsion

> <Gold.Protein.ActiveResidues>
 VAL166  LYS551  ARG553  GLY616  TRP617  ASP618  TYR619  PRO620  LYS621  CYS622 
 ASP623  PHE694  ASN695  SER759  ASP760  ASP761  ALA762  ILE779  LEU786  VAL792 
 PHE793  MET794  SER795  GLU796  ALA797  LYS798  CYS799  TRP800  GLU811  SER814 

> <Gold.Protein.RotatedAtoms>
  152.5361  134.2683  159.8961 H   0  0  0  0  0  0  0  0  0  0  0  0  # atno 6907 bound_to 6896
  151.2641  133.4281  159.2625 H   0  0  0  0  0  0  0  0  0  0  0  0  # atno 6908 bound_to 6896
  151.0426  134.9632  159.8226 H   0  0  0  0  0  0  0  0  0  0  0  0  # atno 6909 bound_to 6896
  146.0132  140.6939  142.9214 H   0  0  0  0  0  0  0  0  0  0  0  0  # atno 7974 bound_to 7965
  154.7247  140.2718  155.6510 H   0  0  0  0  0  0  0  0  0  0  0  0  # atno 8008 bound_to 7997
  156.2833  140.2727  156.1854 H   0  0  0  0  0  0  0  0  0  0  0  0  # atno 8009 bound_to 7997
  155.0461  140.0371  157.2517 H   0  0  0  0  0  0  0  0  0  0  0  0  # atno 8010 bound_to 7997
  139.4912  144.5848  151.6800 H   0  0  0  0  0  0  0  0  0  0  0  0  # atno 10167 bound_to 10162
  156.0063  130.4584  150.3849 H   0  0  0  0  0  0  0  0  0  0  0  0  # atno 10718 bound_to 10713
  153.4095  135.7007  153.6369 H   0  0  0  0  0  0  0  0  0  0  0  0  # atno 10763 bound_to 10752
  153.4869  135.3681  155.2472 H   0  0  0  0  0  0  0  0  0  0  0  0  # atno 10764 bound_to 10752
  154.8716  135.4079  154.3444 H   0  0  0  0  0  0  0  0  0  0  0  0  # atno 10765 bound_to 10752
  140.8122  133.8132  155.9575 H   0  0  0  0  0  0  0  0  0  0  0  0  # atno 11005 bound_to 11000
  144.6961  140.3436  143.7194 LP  0  0  0  0  0  0  0  0  0  0  0  0  # atno 17320 bound_to 7965
  145.7309  139.1736  143.2431 LP  0  0  0  0  0  0  0  0  0  0  0  0  # atno 17321 bound_to 7965
  140.5462  144.0499  150.6108 LP  0  0  0  0  0  0  0  0  0  0  0  0  # atno 17342 bound_to 10162
  140.3538  143.2947  152.0458 LP  0  0  0  0  0  0  0  0  0  0  0  0  # atno 17343 bound_to 10162
  157.1927  131.0419  151.2691 LP  0  0  0  0  0  0  0  0  0  0  0  0  # atno 17370 bound_to 10713
  157.4046  130.7352  149.6793 LP  0  0  0  0  0  0  0  0  0  0  0  0  # atno 17371 bound_to 10713
  140.9186  134.2171  157.4941 LP  0  0  0  0  0  0  0  0  0  0  0  0  # atno 17394 bound_to 11000
  139.8713  134.9782  156.4988 LP  0  0  0  0  0  0  0  0  0  0  0  0  # atno 17395 bound_to 11000

$$$$
