AV-unprocessed.smi:1906|AV-procd|sdf|7727|dock1
  -GOLD-   22720 9463D 1   1.00000     0.00000
 Structure written by MMmdl.
 35 37  0  0  0  0  0  0  0  0  1 V2000
  152.5135  139.2766  155.5259 C   0  0  0  0  0  0  0  0  0  0  0  0
  151.1812  139.9568  155.5365 C   0  0  0  0  0  0  0  0  0  0  0  0
  150.4883  140.1786  154.4191 N   0  0  0  0  0  0  0  0  0  0  0  0
  149.3502  140.8066  154.8875 C   0  0  0  0  0  0  0  0  0  0  0  0
  148.2191  141.2964  154.1960 C   0  0  0  0  0  0  0  0  0  0  0  0
  147.1620  141.9097  154.9002 C   0  0  0  0  0  0  0  0  0  0  0  0
  147.2203  142.0421  156.3028 C   0  0  0  0  0  0  0  0  0  0  0  0
  148.3378  141.5605  157.0114 C   0  0  0  0  0  0  0  0  0  0  0  0
  149.3898  140.9493  156.3034 C   0  0  0  0  0  0  0  0  0  0  0  0
  150.6012  140.3832  156.6858 N   0  0  0  0  0  0  0  0  0  0  0  0
  151.1056  140.2816  158.0482 C   0  0  0  0  0  0  0  0  0  0  0  0
  152.4641  140.9866  158.2312 C   0  0  2  0  0  0  0  0  0  0  0  0
  153.4507  140.0451  158.6060 O   0  0  0  0  0  0  0  0  0  0  0  0
  152.3599  142.1346  159.2223 C   0  0  0  0  0  0  0  0  0  0  0  0
  151.8186  143.3784  158.8286 C   0  0  0  0  0  0  0  0  0  0  0  0
  151.7384  144.4409  159.7500 C   0  0  0  0  0  0  0  0  0  0  0  0
  152.1993  144.2663  161.0691 C   0  0  0  0  0  0  0  0  0  0  0  0
  152.7416  143.0288  161.4661 C   0  0  0  0  0  0  0  0  0  0  0  0
  153.1872  142.8600  162.7334 F   0  0  0  0  0  0  0  0  0  0  0  0
  152.8229  141.9667  160.5449 C   0  0  0  0  0  0  0  0  0  0  0  0
  152.8360  139.0829  154.5024 H   0  0  0  0  0  0  0  0  0  0  0  0
  152.4538  138.3243  156.0531 H   0  0  0  0  0  0  0  0  0  0  0  0
  153.2647  139.9022  156.0077 H   0  0  0  0  0  0  0  0  0  0  0  0
  148.1641  141.2002  153.1219 H   0  0  0  0  0  0  0  0  0  0  0  0
  146.3020  142.2801  154.3617 H   0  0  0  0  0  0  0  0  0  0  0  0
  146.4067  142.5134  156.8346 H   0  0  0  0  0  0  0  0  0  0  0  0
  148.3861  141.6599  158.0857 H   0  0  0  0  0  0  0  0  0  0  0  0
  150.3648  140.7330  158.7095 H   0  0  0  0  0  0  0  0  0  0  0  0
  151.1712  139.2334  158.3400 H   0  0  0  0  0  0  0  0  0  0  0  0
  152.7789  141.3962  157.2704 H   0  0  0  0  0  0  0  0  0  0  0  0
  153.2192  139.6891  159.4503 H   0  0  0  0  0  0  0  0  0  0  0  0
  151.4668  143.5222  157.8172 H   0  0  0  0  0  0  0  0  0  0  0  0
  151.3248  145.3906  159.4441 H   0  0  0  0  0  0  0  0  0  0  0  0
  152.1384  145.0814  161.7752 H   0  0  0  0  0  0  0  0  0  0  0  0
  153.2446  141.0228  160.8580 H   0  0  0  0  0  0  0  0  0  0  0  0
  1  2  1  0  0  0  0
  1 21  1  0  0  0  0
  1 22  1  0  0  0  0
  1 23  1  0  0  0  0
  2 10  1  0  0  0  0
  2  3  2  0  0  0  0
  3  4  1  0  0  0  0
  4  9  2  0  0  0  0
  4  5  1  0  0  0  0
  5  6  2  0  0  0  0
  5 24  1  0  0  0  0
  6  7  1  0  0  0  0
  6 25  1  0  0  0  0
  7  8  2  0  0  0  0
  7 26  1  0  0  0  0
  8  9  1  0  0  0  0
  8 27  1  0  0  0  0
  9 10  1  0  0  0  0
 10 11  1  0  0  0  0
 11 12  1  0  0  0  0
 11 28  1  0  0  0  0
 11 29  1  0  0  0  0
 12 13  1  0  0  0  0
 12 14  1  0  0  0  0
 12 30  1  0  0  0  0
 13 31  1  0  0  0  0
 14 20  1  0  0  0  0
 14 15  2  0  0  0  0
 15 16  1  0  0  0  0
 15 32  1  0  0  0  0
 16 17  2  0  0  0  0
 16 33  1  0  0  0  0
 17 18  1  0  0  0  0
 17 34  1  0  0  0  0
 18 19  1  0  0  0  0
 18 20  2  0  0  0  0
 20 35  1  0  0  0  0
M  END
> <s_m_source_file>
AV-unprocessed.smi

> <i_m_source_file_index>
1906

> <i_lp_mmshare_version>
43012

> <i_f3d_flags>
0

> <s_epik_input>
W2NIXTFbY0hdW2NIXVtjSF1jKGMxMiluKGMobjIpW0NIM10pW0NIMl1bQ0BIXShbT0hdKWMzW2NIXVtjSF1bY0hdYyhGKVtjSF0z

> <s_epik_cmdline>
J2VwaWtfcHl0aG9uJywgJy1waCcsICc3LjAnLCAnLXRuJywgJzgnLCAnLW1hJywgJzIwMCcsICctbWV0YWxfYmluZGluZycsICctaW1hZScsICc8aW5maWxlLm1hZT4nLCAnLW9tYWUnLCAnPG91dGZpbGUubWFlPic=

> <r_epik_Ionization_Penalty>
0.129664

> <r_epik_Ionization_Penalty_Charging>
0

> <r_epik_Ionization_Penalty_Neutral>
0.129664

> <r_epik_State_Penalty>
0.119073

> <r_epik_Charging_Adjusted_Penalty>
0.119073

> <i_epik_Tot_Q>
0

> <i_epik_Tot_abs_Q>
0

> <r_epik_Metal_State_Penalty>
0.000131867

> <b_epik_Metal_Only>
0

> <s_lp_Force_Field>
OPLS_2005

> <r_lp_Energy>
10.1528

> <b_lp_Chiralities_Consistent>
1

> <s_lp_Variant>
AV-unprocessed.smi:1906-1

> <Gold.Version>
5.8.1

> <Gold.Id.Protein>
6NUR|6NUR_protein|mol2

> <Gold.PLP.Fitness>
53.5033

> <Gold.PLP.PLP>
-50.2264

> <Gold.PLP.part.hbond>
-1.9805

> <Gold.PLP.part.metal>
0.0000

> <Gold.PLP.part.buried>
-3.0509

> <Gold.PLP.part.nonpolar>
-44.0382

> <Gold.PLP.part.repulsive>
0.1066

> <Gold.PLP.ligand.clash>
0.0000

> <Gold.PLP.ligand.torsion>
1.3224

> <Gold.PLP.Chemscore.Hbond>
1.9600

> <Gold.PLP.Chemscore.CHOScore>
0.0000

> <Gold.PLP.Chemscore.Metal>
0.0000

> <Gold.Chemscore.Hbonds>
donor molecule, donor type, donor heavy atom, donor atom, acceptor molecule, acceptor atom, score
      P1  H  7989  7998       L1     3  1.00
      P1  H  7997  8009       L1    13  0.93

> <Gold.PLP.Chemscore.Internal.Correction>
0.0417

> <Gold.Rescore>
     Score         DG    S(hbond)    S(metal)    S(lipo)     H(rot)  DE(clash)    DE(int)     intcor
     18.23     -19.34       1.42        0.00     117.02       1.79       0.14       0.96       ----

> <Gold.Chemscore.Fitness>
18.2337

> <Gold.Chemscore.DG>
-19.3354

> <Gold.Chemscore.ZeroCoef>
-5.4800

> <Gold.Chemscore.Hbond>
1.4232

> <Gold.Chemscore.Metal>
0.0000

> <Gold.Chemscore.Lipo>
117.0176

> <Gold.Chemscore.Internal_Hbond>
0.0000

> <Gold.Chemscore.DEClash>
0.1394

> <Gold.Chemscore.DEInternal>
0.9623

> <Gold.Chemscore.Rot>
1.7926

> <Gold.Chemscore.Internal.Correction>
   9.000000E+99

> <Gold.Chemscore.Hbonds>
donor molecule, donor type, donor heavy atom, donor atom, acceptor molecule, acceptor atom, score
      P1  H  7989  7998       L1     3  0.29
      P1  H  7997  8009       L1    13  0.63

> <Gold.Chemscore.Hbond.Weighted>
-4.7534

> <Gold.Chemscore.Metal.Weighted>
-0.0000

> <Gold.Chemscore.Lipo.Weighted>
-13.6911

> <Gold.Chemscore.Internal_Hbond.Weighted>
0.0000

> <Gold.Chemscore.DEClash.Weighted>
0.1394

> <Gold.Chemscore.DEInternal.Weighted>
0.9623

> <Gold.Chemscore.Rot.Weighted>
4.5890

> <Gold.Chemscore.Internal.Correction.Weighted>
   9.000000E+99

> <Gold.Protein.RotatedTorsions>
[ 6907 6896 6895 6894 ] final  -17.14 input  -60.11 | X-H torsion
[ 7974 7965 7964 7962 ] final   98.83 input  175.53 | X-H torsion
[ 8008 7997 7996 7995 ] final  134.04 input   59.86 | X-H torsion
[ 10167 10162 10161 10158 ] final  152.66 input  -65.29 | X-H torsion
[ 10718 10713 10712 10709 ] final  -91.67 input   66.30 | X-H torsion
[ 10763 10752 10751 10750 ] final  104.71 input  -60.55 | X-H torsion
[ 11005 11000 10999 10996 ] final  -62.03 input  -57.11 | X-H torsion

> <Gold.Protein.ActiveResidues>
 VAL166  LYS551  ARG553  GLY616  TRP617  ASP618  TYR619  PRO620  LYS621  CYS622 
 ASP623  PHE694  ASN695  SER759  ASP760  ASP761  ALA762  ILE779  LEU786  VAL792 
 PHE793  MET794  SER795  GLU796  ALA797  LYS798  CYS799  TRP800  GLU811  SER814 

> <Gold.Protein.RotatedAtoms>
  151.2979  135.0760  159.9227 H   0  0  0  0  0  0  0  0  0  0  0  0  # atno 6907 bound_to 6896
  152.5303  133.9864  159.7841 H   0  0  0  0  0  0  0  0  0  0  0  0  # atno 6908 bound_to 6896
  151.0145  133.5882  159.2709 H   0  0  0  0  0  0  0  0  0  0  0  0  # atno 6909 bound_to 6896
  145.4069  139.2339  143.3269 H   0  0  0  0  0  0  0  0  0  0  0  0  # atno 7974 bound_to 7965
  156.2996  140.2506  156.3351 H   0  0  0  0  0  0  0  0  0  0  0  0  # atno 8008 bound_to 7997
  154.9108  140.0403  157.1964 H   0  0  0  0  0  0  0  0  0  0  0  0  # atno 8009 bound_to 7997
  154.8407  140.2890  155.5665 H   0  0  0  0  0  0  0  0  0  0  0  0  # atno 8010 bound_to 7997
  139.4831  144.5339  151.7677 H   0  0  0  0  0  0  0  0  0  0  0  0  # atno 10167 bound_to 10162
  155.9995  130.4957  150.5509 H   0  0  0  0  0  0  0  0  0  0  0  0  # atno 10718 bound_to 10713
  153.3696  135.3934  155.1779 H   0  0  0  0  0  0  0  0  0  0  0  0  # atno 10763 bound_to 10752
  154.8692  135.3699  154.4994 H   0  0  0  0  0  0  0  0  0  0  0  0  # atno 10764 bound_to 10752
  153.5461  135.7083  153.5674 H   0  0  0  0  0  0  0  0  0  0  0  0  # atno 10765 bound_to 10752
  141.1345  133.6636  156.5465 H   0  0  0  0  0  0  0  0  0  0  0  0  # atno 11005 bound_to 11000
  146.2724  140.4775  142.8809 LP  0  0  0  0  0  0  0  0  0  0  0  0  # atno 17320 bound_to 7965
  144.8335  140.6745  143.6275 LP  0  0  0  0  0  0  0  0  0  0  0  0  # atno 17321 bound_to 7965
  140.4869  144.1368  150.5942 LP  0  0  0  0  0  0  0  0  0  0  0  0  # atno 17342 bound_to 10162
  140.4215  143.2609  151.9709 LP  0  0  0  0  0  0  0  0  0  0  0  0  # atno 17343 bound_to 10162
  157.3432  131.0720  151.1772 LP  0  0  0  0  0  0  0  0  0  0  0  0  # atno 17370 bound_to 10713
  157.2613  130.6660  149.5976 LP  0  0  0  0  0  0  0  0  0  0  0  0  # atno 17371 bound_to 10713
  140.4098  134.7283  157.4829 LP  0  0  0  0  0  0  0  0  0  0  0  0  # atno 17394 bound_to 11000
  140.0436  134.6232  155.8950 LP  0  0  0  0  0  0  0  0  0  0  0  0  # atno 17395 bound_to 11000

$$$$
