AV-unprocessed.smi:1718|AV-procd|sdf|6924|dock5
  -GOLD-   22720 8133D 1   1.00000     0.00000
 Structure written by MMmdl.
 40 41  0  0  0  0  0  0  0  0  1 V2000
  154.3177  139.1940  160.4583 C   0  0  0  0  0  0  0  0  0  0  0  0
  153.7471  140.0148  159.2919 C   0  0  2  0  0  0  0  0  0  0  0  0
  153.2299  141.2256  159.8340 O   0  0  0  0  0  0  0  0  0  0  0  0
  152.6291  142.1103  158.8937 C   0  0  0  0  0  0  0  0  0  0  0  0
  152.9154  143.5601  159.3073 C   0  0  1  0  0  0  0  0  0  0  0  0
  152.5134  144.6101  158.2601 C   0  0  0  0  0  0  0  0  0  0  0  0
  151.3870  145.3697  158.9336 C   0  0  0  0  0  0  0  0  0  0  0  0
  151.7284  145.2101  160.4086 C   0  0  0  0  0  0  0  0  0  0  0  0
  152.1878  143.8704  160.4931 O   0  0  0  0  0  0  0  0  0  0  0  0
  152.6369  139.2483  158.5548 C   0  0  0  0  0  0  0  0  0  0  0  0
  151.6457  138.8713  159.1795 O   0  0  0  0  0  0  0  0  0  0  0  0
  152.8509  139.0457  157.2394 N   0  0  0  0  0  0  0  0  0  0  0  0
  152.0335  138.4181  156.2839 C   0  0  0  0  0  0  0  0  0  0  0  0
  151.3403  137.2666  156.4854 C   0  0  0  0  0  0  0  0  0  0  0  0
  150.5058  136.6769  155.4518 C   0  0  0  0  0  0  0  0  0  0  0  0
  149.8048  135.3431  155.6598 C   0  0  0  0  0  0  0  0  0  0  0  0
  150.2149  134.4369  154.7712 F   0  0  0  0  0  0  0  0  0  0  0  0
  150.0383  134.8660  156.8824 F   0  0  0  0  0  0  0  0  0  0  0  0
  148.4890  135.4966  155.5188 F   0  0  0  0  0  0  0  0  0  0  0  0
  150.4571  137.3288  154.2754 C   0  0  0  0  0  0  0  0  0  0  0  0
  151.1466  138.5254  154.0680 N   0  0  0  0  0  0  0  0  0  0  0  0
  151.9334  139.1194  154.9931 C   0  0  0  0  0  0  0  0  0  0  0  0
  152.5093  140.1751  154.7325 O   0  0  0  0  0  0  0  0  0  0  0  0
  151.0450  138.9628  153.1635 H   0  0  0  0  0  0  0  0  0  0  0  0
  154.7204  138.2412  160.1130 H   0  0  0  0  0  0  0  0  0  0  0  0
  153.5586  138.9843  161.2130 H   0  0  0  0  0  0  0  0  0  0  0  0
  155.1269  139.7346  160.9495 H   0  0  0  0  0  0  0  0  0  0  0  0
  154.5641  140.2435  158.6044 H   0  0  0  0  0  0  0  0  0  0  0  0
  153.0232  141.9220  157.8941 H   0  0  0  0  0  0  0  0  0  0  0  0
  151.5501  141.9581  158.8522 H   0  0  0  0  0  0  0  0  0  0  0  0
  153.9782  143.6657  159.5289 H   0  0  0  0  0  0  0  0  0  0  0  0
  153.3518  145.2806  158.0680 H   0  0  0  0  0  0  0  0  0  0  0  0
  152.2093  144.1783  157.3059 H   0  0  0  0  0  0  0  0  0  0  0  0
  151.3245  146.4117  158.6188 H   0  0  0  0  0  0  0  0  0  0  0  0
  150.4320  144.8881  158.7194 H   0  0  0  0  0  0  0  0  0  0  0  0
  152.5309  145.8900  160.6983 H   0  0  0  0  0  0  0  0  0  0  0  0
  150.8733  145.3849  161.0617 H   0  0  0  0  0  0  0  0  0  0  0  0
  153.7403  139.3645  156.8820 H   0  0  0  0  0  0  0  0  0  0  0  0
  151.3703  136.7562  157.4335 H   0  0  0  0  0  0  0  0  0  0  0  0
  149.9020  136.9885  153.4137 H   0  0  0  0  0  0  0  0  0  0  0  0
  1  2  1  0  0  0  0
  1 25  1  0  0  0  0
  1 26  1  0  0  0  0
  1 27  1  0  0  0  0
  2  3  1  0  0  0  0
  2 10  1  0  0  0  0
  2 28  1  0  0  0  0
  3  4  1  0  0  0  0
  4  5  1  0  0  0  0
  4 29  1  0  0  0  0
  4 30  1  0  0  0  0
  5  9  1  0  0  0  0
  5  6  1  0  0  0  0
  5 31  1  0  0  0  0
  6  7  1  0  0  0  0
  6 32  1  0  0  0  0
  6 33  1  0  0  0  0
  7  8  1  0  0  0  0
  7 34  1  0  0  0  0
  7 35  1  0  0  0  0
  8  9  1  0  0  0  0
  8 36  1  0  0  0  0
  8 37  1  0  0  0  0
 10 11  2  0  0  0  0
 10 12  1  0  0  0  0
 12 13  1  0  0  0  0
 12 38  1  0  0  0  0
 13 22  1  0  0  0  0
 13 14  2  0  0  0  0
 14 15  1  0  0  0  0
 14 39  1  0  0  0  0
 15 16  1  0  0  0  0
 15 20  2  0  0  0  0
 16 17  1  0  0  0  0
 16 18  1  0  0  0  0
 16 19  1  0  0  0  0
 20 21  1  0  0  0  0
 20 40  1  0  0  0  0
 21 24  1  0  0  0  0
 21 22  1  0  0  0  0
 22 23  2  0  0  0  0
M  END
> <s_m_source_file>
AV-unprocessed.smi

> <i_m_source_file_index>
1718

> <i_lp_mmshare_version>
43012

> <i_f3d_flags>
0

> <s_epik_input>
TzFbQ0gyXVtDSDJdW0NIMl1bQ0BIXTFbQ0gyXU9bQ0BASF0oW0NIM10pQyg9TylbTkhdYzJbY0hdYyhDKEYpKEYpRilbY0hdW25IXWMyPU8=

> <s_epik_cmdline>
J2VwaWtfcHl0aG9uJywgJy1waCcsICc3LjAnLCAnLXRuJywgJzgnLCAnLW1hJywgJzIwMCcsICctbWV0YWxfYmluZGluZycsICctaW1hZScsICc8aW5maWxlLm1hZT4nLCAnLW9tYWUnLCAnPG91dGZpbGUubWFlPic=

> <r_lp_tautomer_probability>
0.999

> <r_epik_Ionization_Penalty>
0.00894336

> <r_epik_Ionization_Penalty_Charging>
0.00894326

> <r_epik_Ionization_Penalty_Neutral>
1.00145e-07

> <r_epik_State_Penalty>
0.00676626

> <r_epik_Charging_Adjusted_Penalty>
0.0157095

> <i_epik_Tot_Q>
0

> <i_epik_Tot_abs_Q>
0

> <r_epik_Metal_State_Penalty>
0.321145

> <b_epik_Metal_Only>
0

> <s_lp_Force_Field>
OPLS_2005

> <r_lp_Energy>
34.3894

> <b_lp_Chiralities_Consistent>
1

> <s_lp_Variant>
AV-unprocessed.smi:1718-3

> <Gold.Version>
5.8.1

> <Gold.Id.Protein>
6NUR|6NUR_protein|mol2

> <Gold.PLP.Fitness>
45.8985

> <Gold.PLP.PLP>
-39.6759

> <Gold.PLP.part.hbond>
-2.1127

> <Gold.PLP.part.metal>
0.0000

> <Gold.PLP.part.buried>
-3.9447

> <Gold.PLP.part.nonpolar>
-33.4724

> <Gold.PLP.part.repulsive>
0.3214

> <Gold.PLP.ligand.clash>
0.0000

> <Gold.PLP.ligand.torsion>
0.6596

> <Gold.PLP.Chemscore.Hbond>
1.4960

> <Gold.PLP.Chemscore.CHOScore>
0.9991

> <Gold.PLP.Chemscore.Metal>
0.0000

> <Gold.Chemscore.Hbonds>
donor molecule, donor type, donor heavy atom, donor atom, acceptor molecule, acceptor atom, score
      P1  H  7989  7998       L1    23  0.48
      P1  H  7997  8008       L1    23  0.42
      L1  C    20    40       P1  7948  0.75

> <Gold.PLP.Chemscore.Internal.Correction>
0.0567

> <Gold.Rescore>
     Score         DG    S(hbond)    S(metal)    S(lipo)     H(rot)  DE(clash)    DE(int)     intcor
     15.55     -16.42       1.24        0.00      99.33       1.88       0.04       0.83       ----

> <Gold.Chemscore.Fitness>
15.5476

> <Gold.Chemscore.DG>
-16.4167

> <Gold.Chemscore.ZeroCoef>
-5.4800

> <Gold.Chemscore.Hbond>
1.2352

> <Gold.Chemscore.Metal>
0.0000

> <Gold.Chemscore.Lipo>
99.3277

> <Gold.Chemscore.Internal_Hbond>
0.0000

> <Gold.Chemscore.DEClash>
0.0402

> <Gold.Chemscore.DEInternal>
0.8288

> <Gold.Chemscore.Rot>
1.8790

> <Gold.Chemscore.Internal.Correction>
   9.000000E+99

> <Gold.Chemscore.Hbonds>
donor molecule, donor type, donor heavy atom, donor atom, acceptor molecule, acceptor atom, score
      P1  H  7989  7998       L1    23  0.29
      P1  H  7997  8008       L1    23  0.25

> <Gold.Chemscore.Hbond.Weighted>
-4.1255

> <Gold.Chemscore.Metal.Weighted>
-0.0000

> <Gold.Chemscore.Lipo.Weighted>
-11.6213

> <Gold.Chemscore.Internal_Hbond.Weighted>
0.0000

> <Gold.Chemscore.DEClash.Weighted>
0.0402

> <Gold.Chemscore.DEInternal.Weighted>
0.8288

> <Gold.Chemscore.Rot.Weighted>
4.8102

> <Gold.Chemscore.Internal.Correction.Weighted>
   9.000000E+99

> <Gold.Protein.RotatedTorsions>
[ 6907 6896 6895 6894 ] final  106.64 input  -60.11 | X-H torsion
[ 7974 7965 7964 7962 ] final  -86.65 input  175.53 | X-H torsion
[ 8008 7997 7996 7995 ] final  -20.86 input   59.86 | X-H torsion
[ 10167 10162 10161 10158 ] final  -60.91 input  -65.29 | X-H torsion
[ 10718 10713 10712 10709 ] final   16.68 input   66.30 | X-H torsion
[ 10763 10752 10751 10750 ] final  -53.88 input  -60.55 | X-H torsion
[ 11005 11000 10999 10996 ] final -130.84 input  -57.11 | X-H torsion

> <Gold.Protein.ActiveResidues>
 VAL166  LYS551  ARG553  GLY616  TRP617  ASP618  TYR619  PRO620  LYS621  CYS622 
 ASP623  PHE694  ASN695  SER759  ASP760  ASP761  ALA762  ILE779  LEU786  VAL792 
 PHE793  MET794  SER795  GLU796  ALA797  LYS798  CYS799  TRP800  GLU811  SER814 

> <Gold.Protein.RotatedAtoms>
  152.5186  133.9352  159.7599 H   0  0  0  0  0  0  0  0  0  0  0  0  # atno 6907 bound_to 6896
  150.9693  133.6352  159.2747 H   0  0  0  0  0  0  0  0  0  0  0  0  # atno 6908 bound_to 6896
  151.3569  135.0901  159.9474 H   0  0  0  0  0  0  0  0  0  0  0  0  # atno 6909 bound_to 6896
  145.4771  140.9558  143.1885 H   0  0  0  0  0  0  0  0  0  0  0  0  # atno 7974 bound_to 7965
  154.4742  140.2050  155.9919 H   0  0  0  0  0  0  0  0  0  0  0  0  # atno 8008 bound_to 7997
  156.1061  140.3236  155.7979 H   0  0  0  0  0  0  0  0  0  0  0  0  # atno 8009 bound_to 7997
  155.4714  140.0531  157.2970 H   0  0  0  0  0  0  0  0  0  0  0  0  # atno 8010 bound_to 7997
  140.6040  143.2368  151.5863 H   0  0  0  0  0  0  0  0  0  0  0  0  # atno 10167 bound_to 10162
  157.0714  130.6349  149.5806 H   0  0  0  0  0  0  0  0  0  0  0  0  # atno 10718 bound_to 10713
  154.1660  135.6467  153.4997 H   0  0  0  0  0  0  0  0  0  0  0  0  # atno 10763 bound_to 10752
  153.0097  135.5372  154.6662 H   0  0  0  0  0  0  0  0  0  0  0  0  # atno 10764 bound_to 10752
  154.5988  135.2941  155.0529 H   0  0  0  0  0  0  0  0  0  0  0  0  # atno 10765 bound_to 10752
  140.9311  134.1318  157.4234 H   0  0  0  0  0  0  0  0  0  0  0  0  # atno 11005 bound_to 11000
  144.7911  139.6327  143.7113 LP  0  0  0  0  0  0  0  0  0  0  0  0  # atno 17320 bound_to 7965
  146.2363  139.5911  142.9521 LP  0  0  0  0  0  0  0  0  0  0  0  0  # atno 17321 bound_to 7965
  139.5311  144.2912  152.1150 LP  0  0  0  0  0  0  0  0  0  0  0  0  # atno 17342 bound_to 10162
  140.2098  144.4574  150.6391 LP  0  0  0  0  0  0  0  0  0  0  0  0  # atno 17343 bound_to 10162
  155.9949  130.5015  150.7439 LP  0  0  0  0  0  0  0  0  0  0  0  0  # atno 17370 bound_to 10713
  157.4875  131.0908  151.0465 LP  0  0  0  0  0  0  0  0  0  0  0  0  # atno 17371 bound_to 10713
  139.8796  135.0005  156.6015 LP  0  0  0  0  0  0  0  0  0  0  0  0  # atno 17394 bound_to 11000
  140.7861  133.8620  155.8607 LP  0  0  0  0  0  0  0  0  0  0  0  0  # atno 17395 bound_to 11000

$$$$
