AV-unprocessed.smi:260|AV-procd|sdf|1981|dock10
  -GOLD-   2262021153D 1   1.00000     0.00000
 Structure written by MMmdl.
 53 56  0  0  0  0  0  0  0  0  1 V2000
  148.4422  144.9984  160.5270 C   0  0  0  0  0  0  0  0  0  0  0  0
  149.5342  144.6416  159.6355 N   0  0  0  0  0  0  0  0  0  0  0  0
  150.5754  143.8654  159.9774 C   0  0  0  0  0  0  0  0  0  0  0  0
  150.6951  143.3937  161.1090 O   0  0  0  0  0  0  0  0  0  0  0  0
  151.6523  143.5578  158.9030 C   0  0  1  0  0  0  0  0  0  0  0  0
  152.3744  144.8651  158.5228 C   0  0  0  0  0  0  0  0  0  0  0  0
  152.6289  142.4929  159.4325 C   0  0  0  0  0  0  0  0  0  0  0  0
  151.9159  141.1643  159.1572 C   0  0  0  0  0  0  0  0  0  0  0  0
  151.0592  141.4083  158.0031 N   0  0  0  0  0  0  0  0  0  0  0  0
  149.9562  140.6384  157.7945 C   0  0  0  0  0  0  0  0  0  0  0  0
  148.8506  141.2060  157.2423 N   0  0  0  0  0  0  0  0  0  0  0  0
  147.7451  140.4868  157.0314 C   0  0  0  0  0  0  0  0  0  0  0  0
  147.5290  139.1967  157.2881 N   0  0  0  0  0  0  0  0  0  0  0  0
  148.6353  138.6116  157.8277 C   0  0  0  0  0  0  0  0  0  0  0  0
  149.8786  139.2483  158.1106 C   0  0  0  0  0  0  0  0  0  0  0  0
  150.7636  138.3173  158.6465 N   0  0  0  0  0  0  0  0  0  0  0  0
  150.0836  137.2045  158.6842 C   0  0  0  0  0  0  0  0  0  0  0  0
  148.7957  137.2922  158.2104 N   0  0  0  0  0  0  0  0  0  0  0  0
  147.8203  136.2196  158.1298 C   0  0  0  0  0  0  0  0  0  0  0  0
  146.5188  136.5542  158.8837 C   0  0  1  0  0  0  0  0  0  0  0  0
  145.4049  135.9597  158.2445 O   0  0  0  0  0  0  0  0  0  0  0  0
  146.5684  136.1493  160.3703 C   0  0  1  0  0  0  0  0  0  0  0  0
  146.7566  134.6587  160.6646 C   0  0  0  0  0  0  0  0  0  0  0  0
  147.3352  134.7053  162.0610 C   0  0  0  0  0  0  0  0  0  0  0  0
  148.2409  135.9318  161.9815 C   0  0  0  0  0  0  0  0  0  0  0  0
  147.6062  136.8287  161.0738 O   0  0  0  0  0  0  0  0  0  0  0  0
  151.1024  142.8296  157.6565 C   0  0  0  0  0  0  0  0  0  0  0  0
  147.7179  145.6162  159.9960 H   0  0  0  0  0  0  0  0  0  0  0  0
  148.8097  145.5631  161.3847 H   0  0  0  0  0  0  0  0  0  0  0  0
  147.9295  144.1064  160.8890 H   0  0  0  0  0  0  0  0  0  0  0  0
  149.4909  144.9937  158.6898 H   0  0  0  0  0  0  0  0  0  0  0  0
  153.1444  144.6893  157.7710 H   0  0  0  0  0  0  0  0  0  0  0  0
  152.8638  145.3205  159.3848 H   0  0  0  0  0  0  0  0  0  0  0  0
  151.6781  145.5962  158.1102 H   0  0  0  0  0  0  0  0  0  0  0  0
  153.5611  142.5272  158.8668 H   0  0  0  0  0  0  0  0  0  0  0  0
  152.8885  142.6102  160.4857 H   0  0  0  0  0  0  0  0  0  0  0  0
  152.6286  140.3626  158.9627 H   0  0  0  0  0  0  0  0  0  0  0  0
  151.3069  140.8829  160.0174 H   0  0  0  0  0  0  0  0  0  0  0  0
  146.9150  141.0224  156.5948 H   0  0  0  0  0  0  0  0  0  0  0  0
  150.5072  136.2830  159.0562 H   0  0  0  0  0  0  0  0  0  0  0  0
  147.6150  136.0142  157.0784 H   0  0  0  0  0  0  0  0  0  0  0  0
  148.2730  135.3171  158.5417 H   0  0  0  0  0  0  0  0  0  0  0  0
  146.3622  137.6327  158.8389 H   0  0  0  0  0  0  0  0  0  0  0  0
  145.4311  135.0292  158.4072 H   0  0  0  0  0  0  0  0  0  0  0  0
  145.6357  136.4640  160.8414 H   0  0  0  0  0  0  0  0  0  0  0  0
  145.8262  134.0933  160.6048 H   0  0  0  0  0  0  0  0  0  0  0  0
  147.4775  134.2009  159.9867 H   0  0  0  0  0  0  0  0  0  0  0  0
  146.5414  134.8698  162.7911 H   0  0  0  0  0  0  0  0  0  0  0  0
  147.8708  133.7961  162.3354 H   0  0  0  0  0  0  0  0  0  0  0  0
  148.4025  136.3956  162.9549 H   0  0  0  0  0  0  0  0  0  0  0  0
  149.2137  135.6575  161.5711 H   0  0  0  0  0  0  0  0  0  0  0  0
  150.1543  143.2513  157.3238 H   0  0  0  0  0  0  0  0  0  0  0  0
  151.7925  142.9402  156.8194 H   0  0  0  0  0  0  0  0  0  0  0  0
  1  2  1  0  0  0  0
  1 28  1  0  0  0  0
  1 29  1  0  0  0  0
  1 30  1  0  0  0  0
  2  3  1  0  0  0  0
  2 31  1  0  0  0  0
  3  4  2  0  0  0  0
  3  5  1  0  0  0  0
  5 27  1  0  0  0  0
  5  6  1  0  0  0  0
  5  7  1  0  0  0  0
  6 32  1  0  0  0  0
  6 33  1  0  0  0  0
  6 34  1  0  0  0  0
  7  8  1  0  0  0  0
  7 35  1  0  0  0  0
  7 36  1  0  0  0  0
  8  9  1  0  0  0  0
  8 37  1  0  0  0  0
  8 38  1  0  0  0  0
  9 10  1  0  0  0  0
  9 27  1  0  0  0  0
 10 15  1  0  0  0  0
 10 11  2  0  0  0  0
 11 12  1  0  0  0  0
 12 13  2  0  0  0  0
 12 39  1  0  0  0  0
 13 14  1  0  0  0  0
 14 18  1  0  0  0  0
 14 15  2  0  0  0  0
 15 16  1  0  0  0  0
 16 17  2  0  0  0  0
 17 18  1  0  0  0  0
 17 40  1  0  0  0  0
 18 19  1  0  0  0  0
 19 20  1  0  0  0  0
 19 41  1  0  0  0  0
 19 42  1  0  0  0  0
 20 21  1  0  0  0  0
 20 22  1  0  0  0  0
 20 43  1  0  0  0  0
 21 44  1  0  0  0  0
 22 26  1  0  0  0  0
 22 23  1  0  0  0  0
 22 45  1  0  0  0  0
 23 24  1  0  0  0  0
 23 46  1  0  0  0  0
 23 47  1  0  0  0  0
 24 25  1  0  0  0  0
 24 48  1  0  0  0  0
 24 49  1  0  0  0  0
 25 26  1  0  0  0  0
 25 50  1  0  0  0  0
 25 51  1  0  0  0  0
 27 52  1  0  0  0  0
 27 53  1  0  0  0  0
M  END
> <s_m_source_file>
AV-unprocessed.smi

> <i_m_source_file_index>
260

> <i_lp_mmshare_version>
43012

> <i_f3d_flags>
0

> <s_epik_input>
W0NIM11bTkhdQyg9TylbQ0BAXTEoW0NIM10pW0NIMl1bQ0gyXU4oW0NIMl0xKWMobltjSF1uMiljKGMyMyluW2NIXW4zW0NIMl1bQ0BIXShbT0hdKVtDQEBIXTRbQ0gyXVtDSDJdW0NIMl1PNA==

> <s_epik_cmdline>
J2VwaWtfcHl0aG9uJywgJy1waCcsICc3LjAnLCAnLXRuJywgJzgnLCAnLW1hJywgJzIwMCcsICctbWV0YWxfYmluZGluZycsICctaW1hZScsICc8aW5maWxlLm1hZT4nLCAnLW9tYWUnLCAnPG91dGZpbGUubWFlPic=

> <r_lp_tautomer_probability>
1

> <r_epik_Ionization_Penalty>
0.00115068

> <r_epik_Ionization_Penalty_Charging>
0

> <r_epik_Ionization_Penalty_Neutral>
0.00115068

> <r_epik_State_Penalty>
0.000668876

> <r_epik_Charging_Adjusted_Penalty>
0.000668876

> <i_epik_Tot_Q>
0

> <i_epik_Tot_abs_Q>
0

> <r_epik_Metal_State_Penalty>
-0

> <b_epik_Metal_Only>
0

> <s_lp_Force_Field>
OPLS_2005

> <r_lp_Energy>
50.9621

> <b_lp_Chiralities_Consistent>
1

> <s_lp_Variant>
AV-unprocessed.smi:260-7

> <Gold.Version>
5.8.1

> <Gold.Id.Protein>
6NUR|6NUR_protein|mol2

> <Gold.PLP.Fitness>
46.8033

> <Gold.PLP.PLP>
-44.1627

> <Gold.PLP.part.hbond>
-4.0000

> <Gold.PLP.part.metal>
0.0000

> <Gold.PLP.part.buried>
-6.2963

> <Gold.PLP.part.nonpolar>
-34.0787

> <Gold.PLP.part.repulsive>
0.4335

> <Gold.PLP.ligand.clash>
0.0000

> <Gold.PLP.ligand.torsion>
0.7410

> <Gold.PLP.Chemscore.Hbond>
1.2479

> <Gold.PLP.Chemscore.CHOScore>
0.0000

> <Gold.PLP.Chemscore.Metal>
0.0000

> <Gold.Chemscore.Hbonds>
donor molecule, donor type, donor heavy atom, donor atom, acceptor molecule, acceptor atom, score
      L1  H     2    31       P1  8029  0.20
      P1  H  6931  6943       L1    26  0.10
      P1  H  6933  6945       L1     4  0.03
      P1  H  6934  6947       L1    26  0.47

> <Gold.PLP.Chemscore.Internal.Correction>
0.3788

> <Gold.Rescore>
     Score         DG    S(hbond)    S(metal)    S(lipo)     H(rot)  DE(clash)    DE(int)     intcor
     14.38     -15.44       1.86        0.00      87.39       2.53       0.39       0.67       ----

> <Gold.Chemscore.Fitness>
14.3783

> <Gold.Chemscore.DG>
-15.4402

> <Gold.Chemscore.ZeroCoef>
-5.4800

> <Gold.Chemscore.Hbond>
1.8570

> <Gold.Chemscore.Metal>
0.0000

> <Gold.Chemscore.Lipo>
87.3855

> <Gold.Chemscore.Internal_Hbond>
0.0000

> <Gold.Chemscore.DEClash>
0.3944

> <Gold.Chemscore.DEInternal>
0.6675

> <Gold.Chemscore.Rot>
2.5259

> <Gold.Chemscore.Internal.Correction>
   9.000000E+99

> <Gold.Chemscore.Hbonds>
donor molecule, donor type, donor heavy atom, donor atom, acceptor molecule, acceptor atom, score
      L1  H     2    31       P1  8029  0.16
      P1  H  6933  6945       L1     4  0.06
      P1  H  6934  6947       L1    26  0.29

> <Gold.Chemscore.Hbond.Weighted>
-6.2024

> <Gold.Chemscore.Metal.Weighted>
-0.0000

> <Gold.Chemscore.Lipo.Weighted>
-10.2241

> <Gold.Chemscore.Internal_Hbond.Weighted>
0.0000

> <Gold.Chemscore.DEClash.Weighted>
0.3944

> <Gold.Chemscore.DEInternal.Weighted>
0.6675

> <Gold.Chemscore.Rot.Weighted>
6.4663

> <Gold.Chemscore.Internal.Correction.Weighted>
   9.000000E+99

> <Gold.Protein.RotatedTorsions>
[ 6907 6896 6895 6894 ] final  157.66 input  -60.11 | X-H torsion
[ 7974 7965 7964 7962 ] final  -61.18 input  175.53 | X-H torsion
[ 8008 7997 7996 7995 ] final  -33.40 input   59.86 | X-H torsion
[ 10167 10162 10161 10158 ] final   12.62 input  -65.29 | X-H torsion
[ 10718 10713 10712 10709 ] final -100.75 input   66.30 | X-H torsion
[ 10763 10752 10751 10750 ] final  144.19 input  -60.55 | X-H torsion
[ 11005 11000 10999 10996 ] final   71.90 input  -57.11 | X-H torsion

> <Gold.Protein.ActiveResidues>
 VAL166  LYS551  ARG553  GLY616  TRP617  ASP618  TYR619  PRO620  LYS621  CYS622 
 ASP623  PHE694  ASN695  SER759  ASP760  ASP761  ALA762  ILE779  LEU786  VAL792 
 PHE793  MET794  SER795  GLU796  ALA797  LYS798  CYS799  TRP800  GLU811  SER814 

> <Gold.Protein.RotatedAtoms>
  152.0118  133.3864  159.4222 H   0  0  0  0  0  0  0  0  0  0  0  0  # atno 6907 bound_to 6896
  150.6899  134.3722  159.5006 H   0  0  0  0  0  0  0  0  0  0  0  0  # atno 6908 bound_to 6896
  152.1484  134.9007  160.0600 H   0  0  0  0  0  0  0  0  0  0  0  0  # atno 6909 bound_to 6896
  145.8066  140.8624  143.0204 H   0  0  0  0  0  0  0  0  0  0  0  0  # atno 7974 bound_to 7965
  154.4150  140.1711  156.1882 H   0  0  0  0  0  0  0  0  0  0  0  0  # atno 8008 bound_to 7997
  155.9625  140.3392  155.6480 H   0  0  0  0  0  0  0  0  0  0  0  0  # atno 8009 bound_to 7997
  155.6730  140.0714  157.2504 H   0  0  0  0  0  0  0  0  0  0  0  0  # atno 8010 bound_to 7997
  140.6056  143.8515  150.7010 H   0  0  0  0  0  0  0  0  0  0  0  0  # atno 10167 bound_to 10162
  156.0173  130.5342  150.6863 H   0  0  0  0  0  0  0  0  0  0  0  0  # atno 10718 bound_to 10713
  153.9848  135.2938  155.3417 H   0  0  0  0  0  0  0  0  0  0  0  0  # atno 10763 bound_to 10752
  154.7248  135.5093  153.8872 H   0  0  0  0  0  0  0  0  0  0  0  0  # atno 10764 bound_to 10752
  153.0837  135.6687  154.0107 H   0  0  0  0  0  0  0  0  0  0  0  0  # atno 10765 bound_to 10752
  139.9519  134.7212  156.0843 H   0  0  0  0  0  0  0  0  0  0  0  0  # atno 11005 bound_to 11000
  144.6762  140.0335  143.7482 LP  0  0  0  0  0  0  0  0  0  0  0  0  # atno 17320 bound_to 7965
  145.9822  139.2950  143.1035 LP  0  0  0  0  0  0  0  0  0  0  0  0  # atno 17321 bound_to 7965
  140.2071  143.3913  152.1747 LP  0  0  0  0  0  0  0  0  0  0  0  0  # atno 17342 bound_to 10162
  139.5322  144.7172  151.5015 LP  0  0  0  0  0  0  0  0  0  0  0  0  # atno 17343 bound_to 10162
  157.4554  131.0877  151.0802 LP  0  0  0  0  0  0  0  0  0  0  0  0  # atno 17370 bound_to 10713
  157.1305  130.6100  149.5528 LP  0  0  0  0  0  0  0  0  0  0  0  0  # atno 17371 bound_to 10713
  141.1183  133.6621  156.3150 LP  0  0  0  0  0  0  0  0  0  0  0  0  # atno 17394 bound_to 11000
  140.5699  134.5850  157.5455 LP  0  0  0  0  0  0  0  0  0  0  0  0  # atno 17395 bound_to 11000

$$$$
