AV-unprocessed.smi:149|AV-procd|sdf|1235|dock10
  -GOLD-   2262018443D 1   1.00000     0.00000
 Structure written by MMmdl.
 60 64  0  0  0  0  0  0  0  0  2 V2000
  149.7024  135.1023  155.0473 C   0  0  0  0  0  0  0  0  0  0  0  0
  148.3382  135.5132  155.6381 C   0  0  1  0  0  0  0  0  0  0  0  0
  148.4609  136.8388  156.4084 C   0  0  0  0  0  0  0  0  0  0  0  0
  148.0078  137.8816  155.4956 N   0  0  0  0  0  0  0  0  0  0  0  0
  148.5055  139.1436  155.5654 C   0  0  0  0  0  0  0  0  0  0  0  0
  148.2651  139.9983  154.5360 N   0  0  0  0  0  0  0  0  0  0  0  0
  148.7374  141.2473  154.5677 C   0  0  0  0  0  0  0  0  0  0  0  0
  149.4572  141.8418  155.5195 N   0  0  0  0  0  0  0  0  0  0  0  0
  149.6938  140.9984  156.5650 C   0  0  0  0  0  0  0  0  0  0  0  0
  149.2574  139.6454  156.6687 C   0  0  0  0  0  0  0  0  0  0  0  0
  149.6770  139.1111  157.8816 N   0  0  0  0  0  0  0  0  0  0  0  0
  150.3295  140.0840  158.4553 C   0  0  0  0  0  0  0  0  0  0  0  0
  150.3906  141.2558  157.7358 N   0  0  0  0  0  0  0  0  0  0  0  0
  151.0434  142.4694  158.1428 C   0  0  0  0  0  0  0  0  0  0  0  0
  152.2583  142.4534  159.0721 C   0  0  0  0  0  0  0  0  0  0  0  0
  151.8071  143.8048  159.6716 C   0  0  0  0  0  0  0  0  0  0  0  0
  151.9367  143.9160  161.1997 C   0  0  0  0  0  0  0  0  0  0  0  0
  151.7290  142.6663  161.8260 O   0  0  0  0  0  0  0  0  0  0  0  0
  152.4333  145.0523  159.0163 C   0  0  0  0  0  0  0  0  0  0  0  0
  151.8369  146.2424  159.4915 O   0  0  0  0  0  0  0  0  0  0  0  0
  150.4013  143.4237  159.1510 C   0  0  0  0  0  0  0  0  0  0  0  0
  147.5879  137.2947  154.2321 C   0  0  0  0  0  0  0  0  0  0  0  0
  147.2597  135.8401  154.5847 C   0  0  1  0  0  0  0  0  0  0  0  0
  147.2029  134.9050  153.4261 N   0  3  0  0  0  0  0  0  0  0  0  0
  147.2601  133.4787  153.8382 C   0  0  0  0  0  0  0  0  0  0  0  0
  147.2553  132.5569  152.6077 C   0  0  0  0  0  0  0  0  0  0  0  0
  146.0950  132.8120  151.8278 O   0  0  0  0  0  0  0  0  0  0  0  0
  146.0656  134.1492  151.3481 C   0  0  0  0  0  0  0  0  0  0  0  0
  146.0350  135.1266  152.5353 C   0  0  0  0  0  0  0  0  0  0  0  0
  150.0956  135.8625  154.3719 H   0  0  0  0  0  0  0  0  0  0  0  0
  149.6400  134.1662  154.4935 H   0  0  0  0  0  0  0  0  0  0  0  0
  150.4376  134.9571  155.8392 H   0  0  0  0  0  0  0  0  0  0  0  0
  147.9989  134.7226  156.3082 H   0  0  0  0  0  0  0  0  0  0  0  0
  147.8068  136.8347  157.2810 H   0  0  0  0  0  0  0  0  0  0  0  0
  149.4817  137.0076  156.7539 H   0  0  0  0  0  0  0  0  0  0  0  0
  148.5056  141.8581  153.7074 H   0  0  0  0  0  0  0  0  0  0  0  0
  150.7853  139.9700  159.4280 H   0  0  0  0  0  0  0  0  0  0  0  0
  151.2867  143.0105  157.2266 H   0  0  0  0  0  0  0  0  0  0  0  0
  152.2310  141.6387  159.7972 H   0  0  0  0  0  0  0  0  0  0  0  0
  153.2192  142.4804  158.5573 H   0  0  0  0  0  0  0  0  0  0  0  0
  152.9126  144.3033  161.4932 H   0  0  0  0  0  0  0  0  0  0  0  0
  151.1995  144.6131  161.5995 H   0  0  0  0  0  0  0  0  0  0  0  0
  152.5515  142.3712  162.1862 H   0  0  0  0  0  0  0  0  0  0  0  0
  153.5073  145.1021  159.1974 H   0  0  0  0  0  0  0  0  0  0  0  0
  152.3121  145.0306  157.9331 H   0  0  0  0  0  0  0  0  0  0  0  0
  150.9393  146.2664  159.1967 H   0  0  0  0  0  0  0  0  0  0  0  0
  149.8392  144.2406  158.6975 H   0  0  0  0  0  0  0  0  0  0  0  0
  149.7961  142.9091  159.8988 H   0  0  0  0  0  0  0  0  0  0  0  0
  146.7227  137.8190  153.8249 H   0  0  0  0  0  0  0  0  0  0  0  0
  148.4013  137.3511  153.5074 H   0  0  0  0  0  0  0  0  0  0  0  0
  146.2849  135.8309  155.0769 H   0  0  0  0  0  0  0  0  0  0  0  0
  148.1560  133.2841  154.4270 H   0  0  0  0  0  0  0  0  0  0  0  0
  146.4056  133.2482  154.4765 H   0  0  0  0  0  0  0  0  0  0  0  0
  148.1546  132.7016  152.0066 H   0  0  0  0  0  0  0  0  0  0  0  0
  147.2461  131.5129  152.9212 H   0  0  0  0  0  0  0  0  0  0  0  0
  146.9298  134.3391  150.7094 H   0  0  0  0  0  0  0  0  0  0  0  0
  145.1780  134.2818  150.7294 H   0  0  0  0  0  0  0  0  0  0  0  0
  145.1120  134.9976  153.1025 H   0  0  0  0  0  0  0  0  0  0  0  0
  146.0341  136.1450  152.1474 H   0  0  0  0  0  0  0  0  0  0  0  0
  148.0261  135.0855  152.8694 H   0  0  0  0  0  0  0  0  0  0  0  0
  1  2  1  0  0  0  0
  1 30  1  0  0  0  0
  1 31  1  0  0  0  0
  1 32  1  0  0  0  0
  2 23  1  0  0  0  0
  2  3  1  0  0  0  0
  2 33  1  0  0  0  0
  3  4  1  0  0  0  0
  3 34  1  0  0  0  0
  3 35  1  0  0  0  0
  4  5  1  0  0  0  0
  4 22  1  0  0  0  0
  5 10  1  0  0  0  0
  5  6  2  0  0  0  0
  6  7  1  0  0  0  0
  7  8  2  0  0  0  0
  7 36  1  0  0  0  0
  8  9  1  0  0  0  0
  9 13  1  0  0  0  0
  9 10  2  0  0  0  0
 10 11  1  0  0  0  0
 11 12  2  0  0  0  0
 12 13  1  0  0  0  0
 12 37  1  0  0  0  0
 13 14  1  0  0  0  0
 14 21  1  0  0  0  0
 14 15  1  0  0  0  0
 14 38  1  0  0  0  0
 15 16  1  0  0  0  0
 15 39  1  0  0  0  0
 15 40  1  0  0  0  0
 16 17  1  0  0  0  0
 16 19  1  0  0  0  0
 16 21  1  0  0  0  0
 17 18  1  0  0  0  0
 17 41  1  0  0  0  0
 17 42  1  0  0  0  0
 18 43  1  0  0  0  0
 19 20  1  0  0  0  0
 19 44  1  0  0  0  0
 19 45  1  0  0  0  0
 20 46  1  0  0  0  0
 21 47  1  0  0  0  0
 21 48  1  0  0  0  0
 22 23  1  0  0  0  0
 22 49  1  0  0  0  0
 22 50  1  0  0  0  0
 23 24  1  0  0  0  0
 23 51  1  0  0  0  0
 24 29  1  0  0  0  0
 24 25  1  0  0  0  0
 24 60  1  0  0  0  0
 25 26  1  0  0  0  0
 25 52  1  0  0  0  0
 25 53  1  0  0  0  0
 26 27  1  0  0  0  0
 26 54  1  0  0  0  0
 26 55  1  0  0  0  0
 27 28  1  0  0  0  0
 28 29  1  0  0  0  0
 28 56  1  0  0  0  0
 28 57  1  0  0  0  0
 29 58  1  0  0  0  0
 29 59  1  0  0  0  0
M  CHG  1  24   1
M  END
> <s_m_source_file>
AV-unprocessed.smi

> <i_m_source_file_index>
149

> <i_lp_mmshare_version>
43012

> <i_f3d_flags>
0

> <s_epik_input>
W0NIMl0xW0NIMl1PW0NIMl1bQ0gyXU4xW0NAQEhdMltDSDJdTihbQ0gyXVtDQEhdMltDSDNdKWMobltjSF1uMyljKGMzNCluW2NIXW40W0NIXShbQ0gyXTUpW0NIMl1DNShbQ0gyXVtPSF0pW0NIMl1bT0hd

> <s_epik_cmdline>
J2VwaWtfcHl0aG9uJywgJy1waCcsICc3LjAnLCAnLXRuJywgJzgnLCAnLW1hJywgJzIwMCcsICctbWV0YWxfYmluZGluZycsICctaW1hZScsICc8aW5maWxlLm1hZT4nLCAnLW9tYWUnLCAnPG91dGZpbGUubWFlPic=

> <r_lp_tautomer_probability>
1

> <r_epik_Ionization_Penalty>
0.404847

> <r_epik_Ionization_Penalty_Charging>
0.404623

> <r_epik_Ionization_Penalty_Neutral>
0.000224096

> <r_epik_State_Penalty>
0.238803

> <r_epik_Charging_Adjusted_Penalty>
0.643425

> <i_epik_Tot_Q>
1

> <i_epik_Tot_abs_Q>
1

> <r_epik_Metal_State_Penalty>
0.239083

> <b_epik_Metal_Only>
0

> <s_lp_Force_Field>
OPLS_2005

> <r_lp_Energy>
70.5457

> <b_lp_Chiralities_Consistent>
1

> <s_lp_Variant>
AV-unprocessed.smi:149-2

> <Gold.Version>
5.8.1

> <Gold.Id.Protein>
6NUR|6NUR_protein|mol2

> <Gold.PLP.Fitness>
44.5339

> <Gold.PLP.PLP>
-37.8746

> <Gold.PLP.part.hbond>
-3.6904

> <Gold.PLP.part.metal>
0.0000

> <Gold.PLP.part.buried>
-5.5190

> <Gold.PLP.part.nonpolar>
-30.2372

> <Gold.PLP.part.repulsive>
1.6805

> <Gold.PLP.ligand.clash>
0.0000

> <Gold.PLP.ligand.torsion>
1.2025

> <Gold.PLP.Chemscore.Hbond>
2.7840

> <Gold.PLP.Chemscore.CHOScore>
0.0000

> <Gold.PLP.Chemscore.Metal>
0.0000

> <Gold.Chemscore.Hbonds>
donor molecule, donor type, donor heavy atom, donor atom, acceptor molecule, acceptor atom, score
      L1  H    24    60       P1  7948  1.98
      P1  H  6933  6945       L1    18  0.77

> <Gold.PLP.Chemscore.Internal.Correction>
0.7123

> <Gold.Rescore>
     Score         DG    S(hbond)    S(metal)    S(lipo)     H(rot)  DE(clash)    DE(int)     intcor
     10.53     -14.84       1.87        0.00      94.19       3.09       2.24       2.07       ----

> <Gold.Chemscore.Fitness>
10.5323

> <Gold.Chemscore.DG>
-14.8396

> <Gold.Chemscore.ZeroCoef>
-5.4800

> <Gold.Chemscore.Hbond>
1.8721

> <Gold.Chemscore.Metal>
0.0000

> <Gold.Chemscore.Lipo>
94.1904

> <Gold.Chemscore.Internal_Hbond>
0.0000

> <Gold.Chemscore.DEClash>
2.2391

> <Gold.Chemscore.DEInternal>
2.0682

> <Gold.Chemscore.Rot>
3.0912

> <Gold.Chemscore.Internal.Correction>
   9.000000E+99

> <Gold.Chemscore.Hbonds>
donor molecule, donor type, donor heavy atom, donor atom, acceptor molecule, acceptor atom, score
      L1  H    24    60       P1  7948  0.91
      P1  H  6933  6945       L1    18  0.74

> <Gold.Chemscore.Hbond.Weighted>
-6.2528

> <Gold.Chemscore.Metal.Weighted>
-0.0000

> <Gold.Chemscore.Lipo.Weighted>
-11.0203

> <Gold.Chemscore.Internal_Hbond.Weighted>
0.0000

> <Gold.Chemscore.DEClash.Weighted>
2.2391

> <Gold.Chemscore.DEInternal.Weighted>
2.0682

> <Gold.Chemscore.Rot.Weighted>
7.9135

> <Gold.Chemscore.Internal.Correction.Weighted>
   9.000000E+99

> <Gold.Protein.RotatedTorsions>
[ 6907 6896 6895 6894 ] final -120.31 input  -60.11 | X-H torsion
[ 7974 7965 7964 7962 ] final  176.49 input  175.53 | X-H torsion
[ 8008 7997 7996 7995 ] final   36.99 input   59.86 | X-H torsion
[ 10167 10162 10161 10158 ] final  136.43 input  -65.29 | X-H torsion
[ 10718 10713 10712 10709 ] final -174.52 input   66.30 | X-H torsion
[ 10763 10752 10751 10750 ] final   58.58 input  -60.55 | X-H torsion
[ 11005 11000 10999 10996 ] final   34.75 input  -57.11 | X-H torsion

> <Gold.Protein.ActiveResidues>
 VAL166  LYS551  ARG553  GLY616  TRP617  ASP618  TYR619  PRO620  LYS621  CYS622 
 ASP623  PHE694  ASN695  SER759  ASP760  ASP761  ALA762  ILE779  LEU786  VAL792 
 PHE793  MET794  SER795  GLU796  ALA797  LYS798  CYS799  TRP800  GLU811  SER814 

> <Gold.Protein.RotatedAtoms>
  150.8382  133.7979  159.3071 H   0  0  0  0  0  0  0  0  0  0  0  0  # atno 6907 bound_to 6896
  151.5688  135.1061  160.0000 H   0  0  0  0  0  0  0  0  0  0  0  0  # atno 6908 bound_to 6896
  152.4451  133.7478  159.6733 H   0  0  0  0  0  0  0  0  0  0  0  0  # atno 6909 bound_to 6896
  144.7183  140.0105  143.6440 H   0  0  0  0  0  0  0  0  0  0  0  0  # atno 7974 bound_to 7965
  155.1964  140.3312  155.4350 H   0  0  0  0  0  0  0  0  0  0  0  0  # atno 8008 bound_to 7997
  156.2423  140.1901  156.7003 H   0  0  0  0  0  0  0  0  0  0  0  0  # atno 8009 bound_to 7997
  154.6171  140.0600  156.9554 H   0  0  0  0  0  0  0  0  0  0  0  0  # atno 8010 bound_to 7997
  139.5180  144.6465  151.5425 H   0  0  0  0  0  0  0  0  0  0  0  0  # atno 10167 bound_to 10162
  156.7863  130.9501  151.3120 H   0  0  0  0  0  0  0  0  0  0  0  0  # atno 10718 bound_to 10713
  152.9874  135.5602  154.5574 H   0  0  0  0  0  0  0  0  0  0  0  0  # atno 10763 bound_to 10752
  154.5000  135.2797  155.1430 H   0  0  0  0  0  0  0  0  0  0  0  0  # atno 10764 bound_to 10752
  154.2865  135.6334  153.5421 H   0  0  0  0  0  0  0  0  0  0  0  0  # atno 10765 bound_to 10752
  140.2497  134.3318  155.7895 H   0  0  0  0  0  0  0  0  0  0  0  0  # atno 11005 bound_to 11000
  146.0262  139.3294  143.0783 LP  0  0  0  0  0  0  0  0  0  0  0  0  # atno 17320 bound_to 7965
  145.8508  140.9530  143.0750 LP  0  0  0  0  0  0  0  0  0  0  0  0  # atno 17321 bound_to 7965
  140.6252  143.9183  150.6558 LP  0  0  0  0  0  0  0  0  0  0  0  0  # atno 17342 bound_to 10162
  140.2469  143.3622  152.1439 LP  0  0  0  0  0  0  0  0  0  0  0  0  # atno 17343 bound_to 10162
  157.6622  130.8976  149.9855 LP  0  0  0  0  0  0  0  0  0  0  0  0  # atno 17370 bound_to 10713
  156.1187  130.3647  149.9924 LP  0  0  0  0  0  0  0  0  0  0  0  0  # atno 17371 bound_to 10713
  141.2202  133.7346  156.9017 LP  0  0  0  0  0  0  0  0  0  0  0  0  # atno 17394 bound_to 11000
  140.1570  134.9191  157.2667 LP  0  0  0  0  0  0  0  0  0  0  0  0  # atno 17395 bound_to 11000

$$$$
