#       Name:                AV-unprocessed.smi:908
#       Creating user name   scv26
#       Creation time:       Fri Mar 27 02:01:13 2020


#       File generated by GOLD software.
#

@<TRIPOS>MOLECULE
AV-unprocessed.smi:908
    43    43     1
SMALL
NO_CHARGES


@<TRIPOS>ATOM
      1 ****        -4.7248   4.0850   1.7810 C.3            1 S1                 0.0000
      2 ****        -3.9160   2.8373   1.4110 C.3            1 S1                 0.0000
      3 ****        -3.8780   2.5903  -0.1058 C.3            1 S1                 0.0000
      4 ****        -3.1286   1.3826  -0.4320 N.am           1 S1                 0.0000
      5 ****        -1.7924   1.3047  -0.5225 C.2            1 S1                 0.0000
      6 ****        -1.0467   2.2717  -0.3584 O.2            1 S1                 0.0000
      7 ****        -1.2200  -0.0742  -0.8719 C.3            1 S1                 0.0000
      8 ****         0.1380  -0.2627  -0.3696 N.am           1 S1                 0.0000
      9 ****         0.4573  -0.6279   0.8832 C.2            1 S1                 0.0000
     10 ****        -0.3826  -0.8574   1.7530 O.2            1 S1                 0.0000
     11 ****         1.9488  -0.7318   1.2173 C.3            1 S1                 0.0000
     12 ****         2.6533  -1.6280   0.3111 N.pl3          1 S1                 0.0000
     13 ****         2.6117  -2.9645   0.5475 N.2            1 S1                 0.0000
     14 ****         3.3217  -3.5175  -0.4240 C.2            1 S1                 0.0000
     15 ****         3.4860  -5.0085  -0.4792 C.3            1 S1                 0.0000
     16 ****         3.8280  -2.5213  -1.2986 C.2            1 S1                 0.0000
     17 ****         4.7994  -2.7817  -2.7019 Cl             1 S1                 0.0000
     18 ****         3.3975  -1.3201  -0.8180 C.2            1 S1                 0.0000
     19 ****         3.6112   0.0751  -1.3101 C.3            1 S1                 0.0000
     20 ****        -4.7376   4.2332   2.8610 H              1 S1                 0.0000
     21 ****        -5.7582   3.9989   1.4443 H              1 S1                 0.0000
     22 ****        -4.2970   4.9796   1.3275 H              1 S1                 0.0000
     23 ****        -2.9007   2.9449   1.7950 H              1 S1                 0.0000
     24 ****        -4.3451   1.9692   1.9131 H              1 S1                 0.0000
     25 ****        -4.8923   2.4709  -0.4876 H              1 S1                 0.0000
     26 ****        -3.4504   3.4505  -0.6241 H              1 S1                 0.0000
     27 ****        -3.6650   0.5413  -0.5878 H              1 S1                 0.0000
     28 ****        -1.8737  -0.8625  -0.4937 H              1 S1                 0.0000
     29 ****        -1.2011  -0.1768  -1.9570 H              1 S1                 0.0000
     30 ****         0.8910  -0.0856  -1.0182 H              1 S1                 0.0000
     31 ****         2.4007   0.2594   1.1750 H              1 S1                 0.0000
     32 ****         2.0762  -1.0919   2.2395 H              1 S1                 0.0000
     33 ****         4.3428  -5.2894  -1.0914 H              1 S1                 0.0000
     34 ****         2.6026  -5.4823  -0.9072 H              1 S1                 0.0000
     35 ****         3.6410  -5.4272   0.5156 H              1 S1                 0.0000
     36 ****         4.2202   0.0844  -2.2139 H              1 S1                 0.0000
     37 ****         4.1218   0.6777  -0.5588 H              1 S1                 0.0000
     38 ****         2.6615   0.5559  -1.5438 H              1 S1                 0.0000
     39 ****        -1.4319   3.1698  -0.1463 LP             1 S1                 0.0000
     40 ****        -0.0563   2.1584  -0.4373 LP             1 S1                 0.0000
     41 ****        -1.3566  -0.7750   1.5418 LP             1 S1                 0.0000
     42 ****        -0.0911  -1.1263   2.6710 LP             1 S1                 0.0000
     43 ****         2.1436  -3.4325   1.2971 LP             1 S1                 0.0000
@<TRIPOS>BOND
    1    1    2 1     
    2    1   20 1     
    3    1   21 1     
    4    1   22 1     
    5    2    3 1     
    6    2   23 1     
    7    2   24 1     
    8    3    4 1     
    9    3   25 1     
   10    3   26 1     
   11    4    5 am    
   12    4   27 1     
   13    5    6 2     
   14    5    7 1     
   15    7    8 1     
   16    7   28 1     
   17    7   29 1     
   18    8    9 am    
   19    8   30 1     
   20    9   10 2     
   21    9   11 1     
   22   11   12 1     
   23   11   31 1     
   24   11   32 1     
   25   12   18 1     
   26   12   13 1     
   27   13   14 2     
   28   14   15 1     
   29   14   16 1     
   30   15   33 1     
   31   15   34 1     
   32   15   35 1     
   33   16   17 1     
   34   16   18 2     
   35   18   19 1     
   36   19   36 1     
   37   19   37 1     
   38   19   38 1     
   39    6   39 1     
   40    6   40 1     
   41   10   41 1     
   42   10   42 1     
   43   13   43 1     
@<TRIPOS>SUBSTRUCTURE
      1 S1             1
@<TRIPOS>SET
LONE_PAIRS      STATIC     ATOMS    <user>   **** ""
5 39 40 41 42 43
DONOR_HYDROGENS      STATIC     ATOMS    <user>   **** ""
2 27 30
ATOM$BLUE        STATIC     ATOMS    COLORGROUP SYSTEM
5 39 40 41 42 43
ATOM$RED        STATIC     ATOMS    COLORGROUP SYSTEM
2 27 30
