AV-unprocessed.smi:1027|AV-procd|sdf|4470|dock7
  -GOLD-   22720 2443D 1   1.00000     0.00000
 Structure written by MMmdl.
 35 36  0  0  0  0  0  0  0  0  1 V2000
  147.2515  132.8163  152.9087 C   0  0  0  0  0  0  0  0  0  0  0  0
  148.5696  132.4237  153.6050 C   0  0  0  0  0  0  0  0  0  0  0  0
  148.5201  130.9339  153.9894 C   0  0  0  0  0  0  0  0  0  0  0  0
  148.8898  133.3359  154.8190 C   0  0  1  0  0  0  0  0  0  0  0  0
  150.0994  132.8524  155.6417 C   0  0  0  0  0  0  0  0  0  0  0  0
  149.1419  134.7054  154.3706 N   0  0  0  0  0  0  0  0  0  0  0  0
  149.6681  135.6865  155.1187 C   0  0  0  0  0  0  0  0  0  0  0  0
  150.0237  135.5342  156.2875 O   0  0  0  0  0  0  0  0  0  0  0  0
  149.7502  136.8353  154.4247 N   0  0  0  0  0  0  0  0  0  0  0  0
  150.2425  138.0934  154.8617 C   0  0  0  0  0  0  0  0  0  0  0  0
  150.4200  139.1461  154.0517 N   0  0  0  0  0  0  0  0  0  0  0  0
  150.9097  140.2494  154.7360 N   0  0  0  0  0  0  0  0  0  0  0  0
  151.0898  140.0006  156.0386 C   0  0  0  0  0  0  0  0  0  0  0  0
  151.6096  141.0342  156.9812 C   0  0  0  0  0  0  0  0  0  0  0  0
  150.8328  141.4065  158.2231 C   0  0  0  0  0  0  0  0  0  0  0  0
  150.9653  142.3985  157.0962 C   0  0  0  0  0  0  0  0  0  0  0  0
  150.6662  138.3675  156.5426 S   0  0  0  0  0  0  0  0  0  0  0  0
  146.4101  132.7679  153.6005 H   0  0  0  0  0  0  0  0  0  0  0  0
  147.0331  132.1474  152.0758 H   0  0  0  0  0  0  0  0  0  0  0  0
  147.2899  133.8264  152.5009 H   0  0  0  0  0  0  0  0  0  0  0  0
  149.3690  132.5434  152.8722 H   0  0  0  0  0  0  0  0  0  0  0  0
  147.7823  130.7507  154.7712 H   0  0  0  0  0  0  0  0  0  0  0  0
  149.4842  130.5734  154.3462 H   0  0  0  0  0  0  0  0  0  0  0  0
  148.2520  130.3164  153.1316 H   0  0  0  0  0  0  0  0  0  0  0  0
  148.0146  133.3381  155.4716 H   0  0  0  0  0  0  0  0  0  0  0  0
  149.9134  131.8833  156.1032 H   0  0  0  0  0  0  0  0  0  0  0  0
  150.3281  133.5461  156.4515 H   0  0  0  0  0  0  0  0  0  0  0  0
  150.9915  132.7634  155.0210 H   0  0  0  0  0  0  0  0  0  0  0  0
  148.8826  134.9227  153.4195 H   0  0  0  0  0  0  0  0  0  0  0  0
  149.4215  136.8074  153.4709 H   0  0  0  0  0  0  0  0  0  0  0  0
  152.6938  140.9753  157.0556 H   0  0  0  0  0  0  0  0  0  0  0  0
  149.8597  140.9415  158.3697 H   0  0  0  0  0  0  0  0  0  0  0  0
  151.4006  141.5970  159.1314 H   0  0  0  0  0  0  0  0  0  0  0  0
  151.6220  143.2519  157.2531 H   0  0  0  0  0  0  0  0  0  0  0  0
  150.0738  142.5997  156.5059 H   0  0  0  0  0  0  0  0  0  0  0  0
  1  2  1  0  0  0  0
  1 18  1  0  0  0  0
  1 19  1  0  0  0  0
  1 20  1  0  0  0  0
  2  3  1  0  0  0  0
  2  4  1  0  0  0  0
  2 21  1  0  0  0  0
  3 22  1  0  0  0  0
  3 23  1  0  0  0  0
  3 24  1  0  0  0  0
  4  5  1  0  0  0  0
  4  6  1  0  0  0  0
  4 25  1  0  0  0  0
  5 26  1  0  0  0  0
  5 27  1  0  0  0  0
  5 28  1  0  0  0  0
  6  7  1  0  0  0  0
  6 29  1  0  0  0  0
  7  8  2  0  0  0  0
  7  9  1  0  0  0  0
  9 10  1  0  0  0  0
  9 30  1  0  0  0  0
 10 17  1  0  0  0  0
 10 11  2  0  0  0  0
 11 12  1  0  0  0  0
 12 13  2  0  0  0  0
 13 14  1  0  0  0  0
 13 17  1  0  0  0  0
 14 16  1  0  0  0  0
 14 15  1  0  0  0  0
 14 31  1  0  0  0  0
 15 16  1  0  0  0  0
 15 32  1  0  0  0  0
 15 33  1  0  0  0  0
 16 34  1  0  0  0  0
 16 35  1  0  0  0  0
M  END
> <s_m_source_file>
AV-unprocessed.smi

> <i_m_source_file_index>
1027

> <i_lp_mmshare_version>
43012

> <i_f3d_flags>
0

> <s_epik_input>
W0NIM11bQ0hdKFtDSDNdKVtDQEhdKFtDSDNdKVtOSF1DKD1PKVtOSF1jMW5uYyhzMSlbQ0hdMltDSDJdW0NIMl0y

> <s_epik_cmdline>
J2VwaWtfcHl0aG9uJywgJy1waCcsICc3LjAnLCAnLXRuJywgJzgnLCAnLW1hJywgJzIwMCcsICctbWV0YWxfYmluZGluZycsICctaW1hZScsICc8aW5maWxlLm1hZT4nLCAnLW9tYWUnLCAnPG91dGZpbGUubWFlPic=

> <r_lp_tautomer_probability>
1

> <r_epik_Ionization_Penalty>
0.000943246

> <r_epik_Ionization_Penalty_Charging>
0

> <r_epik_Ionization_Penalty_Neutral>
0.000943246

> <r_epik_State_Penalty>
-0

> <r_epik_Charging_Adjusted_Penalty>
0

> <i_epik_Tot_Q>
0

> <i_epik_Tot_abs_Q>
0

> <r_epik_Metal_State_Penalty>
0.281646

> <b_epik_Metal_Only>
0

> <s_lp_Force_Field>
OPLS_2005

> <r_lp_Energy>
3.72906

> <b_lp_Chiralities_Consistent>
1

> <s_lp_Variant>
AV-unprocessed.smi:1027-2

> <Gold.Version>
5.8.1

> <Gold.Id.Protein>
6NUR|6NUR_protein|mol2

> <Gold.PLP.Fitness>
36.2713

> <Gold.PLP.PLP>
-28.7582

> <Gold.PLP.part.hbond>
-3.8514

> <Gold.PLP.part.metal>
0.0000

> <Gold.PLP.part.buried>
-5.2148

> <Gold.PLP.part.nonpolar>
-20.9269

> <Gold.PLP.part.repulsive>
0.4051

> <Gold.PLP.ligand.clash>
0.0000

> <Gold.PLP.ligand.torsion>
0.3343

> <Gold.PLP.Chemscore.Hbond>
2.6772

> <Gold.PLP.Chemscore.CHOScore>
0.0000

> <Gold.PLP.Chemscore.Metal>
0.0000

> <Gold.Chemscore.Hbonds>
donor molecule, donor type, donor heavy atom, donor atom, acceptor molecule, acceptor atom, score
      L1  H     6    29       P1  7948  0.98
      L1  H     9    30       P1  7948  1.00
      P1  H  7989  7998       L1    12  0.75

> <Gold.PLP.Chemscore.Internal.Correction>
0.1502

> <Gold.Rescore>
     Score         DG    S(hbond)    S(metal)    S(lipo)     H(rot)  DE(clash)    DE(int)     intcor
     11.68     -14.13       1.74        0.00      54.53       1.39       0.03       2.42       ----

> <Gold.Chemscore.Fitness>
11.6786

> <Gold.Chemscore.DG>
-14.1279

> <Gold.Chemscore.ZeroCoef>
-5.4800

> <Gold.Chemscore.Hbond>
1.7438

> <Gold.Chemscore.Metal>
0.0000

> <Gold.Chemscore.Lipo>
54.5264

> <Gold.Chemscore.Internal_Hbond>
0.0000

> <Gold.Chemscore.DEClash>
0.0295

> <Gold.Chemscore.DEInternal>
2.4197

> <Gold.Chemscore.Rot>
1.3890

> <Gold.Chemscore.Internal.Correction>
   9.000000E+99

> <Gold.Chemscore.Hbonds>
donor molecule, donor type, donor heavy atom, donor atom, acceptor molecule, acceptor atom, score
      L1  H     6    29       P1  7948  0.36
      L1  H     9    30       P1  7948  0.88
      P1  H  7989  7998       L1    12  0.09

> <Gold.Chemscore.Hbond.Weighted>
-5.8241

> <Gold.Chemscore.Metal.Weighted>
-0.0000

> <Gold.Chemscore.Lipo.Weighted>
-6.3796

> <Gold.Chemscore.Internal_Hbond.Weighted>
0.0000

> <Gold.Chemscore.DEClash.Weighted>
0.0295

> <Gold.Chemscore.DEInternal.Weighted>
2.4197

> <Gold.Chemscore.Rot.Weighted>
3.5559

> <Gold.Chemscore.Internal.Correction.Weighted>
   9.000000E+99

> <Gold.Protein.RotatedTorsions>
[ 6907 6896 6895 6894 ] final  -71.77 input  -60.11 | X-H torsion
[ 7974 7965 7964 7962 ] final    1.55 input  175.53 | X-H torsion
[ 8008 7997 7996 7995 ] final  -59.47 input   59.86 | X-H torsion
[ 10167 10162 10161 10158 ] final -145.30 input  -65.29 | X-H torsion
[ 10718 10713 10712 10709 ] final  -98.42 input   66.30 | X-H torsion
[ 10763 10752 10751 10750 ] final  109.19 input  -60.55 | X-H torsion
[ 11005 11000 10999 10996 ] final   39.19 input  -57.11 | X-H torsion

> <Gold.Protein.ActiveResidues>
 VAL166  LYS551  ARG553  GLY616  TRP617  ASP618  TYR619  PRO620  LYS621  CYS622 
 ASP623  PHE694  ASN695  SER759  ASP760  ASP761  ALA762  ILE779  LEU786  VAL792 
 PHE793  MET794  SER795  GLU796  ALA797  LYS798  CYS799  TRP800  GLU811  SER814 

> <Gold.Protein.RotatedAtoms>
  150.7198  134.5260  159.5676 H   0  0  0  0  0  0  0  0  0  0  0  0  # atno 6907 bound_to 6896
  152.2804  134.7831  160.0406 H   0  0  0  0  0  0  0  0  0  0  0  0  # atno 6908 bound_to 6896
  151.8480  133.3399  159.3701 H   0  0  0  0  0  0  0  0  0  0  0  0  # atno 6909 bound_to 6896
  146.2441  140.0970  142.8349 H   0  0  0  0  0  0  0  0  0  0  0  0  # atno 7974 bound_to 7965
  154.4354  140.1061  156.6121 H   0  0  0  0  0  0  0  0  0  0  0  0  # atno 8008 bound_to 7997
  155.5799  140.3490  155.4518 H   0  0  0  0  0  0  0  0  0  0  0  0  # atno 8009 bound_to 7997
  156.0327  140.1264  157.0230 H   0  0  0  0  0  0  0  0  0  0  0  0  # atno 8010 bound_to 7997
  139.7818  143.8090  152.2639 H   0  0  0  0  0  0  0  0  0  0  0  0  # atno 10167 bound_to 10162
  156.0107  130.5237  150.6520 H   0  0  0  0  0  0  0  0  0  0  0  0  # atno 10718 bound_to 10713
  153.4312  135.3788  155.2171 H   0  0  0  0  0  0  0  0  0  0  0  0  # atno 10763 bound_to 10752
  154.8750  135.3840  154.4265 H   0  0  0  0  0  0  0  0  0  0  0  0  # atno 10764 bound_to 10752
  153.4798  135.7088  153.6007 H   0  0  0  0  0  0  0  0  0  0  0  0  # atno 10765 bound_to 10752
  140.2053  134.3821  155.8076 H   0  0  0  0  0  0  0  0  0  0  0  0  # atno 11005 bound_to 11000
  145.0601  140.9081  143.4943 LP  0  0  0  0  0  0  0  0  0  0  0  0  # atno 17320 bound_to 7965
  145.1084  139.2774  143.5650 LP  0  0  0  0  0  0  0  0  0  0  0  0  # atno 17321 bound_to 7965
  139.8155  144.7318  150.9641 LP  0  0  0  0  0  0  0  0  0  0  0  0  # atno 17342 bound_to 10162
  140.7818  143.4209  151.0843 LP  0  0  0  0  0  0  0  0  0  0  0  0  # atno 17343 bound_to 10162
  157.4279  131.0845  151.1067 LP  0  0  0  0  0  0  0  0  0  0  0  0  # atno 17370 bound_to 10713
  157.1649  130.6242  149.5622 LP  0  0  0  0  0  0  0  0  0  0  0  0  # atno 17371 bound_to 10713
  141.2227  133.7114  156.8326 LP  0  0  0  0  0  0  0  0  0  0  0  0  # atno 17394 bound_to 11000
  140.2010  134.8897  157.3169 LP  0  0  0  0  0  0  0  0  0  0  0  0  # atno 17395 bound_to 11000

$$$$
