AV-unprocessed.smi:3202|AV-procd|sdf|12248|dock6
  -GOLD-   2272018 83D 1   1.00000     0.00000
 Structure written by MMmdl.
 43 44  0  0  0  0  0  0  0  0  2 V2000
  146.5717  137.9204  152.8108 C   0  0  0  0  0  0  0  0  0  0  0  0
  147.6720  138.6363  153.5372 C   0  0  0  0  0  0  0  0  0  0  0  0
  147.8017  140.0351  153.7802 C   0  0  0  0  0  0  0  0  0  0  0  0
  148.9770  140.1512  154.4679 C   0  0  0  0  0  0  0  0  0  0  0  0
  149.6894  141.3499  155.0057 C   0  0  0  0  0  0  0  0  0  0  0  0
  149.9047  141.3234  156.5314 C   0  0  1  0  0  0  0  0  0  0  0  0
  150.7747  140.1416  156.9896 C   0  0  0  0  0  0  0  0  0  0  0  0
  150.5263  142.5930  156.9694 N   0  3  0  0  0  0  0  0  0  0  0  0
  150.8876  142.6665  158.4031 C   0  0  1  0  0  0  0  0  0  0  0  0
  152.2785  142.0902  158.7054 C   0  0  0  0  0  0  0  0  0  0  0  0
  152.7592  142.8145  159.9693 C   0  0  0  0  0  0  0  0  0  0  0  0
  151.7284  143.9166  160.2542 C   0  0  0  0  0  0  0  0  0  0  0  0
  150.9227  144.1074  158.9563 C   0  0  0  0  0  0  0  0  0  0  0  0
  151.6616  145.0927  158.0206 C   0  0  0  0  0  0  0  0  0  0  0  0
  149.5084  144.6406  159.2522 C   0  0  0  0  0  0  0  0  0  0  0  0
  149.4710  138.8736  154.6021 N   0  0  0  0  0  0  0  0  0  0  0  0
  148.6826  137.9410  154.0369 N   0  0  0  0  0  0  0  0  0  0  0  0
  150.3312  138.6243  155.0696 H   0  0  0  0  0  0  0  0  0  0  0  0
  145.7614  138.6022  152.5517 H   0  0  0  0  0  0  0  0  0  0  0  0
  146.1496  137.1216  153.4214 H   0  0  0  0  0  0  0  0  0  0  0  0
  146.9383  137.4761  151.8852 H   0  0  0  0  0  0  0  0  0  0  0  0
  147.1340  140.8319  153.4872 H   0  0  0  0  0  0  0  0  0  0  0  0
  149.1278  142.2453  154.7356 H   0  0  0  0  0  0  0  0  0  0  0  0
  150.6538  141.4423  154.5047 H   0  0  0  0  0  0  0  0  0  0  0  0
  148.9291  141.2148  157.0077 H   0  0  0  0  0  0  0  0  0  0  0  0
  150.3138  139.1850  156.7419 H   0  0  0  0  0  0  0  0  0  0  0  0
  150.9184  140.1584  158.0706 H   0  0  0  0  0  0  0  0  0  0  0  0
  151.7596  140.1679  156.5222 H   0  0  0  0  0  0  0  0  0  0  0  0
  151.3629  142.7482  156.4253 H   0  0  0  0  0  0  0  0  0  0  0  0
  150.1491  142.0992  158.9736 H   0  0  0  0  0  0  0  0  0  0  0  0
  152.2527  141.0083  158.8400 H   0  0  0  0  0  0  0  0  0  0  0  0
  152.9668  142.2978  157.8846 H   0  0  0  0  0  0  0  0  0  0  0  0
  152.8412  142.1323  160.8159 H   0  0  0  0  0  0  0  0  0  0  0  0
  153.7475  143.2444  159.8013 H   0  0  0  0  0  0  0  0  0  0  0  0
  151.0691  143.5750  161.0538 H   0  0  0  0  0  0  0  0  0  0  0  0
  152.1951  144.8383  160.6041 H   0  0  0  0  0  0  0  0  0  0  0  0
  151.7702  146.0709  158.4906 H   0  0  0  0  0  0  0  0  0  0  0  0
  151.1187  145.2465  157.0876 H   0  0  0  0  0  0  0  0  0  0  0  0
  152.6628  144.7450  157.7654 H   0  0  0  0  0  0  0  0  0  0  0  0
  149.5486  145.6255  159.7188 H   0  0  0  0  0  0  0  0  0  0  0  0
  148.9619  143.9815  159.9278 H   0  0  0  0  0  0  0  0  0  0  0  0
  148.9207  144.7325  158.3384 H   0  0  0  0  0  0  0  0  0  0  0  0
  149.8765  143.3402  156.7701 H   0  0  0  0  0  0  0  0  0  0  0  0
  1 19  1  0  0  0  0
  1 20  1  0  0  0  0
  1 21  1  0  0  0  0
  1  2  1  0  0  0  0
  2 17  2  0  0  0  0
  2  3  1  0  0  0  0
  3  4  2  0  0  0  0
  3 22  1  0  0  0  0
  4 16  1  0  0  0  0
  4  5  1  0  0  0  0
  5  6  1  0  0  0  0
  5 23  1  0  0  0  0
  5 24  1  0  0  0  0
  6  7  1  0  0  0  0
  6  8  1  0  0  0  0
  6 25  1  0  0  0  0
  7 26  1  0  0  0  0
  7 27  1  0  0  0  0
  7 28  1  0  0  0  0
  8  9  1  0  0  0  0
  8 29  1  0  0  0  0
  8 43  1  0  0  0  0
  9 13  1  0  0  0  0
  9 10  1  0  0  0  0
  9 30  1  0  0  0  0
 10 11  1  0  0  0  0
 10 31  1  0  0  0  0
 10 32  1  0  0  0  0
 11 12  1  0  0  0  0
 11 33  1  0  0  0  0
 11 34  1  0  0  0  0
 12 13  1  0  0  0  0
 12 35  1  0  0  0  0
 12 36  1  0  0  0  0
 13 14  1  0  0  0  0
 13 15  1  0  0  0  0
 14 37  1  0  0  0  0
 14 38  1  0  0  0  0
 14 39  1  0  0  0  0
 15 40  1  0  0  0  0
 15 41  1  0  0  0  0
 15 42  1  0  0  0  0
 16 17  1  0  0  0  0
 16 18  1  0  0  0  0
M  CHG  1   8   1
M  END
> <s_m_source_file>
AV-unprocessed.smi

> <i_m_source_file_index>
3202

> <i_lp_mmshare_version>
43012

> <i_f3d_flags>
0

> <s_epik_input>
W0NIM11jMVtjSF1jKG5bbkhdMSlbQ0gyXVtDQEhdKFtDSDNdKVtOSF1bQ0BASF0oQzIoW0NIM10pW0NIM10pW0NIMl1bQ0gyXVtDSDJdMg==

> <s_epik_cmdline>
J2VwaWtfcHl0aG9uJywgJy1waCcsICc3LjAnLCAnLXRuJywgJzgnLCAnLW1hJywgJzIwMCcsICctbWV0YWxfYmluZGluZycsICctaW1hZScsICc8aW5maWxlLm1hZT4nLCAnLW9tYWUnLCAnPG91dGZpbGUubWFlPic=

> <r_lp_tautomer_probability>
0.5

> <r_epik_Ionization_Penalty>
0.000449684

> <r_epik_Ionization_Penalty_Charging>
0.000404963

> <r_epik_Ionization_Penalty_Neutral>
4.47208e-05

> <r_epik_State_Penalty>
0.41068

> <r_epik_Charging_Adjusted_Penalty>
0.411085

> <i_epik_Tot_Q>
1

> <i_epik_Tot_abs_Q>
1

> <r_epik_Metal_State_Penalty>
0.410687

> <b_epik_Metal_Only>
0

> <s_lp_Force_Field>
OPLS_2005

> <r_lp_Energy>
32.3918

> <b_lp_Chiralities_Consistent>
1

> <s_lp_Variant>
AV-unprocessed.smi:3202-8

> <Gold.Version>
5.8.1

> <Gold.Id.Protein>
6NUR|6NUR_protein|mol2

> <Gold.PLP.Fitness>
40.0538

> <Gold.PLP.PLP>
-34.8474

> <Gold.PLP.part.hbond>
-1.0000

> <Gold.PLP.part.metal>
0.0000

> <Gold.PLP.part.buried>
-1.6799

> <Gold.PLP.part.nonpolar>
-31.9825

> <Gold.PLP.part.repulsive>
0.2979

> <Gold.PLP.ligand.clash>
0.0000

> <Gold.PLP.ligand.torsion>
0.3293

> <Gold.PLP.Chemscore.Hbond>
1.9500

> <Gold.PLP.Chemscore.CHOScore>
0.0000

> <Gold.PLP.Chemscore.Metal>
0.0000

> <Gold.Chemscore.Hbonds>
donor molecule, donor type, donor heavy atom, donor atom, acceptor molecule, acceptor atom, score
      L1  H     8    43       P1  8028  2.00

> <Gold.PLP.Chemscore.Internal.Correction>
0.0151

> <Gold.Rescore>
     Score         DG    S(hbond)    S(metal)    S(lipo)     H(rot)  DE(clash)    DE(int)     intcor
     16.42     -17.56       0.59        0.00     118.41       1.46       0.61       0.53       ----

> <Gold.Chemscore.Fitness>
16.4205

> <Gold.Chemscore.DG>
-17.5595

> <Gold.Chemscore.ZeroCoef>
-5.4800

> <Gold.Chemscore.Hbond>
0.5876

> <Gold.Chemscore.Metal>
0.0000

> <Gold.Chemscore.Lipo>
118.4052

> <Gold.Chemscore.Internal_Hbond>
0.0000

> <Gold.Chemscore.DEClash>
0.6096

> <Gold.Chemscore.DEInternal>
0.5294

> <Gold.Chemscore.Rot>
1.4596

> <Gold.Chemscore.Internal.Correction>
   9.000000E+99

> <Gold.Chemscore.Hbonds>
donor molecule, donor type, donor heavy atom, donor atom, acceptor molecule, acceptor atom, score
      L1  H     8    43       P1  8028  0.93

> <Gold.Chemscore.Hbond.Weighted>
-1.9626

> <Gold.Chemscore.Metal.Weighted>
-0.0000

> <Gold.Chemscore.Lipo.Weighted>
-13.8534

> <Gold.Chemscore.Internal_Hbond.Weighted>
0.0000

> <Gold.Chemscore.DEClash.Weighted>
0.6096

> <Gold.Chemscore.DEInternal.Weighted>
0.5294

> <Gold.Chemscore.Rot.Weighted>
3.7365

> <Gold.Chemscore.Internal.Correction.Weighted>
   9.000000E+99

> <Gold.Protein.RotatedTorsions>
[ 6907 6896 6895 6894 ] final  -98.96 input  -60.11 | X-H torsion
[ 7974 7965 7964 7962 ] final  100.40 input  175.53 | X-H torsion
[ 8008 7997 7996 7995 ] final   84.13 input   59.86 | X-H torsion
[ 10167 10162 10161 10158 ] final -101.71 input  -65.29 | X-H torsion
[ 10718 10713 10712 10709 ] final -115.08 input   66.30 | X-H torsion
[ 10763 10752 10751 10750 ] final   32.42 input  -60.55 | X-H torsion
[ 11005 11000 10999 10996 ] final   91.20 input  -57.11 | X-H torsion

> <Gold.Protein.ActiveResidues>
 VAL166  LYS551  ARG553  GLY616  TRP617  ASP618  TYR619  PRO620  LYS621  CYS622 
 ASP623  PHE694  ASN695  SER759  ASP760  ASP761  ALA762  ILE779  LEU786  VAL792 
 PHE793  MET794  SER795  GLU796  ALA797  LYS798  CYS799  TRP800  GLU811  SER814 

> <Gold.Protein.RotatedAtoms>
  150.7064  134.1114  159.4001 H   0  0  0  0  0  0  0  0  0  0  0  0  # atno 6907 bound_to 6896
  151.9100  135.0340  160.0523 H   0  0  0  0  0  0  0  0  0  0  0  0  # atno 6908 bound_to 6896
  152.2343  133.5048  159.5270 H   0  0  0  0  0  0  0  0  0  0  0  0  # atno 6909 bound_to 6896
  145.3860  139.2371  143.3377 H   0  0  0  0  0  0  0  0  0  0  0  0  # atno 7974 bound_to 7965
  155.9331  140.3413  155.6265 H   0  0  0  0  0  0  0  0  0  0  0  0  # atno 8008 bound_to 7997
  155.7133  140.0774  157.2380 H   0  0  0  0  0  0  0  0  0  0  0  0  # atno 8009 bound_to 7997
  154.4088  140.1619  156.2308 H   0  0  0  0  0  0  0  0  0  0  0  0  # atno 8010 bound_to 7997
  140.2384  143.3557  152.0824 H   0  0  0  0  0  0  0  0  0  0  0  0  # atno 10167 bound_to 10162
  156.0872  130.6061  150.8859 H   0  0  0  0  0  0  0  0  0  0  0  0  # atno 10718 bound_to 10713
  153.0263  135.6413  154.1352 H   0  0  0  0  0  0  0  0  0  0  0  0  # atno 10763 bound_to 10752
  154.1081  135.2855  155.3238 H   0  0  0  0  0  0  0  0  0  0  0  0  # atno 10764 bound_to 10752
  154.6351  135.5479  153.7788 H   0  0  0  0  0  0  0  0  0  0  0  0  # atno 10765 bound_to 10752
  139.8843  134.8659  156.3393 H   0  0  0  0  0  0  0  0  0  0  0  0  # atno 11005 bound_to 11000
  146.2820  140.4536  142.8773 LP  0  0  0  0  0  0  0  0  0  0  0  0  # atno 17320 bound_to 7965
  144.8473  140.6949  143.6190 LP  0  0  0  0  0  0  0  0  0  0  0  0  # atno 17321 bound_to 7965
  139.5086  144.6852  151.5905 LP  0  0  0  0  0  0  0  0  0  0  0  0  # atno 17342 bound_to 10162
  140.6133  143.9396  150.6469 LP  0  0  0  0  0  0  0  0  0  0  0  0  # atno 17343 bound_to 10162
  157.6010  131.0941  150.8961 LP  0  0  0  0  0  0  0  0  0  0  0  0  # atno 17370 bound_to 10713
  156.9118  130.5283  149.5280 LP  0  0  0  0  0  0  0  0  0  0  0  0  # atno 17371 bound_to 10713
  140.9669  133.7352  156.0480 LP  0  0  0  0  0  0  0  0  0  0  0  0  # atno 17394 bound_to 11000
  140.7919  134.3607  157.5462 LP  0  0  0  0  0  0  0  0  0  0  0  0  # atno 17395 bound_to 11000

$$$$
