AV-unprocessed.smi:3274|AV-procd|sdf|12529|dock1
  -GOLD-   2272018443D 1   1.00000     0.00000
 Structure written by MMmdl.
 43 44  0  0  0  0  0  0  0  0  2 V2000
  152.4751  138.2857  154.6302 C   0  0  0  0  0  0  0  0  0  0  0  0
  151.3981  139.2761  155.0422 C   0  0  0  0  0  0  0  0  0  0  0  0
  151.6616  140.2473  155.9387 C   0  0  0  0  0  0  0  0  0  0  0  0
  150.6726  141.3128  156.3789 C   0  0  0  0  0  0  0  0  0  0  0  0
  149.2520  141.0794  155.8387 C   0  0  0  0  0  0  0  0  0  0  0  0
  149.2800  140.5111  154.4095 C   0  0  2  0  0  0  0  0  0  0  0  0
  147.8831  140.4947  153.7650 C   0  0  0  0  0  0  0  0  0  0  0  0
  150.0258  139.1473  154.3672 C   0  0  2  0  0  0  0  0  0  0  0  0
  149.1954  137.9811  154.9638 C   0  0  0  0  0  0  0  0  0  0  0  0
  149.5839  136.6659  154.4122 N   0  3  0  0  0  0  0  0  0  0  0  0
  148.9282  135.4961  155.0364 C   0  0  1  0  0  0  0  0  0  0  0  0
  147.4071  135.6008  154.8339 C   0  0  0  0  0  0  0  0  0  0  0  0
  149.5153  134.1802  154.4762 C   0  0  0  0  0  0  0  0  0  0  0  0
  148.5196  133.1351  154.3227 N   0  0  0  0  0  0  0  0  0  0  0  0
  148.2149  132.3749  153.2697 C   0  0  0  0  0  0  0  0  0  0  0  0
  147.2333  131.5138  153.4977 N   0  0  0  0  0  0  0  0  0  0  0  0
  146.9559  131.8225  154.7996 C   0  0  0  0  0  0  0  0  0  0  0  0
  147.6989  132.7880  155.3415 N   0  0  0  0  0  0  0  0  0  0  0  0
  152.5269  138.2053  153.5443 H   0  0  0  0  0  0  0  0  0  0  0  0
  152.2895  137.2971  155.0465 H   0  0  0  0  0  0  0  0  0  0  0  0
  153.4558  138.6048  154.9848 H   0  0  0  0  0  0  0  0  0  0  0  0
  152.6477  140.3185  156.3747 H   0  0  0  0  0  0  0  0  0  0  0  0
  150.6564  141.3669  157.4678 H   0  0  0  0  0  0  0  0  0  0  0  0
  151.0474  142.2726  156.0219 H   0  0  0  0  0  0  0  0  0  0  0  0
  148.7168  140.3950  156.4972 H   0  0  0  0  0  0  0  0  0  0  0  0
  148.6972  142.0180  155.8669 H   0  0  0  0  0  0  0  0  0  0  0  0
  149.8697  141.2051  153.8076 H   0  0  0  0  0  0  0  0  0  0  0  0
  147.1595  139.9472  154.3687 H   0  0  0  0  0  0  0  0  0  0  0  0
  147.9108  140.0431  152.7732 H   0  0  0  0  0  0  0  0  0  0  0  0
  147.5005  141.5094  153.6513 H   0  0  0  0  0  0  0  0  0  0  0  0
  150.2046  138.9260  153.3137 H   0  0  0  0  0  0  0  0  0  0  0  0
  149.3000  137.9749  156.0482 H   0  0  0  0  0  0  0  0  0  0  0  0
  148.1350  138.1070  154.7501 H   0  0  0  0  0  0  0  0  0  0  0  0
  149.3452  136.6715  153.4308 H   0  0  0  0  0  0  0  0  0  0  0  0
  149.1138  135.5379  156.1110 H   0  0  0  0  0  0  0  0  0  0  0  0
  146.8750  134.8152  155.3711 H   0  0  0  0  0  0  0  0  0  0  0  0
  147.1407  135.5219  153.7794 H   0  0  0  0  0  0  0  0  0  0  0  0
  147.0269  136.5541  155.2028 H   0  0  0  0  0  0  0  0  0  0  0  0
  149.9830  134.3614  153.5068 H   0  0  0  0  0  0  0  0  0  0  0  0
  150.2988  133.7938  155.1279 H   0  0  0  0  0  0  0  0  0  0  0  0
  148.7221  132.4506  152.3190 H   0  0  0  0  0  0  0  0  0  0  0  0
  146.1843  131.3209  155.3649 H   0  0  0  0  0  0  0  0  0  0  0  0
  150.5844  136.5550  154.4953 H   0  0  0  0  0  0  0  0  0  0  0  0
  1  2  1  0  0  0  0
  1 19  1  0  0  0  0
  1 20  1  0  0  0  0
  1 21  1  0  0  0  0
  2  8  1  0  0  0  0
  2  3  2  0  0  0  0
  3  4  1  0  0  0  0
  3 22  1  0  0  0  0
  4  5  1  0  0  0  0
  4 23  1  0  0  0  0
  4 24  1  0  0  0  0
  5  6  1  0  0  0  0
  5 25  1  0  0  0  0
  5 26  1  0  0  0  0
  6  7  1  0  0  0  0
  6  8  1  0  0  0  0
  6 27  1  0  0  0  0
  7 28  1  0  0  0  0
  7 29  1  0  0  0  0
  7 30  1  0  0  0  0
  8  9  1  0  0  0  0
  8 31  1  0  0  0  0
  9 10  1  0  0  0  0
  9 32  1  0  0  0  0
  9 33  1  0  0  0  0
 10 11  1  0  0  0  0
 10 34  1  0  0  0  0
 10 43  1  0  0  0  0
 11 12  1  0  0  0  0
 11 13  1  0  0  0  0
 11 35  1  0  0  0  0
 12 36  1  0  0  0  0
 12 37  1  0  0  0  0
 12 38  1  0  0  0  0
 13 14  1  0  0  0  0
 13 39  1  0  0  0  0
 13 40  1  0  0  0  0
 14 18  1  0  0  0  0
 14 15  1  0  0  0  0
 15 16  2  0  0  0  0
 15 41  1  0  0  0  0
 16 17  1  0  0  0  0
 17 18  2  0  0  0  0
 17 42  1  0  0  0  0
M  CHG  1  10   1
M  END
> <s_m_source_file>
AV-unprocessed.smi

> <i_m_source_file_index>
3274

> <i_lp_mmshare_version>
43012

> <i_f3d_flags>
0

> <s_epik_input>
W0NIM11DMT1bQ0hdW0NIMl1bQ0gyXVtDQEBIXShbQ0gzXSlbQ0BIXTFbQ0gyXVtOSF1bQ0BIXShbQ0gzXSlbQ0gyXW4yW2NIXW5bY0hdbjI=

> <s_epik_cmdline>
J2VwaWtfcHl0aG9uJywgJy1waCcsICc3LjAnLCAnLXRuJywgJzgnLCAnLW1hJywgJzIwMCcsICctbWV0YWxfYmluZGluZycsICctaW1hZScsICc8aW5maWxlLm1hZT4nLCAnLW9tYWUnLCAnPG91dGZpbGUubWFlPic=

> <r_lp_tautomer_probability>
1

> <r_epik_Ionization_Penalty>
0.0017527

> <r_epik_Ionization_Penalty_Charging>
0.00175191

> <r_epik_Ionization_Penalty_Neutral>
7.94565e-07

> <r_epik_State_Penalty>
0.00118605

> <r_epik_Charging_Adjusted_Penalty>
0.00293796

> <i_epik_Tot_Q>
1

> <i_epik_Tot_abs_Q>
1

> <r_epik_Metal_State_Penalty>
-0

> <b_epik_Metal_Only>
0

> <s_lp_Force_Field>
OPLS_2005

> <r_lp_Energy>
19.123

> <b_lp_Chiralities_Consistent>
1

> <s_lp_Variant>
AV-unprocessed.smi:3274-8

> <Gold.Version>
5.8.1

> <Gold.Id.Protein>
6NUR|6NUR_protein|mol2

> <Gold.PLP.Fitness>
40.7830

> <Gold.PLP.PLP>
-33.2879

> <Gold.PLP.part.hbond>
-1.0615

> <Gold.PLP.part.metal>
0.0000

> <Gold.PLP.part.buried>
-1.5017

> <Gold.PLP.part.nonpolar>
-30.9963

> <Gold.PLP.part.repulsive>
0.1132

> <Gold.PLP.ligand.clash>
0.0000

> <Gold.PLP.ligand.torsion>
0.8502

> <Gold.PLP.Chemscore.Hbond>
2.0000

> <Gold.PLP.Chemscore.CHOScore>
0.9979

> <Gold.PLP.Chemscore.Metal>
0.0000

> <Gold.Chemscore.Hbonds>
donor molecule, donor type, donor heavy atom, donor atom, acceptor molecule, acceptor atom, score
      L1  H    10    34       P1  7948  2.00
      L1  C    15    41       P1 10747  0.87

> <Gold.PLP.Chemscore.Internal.Correction>
0.2017

> <Gold.Rescore>
     Score         DG    S(hbond)    S(metal)    S(lipo)     H(rot)  DE(clash)    DE(int)     intcor
     11.03     -11.42       0.96        0.00      74.92       2.36       0.01       0.38       ----

> <Gold.Chemscore.Fitness>
11.0312

> <Gold.Chemscore.DG>
-11.4233

> <Gold.Chemscore.ZeroCoef>
-5.4800

> <Gold.Chemscore.Hbond>
0.9649

> <Gold.Chemscore.Metal>
0.0000

> <Gold.Chemscore.Lipo>
74.9241

> <Gold.Chemscore.Internal_Hbond>
0.0000

> <Gold.Chemscore.DEClash>
0.0077

> <Gold.Chemscore.DEInternal>
0.3844

> <Gold.Chemscore.Rot>
2.3615

> <Gold.Chemscore.Internal.Correction>
   9.000000E+99

> <Gold.Chemscore.Hbonds>
donor molecule, donor type, donor heavy atom, donor atom, acceptor molecule, acceptor atom, score
      L1  H    10    34       P1  7948  0.90

> <Gold.Chemscore.Hbond.Weighted>
-3.2226

> <Gold.Chemscore.Metal.Weighted>
-0.0000

> <Gold.Chemscore.Lipo.Weighted>
-8.7661

> <Gold.Chemscore.Internal_Hbond.Weighted>
0.0000

> <Gold.Chemscore.DEClash.Weighted>
0.0077

> <Gold.Chemscore.DEInternal.Weighted>
0.3844

> <Gold.Chemscore.Rot.Weighted>
6.0454

> <Gold.Chemscore.Internal.Correction.Weighted>
   9.000000E+99

> <Gold.Protein.RotatedTorsions>
[ 6907 6896 6895 6894 ] final   46.06 input  -60.11 | X-H torsion
[ 7974 7965 7964 7962 ] final   48.05 input  175.53 | X-H torsion
[ 8008 7997 7996 7995 ] final  164.86 input   59.86 | X-H torsion
[ 10167 10162 10161 10158 ] final  -32.96 input  -65.29 | X-H torsion
[ 10718 10713 10712 10709 ] final  -48.71 input   66.30 | X-H torsion
[ 10763 10752 10751 10750 ] final  -41.93 input  -60.55 | X-H torsion
[ 11005 11000 10999 10996 ] final   41.04 input  -57.11 | X-H torsion

> <Gold.Protein.ActiveResidues>
 VAL166  LYS551  ARG553  GLY616  TRP617  ASP618  TYR619  PRO620  LYS621  CYS622 
 ASP623  PHE694  ASN695  SER759  ASP760  ASP761  ALA762  ILE779  LEU786  VAL792 
 PHE793  MET794  SER795  GLU796  ALA797  LYS798  CYS799  TRP800  GLU811  SER814 

> <Gold.Protein.RotatedAtoms>
  152.2520  134.8123  160.0444 H   0  0  0  0  0  0  0  0  0  0  0  0  # atno 6907 bound_to 6896
  151.8800  133.3488  159.3771 H   0  0  0  0  0  0  0  0  0  0  0  0  # atno 6908 bound_to 6896
  150.7087  134.4954  159.5580 H   0  0  0  0  0  0  0  0  0  0  0  0  # atno 6909 bound_to 6896
  146.0241  139.4685  142.9879 H   0  0  0  0  0  0  0  0  0  0  0  0  # atno 7974 bound_to 7965
  156.1846  140.1685  156.8209 H   0  0  0  0  0  0  0  0  0  0  0  0  # atno 8008 bound_to 7997
  154.5399  140.0739  156.8525 H   0  0  0  0  0  0  0  0  0  0  0  0  # atno 8009 bound_to 7997
  155.3235  140.3375  155.4243 H   0  0  0  0  0  0  0  0  0  0  0  0  # atno 8010 bound_to 7997
  140.7212  143.3656  151.1878 H   0  0  0  0  0  0  0  0  0  0  0  0  # atno 10167 bound_to 10162
  156.1962  130.4154  149.9303 H   0  0  0  0  0  0  0  0  0  0  0  0  # atno 10718 bound_to 10713
  153.9707  135.6729  153.4747 H   0  0  0  0  0  0  0  0  0  0  0  0  # atno 10763 bound_to 10752
  153.0794  135.4931  154.8469 H   0  0  0  0  0  0  0  0  0  0  0  0  # atno 10764 bound_to 10752
  154.7221  135.3119  154.8992 H   0  0  0  0  0  0  0  0  0  0  0  0  # atno 10765 bound_to 10752
  140.1872  134.4031  155.8166 H   0  0  0  0  0  0  0  0  0  0  0  0  # atno 11005 bound_to 11000
  145.7147  141.0095  143.1435 LP  0  0  0  0  0  0  0  0  0  0  0  0  # atno 17320 bound_to 7965
  144.7002  139.8798  143.7446 LP  0  0  0  0  0  0  0  0  0  0  0  0  # atno 17321 bound_to 7965
  139.7217  143.9213  152.2987 LP  0  0  0  0  0  0  0  0  0  0  0  0  # atno 17342 bound_to 10162
  139.8972  144.6932  150.8705 LP  0  0  0  0  0  0  0  0  0  0  0  0  # atno 17343 bound_to 10162
  156.7027  130.8939  151.3601 LP  0  0  0  0  0  0  0  0  0  0  0  0  # atno 17370 bound_to 10713
  157.6959  130.9281  150.0643 LP  0  0  0  0  0  0  0  0  0  0  0  0  # atno 17371 bound_to 10713
  141.2225  133.7029  156.8033 LP  0  0  0  0  0  0  0  0  0  0  0  0  # atno 17394 bound_to 11000
  140.2200  134.8764  157.3367 LP  0  0  0  0  0  0  0  0  0  0  0  0  # atno 17395 bound_to 11000

$$$$
