AV-unprocessed.smi:69|AV-procd|sdf|656|dock1
  -GOLD-   2262016553D 1   1.00000     0.00000
 Structure written by MMmdl.
 32 34  0  0  0  0  0  0  0  0  1 V2000
  151.2959  143.9710  161.9562 N   0  0  0  0  0  0  0  0  0  0  0  0
  151.2817  143.9560  160.6162 C   0  0  0  0  0  0  0  0  0  0  0  0
  151.2062  145.1377  159.9597 N   0  0  0  0  0  0  0  0  0  0  0  0
  151.1961  145.1493  158.6223 C   0  0  0  0  0  0  0  0  0  0  0  0
  151.2505  144.1165  157.7761 N   0  0  0  0  0  0  0  0  0  0  0  0
  151.3233  142.9272  158.4430 C   0  0  0  0  0  0  0  0  0  0  0  0
  151.3448  142.7618  159.8547 C   0  0  0  0  0  0  0  0  0  0  0  0
  151.4292  141.4123  160.1699 N   0  0  0  0  0  0  0  0  0  0  0  0
  151.4605  140.8182  159.0064 C   0  0  0  0  0  0  0  0  0  0  0  0
  151.3895  141.6572  157.9125 N   0  0  0  0  0  0  0  0  0  0  0  0
  151.4174  141.3251  156.4519 C   0  0  1  0  0  0  0  0  0  0  0  0
  152.1259  140.1330  156.2892 O   0  0  0  0  0  0  0  0  0  0  0  0
  151.2123  139.0425  156.2380 C   0  0  2  0  0  0  0  0  0  0  0  0
  151.8760  137.7804  155.6604 C   0  0  0  0  0  0  0  0  0  0  0  0
  152.5410  138.0934  154.4549 O   0  0  0  0  0  0  0  0  0  0  0  0
  150.0693  139.6349  155.4058 C   0  0  2  0  0  0  0  0  0  0  0  0
  150.3846  139.5871  154.0234 O   0  0  0  0  0  0  0  0  0  0  0  0
  149.9858  141.0638  155.9425 C   0  0  2  0  0  0  0  0  0  0  0  0
  149.5565  141.9931  154.9647 O   0  0  0  0  0  0  0  0  0  0  0  0
  151.9337  142.1635  155.9821 H   0  0  0  0  0  0  0  0  0  0  0  0
  150.8345  138.8392  157.2421 H   0  0  0  0  0  0  0  0  0  0  0  0
  149.1346  139.0943  155.5589 H   0  0  0  0  0  0  0  0  0  0  0  0
  149.2898  141.0909  156.7827 H   0  0  0  0  0  0  0  0  0  0  0  0
  151.3539  143.1018  162.4672 H   0  0  0  0  0  0  0  0  0  0  0  0
  151.2566  144.8499  162.4519 H   0  0  0  0  0  0  0  0  0  0  0  0
  151.1360  146.1259  158.1648 H   0  0  0  0  0  0  0  0  0  0  0  0
  151.5372  139.7438  158.9210 H   0  0  0  0  0  0  0  0  0  0  0  0
  152.6238  137.3981  156.3558 H   0  0  0  0  0  0  0  0  0  0  0  0
  151.1475  136.9862  155.4946 H   0  0  0  0  0  0  0  0  0  0  0  0
  152.3975  139.0072  154.2615 H   0  0  0  0  0  0  0  0  0  0  0  0
  150.7533  138.7376  153.8330 H   0  0  0  0  0  0  0  0  0  0  0  0
  149.2909  142.7862  155.4053 H   0  0  0  0  0  0  0  0  0  0  0  0
  1  2  1  0  0  0  0
  1 24  1  0  0  0  0
  1 25  1  0  0  0  0
  2  7  1  0  0  0  0
  2  3  2  0  0  0  0
  3  4  1  0  0  0  0
  4  5  2  0  0  0  0
  4 26  1  0  0  0  0
  5  6  1  0  0  0  0
  6 10  1  0  0  0  0
  6  7  2  0  0  0  0
  7  8  1  0  0  0  0
  8  9  2  0  0  0  0
  9 10  1  0  0  0  0
  9 27  1  0  0  0  0
 10 11  1  0  0  0  0
 11 20  1  0  0  0  0
 11 18  1  0  0  0  0
 11 12  1  0  0  0  0
 12 13  1  0  0  0  0
 13 21  1  0  0  0  0
 13 14  1  0  0  0  0
 13 16  1  0  0  0  0
 14 15  1  0  0  0  0
 14 28  1  0  0  0  0
 14 29  1  0  0  0  0
 15 30  1  0  0  0  0
 16 22  1  0  0  0  0
 16 17  1  0  0  0  0
 16 18  1  0  0  0  0
 17 31  1  0  0  0  0
 18 23  1  0  0  0  0
 18 19  1  0  0  0  0
 19 32  1  0  0  0  0
M  END
> <s_m_source_file>
AV-unprocessed.smi

> <i_m_source_file_index>
69

> <i_lp_mmshare_version>
43012

> <i_f3d_flags>
0

> <s_epik_input>
bjFbY0hdbmMoW05IMl0pYyhjMTIpbltjSF1uMltDQEBIXTNPW0NASF0oW0NIMl1bT0hdKVtDQEBIXShbT0hdKVtDQEhdM1tPSF0=

> <s_epik_cmdline>
J2VwaWtfcHl0aG9uJywgJy1waCcsICc3LjAnLCAnLXRuJywgJzgnLCAnLW1hJywgJzIwMCcsICctbWV0YWxfYmluZGluZycsICctaW1hZScsICc8aW5maWxlLm1hZT4nLCAnLW9tYWUnLCAnPG91dGZpbGUubWFlPic=

> <r_lp_tautomer_probability>
1

> <r_epik_Ionization_Penalty>
0.000428445

> <r_epik_Ionization_Penalty_Charging>
0

> <r_epik_Ionization_Penalty_Neutral>
0.000428445

> <r_epik_State_Penalty>
-0

> <r_epik_Charging_Adjusted_Penalty>
0

> <i_epik_Tot_Q>
0

> <i_epik_Tot_abs_Q>
0

> <r_epik_Metal_State_Penalty>
-0

> <b_epik_Metal_Only>
0

> <s_epik_Chemistry_Notes>
This compound contains an acetal/aminal-like group ( X-CH(R)-Y where X, Y are N, S, or O) that may be acid/base labile, releasing an aldehyde.

> <s_lp_Force_Field>
OPLS_2005

> <r_lp_Energy>
39.6726

> <b_lp_Chiralities_Consistent>
1

> <s_lp_Variant>
AV-unprocessed.smi:69-14

> <Gold.Version>
5.8.1

> <Gold.Id.Protein>
6NUR|6NUR_protein|mol2

> <Gold.PLP.Fitness>
40.6461

> <Gold.PLP.PLP>
-33.0394

> <Gold.PLP.part.hbond>
-6.7768

> <Gold.PLP.part.metal>
0.0000

> <Gold.PLP.part.buried>
-6.8943

> <Gold.PLP.part.nonpolar>
-19.6586

> <Gold.PLP.part.repulsive>
0.2861

> <Gold.PLP.ligand.clash>
0.0000

> <Gold.PLP.ligand.torsion>
0.7755

> <Gold.PLP.Chemscore.Hbond>
3.0446

> <Gold.PLP.Chemscore.CHOScore>
0.0000

> <Gold.PLP.Chemscore.Metal>
0.0000

> <Gold.Chemscore.Hbonds>
donor molecule, donor type, donor heavy atom, donor atom, acceptor molecule, acceptor atom, score
      L1  H    19    32       P1  8028  1.00
      P1  H  7989  7998       L1    17  1.00
      P1  H  7997  8008       L1    12  0.55

> <Gold.PLP.Chemscore.Internal.Correction>
0.0240

> <Gold.Rescore>
     Score         DG    S(hbond)    S(metal)    S(lipo)     H(rot)  DE(clash)    DE(int)     intcor
      6.00      -8.02       2.69        0.00      32.99       4.03       1.58       0.44       ----

> <Gold.Chemscore.Fitness>
6.0007

> <Gold.Chemscore.DG>
-8.0236

> <Gold.Chemscore.ZeroCoef>
-5.4800

> <Gold.Chemscore.Hbond>
2.6930

> <Gold.Chemscore.Metal>
0.0000

> <Gold.Chemscore.Lipo>
32.9912

> <Gold.Chemscore.Internal_Hbond>
0.0000

> <Gold.Chemscore.DEClash>
1.5789

> <Gold.Chemscore.DEInternal>
0.4440

> <Gold.Chemscore.Rot>
4.0277

> <Gold.Chemscore.Internal.Correction>
   9.000000E+99

> <Gold.Chemscore.Hbonds>
donor molecule, donor type, donor heavy atom, donor atom, acceptor molecule, acceptor atom, score
      L1  H    19    32       P1  8028  0.97
      P1  H  7989  7998       L1    17  0.54
      P1  H  7997  8008       L1    12  0.54

> <Gold.Chemscore.Hbond.Weighted>
-8.9946

> <Gold.Chemscore.Metal.Weighted>
-0.0000

> <Gold.Chemscore.Lipo.Weighted>
-3.8600

> <Gold.Chemscore.Internal_Hbond.Weighted>
0.0000

> <Gold.Chemscore.DEClash.Weighted>
1.5789

> <Gold.Chemscore.DEInternal.Weighted>
0.4440

> <Gold.Chemscore.Rot.Weighted>
10.3110

> <Gold.Chemscore.Internal.Correction.Weighted>
   9.000000E+99

> <Gold.Protein.RotatedTorsions>
[ 6907 6896 6895 6894 ] final  -14.84 input  -60.11 | X-H torsion
[ 7974 7965 7964 7962 ] final   18.12 input  175.53 | X-H torsion
[ 8008 7997 7996 7995 ] final  -38.66 input   59.86 | X-H torsion
[ 10167 10162 10161 10158 ] final -112.17 input  -65.29 | X-H torsion
[ 10718 10713 10712 10709 ] final   -0.35 input   66.30 | X-H torsion
[ 10763 10752 10751 10750 ] final   25.22 input  -60.55 | X-H torsion
[ 11005 11000 10999 10996 ] final -163.72 input  -57.11 | X-H torsion

> <Gold.Protein.ActiveResidues>
 VAL166  LYS551  ARG553  GLY616  TRP617  ASP618  TYR619  PRO620  LYS621  CYS622 
 ASP623  PHE694  ASN695  SER759  ASP760  ASP761  ALA762  ILE779  LEU786  VAL792 
 PHE793  MET794  SER795  GLU796  ALA797  LYS798  CYS799  TRP800  GLU811  SER814 

> <Gold.Protein.RotatedAtoms>
  151.3332  135.0846  159.9345 H   0  0  0  0  0  0  0  0  0  0  0  0  # atno 6907 bound_to 6896
  152.5229  133.9521  159.7687 H   0  0  0  0  0  0  0  0  0  0  0  0  # atno 6908 bound_to 6896
  150.9864  133.6140  159.2744 H   0  0  0  0  0  0  0  0  0  0  0  0  # atno 6909 bound_to 6896
  146.2196  139.8503  142.8624 H   0  0  0  0  0  0  0  0  0  0  0  0  # atno 7974 bound_to 7965
  154.4033  140.1572  156.2736 H   0  0  0  0  0  0  0  0  0  0  0  0  # atno 8008 bound_to 7997
  155.8932  140.3437  155.5949 H   0  0  0  0  0  0  0  0  0  0  0  0  # atno 8009 bound_to 7997
  155.7534  140.0808  157.2181 H   0  0  0  0  0  0  0  0  0  0  0  0  # atno 8010 bound_to 7997
  140.1257  143.4404  152.1661 H   0  0  0  0  0  0  0  0  0  0  0  0  # atno 10167 bound_to 10162
  156.8218  130.5459  149.5696 H   0  0  0  0  0  0  0  0  0  0  0  0  # atno 10718 bound_to 10713
  153.0707  135.6588  154.0254 H   0  0  0  0  0  0  0  0  0  0  0  0  # atno 10763 bound_to 10752
  153.9900  135.2947  155.3414 H   0  0  0  0  0  0  0  0  0  0  0  0  # atno 10764 bound_to 10752
  154.7080  135.5217  153.8694 H   0  0  0  0  0  0  0  0  0  0  0  0  # atno 10765 bound_to 10752
  140.5950  134.5006  157.5198 H   0  0  0  0  0  0  0  0  0  0  0  0  # atno 11005 bound_to 11000
  145.2808  141.0138  143.3719 LP  0  0  0  0  0  0  0  0  0  0  0  0  # atno 17320 bound_to 7965
  144.9152  139.4480  143.6568 LP  0  0  0  0  0  0  0  0  0  0  0  0  # atno 17321 bound_to 7965
  139.5545  144.7363  151.4334 LP  0  0  0  0  0  0  0  0  0  0  0  0  # atno 17342 bound_to 10162
  140.6846  143.8003  150.7169 LP  0  0  0  0  0  0  0  0  0  0  0  0  # atno 17343 bound_to 10162
  156.0985  130.5950  150.9853 LP  0  0  0  0  0  0  0  0  0  0  0  0  # atno 17370 bound_to 10713
  157.6453  131.0905  150.8166 LP  0  0  0  0  0  0  0  0  0  0  0  0  # atno 17371 bound_to 10713
  139.9257  134.8060  156.1075 LP  0  0  0  0  0  0  0  0  0  0  0  0  # atno 17394 bound_to 11000
  141.0910  133.6714  156.2541 LP  0  0  0  0  0  0  0  0  0  0  0  0  # atno 17395 bound_to 11000

$$$$
