AV-unprocessed.smi:51|AV-procd|sdf|502|dock8
  -GOLD-   2262016373D 1   1.00000     0.00000
 Structure written by MMmdl.
 25 26  0  0  0  0  0  0  0  0  2 V2000
  151.1275  140.2124  154.9983 O   0  0  0  0  0  0  0  0  0  0  0  0
  151.8760  139.6852  155.8495 C   0  0  0  0  0  0  0  0  0  0  0  0
  152.9854  139.1571  155.6113 O   0  5  0  0  0  0  0  0  0  0  0  0
  151.3895  139.7040  157.3043 C   0  0  1  0  0  0  0  0  0  0  0  0
  151.1541  138.2936  157.8799 C   0  0  0  0  0  0  0  0  0  0  0  0
  152.3825  138.0453  158.7531 C   0  0  2  0  0  0  0  0  0  0  0  0
  152.1282  137.1295  159.7977 O   0  0  0  0  0  0  0  0  0  0  0  0
  152.7059  139.4452  159.2700 C   0  0  0  0  0  0  0  0  0  0  0  0
  152.4057  140.3286  158.1531 N   0  0  0  0  0  0  0  0  0  0  0  0
  152.2029  141.6744  158.4897 C   0  0  0  0  0  0  0  0  0  0  0  0
  151.4493  142.5021  157.6316 C   0  0  0  0  0  0  0  0  0  0  0  0
  151.2926  143.8445  158.0303 C   0  0  0  0  0  0  0  0  0  0  0  0
  151.8413  144.3173  159.1701 N   0  0  0  0  0  0  0  0  0  0  0  0
  152.5383  143.4474  159.9054 C   0  0  0  0  0  0  0  0  0  0  0  0
  152.7528  142.1589  159.6292 N   0  0  0  0  0  0  0  0  0  0  0  0
  150.4512  140.2597  157.3355 H   0  0  0  0  0  0  0  0  0  0  0  0
  150.2526  138.3086  158.4942 H   0  0  0  0  0  0  0  0  0  0  0  0
  151.0173  137.5209  157.1216 H   0  0  0  0  0  0  0  0  0  0  0  0
  153.2050  137.6778  158.1375 H   0  0  0  0  0  0  0  0  0  0  0  0
  152.4298  137.5108  160.6077 H   0  0  0  0  0  0  0  0  0  0  0  0
  152.0829  139.6941  160.1315 H   0  0  0  0  0  0  0  0  0  0  0  0
  153.7503  139.5320  159.5713 H   0  0  0  0  0  0  0  0  0  0  0  0
  151.0081  142.1254  156.7203 H   0  0  0  0  0  0  0  0  0  0  0  0
  150.7258  144.5416  157.4313 H   0  0  0  0  0  0  0  0  0  0  0  0
  152.9777  143.8261  160.8163 H   0  0  0  0  0  0  0  0  0  0  0  0
  1  2  2  0  0  0  0
  2  3  1  0  0  0  0
  2  4  1  0  0  0  0
  4  9  1  0  0  0  0
  4  5  1  0  0  0  0
  4 16  1  0  0  0  0
  5  6  1  0  0  0  0
  5 17  1  0  0  0  0
  5 18  1  0  0  0  0
  6  7  1  0  0  0  0
  6  8  1  0  0  0  0
  6 19  1  0  0  0  0
  7 20  1  0  0  0  0
  8  9  1  0  0  0  0
  8 21  1  0  0  0  0
  8 22  1  0  0  0  0
  9 10  1  0  0  0  0
 10 15  1  0  0  0  0
 10 11  2  0  0  0  0
 11 12  1  0  0  0  0
 11 23  1  0  0  0  0
 12 13  2  0  0  0  0
 12 24  1  0  0  0  0
 13 14  1  0  0  0  0
 14 15  2  0  0  0  0
 14 25  1  0  0  0  0
M  CHG  1   3  -1
M  END
> <s_m_source_file>
AV-unprocessed.smi

> <i_m_source_file_index>
51

> <i_lp_mmshare_version>
43012

> <i_f3d_flags>
0

> <s_epik_input>
Tz1DKFtPSF0pW0NAQEhdMVtDSDJdW0NAQEhdKFtPSF0pW0NIMl1OMWMyW2NIXVtjSF1uW2NIXW4y

> <s_epik_cmdline>
J2VwaWtfcHl0aG9uJywgJy1waCcsICc3LjAnLCAnLXRuJywgJzgnLCAnLW1hJywgJzIwMCcsICctbWV0YWxfYmluZGluZycsICctaW1hZScsICc8aW5maWxlLm1hZT4nLCAnLW9tYWUnLCAnPG91dGZpbGUubWFlPic=

> <r_lp_tautomer_probability>
1

> <r_epik_Ionization_Penalty>
0.225251

> <r_epik_Ionization_Penalty_Charging>
0.000248217

> <r_epik_Ionization_Penalty_Neutral>
0.225002

> <r_epik_State_Penalty>
0.21284

> <r_epik_Charging_Adjusted_Penalty>
0.213088

> <i_epik_Tot_Q>
-1

> <i_epik_Tot_abs_Q>
1

> <r_epik_Metal_State_Penalty>
0.154111

> <b_epik_Metal_Only>
0

> <s_lp_Force_Field>
OPLS_2005

> <r_lp_Energy>
17.6831

> <b_lp_Chiralities_Consistent>
1

> <s_lp_Variant>
AV-unprocessed.smi:51-4

> <Gold.Version>
5.8.1

> <Gold.Id.Protein>
6NUR|6NUR_protein|mol2

> <Gold.PLP.Fitness>
39.4256

> <Gold.PLP.PLP>
-25.7788

> <Gold.PLP.part.hbond>
-3.0000

> <Gold.PLP.part.metal>
0.0000

> <Gold.PLP.part.buried>
-6.6869

> <Gold.PLP.part.nonpolar>
-16.6051

> <Gold.PLP.part.repulsive>
0.0911

> <Gold.PLP.ligand.clash>
0.0000

> <Gold.PLP.ligand.torsion>
0.7307

> <Gold.PLP.Chemscore.Hbond>
4.0000

> <Gold.PLP.Chemscore.CHOScore>
1.0000

> <Gold.PLP.Chemscore.Metal>
0.0000

> <Gold.Chemscore.Hbonds>
donor molecule, donor type, donor heavy atom, donor atom, acceptor molecule, acceptor atom, score
      P1  H  6896  6909       L1     7  1.00
      P1  H  7989  7998       L1     1  1.00
      P1  H  7997  8008       L1     3  2.00
      L1  C    12    24       P1  8028  1.00

> <Gold.PLP.Chemscore.Internal.Correction>
0.1082

> <Gold.Rescore>
     Score         DG    S(hbond)    S(metal)    S(lipo)     H(rot)  DE(clash)    DE(int)     intcor
     13.70     -14.09       2.86        0.00      40.82       2.23       0.00       0.39       ----

> <Gold.Chemscore.Fitness>
13.6950

> <Gold.Chemscore.DG>
-14.0909

> <Gold.Chemscore.ZeroCoef>
-5.4800

> <Gold.Chemscore.Hbond>
2.8561

> <Gold.Chemscore.Metal>
0.0000

> <Gold.Chemscore.Lipo>
40.8245

> <Gold.Chemscore.Internal_Hbond>
0.0000

> <Gold.Chemscore.DEClash>
0.0021

> <Gold.Chemscore.DEInternal>
0.3938

> <Gold.Chemscore.Rot>
2.2285

> <Gold.Chemscore.Internal.Correction>
   9.000000E+99

> <Gold.Chemscore.Hbonds>
donor molecule, donor type, donor heavy atom, donor atom, acceptor molecule, acceptor atom, score
      P1  H  6896  6909       L1     7  0.77
      P1  H  7989  7998       L1     1  0.99
      P1  H  7997  8008       L1     3  0.77

> <Gold.Chemscore.Hbond.Weighted>
-9.5394

> <Gold.Chemscore.Metal.Weighted>
-0.0000

> <Gold.Chemscore.Lipo.Weighted>
-4.7765

> <Gold.Chemscore.Internal_Hbond.Weighted>
0.0000

> <Gold.Chemscore.DEClash.Weighted>
0.0021

> <Gold.Chemscore.DEInternal.Weighted>
0.3938

> <Gold.Chemscore.Rot.Weighted>
5.7050

> <Gold.Chemscore.Internal.Correction.Weighted>
   9.000000E+99

> <Gold.Protein.RotatedTorsions>
[ 6907 6896 6895 6894 ] final  123.06 input  -60.11 | X-H torsion
[ 7974 7965 7964 7962 ] final   15.59 input  175.53 | X-H torsion
[ 8008 7997 7996 7995 ] final  -46.35 input   59.86 | X-H torsion
[ 10167 10162 10161 10158 ] final -159.66 input  -65.29 | X-H torsion
[ 10718 10713 10712 10709 ] final  -14.58 input   66.30 | X-H torsion
[ 10763 10752 10751 10750 ] final   52.97 input  -60.55 | X-H torsion
[ 11005 11000 10999 10996 ] final   82.72 input  -57.11 | X-H torsion

> <Gold.Protein.ActiveResidues>
 VAL166  LYS551  ARG553  GLY616  TRP617  ASP618  TYR619  PRO620  LYS621  CYS622 
 ASP623  PHE694  ASN695  SER759  ASP760  ASP761  ALA762  ILE779  LEU786  VAL792 
 PHE793  MET794  SER795  GLU796  ALA797  LYS798  CYS799  TRP800  GLU811  SER814 

> <Gold.Protein.RotatedAtoms>
  152.4193  133.7089  159.6467 H   0  0  0  0  0  0  0  0  0  0  0  0  # atno 6907 bound_to 6896
  150.8069  133.8483  159.3207 H   0  0  0  0  0  0  0  0  0  0  0  0  # atno 6908 bound_to 6896
  151.6204  135.1034  160.0152 H   0  0  0  0  0  0  0  0  0  0  0  0  # atno 6909 bound_to 6896
  146.2274  139.8871  142.8561 H   0  0  0  0  0  0  0  0  0  0  0  0  # atno 7974 bound_to 7965
  154.4007  140.1373  156.3997 H   0  0  0  0  0  0  0  0  0  0  0  0  # atno 8008 bound_to 7997
  155.7836  140.3481  155.5290 H   0  0  0  0  0  0  0  0  0  0  0  0  # atno 8009 bound_to 7997
  155.8649  140.0962  157.1579 H   0  0  0  0  0  0  0  0  0  0  0  0  # atno 8010 bound_to 7997
  139.6598  143.9932  152.2218 H   0  0  0  0  0  0  0  0  0  0  0  0  # atno 10167 bound_to 10162
  156.6140  130.4857  149.6190 H   0  0  0  0  0  0  0  0  0  0  0  0  # atno 10718 bound_to 10713
  152.9792  135.5794  154.4666 H   0  0  0  0  0  0  0  0  0  0  0  0  # atno 10763 bound_to 10752
  154.4235  135.2772  155.1962 H   0  0  0  0  0  0  0  0  0  0  0  0  # atno 10764 bound_to 10752
  154.3701  135.6170  153.5789 H   0  0  0  0  0  0  0  0  0  0  0  0  # atno 10765 bound_to 10752
  139.9054  134.8092  156.2213 H   0  0  0  0  0  0  0  0  0  0  0  0  # atno 11005 bound_to 11000
  145.2454  141.0025  143.3911 LP  0  0  0  0  0  0  0  0  0  0  0  0  # atno 17320 bound_to 7965
  144.9417  139.4181  143.6445 LP  0  0  0  0  0  0  0  0  0  0  0  0  # atno 17321 bound_to 7965
  139.9668  144.6520  150.8026 LP  0  0  0  0  0  0  0  0  0  0  0  0  # atno 17342 bound_to 10162
  140.7575  143.3088  151.2896 LP  0  0  0  0  0  0  0  0  0  0  0  0  # atno 17343 bound_to 10162
  156.2367  130.6826  151.1516 LP  0  0  0  0  0  0  0  0  0  0  0  0  # atno 17370 bound_to 10713
  157.7246  131.0658  150.5987 LP  0  0  0  0  0  0  0  0  0  0  0  0  # atno 17371 bound_to 10713
  141.0404  133.6941  156.1587 LP  0  0  0  0  0  0  0  0  0  0  0  0  # atno 17394 bound_to 11000
  140.6964  134.4611  157.5587 LP  0  0  0  0  0  0  0  0  0  0  0  0  # atno 17395 bound_to 11000

$$$$
