AV-unprocessed.smi:553|AV-procd|sdf|2904|dock1
  -GOLD-   2262023393D 1   1.00000     0.00000
 Structure written by MMmdl.
 43 45  0  0  0  0  0  0  0  0  1 V2000
  150.2365  135.0408  156.0687 O   0  0  0  0  0  0  0  0  0  0  0  0
  149.7630  135.4153  154.9982 C   0  0  0  0  0  0  0  0  0  0  0  0
  149.7787  136.6887  154.5576 N   0  0  0  0  0  0  0  0  0  0  0  0
  150.2267  137.8532  155.2365 C   0  0  0  0  0  0  0  0  0  0  0  0
  149.9976  137.9440  156.6229 C   0  0  0  0  0  0  0  0  0  0  0  0
  150.4534  139.0768  157.3237 C   0  0  0  0  0  0  0  0  0  0  0  0
  151.1387  140.0951  156.6196 C   0  0  0  0  0  0  0  0  0  0  0  0
  151.6079  141.2407  157.2993 N   0  0  0  0  0  0  0  0  0  0  0  0
  150.7921  142.4530  157.2448 C   0  0  0  0  0  0  0  0  0  0  0  0
  151.5858  143.6588  157.7752 C   0  0  0  0  0  0  0  0  0  0  0  0
  152.0655  143.3781  159.0855 O   0  0  0  0  0  0  0  0  0  0  0  0
  152.9475  142.2605  159.0976 C   0  0  0  0  0  0  0  0  0  0  0  0
  152.2053  141.0035  158.6112 C   0  0  0  0  0  0  0  0  0  0  0  0
  151.3756  139.9965  155.2884 N   0  0  0  0  0  0  0  0  0  0  0  0
  150.9348  138.9108  154.6191 C   0  0  0  0  0  0  0  0  0  0  0  0
  149.2138  134.5391  154.1380 N   0  0  0  0  0  0  0  0  0  0  0  0
  149.0402  133.0950  154.3013 C   0  0  2  0  0  0  0  0  0  0  0  0
  148.1498  132.5191  153.1845 C   0  0  0  0  0  0  0  0  0  0  0  0
  147.7095  131.1061  153.5857 C   0  0  0  0  0  0  0  0  0  0  0  0
  147.6017  131.1095  155.4154 S   0  0  0  0  0  0  0  0  0  0  0  0
  146.1921  131.1896  155.8267 O   0  0  0  0  0  0  0  0  0  0  0  0
  148.4880  130.0633  155.9470 O   0  0  0  0  0  0  0  0  0  0  0  0
  148.3865  132.7486  155.6490 C   0  0  0  0  0  0  0  0  0  0  0  0
  149.4573  136.8348  153.6119 H   0  0  0  0  0  0  0  0  0  0  0  0
  149.4790  137.1549  157.1480 H   0  0  0  0  0  0  0  0  0  0  0  0
  150.2885  139.1412  158.3887 H   0  0  0  0  0  0  0  0  0  0  0  0
  150.4771  142.6524  156.2196 H   0  0  0  0  0  0  0  0  0  0  0  0
  149.8905  142.3082  157.8414 H   0  0  0  0  0  0  0  0  0  0  0  0
  152.4199  143.8974  157.1131 H   0  0  0  0  0  0  0  0  0  0  0  0
  150.9468  144.5412  157.8124 H   0  0  0  0  0  0  0  0  0  0  0  0
  153.8182  142.4641  158.4721 H   0  0  0  0  0  0  0  0  0  0  0  0
  153.3143  142.1098  160.1129 H   0  0  0  0  0  0  0  0  0  0  0  0
  151.4142  140.7428  159.3152 H   0  0  0  0  0  0  0  0  0  0  0  0
  152.9020  140.1670  158.5945 H   0  0  0  0  0  0  0  0  0  0  0  0
  151.1859  138.8962  153.5702 H   0  0  0  0  0  0  0  0  0  0  0  0
  148.9274  134.9139  153.2450 H   0  0  0  0  0  0  0  0  0  0  0  0
  150.0061  132.5904  154.2372 H   0  0  0  0  0  0  0  0  0  0  0  0
  147.2607  133.1423  153.0767 H   0  0  0  0  0  0  0  0  0  0  0  0
  148.6571  132.5200  152.2193 H   0  0  0  0  0  0  0  0  0  0  0  0
  146.7524  130.8182  153.1508 H   0  0  0  0  0  0  0  0  0  0  0  0
  148.4597  130.3705  153.2951 H   0  0  0  0  0  0  0  0  0  0  0  0
  149.0963  132.7100  156.4753 H   0  0  0  0  0  0  0  0  0  0  0  0
  147.5993  133.4603  155.9003 H   0  0  0  0  0  0  0  0  0  0  0  0
  1  2  2  0  0  0  0
  2  3  1  0  0  0  0
  2 16  1  0  0  0  0
  3  4  1  0  0  0  0
  3 24  1  0  0  0  0
  4 15  1  0  0  0  0
  4  5  2  0  0  0  0
  5  6  1  0  0  0  0
  5 25  1  0  0  0  0
  6  7  2  0  0  0  0
  6 26  1  0  0  0  0
  7  8  1  0  0  0  0
  7 14  1  0  0  0  0
  8 13  1  0  0  0  0
  8  9  1  0  0  0  0
  9 10  1  0  0  0  0
  9 27  1  0  0  0  0
  9 28  1  0  0  0  0
 10 11  1  0  0  0  0
 10 29  1  0  0  0  0
 10 30  1  0  0  0  0
 11 12  1  0  0  0  0
 12 13  1  0  0  0  0
 12 31  1  0  0  0  0
 12 32  1  0  0  0  0
 13 33  1  0  0  0  0
 13 34  1  0  0  0  0
 14 15  2  0  0  0  0
 15 35  1  0  0  0  0
 16 17  1  0  0  0  0
 16 36  1  0  0  0  0
 17 23  1  0  0  0  0
 17 18  1  0  0  0  0
 17 37  1  0  0  0  0
 18 19  1  0  0  0  0
 18 38  1  0  0  0  0
 18 39  1  0  0  0  0
 19 20  1  0  0  0  0
 19 40  1  0  0  0  0
 19 41  1  0  0  0  0
 20 21  2  0  0  0  0
 20 22  2  0  0  0  0
 20 23  1  0  0  0  0
 23 42  1  0  0  0  0
 23 43  1  0  0  0  0
M  END
> <s_m_source_file>
AV-unprocessed.smi

> <i_m_source_file_index>
553

> <i_lp_mmshare_version>
43012

> <i_f3d_flags>
0

> <s_epik_input>
Tz1TMSg9TylbQ0gyXVtDSDJdW0NASF0oW0NIMl0xKVtOSF1DKD1PKVtOSF1jMltjSF1bY0hdYyhuW2NIXTIpTjNbQ0gyXVtDSDJdT1tDSDJdW0NIMl0z

> <s_epik_cmdline>
J2VwaWtfcHl0aG9uJywgJy1waCcsICc3LjAnLCAnLXRuJywgJzgnLCAnLW1hJywgJzIwMCcsICctbWV0YWxfYmluZGluZycsICctaW1hZScsICc8aW5maWxlLm1hZT4nLCAnLW9tYWUnLCAnPG91dGZpbGUubWFlPic=

> <r_lp_tautomer_probability>
1

> <r_epik_Ionization_Penalty>
0.00171806

> <r_epik_Ionization_Penalty_Charging>
0

> <r_epik_Ionization_Penalty_Neutral>
0.00171806

> <r_epik_State_Penalty>
0.00114322

> <r_epik_Charging_Adjusted_Penalty>
0.00114322

> <i_epik_Tot_Q>
0

> <i_epik_Tot_abs_Q>
0

> <r_epik_Metal_State_Penalty>
-0

> <b_epik_Metal_Only>
0

> <s_lp_Force_Field>
OPLS_2005

> <r_lp_Energy>
31.553

> <b_lp_Chiralities_Consistent>
1

> <s_lp_Variant>
AV-unprocessed.smi:553-1

> <Gold.Version>
5.8.1

> <Gold.Id.Protein>
6NUR|6NUR_protein|mol2

> <Gold.PLP.Fitness>
37.7123

> <Gold.PLP.PLP>
-32.0536

> <Gold.PLP.part.hbond>
-3.0000

> <Gold.PLP.part.metal>
0.0000

> <Gold.PLP.part.buried>
-5.8039

> <Gold.PLP.part.nonpolar>
-24.9558

> <Gold.PLP.part.repulsive>
0.2755

> <Gold.PLP.ligand.clash>
0.0000

> <Gold.PLP.ligand.torsion>
0.9449

> <Gold.PLP.Chemscore.Hbond>
2.4000

> <Gold.PLP.Chemscore.CHOScore>
0.0000

> <Gold.PLP.Chemscore.Metal>
0.0000

> <Gold.Chemscore.Hbonds>
donor molecule, donor type, donor heavy atom, donor atom, acceptor molecule, acceptor atom, score
      L1  H     3    24       P1  7948  1.00
      L1  H    16    36       P1  7948  1.00
      P1  H  7989  7998       L1    14  0.40

> <Gold.PLP.Chemscore.Internal.Correction>
0.3486

> <Gold.Rescore>
     Score         DG    S(hbond)    S(metal)    S(lipo)     H(rot)  DE(clash)    DE(int)     intcor
     12.85     -15.94       1.47        0.00      75.21       1.27       0.06       3.02       ----

> <Gold.Chemscore.Fitness>
12.8516

> <Gold.Chemscore.DG>
-15.9372

> <Gold.Chemscore.ZeroCoef>
-5.4800

> <Gold.Chemscore.Hbond>
1.4698

> <Gold.Chemscore.Metal>
0.0000

> <Gold.Chemscore.Lipo>
75.2142

> <Gold.Chemscore.Internal_Hbond>
0.0000

> <Gold.Chemscore.DEClash>
0.0609

> <Gold.Chemscore.DEInternal>
3.0247

> <Gold.Chemscore.Rot>
1.2703

> <Gold.Chemscore.Internal.Correction>
   9.000000E+99

> <Gold.Chemscore.Hbonds>
donor molecule, donor type, donor heavy atom, donor atom, acceptor molecule, acceptor atom, score
      L1  H     3    24       P1  7948  0.85
      L1  H    16    36       P1  7948  0.25
      P1  H  7989  7998       L1    14  0.01

> <Gold.Chemscore.Hbond.Weighted>
-4.9091

> <Gold.Chemscore.Metal.Weighted>
-0.0000

> <Gold.Chemscore.Lipo.Weighted>
-8.8001

> <Gold.Chemscore.Internal_Hbond.Weighted>
0.0000

> <Gold.Chemscore.DEClash.Weighted>
0.0609

> <Gold.Chemscore.DEInternal.Weighted>
3.0247

> <Gold.Chemscore.Rot.Weighted>
3.2520

> <Gold.Chemscore.Internal.Correction.Weighted>
   9.000000E+99

> <Gold.Protein.RotatedTorsions>
[ 6907 6896 6895 6894 ] final -120.53 input  -60.11 | X-H torsion
[ 7974 7965 7964 7962 ] final  -46.25 input  175.53 | X-H torsion
[ 8008 7997 7996 7995 ] final   72.39 input   59.86 | X-H torsion
[ 10167 10162 10161 10158 ] final -109.03 input  -65.29 | X-H torsion
[ 10718 10713 10712 10709 ] final -147.68 input   66.30 | X-H torsion
[ 10763 10752 10751 10750 ] final    9.58 input  -60.55 | X-H torsion
[ 11005 11000 10999 10996 ] final   53.77 input  -57.11 | X-H torsion

> <Gold.Protein.ActiveResidues>
 VAL166  LYS551  ARG553  GLY616  TRP617  ASP618  TYR619  PRO620  LYS621  CYS622 
 ASP623  PHE694  ASN695  SER759  ASP760  ASP761  ALA762  ILE779  LEU786  VAL792 
 PHE793  MET794  SER795  GLU796  ALA797  LYS798  CYS799  TRP800  GLU811  SER814 

> <Gold.Protein.RotatedAtoms>
  150.8402  133.7949  159.3063 H   0  0  0  0  0  0  0  0  0  0  0  0  # atno 6907 bound_to 6896
  151.5652  135.1062  159.9991 H   0  0  0  0  0  0  0  0  0  0  0  0  # atno 6908 bound_to 6896
  152.4467  133.7507  159.6749 H   0  0  0  0  0  0  0  0  0  0  0  0  # atno 6909 bound_to 6896
  145.9739  140.7355  142.9397 H   0  0  0  0  0  0  0  0  0  0  0  0  # atno 7974 bound_to 7965
  155.7682  140.3485  155.5233 H   0  0  0  0  0  0  0  0  0  0  0  0  # atno 8008 bound_to 7997
  155.8848  140.1008  157.1481 H   0  0  0  0  0  0  0  0  0  0  0  0  # atno 8009 bound_to 7997
  154.4028  140.1315  156.4229 H   0  0  0  0  0  0  0  0  0  0  0  0  # atno 8010 bound_to 7997
  140.1597  143.4130  152.1435 H   0  0  0  0  0  0  0  0  0  0  0  0  # atno 10167 bound_to 10162
  156.4106  130.7979  151.2197 H   0  0  0  0  0  0  0  0  0  0  0  0  # atno 10718 bound_to 10713
  153.2124  135.6870  153.8098 H   0  0  0  0  0  0  0  0  0  0  0  0  # atno 10763 bound_to 10752
  153.7325  135.3250  155.3290 H   0  0  0  0  0  0  0  0  0  0  0  0  # atno 10764 bound_to 10752
  154.8229  135.4639  154.0937 H   0  0  0  0  0  0  0  0  0  0  0  0  # atno 10765 bound_to 10752
  140.0740  134.5430  155.9016 H   0  0  0  0  0  0  0  0  0  0  0  0  # atno 11005 bound_to 11000
  144.6843  140.2794  143.7294 LP  0  0  0  0  0  0  0  0  0  0  0  0  # atno 17320 bound_to 7965
  145.7867  139.1911  143.2126 LP  0  0  0  0  0  0  0  0  0  0  0  0  # atno 17321 bound_to 7965
  139.5387  144.7235  151.4806 LP  0  0  0  0  0  0  0  0  0  0  0  0  # atno 17342 bound_to 10162
  140.6651  143.8416  150.6932 LP  0  0  0  0  0  0  0  0  0  0  0  0  # atno 17343 bound_to 10162
  157.7507  131.0259  150.3937 LP  0  0  0  0  0  0  0  0  0  0  0  0  # atno 17370 bound_to 10713
  156.4235  130.3957  149.6809 LP  0  0  0  0  0  0  0  0  0  0  0  0  # atno 17371 bound_to 10713
  141.2023  133.6624  156.5997 LP  0  0  0  0  0  0  0  0  0  0  0  0  # atno 17394 bound_to 11000
  140.3584  134.7708  157.4517 LP  0  0  0  0  0  0  0  0  0  0  0  0  # atno 17395 bound_to 11000

$$$$
