AV-unprocessed.smi:2678|AV-procd|sdf|10367|dock9
  -GOLD-   2272014393D 1   1.00000     0.00000
 Structure written by MMmdl.
 46 47  0  0  0  0  0  0  0  0  1 V2000
  149.6400  134.2056  155.0082 C   0  0  0  0  0  0  0  0  0  0  0  0
  148.2508  134.8111  154.7511 C   0  0  0  0  0  0  0  0  0  0  0  0
  147.4393  133.9648  153.7615 C   0  0  0  0  0  0  0  0  0  0  0  0
  148.3729  136.1722  154.2372 N   0  0  0  0  0  0  0  0  0  0  0  0
  147.8391  137.2690  154.7980 C   0  0  0  0  0  0  0  0  0  0  0  0
  147.1743  137.2436  155.8344 O   0  0  0  0  0  0  0  0  0  0  0  0
  148.0999  138.5988  154.0780 C   0  0  1  0  0  0  0  0  0  0  0  0
  146.8127  139.1364  153.4181 C   0  0  0  0  0  0  0  0  0  0  0  0
  147.0669  140.4766  152.7097 C   0  0  0  0  0  0  0  0  0  0  0  0
  147.6652  141.5132  153.6737 C   0  0  0  0  0  0  0  0  0  0  0  0
  148.9526  140.9873  154.3345 C   0  0  1  0  0  0  0  0  0  0  0  0
  149.4638  141.9884  155.2734 N   0  0  0  0  0  0  0  0  0  0  0  0
  150.2778  141.8077  156.3299 C   0  0  0  0  0  0  0  0  0  0  0  0
  150.6823  140.6880  156.6348 O   0  0  0  0  0  0  0  0  0  0  0  0
  150.5692  142.9382  157.0033 N   0  0  0  0  0  0  0  0  0  0  0  0
  151.4274  143.1142  158.1216 C   0  0  0  0  0  0  0  0  0  0  0  0
  151.6395  144.3506  158.7785 C   0  0  0  0  0  0  0  0  0  0  0  0
  152.5007  144.3892  159.8920 C   0  0  0  0  0  0  0  0  0  0  0  0
  153.1120  143.1920  160.3121 C   0  0  0  0  0  0  0  0  0  0  0  0
  152.9085  142.0044  159.7040 N   0  0  0  0  0  0  0  0  0  0  0  0
  152.0806  141.9749  158.6377 C   0  0  0  0  0  0  0  0  0  0  0  0
  148.6808  139.6469  155.0503 C   0  0  0  0  0  0  0  0  0  0  0  0
  149.5577  133.1892  155.3945 H   0  0  0  0  0  0  0  0  0  0  0  0
  150.1981  134.7891  155.7412 H   0  0  0  0  0  0  0  0  0  0  0  0
  150.2320  134.1664  154.0930 H   0  0  0  0  0  0  0  0  0  0  0  0
  147.7016  134.8357  155.6941 H   0  0  0  0  0  0  0  0  0  0  0  0
  147.3019  132.9499  154.1356 H   0  0  0  0  0  0  0  0  0  0  0  0
  147.9364  133.8978  152.7931 H   0  0  0  0  0  0  0  0  0  0  0  0
  146.4490  134.3918  153.5990 H   0  0  0  0  0  0  0  0  0  0  0  0
  148.9047  136.2892  153.3869 H   0  0  0  0  0  0  0  0  0  0  0  0
  148.8360  138.4229  153.2913 H   0  0  0  0  0  0  0  0  0  0  0  0
  146.4282  138.4116  152.6989 H   0  0  0  0  0  0  0  0  0  0  0  0
  146.0312  139.2706  154.1679 H   0  0  0  0  0  0  0  0  0  0  0  0
  147.7461  140.3233  151.8701 H   0  0  0  0  0  0  0  0  0  0  0  0
  146.1356  140.8561  152.2884 H   0  0  0  0  0  0  0  0  0  0  0  0
  147.8714  142.4383  153.1341 H   0  0  0  0  0  0  0  0  0  0  0  0
  146.9289  141.7600  154.4402 H   0  0  0  0  0  0  0  0  0  0  0  0
  149.6872  140.8287  153.5430 H   0  0  0  0  0  0  0  0  0  0  0  0
  149.1562  142.9359  155.1071 H   0  0  0  0  0  0  0  0  0  0  0  0
  150.0898  143.7704  156.6922 H   0  0  0  0  0  0  0  0  0  0  0  0
  151.1522  145.2604  158.4645 H   0  0  0  0  0  0  0  0  0  0  0  0
  152.6845  145.3163  160.4148 H   0  0  0  0  0  0  0  0  0  0  0  0
  153.7769  143.1866  161.1631 H   0  0  0  0  0  0  0  0  0  0  0  0
  151.9381  141.0072  158.1790 H   0  0  0  0  0  0  0  0  0  0  0  0
  147.9891  139.8121  155.8784 H   0  0  0  0  0  0  0  0  0  0  0  0
  149.6011  139.2638  155.4930 H   0  0  0  0  0  0  0  0  0  0  0  0
  1  2  1  0  0  0  0
  1 23  1  0  0  0  0
  1 24  1  0  0  0  0
  1 25  1  0  0  0  0
  2  3  1  0  0  0  0
  2  4  1  0  0  0  0
  2 26  1  0  0  0  0
  3 27  1  0  0  0  0
  3 28  1  0  0  0  0
  3 29  1  0  0  0  0
  4  5  1  0  0  0  0
  4 30  1  0  0  0  0
  5  6  2  0  0  0  0
  5  7  1  0  0  0  0
  7 22  1  0  0  0  0
  7  8  1  0  0  0  0
  7 31  1  0  0  0  0
  8  9  1  0  0  0  0
  8 32  1  0  0  0  0
  8 33  1  0  0  0  0
  9 10  1  0  0  0  0
  9 34  1  0  0  0  0
  9 35  1  0  0  0  0
 10 11  1  0  0  0  0
 10 36  1  0  0  0  0
 10 37  1  0  0  0  0
 11 12  1  0  0  0  0
 11 22  1  0  0  0  0
 11 38  1  0  0  0  0
 12 13  1  0  0  0  0
 12 39  1  0  0  0  0
 13 14  2  0  0  0  0
 13 15  1  0  0  0  0
 15 16  1  0  0  0  0
 15 40  1  0  0  0  0
 16 21  1  0  0  0  0
 16 17  2  0  0  0  0
 17 18  1  0  0  0  0
 17 41  1  0  0  0  0
 18 19  2  0  0  0  0
 18 42  1  0  0  0  0
 19 20  1  0  0  0  0
 19 43  1  0  0  0  0
 20 21  2  0  0  0  0
 21 44  1  0  0  0  0
 22 45  1  0  0  0  0
 22 46  1  0  0  0  0
M  END
> <s_m_source_file>
AV-unprocessed.smi

> <i_m_source_file_index>
2678

> <i_lp_mmshare_version>
43012

> <i_f3d_flags>
0

> <s_epik_input>
W0NIM11bQ0hdKFtDSDNdKVtOSF1DKD1PKVtDQEBIXTFbQ0gyXVtDSDJdW0NIMl1bQ0BIXShbQ0gyXTEpW05IXUMoPU8pW05IXWMyW2NIXVtjSF1bY0hdbltjSF0y

> <s_epik_cmdline>
J2VwaWtfcHl0aG9uJywgJy1waCcsICc3LjAnLCAnLXRuJywgJzgnLCAnLW1hJywgJzIwMCcsICctbWV0YWxfYmluZGluZycsICctaW1hZScsICc8aW5maWxlLm1hZT4nLCAnLW9tYWUnLCAnPG91dGZpbGUubWFlPic=

> <r_epik_Ionization_Penalty>
0.00482944

> <r_epik_Ionization_Penalty_Charging>
0

> <r_epik_Ionization_Penalty_Neutral>
0.00482944

> <r_epik_State_Penalty>
0.00347168

> <r_epik_Charging_Adjusted_Penalty>
0.00347168

> <i_epik_Tot_Q>
0

> <i_epik_Tot_abs_Q>
0

> <r_epik_Metal_State_Penalty>
-0

> <b_epik_Metal_Only>
0

> <s_lp_Force_Field>
OPLS_2005

> <r_lp_Energy>
23.8457

> <b_lp_Chiralities_Consistent>
1

> <s_lp_Variant>
AV-unprocessed.smi:2678-2

> <Gold.Version>
5.8.1

> <Gold.Id.Protein>
6NUR|6NUR_protein|mol2

> <Gold.PLP.Fitness>
46.3822

> <Gold.PLP.PLP>
-38.4153

> <Gold.PLP.part.hbond>
-2.7361

> <Gold.PLP.part.metal>
0.0000

> <Gold.PLP.part.buried>
-5.2910

> <Gold.PLP.part.nonpolar>
-30.8121

> <Gold.PLP.part.repulsive>
0.2550

> <Gold.PLP.ligand.clash>
0.0000

> <Gold.PLP.ligand.torsion>
0.5136

> <Gold.PLP.Chemscore.Hbond>
2.9913

> <Gold.PLP.Chemscore.CHOScore>
0.0000

> <Gold.PLP.Chemscore.Metal>
0.0000

> <Gold.Chemscore.Hbonds>
donor molecule, donor type, donor heavy atom, donor atom, acceptor molecule, acceptor atom, score
      L1  H     4    30       P1  7948  0.95
      L1  H    12    39       P1  8028  1.00
      L1  H    15    40       P1  8028  1.00

> <Gold.PLP.Chemscore.Internal.Correction>
0.0202

> <Gold.Rescore>
     Score         DG    S(hbond)    S(metal)    S(lipo)     H(rot)  DE(clash)    DE(int)     intcor
     20.88     -24.23       2.91        0.00     109.02       1.46       0.11       3.23       ----

> <Gold.Chemscore.Fitness>
20.8837

> <Gold.Chemscore.DG>
-24.2275

> <Gold.Chemscore.ZeroCoef>
-5.4800

> <Gold.Chemscore.Hbond>
2.9134

> <Gold.Chemscore.Metal>
0.0000

> <Gold.Chemscore.Lipo>
109.0188

> <Gold.Chemscore.Internal_Hbond>
0.0000

> <Gold.Chemscore.DEClash>
0.1120

> <Gold.Chemscore.DEInternal>
3.2318

> <Gold.Chemscore.Rot>
1.4603

> <Gold.Chemscore.Internal.Correction>
   9.000000E+99

> <Gold.Chemscore.Hbonds>
donor molecule, donor type, donor heavy atom, donor atom, acceptor molecule, acceptor atom, score
      L1  H     4    30       P1  7948  0.85
      L1  H    12    39       P1  8028  0.97
      L1  H    15    40       P1  8028  0.98

> <Gold.Chemscore.Hbond.Weighted>
-9.7307

> <Gold.Chemscore.Metal.Weighted>
-0.0000

> <Gold.Chemscore.Lipo.Weighted>
-12.7552

> <Gold.Chemscore.Internal_Hbond.Weighted>
0.0000

> <Gold.Chemscore.DEClash.Weighted>
0.1120

> <Gold.Chemscore.DEInternal.Weighted>
3.2318

> <Gold.Chemscore.Rot.Weighted>
3.7383

> <Gold.Chemscore.Internal.Correction.Weighted>
   9.000000E+99

> <Gold.Protein.RotatedTorsions>
[ 6907 6896 6895 6894 ] final  145.18 input  -60.11 | X-H torsion
[ 7974 7965 7964 7962 ] final  175.15 input  175.53 | X-H torsion
[ 8008 7997 7996 7995 ] final  148.30 input   59.86 | X-H torsion
[ 10167 10162 10161 10158 ] final  -75.20 input  -65.29 | X-H torsion
[ 10718 10713 10712 10709 ] final -156.69 input   66.30 | X-H torsion
[ 10763 10752 10751 10750 ] final  -77.97 input  -60.55 | X-H torsion
[ 11005 11000 10999 10996 ] final  -13.16 input  -57.11 | X-H torsion

> <Gold.Protein.ActiveResidues>
 VAL166  LYS551  ARG553  GLY616  TRP617  ASP618  TYR619  PRO620  LYS621  CYS622 
 ASP623  PHE694  ASN695  SER759  ASP760  ASP761  ALA762  ILE779  LEU786  VAL792 
 PHE793  MET794  SER795  GLU796  ALA797  LYS798  CYS799  TRP800  GLU811  SER814 

> <Gold.Protein.RotatedAtoms>
  152.1842  133.4728  159.4973 H   0  0  0  0  0  0  0  0  0  0  0  0  # atno 6907 bound_to 6896
  150.6940  134.1794  159.4252 H   0  0  0  0  0  0  0  0  0  0  0  0  # atno 6908 bound_to 6896
  151.9707  135.0078  160.0603 H   0  0  0  0  0  0  0  0  0  0  0  0  # atno 6909 bound_to 6896
  144.7207  139.9904  143.6440 H   0  0  0  0  0  0  0  0  0  0  0  0  # atno 7974 bound_to 7965
  156.2796  140.2132  156.5676 H   0  0  0  0  0  0  0  0  0  0  0  0  # atno 8008 bound_to 7997
  154.7162  140.0507  157.0619 H   0  0  0  0  0  0  0  0  0  0  0  0  # atno 8009 bound_to 7997
  155.0540  140.3159  155.4685 H   0  0  0  0  0  0  0  0  0  0  0  0  # atno 8010 bound_to 7997
  140.4963  143.2370  151.7825 H   0  0  0  0  0  0  0  0  0  0  0  0  # atno 10167 bound_to 10162
  156.5300  130.8516  151.2713 H   0  0  0  0  0  0  0  0  0  0  0  0  # atno 10718 bound_to 10713
  154.5198  135.5746  153.6672 H   0  0  0  0  0  0  0  0  0  0  0  0  # atno 10763 bound_to 10752
  152.9915  135.6179  154.2769 H   0  0  0  0  0  0  0  0  0  0  0  0  # atno 10764 bound_to 10752
  154.2689  135.2854  155.2726 H   0  0  0  0  0  0  0  0  0  0  0  0  # atno 10765 bound_to 10752
  140.7732  133.8422  155.9225 H   0  0  0  0  0  0  0  0  0  0  0  0  # atno 11005 bound_to 11000
  146.0416  139.3427  143.0694 LP  0  0  0  0  0  0  0  0  0  0  0  0  # atno 17320 bound_to 7965
  145.8328  140.9622  143.0840 LP  0  0  0  0  0  0  0  0  0  0  0  0  # atno 17321 bound_to 7965
  139.4862  144.4582  151.9572 LP  0  0  0  0  0  0  0  0  0  0  0  0  # atno 17342 bound_to 10162
  140.3670  144.2902  150.5925 LP  0  0  0  0  0  0  0  0  0  0  0  0  # atno 17343 bound_to 10162
  157.7423  130.9888  150.2508 LP  0  0  0  0  0  0  0  0  0  0  0  0  # atno 17370 bound_to 10713
  156.3068  130.3766  149.7698 LP  0  0  0  0  0  0  0  0  0  0  0  0  # atno 17371 bound_to 10713
  140.9554  134.1725  157.4696 LP  0  0  0  0  0  0  0  0  0  0  0  0  # atno 17394 bound_to 11000
  139.8753  134.9925  156.5598 LP  0  0  0  0  0  0  0  0  0  0  0  0  # atno 17395 bound_to 11000

$$$$
