AV-unprocessed.smi:677|AV-procd|sdf|3312|dock5
  -GOLD-   22720 0273D 1   1.00000     0.00000
 Structure written by MMmdl.
 44 45  0  0  0  0  0  0  0  0  2 V2000
  151.8395  145.1465  158.6861 C   0  0  0  0  0  0  0  0  0  0  0  0
  151.7245  143.6811  158.3230 C   0  0  0  0  0  0  0  0  0  0  0  0
  152.3982  142.6695  159.0407 C   0  0  0  0  0  0  0  0  0  0  0  0
  152.2441  141.3247  158.6445 C   0  0  0  0  0  0  0  0  0  0  0  0
  151.4199  141.0178  157.5390 C   0  0  0  0  0  0  0  0  0  0  0  0
  151.2403  139.5814  157.0819 C   0  0  0  0  0  0  0  0  0  0  0  0
  150.6327  139.5514  155.6795 C   0  0  0  0  0  0  0  0  0  0  0  0
  151.2887  139.9551  154.7194 O   0  0  0  0  0  0  0  0  0  0  0  0
  149.3923  139.0499  155.5739 N   0  0  0  0  0  0  0  0  0  0  0  0
  148.6454  138.8936  154.3293 C   0  0  0  0  0  0  0  0  0  0  0  0
  147.5735  139.9885  154.1491 C   0  0  0  0  0  0  0  0  0  0  0  0
  148.1640  141.3920  153.9105 C   0  0  0  0  0  0  0  0  0  0  0  0
  147.0573  142.4584  153.8272 C   0  0  0  0  0  0  0  0  0  0  0  0
  146.2609  142.4680  155.0543 N   0  0  0  0  0  0  0  0  0  0  0  0
  145.2678  143.5332  154.9619 C   0  0  0  0  0  0  0  0  0  0  0  0
  144.4291  143.6323  156.1684 C   0  0  0  0  0  0  0  0  0  0  0  0
  143.7703  143.7110  157.1164 N   0  0  0  0  0  0  0  0  0  0  0  0
  145.5973  141.1730  155.2207 C   0  0  0  0  0  0  0  0  0  0  0  0
  146.6438  140.0556  155.3720 C   0  0  0  0  0  0  0  0  0  0  0  0
  150.7711  142.0718  156.8598 C   0  0  0  0  0  0  0  0  0  0  0  0
  150.9451  143.3469  157.2703 N   0  3  0  0  0  0  0  0  0  0  0  0
  152.4907  145.2882  159.5491 H   0  0  0  0  0  0  0  0  0  0  0  0
  150.8585  145.5559  158.9288 H   0  0  0  0  0  0  0  0  0  0  0  0
  152.2528  145.7128  157.8509 H   0  0  0  0  0  0  0  0  0  0  0  0
  153.0265  142.9178  159.8837 H   0  0  0  0  0  0  0  0  0  0  0  0
  152.7560  140.5397  159.1820 H   0  0  0  0  0  0  0  0  0  0  0  0
  152.2001  139.0622  157.0987 H   0  0  0  0  0  0  0  0  0  0  0  0
  150.5822  139.0513  157.7713 H   0  0  0  0  0  0  0  0  0  0  0  0
  148.9307  138.7461  156.4192 H   0  0  0  0  0  0  0  0  0  0  0  0
  149.3641  138.9491  153.5112 H   0  0  0  0  0  0  0  0  0  0  0  0
  148.1923  137.9028  154.2638 H   0  0  0  0  0  0  0  0  0  0  0  0
  146.9656  139.7260  153.2816 H   0  0  0  0  0  0  0  0  0  0  0  0
  148.8577  141.6460  154.7133 H   0  0  0  0  0  0  0  0  0  0  0  0
  148.7415  141.4100  152.9861 H   0  0  0  0  0  0  0  0  0  0  0  0
  147.5114  143.4393  153.6833 H   0  0  0  0  0  0  0  0  0  0  0  0
  146.4148  142.2739  152.9647 H   0  0  0  0  0  0  0  0  0  0  0  0
  145.7666  144.4961  154.8460 H   0  0  0  0  0  0  0  0  0  0  0  0
  144.6206  143.3923  154.0950 H   0  0  0  0  0  0  0  0  0  0  0  0
  144.9655  141.1909  156.1089 H   0  0  0  0  0  0  0  0  0  0  0  0
  144.9453  140.9716  154.3692 H   0  0  0  0  0  0  0  0  0  0  0  0
  146.1382  139.0992  155.5087 H   0  0  0  0  0  0  0  0  0  0  0  0
  147.2293  140.2268  156.2767 H   0  0  0  0  0  0  0  0  0  0  0  0
  150.1276  141.9353  156.0026 H   0  0  0  0  0  0  0  0  0  0  0  0
  150.4680  144.0914  156.7613 H   0  0  0  0  0  0  0  0  0  0  0  0
  1  2  1  0  0  0  0
  1 22  1  0  0  0  0
  1 23  1  0  0  0  0
  1 24  1  0  0  0  0
  2 21  1  0  0  0  0
  2  3  2  0  0  0  0
  3  4  1  0  0  0  0
  3 25  1  0  0  0  0
  4  5  2  0  0  0  0
  4 26  1  0  0  0  0
  5  6  1  0  0  0  0
  5 20  1  0  0  0  0
  6  7  1  0  0  0  0
  6 27  1  0  0  0  0
  6 28  1  0  0  0  0
  7  8  2  0  0  0  0
  7  9  1  0  0  0  0
  9 10  1  0  0  0  0
  9 29  1  0  0  0  0
 10 11  1  0  0  0  0
 10 30  1  0  0  0  0
 10 31  1  0  0  0  0
 11 19  1  0  0  0  0
 11 12  1  0  0  0  0
 11 32  1  0  0  0  0
 12 13  1  0  0  0  0
 12 33  1  0  0  0  0
 12 34  1  0  0  0  0
 13 14  1  0  0  0  0
 13 35  1  0  0  0  0
 13 36  1  0  0  0  0
 14 15  1  0  0  0  0
 14 18  1  0  0  0  0
 15 16  1  0  0  0  0
 15 37  1  0  0  0  0
 15 38  1  0  0  0  0
 16 17  3  0  0  0  0
 18 19  1  0  0  0  0
 18 39  1  0  0  0  0
 18 40  1  0  0  0  0
 19 41  1  0  0  0  0
 19 42  1  0  0  0  0
 20 21  2  0  0  0  0
 20 43  1  0  0  0  0
 21 44  1  0  0  0  0
M  CHG  1  21   1
M  END
> <s_m_source_file>
AV-unprocessed.smi

> <i_m_source_file_index>
677

> <i_lp_mmshare_version>
43012

> <i_f3d_flags>
0

> <s_epik_input>
W0NIM11jMVtjSF1bY0hdYyhbY0hdbjEpW0NIMl1DKD1PKVtOSF1bQ0gyXVtDSF0yW0NIMl1bQ0gyXU4oW0NIMl1DI04pW0NIMl1bQ0gyXTI=

> <s_epik_cmdline>
J2VwaWtfcHl0aG9uJywgJy1waCcsICc3LjAnLCAnLXRuJywgJzgnLCAnLW1hJywgJzIwMCcsICctbWV0YWxfYmluZGluZycsICctaW1hZScsICc8aW5maWxlLm1hZT4nLCAnLW9tYWUnLCAnPG91dGZpbGUubWFlPic=

> <r_epik_Ionization_Penalty>
2.12868

> <r_epik_Ionization_Penalty_Charging>
2.12771

> <r_epik_Ionization_Penalty_Neutral>
0.000970756

> <r_epik_State_Penalty>
2.26584

> <r_epik_Charging_Adjusted_Penalty>
4.39355

> <i_epik_Tot_Q>
1

> <i_epik_Tot_abs_Q>
1

> <r_epik_Metal_State_Penalty>
2.28211

> <b_epik_Metal_Only>
0

> <s_lp_Force_Field>
OPLS_2005

> <r_lp_Energy>
22.0212

> <b_lp_Chiralities_Consistent>
1

> <s_lp_Variant>
AV-unprocessed.smi:677-2

> <Gold.Version>
5.8.1

> <Gold.Id.Protein>
6NUR|6NUR_protein|mol2

> <Gold.PLP.Fitness>
45.7764

> <Gold.PLP.PLP>
-37.5055

> <Gold.PLP.part.hbond>
-2.0000

> <Gold.PLP.part.metal>
0.0000

> <Gold.PLP.part.buried>
-7.4394

> <Gold.PLP.part.nonpolar>
-29.6377

> <Gold.PLP.part.repulsive>
0.2988

> <Gold.PLP.ligand.clash>
0.0000

> <Gold.PLP.ligand.torsion>
0.3844

> <Gold.PLP.Chemscore.Hbond>
3.0000

> <Gold.PLP.Chemscore.CHOScore>
0.0000

> <Gold.PLP.Chemscore.Metal>
0.0000

> <Gold.Chemscore.Hbonds>
donor molecule, donor type, donor heavy atom, donor atom, acceptor molecule, acceptor atom, score
      L1  H    21    44       P1  8028  2.00
      P1  H  7989  7998       L1     8  1.00

> <Gold.PLP.Chemscore.Internal.Correction>
0.0397

> <Gold.Rescore>
     Score         DG    S(hbond)    S(metal)    S(lipo)     H(rot)  DE(clash)    DE(int)     intcor
     17.92     -18.39       1.98        0.00      94.48       1.86       0.03       0.44       ----

> <Gold.Chemscore.Fitness>
17.9200

> <Gold.Chemscore.DG>
-18.3937

> <Gold.Chemscore.ZeroCoef>
-5.4800

> <Gold.Chemscore.Hbond>
1.9820

> <Gold.Chemscore.Metal>
0.0000

> <Gold.Chemscore.Lipo>
94.4810

> <Gold.Chemscore.Internal_Hbond>
0.0000

> <Gold.Chemscore.DEClash>
0.0319

> <Gold.Chemscore.DEInternal>
0.4419

> <Gold.Chemscore.Rot>
1.8595

> <Gold.Chemscore.Internal.Correction>
   9.000000E+99

> <Gold.Chemscore.Hbonds>
donor molecule, donor type, donor heavy atom, donor atom, acceptor molecule, acceptor atom, score
      L1  H    21    44       P1  8028  0.91
      P1  H  7989  7998       L1     8  0.96

> <Gold.Chemscore.Hbond.Weighted>
-6.6197

> <Gold.Chemscore.Metal.Weighted>
-0.0000

> <Gold.Chemscore.Lipo.Weighted>
-11.0543

> <Gold.Chemscore.Internal_Hbond.Weighted>
0.0000

> <Gold.Chemscore.DEClash.Weighted>
0.0319

> <Gold.Chemscore.DEInternal.Weighted>
0.4419

> <Gold.Chemscore.Rot.Weighted>
4.7603

> <Gold.Chemscore.Internal.Correction.Weighted>
   9.000000E+99

> <Gold.Protein.RotatedTorsions>
[ 6907 6896 6895 6894 ] final   25.88 input  -60.11 | X-H torsion
[ 7974 7965 7964 7962 ] final   11.42 input  175.53 | X-H torsion
[ 8008 7997 7996 7995 ] final   44.85 input   59.86 | X-H torsion
[ 10167 10162 10161 10158 ] final -172.41 input  -65.29 | X-H torsion
[ 10718 10713 10712 10709 ] final  -84.54 input   66.30 | X-H torsion
[ 10763 10752 10751 10750 ] final  132.71 input  -60.55 | X-H torsion
[ 11005 11000 10999 10996 ] final -144.13 input  -57.11 | X-H torsion

> <Gold.Protein.ActiveResidues>
 VAL166  LYS551  ARG553  GLY616  TRP617  ASP618  TYR619  PRO620  LYS621  CYS622 
 ASP623  PHE694  ASN695  SER759  ASP760  ASP761  ALA762  ILE779  LEU786  VAL792 
 PHE793  MET794  SER795  GLU796  ALA797  LYS798  CYS799  TRP800  GLU811  SER814 

> <Gold.Protein.RotatedAtoms>
  151.9791  135.0038  160.0556 H   0  0  0  0  0  0  0  0  0  0  0  0  # atno 6907 bound_to 6896
  152.1713  133.4640  159.4919 H   0  0  0  0  0  0  0  0  0  0  0  0  # atno 6908 bound_to 6896
  150.6902  134.1867  159.4312 H   0  0  0  0  0  0  0  0  0  0  0  0  # atno 6909 bound_to 6896
  146.2371  139.9487  142.8473 H   0  0  0  0  0  0  0  0  0  0  0  0  # atno 7974 bound_to 7965
  155.3261  140.3400  155.4240 H   0  0  0  0  0  0  0  0  0  0  0  0  # atno 8008 bound_to 7997
  156.1885  140.1689  156.8175 H   0  0  0  0  0  0  0  0  0  0  0  0  # atno 8009 bound_to 7997
  154.5414  140.0724  156.8500 H   0  0  0  0  0  0  0  0  0  0  0  0  # atno 8010 bound_to 7997
  139.5746  144.1562  152.1432 H   0  0  0  0  0  0  0  0  0  0  0  0  # atno 10167 bound_to 10162
  156.0005  130.4701  150.4425 H   0  0  0  0  0  0  0  0  0  0  0  0  # atno 10718 bound_to 10713
  153.7952  135.3149  155.3383 H   0  0  0  0  0  0  0  0  0  0  0  0  # atno 10763 bound_to 10752
  154.8110  135.4667  154.0520 H   0  0  0  0  0  0  0  0  0  0  0  0  # atno 10764 bound_to 10752
  153.1851  135.6899  153.8514 H   0  0  0  0  0  0  0  0  0  0  0  0  # atno 10765 bound_to 10752
  140.8056  134.2806  157.4961 H   0  0  0  0  0  0  0  0  0  0  0  0  # atno 11005 bound_to 11000
  145.1882  140.9799  143.4226 LP  0  0  0  0  0  0  0  0  0  0  0  0  # atno 17320 bound_to 7965
  144.9881  139.3717  143.6229 LP  0  0  0  0  0  0  0  0  0  0  0  0  # atno 17321 bound_to 7965
  140.1102  144.5463  150.6930 LP  0  0  0  0  0  0  0  0  0  0  0  0  # atno 17342 bound_to 10162
  140.7029  143.2447  151.4811 LP  0  0  0  0  0  0  0  0  0  0  0  0  # atno 17343 bound_to 10162
  157.2465  131.0537  151.2405 LP  0  0  0  0  0  0  0  0  0  0  0  0  # atno 17370 bound_to 10713
  157.3570  130.7111  149.6477 LP  0  0  0  0  0  0  0  0  0  0  0  0  # atno 17371 bound_to 10713
  139.8718  134.9454  156.3908 LP  0  0  0  0  0  0  0  0  0  0  0  0  # atno 17394 bound_to 11000
  140.9251  133.7618  155.9954 LP  0  0  0  0  0  0  0  0  0  0  0  0  # atno 17395 bound_to 11000

$$$$
