AV-unprocessed.smi:1626|AV-procd|sdf|6507|dock4
  -GOLD-   22720 7173D 1   1.00000     0.00000
 Structure written by MMmdl.
 48 50  0  0  0  0  0  0  0  0  2 V2000
  152.0766  144.2067  159.8045 C   0  0  0  0  0  0  0  0  0  0  0  0
  151.9160  143.0485  158.8353 C   0  0  0  0  0  0  0  0  0  0  0  0
  151.0018  143.1708  157.7648 C   0  0  0  0  0  0  0  0  0  0  0  0
  150.8243  142.1184  156.8406 C   0  0  0  0  0  0  0  0  0  0  0  0
  149.9967  142.0228  155.7350 N   0  0  0  0  0  0  0  0  0  0  0  0
  150.2877  140.8055  155.2861 C   0  0  0  0  0  0  0  0  0  0  0  0
  151.2024  140.0966  155.9756 N   0  0  0  0  0  0  0  0  0  0  0  0
  151.6793  138.7575  155.6800 C   0  0  0  0  0  0  0  0  0  0  0  0
  150.8632  138.0712  154.5676 C   0  0  1  0  0  0  0  0  0  0  0  0
  151.6731  137.1105  153.9174 O   0  0  0  0  0  0  0  0  0  0  0  0
  149.6162  137.3636  155.1330 C   0  0  0  0  0  0  0  0  0  0  0  0
  148.4569  137.4190  154.2055 N   0  3  2  0  0  0  0  0  0  0  0  0
  148.0550  138.8068  153.8492 C   0  0  0  0  0  0  0  0  0  0  0  0
  146.9366  138.8093  152.7934 C   0  0  0  0  0  0  0  0  0  0  0  0
  145.7250  138.0010  153.2792 C   0  0  1  0  0  0  0  0  0  0  0  0
  144.7523  137.9345  152.2585 O   0  0  0  0  0  0  0  0  0  0  0  0
  146.1682  136.5821  153.6628 C   0  0  0  0  0  0  0  0  0  0  0  0
  147.3024  136.6243  154.7003 C   0  0  0  0  0  0  0  0  0  0  0  0
  151.5924  140.9305  157.0178 C   0  0  0  0  0  0  0  0  0  0  0  0
  152.5058  140.7969  158.0783 C   0  0  0  0  0  0  0  0  0  0  0  0
  152.6707  141.8582  158.9930 C   0  0  0  0  0  0  0  0  0  0  0  0
  153.6590  141.7053  160.1356 C   0  0  0  0  0  0  0  0  0  0  0  0
  151.3948  145.0234  159.5652 H   0  0  0  0  0  0  0  0  0  0  0  0
  153.0937  144.5971  159.7662 H   0  0  0  0  0  0  0  0  0  0  0  0
  151.8663  143.8855  160.8248 H   0  0  0  0  0  0  0  0  0  0  0  0
  150.4280  144.0778  157.6435 H   0  0  0  0  0  0  0  0  0  0  0  0
  149.8046  140.4040  154.4069 H   0  0  0  0  0  0  0  0  0  0  0  0
  152.7328  138.8149  155.4023 H   0  0  0  0  0  0  0  0  0  0  0  0
  151.6306  138.1717  156.5988 H   0  0  0  0  0  0  0  0  0  0  0  0
  150.5757  138.8236  153.8340 H   0  0  0  0  0  0  0  0  0  0  0  0
  151.3873  137.0350  153.0190 H   0  0  0  0  0  0  0  0  0  0  0  0
  149.8765  136.3241  155.3394 H   0  0  0  0  0  0  0  0  0  0  0  0
  149.3292  137.7980  156.0919 H   0  0  0  0  0  0  0  0  0  0  0  0
  147.7214  139.3311  154.7463 H   0  0  0  0  0  0  0  0  0  0  0  0
  148.9070  139.3629  153.4604 H   0  0  0  0  0  0  0  0  0  0  0  0
  146.6396  139.8348  152.5708 H   0  0  0  0  0  0  0  0  0  0  0  0
  147.3175  138.3873  151.8620 H   0  0  0  0  0  0  0  0  0  0  0  0
  145.2784  138.4916  154.1450 H   0  0  0  0  0  0  0  0  0  0  0  0
  144.2159  138.7119  152.2981 H   0  0  0  0  0  0  0  0  0  0  0  0
  145.3230  136.0190  154.0604 H   0  0  0  0  0  0  0  0  0  0  0  0
  146.5085  136.0454  152.7759 H   0  0  0  0  0  0  0  0  0  0  0  0
  147.6227  135.6045  154.9168 H   0  0  0  0  0  0  0  0  0  0  0  0
  146.9409  137.0500  155.6377 H   0  0  0  0  0  0  0  0  0  0  0  0
  153.0754  139.8859  158.1864 H   0  0  0  0  0  0  0  0  0  0  0  0
  154.1695  140.7428  160.0950 H   0  0  0  0  0  0  0  0  0  0  0  0
  153.1458  141.7715  161.0952 H   0  0  0  0  0  0  0  0  0  0  0  0
  154.4168  142.4877  160.0928 H   0  0  0  0  0  0  0  0  0  0  0  0
  148.7604  136.9691  153.3530 H   0  0  0  0  0  0  0  0  0  0  0  0
  1  2  1  0  0  0  0
  1 23  1  0  0  0  0
  1 24  1  0  0  0  0
  1 25  1  0  0  0  0
  2 21  1  0  0  0  0
  2  3  2  0  0  0  0
  3  4  1  0  0  0  0
  3 26  1  0  0  0  0
  4 19  2  0  0  0  0
  4  5  1  0  0  0  0
  5  6  2  0  0  0  0
  6  7  1  0  0  0  0
  6 27  1  0  0  0  0
  7  8  1  0  0  0  0
  7 19  1  0  0  0  0
  8  9  1  0  0  0  0
  8 28  1  0  0  0  0
  8 29  1  0  0  0  0
  9 10  1  0  0  0  0
  9 11  1  0  0  0  0
  9 30  1  0  0  0  0
 10 31  1  0  0  0  0
 11 12  1  0  0  0  0
 11 32  1  0  0  0  0
 11 33  1  0  0  0  0
 12 18  1  0  0  0  0
 12 13  1  0  0  0  0
 12 48  1  0  0  0  0
 13 14  1  0  0  0  0
 13 34  1  0  0  0  0
 13 35  1  0  0  0  0
 14 15  1  0  0  0  0
 14 36  1  0  0  0  0
 14 37  1  0  0  0  0
 15 16  1  0  0  0  0
 15 17  1  0  0  0  0
 15 38  1  0  0  0  0
 16 39  1  0  0  0  0
 17 18  1  0  0  0  0
 17 40  1  0  0  0  0
 17 41  1  0  0  0  0
 18 42  1  0  0  0  0
 18 43  1  0  0  0  0
 19 20  1  0  0  0  0
 20 21  2  0  0  0  0
 20 44  1  0  0  0  0
 21 22  1  0  0  0  0
 22 45  1  0  0  0  0
 22 46  1  0  0  0  0
 22 47  1  0  0  0  0
M  CHG  1  12   1
M  END
> <s_m_source_file>
AV-unprocessed.smi

> <i_m_source_file_index>
1626

> <i_lp_mmshare_version>
43012

> <i_f3d_flags>
0

> <s_epik_input>
W0NIM11jKFtjSF0xKWMoW0NIM10pW2NIXWMoYzEyKW4oW2NIXW4yKVtDSDJdW0NASF0oW09IXSlbQ0gyXU4zW0NIMl1bQ0gyXVtDSF0oW09IXSlbQ0gyXVtDSDJdMw==

> <s_epik_cmdline>
J2VwaWtfcHl0aG9uJywgJy1waCcsICc3LjAnLCAnLXRuJywgJzgnLCAnLW1hJywgJzIwMCcsICctbWV0YWxfYmluZGluZycsICctaW1hZScsICc8aW5maWxlLm1hZT4nLCAnLW9tYWUnLCAnPG91dGZpbGUubWFlPic=

> <r_epik_Ionization_Penalty>
0.106584

> <r_epik_Ionization_Penalty_Charging>
0.0185694

> <r_epik_Ionization_Penalty_Neutral>
0.0880147

> <r_epik_State_Penalty>
0.0908428

> <r_epik_Charging_Adjusted_Penalty>
0.109412

> <i_epik_Tot_Q>
1

> <i_epik_Tot_abs_Q>
1

> <r_epik_Metal_State_Penalty>
0.0153739

> <b_epik_Metal_Only>
0

> <s_lp_Force_Field>
OPLS_2005

> <r_lp_Energy>
20.8081

> <b_lp_Chiralities_Consistent>
1

> <s_lp_Variant>
AV-unprocessed.smi:1626-2

> <Gold.Version>
5.8.1

> <Gold.Id.Protein>
6NUR|6NUR_protein|mol2

> <Gold.PLP.Fitness>
56.2274

> <Gold.PLP.PLP>
-42.8684

> <Gold.PLP.part.hbond>
-5.0000

> <Gold.PLP.part.metal>
0.0000

> <Gold.PLP.part.buried>
-4.4583

> <Gold.PLP.part.nonpolar>
-34.8913

> <Gold.PLP.part.repulsive>
1.3084

> <Gold.PLP.ligand.clash>
0.0000

> <Gold.PLP.ligand.torsion>
0.8410

> <Gold.PLP.Chemscore.Hbond>
5.0000

> <Gold.PLP.Chemscore.CHOScore>
0.0000

> <Gold.PLP.Chemscore.Metal>
0.0000

> <Gold.Chemscore.Hbonds>
donor molecule, donor type, donor heavy atom, donor atom, acceptor molecule, acceptor atom, score
      L1  H    10    31       P1  7949  0.99
      L1  H    12    48       P1  7948  2.00
      L1  H    16    39       P1 10175  1.00
      P1  H 10752 10764       L1    10  1.00

> <Gold.PLP.Chemscore.Internal.Correction>
0.0409

> <Gold.Rescore>
     Score         DG    S(hbond)    S(metal)    S(lipo)     H(rot)  DE(clash)    DE(int)     intcor
     21.21     -22.59       3.25        0.00     111.78       2.67       0.52       0.86       ----

> <Gold.Chemscore.Fitness>
21.2116

> <Gold.Chemscore.DG>
-22.5869

> <Gold.Chemscore.ZeroCoef>
-5.4800

> <Gold.Chemscore.Hbond>
3.2537

> <Gold.Chemscore.Metal>
0.0000

> <Gold.Chemscore.Lipo>
111.7763

> <Gold.Chemscore.Internal_Hbond>
0.0000

> <Gold.Chemscore.DEClash>
0.5159

> <Gold.Chemscore.DEInternal>
0.8593

> <Gold.Chemscore.Rot>
2.6712

> <Gold.Chemscore.Internal.Correction>
   9.000000E+99

> <Gold.Chemscore.Hbonds>
donor molecule, donor type, donor heavy atom, donor atom, acceptor molecule, acceptor atom, score
      L1  H    10    31       P1  7949  0.77
      L1  H    12    48       P1  7948  1.00
      L1  H    16    39       P1 10175  1.00
      P1  H 10752 10764       L1    10  0.25

> <Gold.Chemscore.Hbond.Weighted>
-10.8674

> <Gold.Chemscore.Metal.Weighted>
-0.0000

> <Gold.Chemscore.Lipo.Weighted>
-13.0778

> <Gold.Chemscore.Internal_Hbond.Weighted>
0.0000

> <Gold.Chemscore.DEClash.Weighted>
0.5159

> <Gold.Chemscore.DEInternal.Weighted>
0.8593

> <Gold.Chemscore.Rot.Weighted>
6.8383

> <Gold.Chemscore.Internal.Correction.Weighted>
   9.000000E+99

> <Gold.Protein.RotatedTorsions>
[ 6907 6896 6895 6894 ] final  150.90 input  -60.11 | X-H torsion
[ 7974 7965 7964 7962 ] final -102.01 input  175.53 | X-H torsion
[ 8008 7997 7996 7995 ] final  -75.82 input   59.86 | X-H torsion
[ 10167 10162 10161 10158 ] final  -76.20 input  -65.29 | X-H torsion
[ 10718 10713 10712 10709 ] final  160.50 input   66.30 | X-H torsion
[ 10763 10752 10751 10750 ] final  -99.03 input  -60.55 | X-H torsion
[ 11005 11000 10999 10996 ] final  135.80 input  -57.11 | X-H torsion

> <Gold.Protein.ActiveResidues>
 VAL166  LYS551  ARG553  GLY616  TRP617  ASP618  TYR619  PRO620  LYS621  CYS622 
 ASP623  PHE694  ASN695  SER759  ASP760  ASP761  ALA762  ILE779  LEU786  VAL792 
 PHE793  MET794  SER795  GLU796  ALA797  LYS798  CYS799  TRP800  GLU811  SER814 

> <Gold.Protein.RotatedAtoms>
  152.1081  133.4285  159.4617 H   0  0  0  0  0  0  0  0  0  0  0  0  # atno 6907 bound_to 6896
  150.6866  134.2681  159.4586 H   0  0  0  0  0  0  0  0  0  0  0  0  # atno 6908 bound_to 6896
  152.0547  134.9631  160.0625 H   0  0  0  0  0  0  0  0  0  0  0  0  # atno 6909 bound_to 6896
  145.2743  140.9308  143.2968 H   0  0  0  0  0  0  0  0  0  0  0  0  # atno 7974 bound_to 7965
  154.5450  140.0737  156.8574 H   0  0  0  0  0  0  0  0  0  0  0  0  # atno 8008 bound_to 7997
  155.3104  140.3390  155.4226 H   0  0  0  0  0  0  0  0  0  0  0  0  # atno 8009 bound_to 7997
  156.1910  140.1686  156.8078 H   0  0  0  0  0  0  0  0  0  0  0  0  # atno 8010 bound_to 7997
  140.4877  143.2387  151.7957 H   0  0  0  0  0  0  0  0  0  0  0  0  # atno 10167 bound_to 10162
  157.1495  131.0560  151.2287 H   0  0  0  0  0  0  0  0  0  0  0  0  # atno 10718 bound_to 10713
  154.7464  135.4987  153.9211 H   0  0  0  0  0  0  0  0  0  0  0  0  # atno 10763 bound_to 10752
  153.1096  135.6706  153.9532 H   0  0  0  0  0  0  0  0  0  0  0  0  # atno 10764 bound_to 10752
  153.9295  135.3079  155.3425 H   0  0  0  0  0  0  0  0  0  0  0  0  # atno 10765 bound_to 10752
  140.0004  134.9481  157.0058 H   0  0  0  0  0  0  0  0  0  0  0  0  # atno 11005 bound_to 11000
  144.9308  139.4301  143.6496 LP  0  0  0  0  0  0  0  0  0  0  0  0  # atno 17320 bound_to 7965
  146.3237  139.8218  142.8925 LP  0  0  0  0  0  0  0  0  0  0  0  0  # atno 17321 bound_to 7965
  139.4845  144.4690  151.9448 LP  0  0  0  0  0  0  0  0  0  0  0  0  # atno 17342 bound_to 10162
  140.3776  144.2776  150.5912 LP  0  0  0  0  0  0  0  0  0  0  0  0  # atno 17343 bound_to 10162
  157.4234  130.7450  149.6931 LP  0  0  0  0  0  0  0  0  0  0  0  0  # atno 17370 bound_to 10713
  155.9773  130.4064  150.3720 LP  0  0  0  0  0  0  0  0  0  0  0  0  # atno 17371 bound_to 10713
  140.4739  134.1358  155.7207 LP  0  0  0  0  0  0  0  0  0  0  0  0  # atno 17394 bound_to 11000
  141.1637  133.8744  157.1776 LP  0  0  0  0  0  0  0  0  0  0  0  0  # atno 17395 bound_to 11000

$$$$
