AV-unprocessed.smi:1538|AV-procd|sdf|6194|dock9
  -GOLD-   22720 6363D 1   1.00000     0.00000
 Structure written by MMmdl.
 36 37  0  0  0  0  0  0  0  0  1 V2000
  152.4820  137.8713  154.6363 C   0  0  0  0  0  0  0  0  0  0  0  0
  151.8388  138.2175  155.9051 N   0  0  0  0  0  0  0  0  0  0  0  0
  151.9725  137.2073  156.9620 C   0  0  0  0  0  0  0  0  0  0  0  0
  150.9214  137.3530  158.0704 C   0  0  0  0  0  0  0  0  0  0  0  0
  150.8198  138.8014  158.5699 C   0  0  1  0  0  0  0  0  0  0  0  0
  152.0357  139.2132  159.4170 C   0  0  0  0  0  0  0  0  0  0  0  0
  152.8789  138.3778  159.7450 O   0  0  0  0  0  0  0  0  0  0  0  0
  152.1028  140.5041  159.7792 N   0  0  0  0  0  0  0  0  0  0  0  0
  153.1097  141.0761  160.6688 C   0  0  0  0  0  0  0  0  0  0  0  0
  152.6233  142.3867  161.3163 C   0  0  0  0  0  0  0  0  0  0  0  0
  152.3199  143.4158  160.3384 N   0  0  0  0  0  0  0  0  0  0  0  0
  152.6327  143.4064  158.9855 C   0  0  0  0  0  0  0  0  0  0  0  0
  152.1645  144.5923  158.4660 C   0  0  0  0  0  0  0  0  0  0  0  0
  151.5566  145.3386  159.4728 N   0  0  0  0  0  0  0  0  0  0  0  0
  151.6836  144.5763  160.5510 C   0  0  0  0  0  0  0  0  0  0  0  0
  150.5572  139.7770  157.3997 C   0  0  0  0  0  0  0  0  0  0  0  0
  151.2265  139.4169  156.0588 C   0  0  0  0  0  0  0  0  0  0  0  0
  151.1667  140.2449  155.1491 O   0  0  0  0  0  0  0  0  0  0  0  0
  153.1803  138.6511  154.3278 H   0  0  0  0  0  0  0  0  0  0  0  0
  151.7345  137.7512  153.8511 H   0  0  0  0  0  0  0  0  0  0  0  0
  153.0484  136.9418  154.7015 H   0  0  0  0  0  0  0  0  0  0  0  0
  151.8937  136.2064  156.5355 H   0  0  0  0  0  0  0  0  0  0  0  0
  152.9762  137.2826  157.3819 H   0  0  0  0  0  0  0  0  0  0  0  0
  149.9494  137.0407  157.6859 H   0  0  0  0  0  0  0  0  0  0  0  0
  151.1524  136.6750  158.8933 H   0  0  0  0  0  0  0  0  0  0  0  0
  149.9514  138.8555  159.2288 H   0  0  0  0  0  0  0  0  0  0  0  0
  151.3743  141.1245  159.4568 H   0  0  0  0  0  0  0  0  0  0  0  0
  153.4159  140.3601  161.4333 H   0  0  0  0  0  0  0  0  0  0  0  0
  153.9992  141.2791  160.0724 H   0  0  0  0  0  0  0  0  0  0  0  0
  151.7214  142.1994  161.8997 H   0  0  0  0  0  0  0  0  0  0  0  0
  153.3719  142.7688  162.0118 H   0  0  0  0  0  0  0  0  0  0  0  0
  153.1559  142.5843  158.5200 H   0  0  0  0  0  0  0  0  0  0  0  0
  152.2178  144.9626  157.4529 H   0  0  0  0  0  0  0  0  0  0  0  0
  151.3150  144.8749  161.5215 H   0  0  0  0  0  0  0  0  0  0  0  0
  149.4834  139.8121  157.2126 H   0  0  0  0  0  0  0  0  0  0  0  0
  150.8386  140.7956  157.6717 H   0  0  0  0  0  0  0  0  0  0  0  0
  1  2  1  0  0  0  0
  1 19  1  0  0  0  0
  1 20  1  0  0  0  0
  1 21  1  0  0  0  0
  2 17  1  0  0  0  0
  2  3  1  0  0  0  0
  3  4  1  0  0  0  0
  3 22  1  0  0  0  0
  3 23  1  0  0  0  0
  4  5  1  0  0  0  0
  4 24  1  0  0  0  0
  4 25  1  0  0  0  0
  5  6  1  0  0  0  0
  5 16  1  0  0  0  0
  5 26  1  0  0  0  0
  6  7  2  0  0  0  0
  6  8  1  0  0  0  0
  8  9  1  0  0  0  0
  8 27  1  0  0  0  0
  9 10  1  0  0  0  0
  9 28  1  0  0  0  0
  9 29  1  0  0  0  0
 10 11  1  0  0  0  0
 10 30  1  0  0  0  0
 10 31  1  0  0  0  0
 11 15  1  0  0  0  0
 11 12  1  0  0  0  0
 12 13  2  0  0  0  0
 12 32  1  0  0  0  0
 13 14  1  0  0  0  0
 13 33  1  0  0  0  0
 14 15  2  0  0  0  0
 15 34  1  0  0  0  0
 16 17  1  0  0  0  0
 16 35  1  0  0  0  0
 16 36  1  0  0  0  0
 17 18  2  0  0  0  0
M  END
> <s_m_source_file>
AV-unprocessed.smi

> <i_m_source_file_index>
1538

> <i_lp_mmshare_version>
43012

> <i_f3d_flags>
0

> <s_epik_input>
W0NIM11OMVtDSDJdW0NIMl1bQ0BIXShbQ0gyXUMxPU8pQyg9TylbTkhdW0NIMl1bQ0gyXW4yW2NIXVtjSF1uW2NIXTI=

> <s_epik_cmdline>
J2VwaWtfcHl0aG9uJywgJy1waCcsICc3LjAnLCAnLXRuJywgJzgnLCAnLW1hJywgJzIwMCcsICctbWV0YWxfYmluZGluZycsICctaW1hZScsICc8aW5maWxlLm1hZT4nLCAnLW9tYWUnLCAnPG91dGZpbGUubWFlPic=

> <r_lp_tautomer_probability>
1

> <r_epik_Ionization_Penalty>
0.590576

> <r_epik_Ionization_Penalty_Charging>
0.590576

> <r_epik_Ionization_Penalty_Neutral>
2.97775e-08

> <r_epik_State_Penalty>
0.604111

> <r_epik_Charging_Adjusted_Penalty>
1.19469

> <i_epik_Tot_Q>
0

> <i_epik_Tot_abs_Q>
0

> <r_epik_Metal_State_Penalty>
0.298544

> <b_epik_Metal_Only>
0

> <s_lp_Force_Field>
OPLS_2005

> <r_lp_Energy>
13.4422

> <b_lp_Chiralities_Consistent>
1

> <s_lp_Variant>
AV-unprocessed.smi:1538-3

> <Gold.Version>
5.8.1

> <Gold.Id.Protein>
6NUR|6NUR_protein|mol2

> <Gold.PLP.Fitness>
42.5994

> <Gold.PLP.PLP>
-40.5292

> <Gold.PLP.part.hbond>
-2.0000

> <Gold.PLP.part.metal>
0.0000

> <Gold.PLP.part.buried>
-6.1888

> <Gold.PLP.part.nonpolar>
-32.8472

> <Gold.PLP.part.repulsive>
0.3380

> <Gold.PLP.ligand.clash>
0.0000

> <Gold.PLP.ligand.torsion>
0.4873

> <Gold.PLP.Chemscore.Hbond>
1.0000

> <Gold.PLP.Chemscore.CHOScore>
0.0000

> <Gold.PLP.Chemscore.Metal>
0.0000

> <Gold.Chemscore.Hbonds>
donor molecule, donor type, donor heavy atom, donor atom, acceptor molecule, acceptor atom, score
      P1  H  7989  7998       L1    18  1.00

> <Gold.PLP.Chemscore.Internal.Correction>
0.0448

> <Gold.Rescore>
     Score         DG    S(hbond)    S(metal)    S(lipo)     H(rot)  DE(clash)    DE(int)     intcor
     11.97     -12.54       0.99        0.00      75.42       1.98       0.00       0.56       ----

> <Gold.Chemscore.Fitness>
11.9735

> <Gold.Chemscore.DG>
-12.5421

> <Gold.Chemscore.ZeroCoef>
-5.4800

> <Gold.Chemscore.Hbond>
0.9886

> <Gold.Chemscore.Metal>
0.0000

> <Gold.Chemscore.Lipo>
75.4234

> <Gold.Chemscore.Internal_Hbond>
0.0000

> <Gold.Chemscore.DEClash>
0.0038

> <Gold.Chemscore.DEInternal>
0.5648

> <Gold.Chemscore.Rot>
1.9782

> <Gold.Chemscore.Internal.Correction>
   9.000000E+99

> <Gold.Chemscore.Hbonds>
donor molecule, donor type, donor heavy atom, donor atom, acceptor molecule, acceptor atom, score
      P1  H  7989  7998       L1    18  0.98

> <Gold.Chemscore.Hbond.Weighted>
-3.3018

> <Gold.Chemscore.Metal.Weighted>
-0.0000

> <Gold.Chemscore.Lipo.Weighted>
-8.8245

> <Gold.Chemscore.Internal_Hbond.Weighted>
0.0000

> <Gold.Chemscore.DEClash.Weighted>
0.0038

> <Gold.Chemscore.DEInternal.Weighted>
0.5648

> <Gold.Chemscore.Rot.Weighted>
5.0643

> <Gold.Chemscore.Internal.Correction.Weighted>
   9.000000E+99

> <Gold.Protein.RotatedTorsions>
[ 6907 6896 6895 6894 ] final   94.64 input  -60.11 | X-H torsion
[ 7974 7965 7964 7962 ] final  124.57 input  175.53 | X-H torsion
[ 8008 7997 7996 7995 ] final  113.05 input   59.86 | X-H torsion
[ 10167 10162 10161 10158 ] final  122.90 input  -65.29 | X-H torsion
[ 10718 10713 10712 10709 ] final   48.43 input   66.30 | X-H torsion
[ 10763 10752 10751 10750 ] final   77.37 input  -60.55 | X-H torsion
[ 11005 11000 10999 10996 ] final  -50.19 input  -57.11 | X-H torsion

> <Gold.Protein.ActiveResidues>
 VAL166  LYS551  ARG553  GLY616  TRP617  ASP618  TYR619  PRO620  LYS621  CYS622 
 ASP623  PHE694  ASN695  SER759  ASP760  ASP761  ALA762  ILE779  LEU786  VAL792 
 PHE793  MET794  SER795  GLU796  ALA797  LYS798  CYS799  TRP800  GLU811  SER814 

> <Gold.Protein.RotatedAtoms>
  152.5448  134.1163  159.8379 H   0  0  0  0  0  0  0  0  0  0  0  0  # atno 6907 bound_to 6896
  151.1223  133.5088  159.2609 H   0  0  0  0  0  0  0  0  0  0  0  0  # atno 6908 bound_to 6896
  151.1765  135.0351  159.8828 H   0  0  0  0  0  0  0  0  0  0  0  0  # atno 6909 bound_to 6896
  145.0828  139.3644  143.4900 H   0  0  0  0  0  0  0  0  0  0  0  0  # atno 7974 bound_to 7965
  156.2233  140.2987  156.0004 H   0  0  0  0  0  0  0  0  0  0  0  0  # atno 8008 bound_to 7997
  155.2425  140.0423  157.2994 H   0  0  0  0  0  0  0  0  0  0  0  0  # atno 8009 bound_to 7997
  154.5874  140.2392  155.7976 H   0  0  0  0  0  0  0  0  0  0  0  0  # atno 8010 bound_to 7997
  139.5831  144.6995  151.3477 H   0  0  0  0  0  0  0  0  0  0  0  0  # atno 10167 bound_to 10162
  157.4686  130.8241  149.7963 H   0  0  0  0  0  0  0  0  0  0  0  0  # atno 10718 bound_to 10713
  153.0794  135.4916  154.8471 H   0  0  0  0  0  0  0  0  0  0  0  0  # atno 10763 bound_to 10752
  154.7130  135.3024  154.9169 H   0  0  0  0  0  0  0  0  0  0  0  0  # atno 10764 bound_to 10752
  153.9857  135.6784  153.4805 H   0  0  0  0  0  0  0  0  0  0  0  0  # atno 10765 bound_to 10752
  141.0802  133.6655  156.3695 H   0  0  0  0  0  0  0  0  0  0  0  0  # atno 11005 bound_to 11000
  146.3531  140.0627  142.8628 LP  0  0  0  0  0  0  0  0  0  0  0  0  # atno 17320 bound_to 7965
  145.1157  140.9432  143.4630 LP  0  0  0  0  0  0  0  0  0  0  0  0  # atno 17321 bound_to 7965
  140.7107  143.7398  150.7561 LP  0  0  0  0  0  0  0  0  0  0  0  0  # atno 17342 bound_to 10162
  140.0936  143.4854  152.2465 LP  0  0  0  0  0  0  0  0  0  0  0  0  # atno 17343 bound_to 10162
  156.0062  130.3854  150.2423 LP  0  0  0  0  0  0  0  0  0  0  0  0  # atno 17370 bound_to 10713
  157.0604  131.0088  151.3224 LP  0  0  0  0  0  0  0  0  0  0  0  0  # atno 17371 bound_to 10713
  140.5485  134.6051  157.5401 LP  0  0  0  0  0  0  0  0  0  0  0  0  # atno 17394 bound_to 11000
  139.9616  134.7443  156.0226 LP  0  0  0  0  0  0  0  0  0  0  0  0  # atno 17395 bound_to 11000

$$$$
