AV-unprocessed.smi:671|AV-procd|sdf|3278|dock2
  -GOLD-   22720 0233D 1   1.00000     0.00000
 Structure written by MMmdl.
 49 50  0  0  0  0  0  0  0  0  1 V2000
  154.1422  140.2048  160.1244 C   0  0  0  0  0  0  0  0  0  0  0  0
  153.5193  141.4754  160.6283 C   0  0  0  0  0  0  0  0  0  0  0  0
  153.6352  141.7749  161.9110 N   0  0  0  0  0  0  0  0  0  0  0  0
  152.9840  142.9459  162.0529 N   0  0  0  0  0  0  0  0  0  0  0  0
  152.9181  143.5679  163.3611 C   0  0  0  0  0  0  0  0  0  0  0  0
  152.4535  143.3878  160.8570 C   0  0  0  0  0  0  0  0  0  0  0  0
  151.6827  144.6649  160.7545 C   0  0  0  0  0  0  0  0  0  0  0  0
  152.7766  142.4573  159.9058 C   0  0  0  0  0  0  0  0  0  0  0  0
  152.4296  142.4694  158.4373 C   0  0  0  0  0  0  0  0  0  0  0  0
  150.9685  142.0570  158.1696 C   0  0  1  0  0  0  0  0  0  0  0  0
  150.0012  143.2238  158.4121 C   0  0  0  0  0  0  0  0  0  0  0  0
  150.8130  141.5899  156.7878 N   0  0  0  0  0  0  0  0  0  0  0  0
  150.6762  140.3376  156.3151 C   0  0  0  0  0  0  0  0  0  0  0  0
  150.6587  139.3651  157.0671 O   0  0  0  0  0  0  0  0  0  0  0  0
  150.5532  140.2403  154.9814 N   0  0  0  0  0  0  0  0  0  0  0  0
  150.4215  138.9869  154.2385 C   0  0  2  0  0  0  0  0  0  0  0  0
  149.1972  138.1823  154.7284 C   0  0  0  0  0  0  0  0  0  0  0  0
  149.7310  136.8524  155.2736 C   0  0  0  0  0  0  0  0  0  0  0  0
  151.2108  137.1004  155.5546 C   0  0  0  0  0  0  0  0  0  0  0  0
  151.6374  138.0568  154.4406 C   0  0  2  0  0  0  0  0  0  0  0  0
  152.9903  138.7414  154.6897 C   0  0  0  0  0  0  0  0  0  0  0  0
  153.5535  139.3377  160.4244 H   0  0  0  0  0  0  0  0  0  0  0  0
  155.1505  140.0754  160.5191 H   0  0  0  0  0  0  0  0  0  0  0  0
  154.2126  140.1954  159.0370 H   0  0  0  0  0  0  0  0  0  0  0  0
  151.8930  143.8718  163.5745 H   0  0  0  0  0  0  0  0  0  0  0  0
  153.5625  144.4470  163.3800 H   0  0  0  0  0  0  0  0  0  0  0  0
  153.2431  142.8710  164.1349 H   0  0  0  0  0  0  0  0  0  0  0  0
  151.3578  144.8528  159.7315 H   0  0  0  0  0  0  0  0  0  0  0  0
  152.2920  145.5110  161.0727 H   0  0  0  0  0  0  0  0  0  0  0  0
  150.7934  144.6337  161.3839 H   0  0  0  0  0  0  0  0  0  0  0  0
  152.5966  143.4655  158.0268 H   0  0  0  0  0  0  0  0  0  0  0  0
  153.1003  141.8211  157.8726 H   0  0  0  0  0  0  0  0  0  0  0  0
  150.7013  141.2810  158.8879 H   0  0  0  0  0  0  0  0  0  0  0  0
  150.0684  143.5829  159.4396 H   0  0  0  0  0  0  0  0  0  0  0  0
  148.9683  142.9195  158.2387 H   0  0  0  0  0  0  0  0  0  0  0  0
  150.2168  144.0641  157.7510 H   0  0  0  0  0  0  0  0  0  0  0  0
  150.7680  142.3225  156.0945 H   0  0  0  0  0  0  0  0  0  0  0  0
  150.5640  141.0921  154.4398 H   0  0  0  0  0  0  0  0  0  0  0  0
  150.3266  139.2158  153.1751 H   0  0  0  0  0  0  0  0  0  0  0  0
  148.6618  138.7153  155.5157 H   0  0  0  0  0  0  0  0  0  0  0  0
  148.4837  138.0131  153.9213 H   0  0  0  0  0  0  0  0  0  0  0  0
  149.1893  136.5153  156.1578 H   0  0  0  0  0  0  0  0  0  0  0  0
  149.6305  136.0790  154.5107 H   0  0  0  0  0  0  0  0  0  0  0  0
  151.3268  137.5800  156.5277 H   0  0  0  0  0  0  0  0  0  0  0  0
  151.7939  136.1789  155.5635 H   0  0  0  0  0  0  0  0  0  0  0  0
  151.7373  137.4623  153.5308 H   0  0  0  0  0  0  0  0  0  0  0  0
  152.9928  139.3000  155.6253 H   0  0  0  0  0  0  0  0  0  0  0  0
  153.2286  139.4326  153.8814 H   0  0  0  0  0  0  0  0  0  0  0  0
  153.7944  138.0075  154.7449 H   0  0  0  0  0  0  0  0  0  0  0  0
  1  2  1  0  0  0  0
  1 22  1  0  0  0  0
  1 23  1  0  0  0  0
  1 24  1  0  0  0  0
  2  8  1  0  0  0  0
  2  3  2  0  0  0  0
  3  4  1  0  0  0  0
  4  5  1  0  0  0  0
  4  6  1  0  0  0  0
  5 25  1  0  0  0  0
  5 26  1  0  0  0  0
  5 27  1  0  0  0  0
  6  7  1  0  0  0  0
  6  8  2  0  0  0  0
  7 28  1  0  0  0  0
  7 29  1  0  0  0  0
  7 30  1  0  0  0  0
  8  9  1  0  0  0  0
  9 10  1  0  0  0  0
  9 31  1  0  0  0  0
  9 32  1  0  0  0  0
 10 11  1  0  0  0  0
 10 12  1  0  0  0  0
 10 33  1  0  0  0  0
 11 34  1  0  0  0  0
 11 35  1  0  0  0  0
 11 36  1  0  0  0  0
 12 13  1  0  0  0  0
 12 37  1  0  0  0  0
 13 14  2  0  0  0  0
 13 15  1  0  0  0  0
 15 16  1  0  0  0  0
 15 38  1  0  0  0  0
 16 20  1  0  0  0  0
 16 17  1  0  0  0  0
 16 39  1  0  0  0  0
 17 18  1  0  0  0  0
 17 40  1  0  0  0  0
 17 41  1  0  0  0  0
 18 19  1  0  0  0  0
 18 42  1  0  0  0  0
 18 43  1  0  0  0  0
 19 20  1  0  0  0  0
 19 44  1  0  0  0  0
 19 45  1  0  0  0  0
 20 21  1  0  0  0  0
 20 46  1  0  0  0  0
 21 47  1  0  0  0  0
 21 48  1  0  0  0  0
 21 49  1  0  0  0  0
M  END
> <s_m_source_file>
AV-unprocessed.smi

> <i_m_source_file_index>
671

> <i_lp_mmshare_version>
43012

> <i_f3d_flags>
0

> <s_epik_input>
W0NIM11jMW5uKFtDSDNdKWMoW0NIM10pYzFbQ0gyXVtDQEhdKFtDSDNdKVtOSF1DKD1PKVtOSF1bQ0BASF0yW0NIMl1bQ0gyXVtDSDJdW0NASF0yW0NIM10=

> <s_epik_cmdline>
J2VwaWtfcHl0aG9uJywgJy1waCcsICc3LjAnLCAnLXRuJywgJzgnLCAnLW1hJywgJzIwMCcsICctbWV0YWxfYmluZGluZycsICctaW1hZScsICc8aW5maWxlLm1hZT4nLCAnLW9tYWUnLCAnPG91dGZpbGUubWFlPic=

> <r_lp_tautomer_probability>
1

> <r_epik_Ionization_Penalty>
0.0126855

> <r_epik_Ionization_Penalty_Charging>
0

> <r_epik_Ionization_Penalty_Neutral>
0.0126855

> <r_epik_State_Penalty>
0.00977547

> <r_epik_Charging_Adjusted_Penalty>
0.00977547

> <i_epik_Tot_Q>
0

> <i_epik_Tot_abs_Q>
0

> <r_epik_Metal_State_Penalty>
0.00957132

> <b_epik_Metal_Only>
0

> <s_lp_Force_Field>
OPLS_2005

> <r_lp_Energy>
22.0359

> <b_lp_Chiralities_Consistent>
1

> <s_lp_Variant>
AV-unprocessed.smi:671-6

> <Gold.Version>
5.8.1

> <Gold.Id.Protein>
6NUR|6NUR_protein|mol2

> <Gold.PLP.Fitness>
45.3889

> <Gold.PLP.PLP>
-46.5685

> <Gold.PLP.part.hbond>
0.0000

> <Gold.PLP.part.metal>
0.0000

> <Gold.PLP.part.buried>
-7.2749

> <Gold.PLP.part.nonpolar>
-39.7788

> <Gold.PLP.part.repulsive>
1.4580

> <Gold.PLP.ligand.clash>
0.0000

> <Gold.PLP.ligand.torsion>
0.6066

> <Gold.PLP.Chemscore.Hbond>
0.0000

> <Gold.PLP.Chemscore.CHOScore>
0.0000

> <Gold.PLP.Chemscore.Metal>
0.0000

> <Gold.PLP.Chemscore.Internal.Correction>
0.0337

> <Gold.Rescore>
     Score         DG    S(hbond)    S(metal)    S(lipo)     H(rot)  DE(clash)    DE(int)     intcor
     13.40     -16.69       0.00        0.00     127.57       1.45       0.13       3.17       ----

> <Gold.Chemscore.Fitness>
13.4010

> <Gold.Chemscore.DG>
-16.6934

> <Gold.Chemscore.ZeroCoef>
-5.4800

> <Gold.Chemscore.Hbond>
0.0000

> <Gold.Chemscore.Metal>
0.0000

> <Gold.Chemscore.Lipo>
127.5666

> <Gold.Chemscore.Internal_Hbond>
0.0000

> <Gold.Chemscore.DEClash>
0.1252

> <Gold.Chemscore.DEInternal>
3.1673

> <Gold.Chemscore.Rot>
1.4499

> <Gold.Chemscore.Internal.Correction>
   9.000000E+99

> <Gold.Chemscore.Hbond.Weighted>
-0.0000

> <Gold.Chemscore.Metal.Weighted>
-0.0000

> <Gold.Chemscore.Lipo.Weighted>
-14.9253

> <Gold.Chemscore.Internal_Hbond.Weighted>
0.0000

> <Gold.Chemscore.DEClash.Weighted>
0.1252

> <Gold.Chemscore.DEInternal.Weighted>
3.1673

> <Gold.Chemscore.Rot.Weighted>
3.7118

> <Gold.Chemscore.Internal.Correction.Weighted>
   9.000000E+99

> <Gold.Protein.RotatedTorsions>
[ 6907 6896 6895 6894 ] final  102.18 input  -60.11 | X-H torsion
[ 7974 7965 7964 7962 ] final   71.81 input  175.53 | X-H torsion
[ 8008 7997 7996 7995 ] final   -8.38 input   59.86 | X-H torsion
[ 10167 10162 10161 10158 ] final  146.32 input  -65.29 | X-H torsion
[ 10718 10713 10712 10709 ] final -130.45 input   66.30 | X-H torsion
[ 10763 10752 10751 10750 ] final  118.85 input  -60.55 | X-H torsion
[ 11005 11000 10999 10996 ] final -175.64 input  -57.11 | X-H torsion

> <Gold.Protein.ActiveResidues>
 VAL166  LYS551  ARG553  GLY616  TRP617  ASP618  TYR619  PRO620  LYS621  CYS622 
 ASP623  PHE694  ASN695  SER759  ASP760  ASP761  ALA762  ILE779  LEU786  VAL792 
 PHE793  MET794  SER795  GLU796  ALA797  LYS798  CYS799  TRP800  GLU811  SER814 

> <Gold.Protein.RotatedAtoms>
  152.5330  134.0015  159.7896 H   0  0  0  0  0  0  0  0  0  0  0  0  # atno 6907 bound_to 6896
  151.0233  133.5849  159.2676 H   0  0  0  0  0  0  0  0  0  0  0  0  # atno 6908 bound_to 6896
  151.2881  135.0740  159.9247 H   0  0  0  0  0  0  0  0  0  0  0  0  # atno 6909 bound_to 6896
  145.7612  139.2801  143.1375 H   0  0  0  0  0  0  0  0  0  0  0  0  # atno 7974 bound_to 7965
  154.5746  140.2382  155.8141 H   0  0  0  0  0  0  0  0  0  0  0  0  # atno 8008 bound_to 7997
  156.2133  140.3019  155.9740 H   0  0  0  0  0  0  0  0  0  0  0  0  # atno 8009 bound_to 7997
  155.2650  140.0416  157.2992 H   0  0  0  0  0  0  0  0  0  0  0  0  # atno 8010 bound_to 7997
  139.4909  144.5838  151.6819 H   0  0  0  0  0  0  0  0  0  0  0  0  # atno 10167 bound_to 10162
  156.2146  130.6940  151.0688 H   0  0  0  0  0  0  0  0  0  0  0  0  # atno 10718 bound_to 10713
  153.5739  135.3497  155.2848 H   0  0  0  0  0  0  0  0  0  0  0  0  # atno 10763 bound_to 10752
  154.8678  135.4166  154.2694 H   0  0  0  0  0  0  0  0  0  0  0  0  # atno 10764 bound_to 10752
  153.3466  135.7053  153.6893 H   0  0  0  0  0  0  0  0  0  0  0  0  # atno 10765 bound_to 10752
  140.4610  134.6255  157.4842 H   0  0  0  0  0  0  0  0  0  0  0  0  # atno 11005 bound_to 11000
  146.0262  140.8301  142.9898 LP  0  0  0  0  0  0  0  0  0  0  0  0  # atno 17320 bound_to 7965
  144.6830  140.2702  143.7307 LP  0  0  0  0  0  0  0  0  0  0  0  0  # atno 17321 bound_to 7965
  140.5450  144.0518  150.6103 LP  0  0  0  0  0  0  0  0  0  0  0  0  # atno 17342 bound_to 10162
  140.3553  143.2939  152.0443 LP  0  0  0  0  0  0  0  0  0  0  0  0  # atno 17343 bound_to 10162
  157.7056  131.0758  150.6677 LP  0  0  0  0  0  0  0  0  0  0  0  0  # atno 17370 bound_to 10713
  156.6738  130.4547  149.5649 LP  0  0  0  0  0  0  0  0  0  0  0  0  # atno 17371 bound_to 10713
  139.9945  134.6932  155.9632 LP  0  0  0  0  0  0  0  0  0  0  0  0  # atno 17394 bound_to 11000
  141.1621  133.6538  156.4355 LP  0  0  0  0  0  0  0  0  0  0  0  0  # atno 17395 bound_to 11000

$$$$
