AV-unprocessed.smi:1120|AV-procd|sdf|4819|dock5
  -GOLD-   22720 3373D 1   1.00000     0.00000
 Structure written by MMmdl.
 48 49  0  0  0  0  0  0  0  0  1 V2000
  146.6108  132.7484  151.4584 C   0  0  0  0  0  0  0  0  0  0  0  0
  147.0477  133.0445  152.8999 C   0  0  2  0  0  0  0  0  0  0  0  0
  146.6882  134.4831  153.3128 C   0  0  0  0  0  0  0  0  0  0  0  0
  147.1025  134.7841  154.7632 C   0  0  0  0  0  0  0  0  0  0  0  0
  148.5873  134.4718  155.0311 C   0  0  2  0  0  0  0  0  0  0  0  0
  149.4522  135.4997  154.4445 N   0  0  0  0  0  0  0  0  0  0  0  0
  150.3405  136.6312  155.3997 S   0  0  0  0  0  0  0  0  0  0  0  0
  149.9144  136.4316  156.7929 O   0  0  0  0  0  0  0  0  0  0  0  0
  151.7614  136.5197  155.0333 O   0  0  0  0  0  0  0  0  0  0  0  0
  149.6654  138.2581  154.8323 C   0  0  0  0  0  0  0  0  0  0  0  0
  150.4083  139.4253  155.4818 C   0  0  0  0  0  0  0  0  0  0  0  0
  151.0712  140.1971  154.7894 O   0  0  0  0  0  0  0  0  0  0  0  0
  150.2968  139.5387  156.8144 N   0  0  0  0  0  0  0  0  0  0  0  0
  150.9271  140.5767  157.6220 C   0  0  0  0  0  0  0  0  0  0  0  0
  150.4351  141.9791  157.2276 C   0  0  0  0  0  0  0  0  0  0  0  0
  150.9912  143.0610  158.1338 C   0  0  0  0  0  0  0  0  0  0  0  0
  151.7429  144.1303  157.6022 C   0  0  0  0  0  0  0  0  0  0  0  0
  152.2382  145.1076  158.4874 C   0  0  0  0  0  0  0  0  0  0  0  0
  151.9650  144.9783  159.8629 C   0  0  0  0  0  0  0  0  0  0  0  0
  151.2059  143.8720  160.2936 C   0  0  0  0  0  0  0  0  0  0  0  0
  150.7263  142.9293  159.4534 N   0  0  0  0  0  0  0  0  0  0  0  0
  148.9980  133.0712  154.5391 C   0  0  0  0  0  0  0  0  0  0  0  0
  148.5552  132.7993  153.0919 C   0  0  0  0  0  0  0  0  0  0  0  0
  147.1191  133.4002  150.7474 H   0  0  0  0  0  0  0  0  0  0  0  0
  145.5374  132.8946  151.3357 H   0  0  0  0  0  0  0  0  0  0  0  0
  146.8352  131.7172  151.1843 H   0  0  0  0  0  0  0  0  0  0  0  0
  146.5070  132.3593  153.5544 H   0  0  0  0  0  0  0  0  0  0  0  0
  147.1752  135.1919  152.6417 H   0  0  0  0  0  0  0  0  0  0  0  0
  145.6156  134.6456  153.2025 H   0  0  0  0  0  0  0  0  0  0  0  0
  146.8775  135.8220  155.0116 H   0  0  0  0  0  0  0  0  0  0  0  0
  146.4918  134.1767  155.4321 H   0  0  0  0  0  0  0  0  0  0  0  0
  148.7415  134.4990  156.1095 H   0  0  0  0  0  0  0  0  0  0  0  0
  149.2961  135.7493  153.4679 H   0  0  0  0  0  0  0  0  0  0  0  0
  149.7088  138.3007  153.7438 H   0  0  0  0  0  0  0  0  0  0  0  0
  148.6158  138.3038  155.1235 H   0  0  0  0  0  0  0  0  0  0  0  0
  149.7346  138.8587  157.3053 H   0  0  0  0  0  0  0  0  0  0  0  0
  150.6895  140.3793  158.6677 H   0  0  0  0  0  0  0  0  0  0  0  0
  152.0131  140.5140  157.5336 H   0  0  0  0  0  0  0  0  0  0  0  0
  150.7114  142.2003  156.1958 H   0  0  0  0  0  0  0  0  0  0  0  0
  149.3466  142.0173  157.2677 H   0  0  0  0  0  0  0  0  0  0  0  0
  151.9370  144.2012  156.5421 H   0  0  0  0  0  0  0  0  0  0  0  0
  152.8170  145.9411  158.1177 H   0  0  0  0  0  0  0  0  0  0  0  0
  152.3287  145.7086  160.5705 H   0  0  0  0  0  0  0  0  0  0  0  0
  150.9774  143.7406  161.3409 H   0  0  0  0  0  0  0  0  0  0  0  0
  150.0751  132.9324  154.6391 H   0  0  0  0  0  0  0  0  0  0  0  0
  148.5373  132.3241  155.1861 H   0  0  0  0  0  0  0  0  0  0  0  0
  148.8027  131.7713  152.8252 H   0  0  0  0  0  0  0  0  0  0  0  0
  149.1215  133.4368  152.4118 H   0  0  0  0  0  0  0  0  0  0  0  0
  1  2  1  0  0  0  0
  1 24  1  0  0  0  0
  1 25  1  0  0  0  0
  1 26  1  0  0  0  0
  2 23  1  0  0  0  0
  2  3  1  0  0  0  0
  2 27  1  0  0  0  0
  3  4  1  0  0  0  0
  3 28  1  0  0  0  0
  3 29  1  0  0  0  0
  4  5  1  0  0  0  0
  4 30  1  0  0  0  0
  4 31  1  0  0  0  0
  5  6  1  0  0  0  0
  5 22  1  0  0  0  0
  5 32  1  0  0  0  0
  6  7  1  0  0  0  0
  6 33  1  0  0  0  0
  7  8  2  0  0  0  0
  7  9  2  0  0  0  0
  7 10  1  0  0  0  0
 10 11  1  0  0  0  0
 10 34  1  0  0  0  0
 10 35  1  0  0  0  0
 11 12  2  0  0  0  0
 11 13  1  0  0  0  0
 13 14  1  0  0  0  0
 13 36  1  0  0  0  0
 14 15  1  0  0  0  0
 14 37  1  0  0  0  0
 14 38  1  0  0  0  0
 15 16  1  0  0  0  0
 15 39  1  0  0  0  0
 15 40  1  0  0  0  0
 16 21  1  0  0  0  0
 16 17  2  0  0  0  0
 17 18  1  0  0  0  0
 17 41  1  0  0  0  0
 18 19  2  0  0  0  0
 18 42  1  0  0  0  0
 19 20  1  0  0  0  0
 19 43  1  0  0  0  0
 20 21  2  0  0  0  0
 20 44  1  0  0  0  0
 22 23  1  0  0  0  0
 22 45  1  0  0  0  0
 22 46  1  0  0  0  0
 23 47  1  0  0  0  0
 23 48  1  0  0  0  0
M  END
> <s_m_source_file>
AV-unprocessed.smi

> <i_m_source_file_index>
1120

> <i_lp_mmshare_version>
43012

> <i_f3d_flags>
0

> <s_epik_input>
W0NIM11bQ0BASF0xW0NIMl1bQ0gyXVtDQEhdKFtDSDJdW0NIMl0xKVtOSF1TKD1PKSg9TylbQ0gyXUMoPU8pW05IXVtDSDJdW0NIMl1jMltjSF1bY0hdW2NIXVtjSF1uMg==

> <s_epik_cmdline>
J2VwaWtfcHl0aG9uJywgJy1waCcsICc3LjAnLCAnLXRuJywgJzgnLCAnLW1hJywgJzIwMCcsICctbWV0YWxfYmluZGluZycsICctaW1hZScsICc8aW5maWxlLm1hZT4nLCAnLW9tYWUnLCAnPG91dGZpbGUubWFlPic=

> <r_epik_Ionization_Penalty>
0.0216068

> <r_epik_Ionization_Penalty_Charging>
0

> <r_epik_Ionization_Penalty_Neutral>
0.0216068

> <r_epik_State_Penalty>
0.01735

> <r_epik_Charging_Adjusted_Penalty>
0.01735

> <i_epik_Tot_Q>
0

> <i_epik_Tot_abs_Q>
0

> <r_epik_Metal_State_Penalty>
0.0535325

> <b_epik_Metal_Only>
0

> <s_lp_Force_Field>
OPLS_2005

> <r_lp_Energy>
6.87343

> <b_lp_Chiralities_Consistent>
1

> <s_lp_Variant>
AV-unprocessed.smi:1120-2

> <Gold.Version>
5.8.1

> <Gold.Id.Protein>
6NUR|6NUR_protein|mol2

> <Gold.PLP.Fitness>
52.1849

> <Gold.PLP.PLP>
-43.4507

> <Gold.PLP.part.hbond>
-3.6244

> <Gold.PLP.part.metal>
0.0000

> <Gold.PLP.part.buried>
-6.0064

> <Gold.PLP.part.nonpolar>
-35.1900

> <Gold.PLP.part.repulsive>
0.2561

> <Gold.PLP.ligand.clash>
0.0000

> <Gold.PLP.ligand.torsion>
0.7161

> <Gold.PLP.Chemscore.Hbond>
3.0000

> <Gold.PLP.Chemscore.CHOScore>
0.0000

> <Gold.PLP.Chemscore.Metal>
0.0000

> <Gold.Chemscore.Hbonds>
donor molecule, donor type, donor heavy atom, donor atom, acceptor molecule, acceptor atom, score
      L1  H     6    33       P1  7948  1.00
      P1  H  7989  7998       L1    12  1.00
      P1  H 10752 10765       L1     9  0.99

> <Gold.PLP.Chemscore.Internal.Correction>
1.1664

> <Gold.Rescore>
     Score         DG    S(hbond)    S(metal)    S(lipo)     H(rot)  DE(clash)    DE(int)     intcor
     21.78     -22.52       2.94        0.00     103.72       1.92       0.07       0.67       ----

> <Gold.Chemscore.Fitness>
21.7801

> <Gold.Chemscore.DG>
-22.5211

> <Gold.Chemscore.ZeroCoef>
-5.4800

> <Gold.Chemscore.Hbond>
2.9437

> <Gold.Chemscore.Metal>
0.0000

> <Gold.Chemscore.Lipo>
103.7168

> <Gold.Chemscore.Internal_Hbond>
0.0000

> <Gold.Chemscore.DEClash>
0.0748

> <Gold.Chemscore.DEInternal>
0.6662

> <Gold.Chemscore.Rot>
1.9241

> <Gold.Chemscore.Internal.Correction>
   9.000000E+99

> <Gold.Chemscore.Hbonds>
donor molecule, donor type, donor heavy atom, donor atom, acceptor molecule, acceptor atom, score
      L1  H     6    33       P1  7948  0.50
      P1  H  7989  7998       L1    12  0.96
      P1  H 10752 10765       L1     9  0.93

> <Gold.Chemscore.Hbond.Weighted>
-9.8319

> <Gold.Chemscore.Metal.Weighted>
-0.0000

> <Gold.Chemscore.Lipo.Weighted>
-12.1349

> <Gold.Chemscore.Internal_Hbond.Weighted>
0.0000

> <Gold.Chemscore.DEClash.Weighted>
0.0748

> <Gold.Chemscore.DEInternal.Weighted>
0.6662

> <Gold.Chemscore.Rot.Weighted>
4.9256

> <Gold.Chemscore.Internal.Correction.Weighted>
   9.000000E+99

> <Gold.Protein.RotatedTorsions>
[ 6907 6896 6895 6894 ] final   -1.73 input  -60.11 | X-H torsion
[ 7974 7965 7964 7962 ] final  101.01 input  175.53 | X-H torsion
[ 8008 7997 7996 7995 ] final   14.45 input   59.86 | X-H torsion
[ 10167 10162 10161 10158 ] final -169.18 input  -65.29 | X-H torsion
[ 10718 10713 10712 10709 ] final -125.24 input   66.30 | X-H torsion
[ 10763 10752 10751 10750 ] final  161.92 input  -60.55 | X-H torsion
[ 11005 11000 10999 10996 ] final  121.14 input  -57.11 | X-H torsion

> <Gold.Protein.ActiveResidues>
 VAL166  LYS551  ARG553  GLY616  TRP617  ASP618  TYR619  PRO620  LYS621  CYS622 
 ASP623  PHE694  ASN695  SER759  ASP760  ASP761  ALA762  ILE779  LEU786  VAL792 
 PHE793  MET794  SER795  GLU796  ALA797  LYS798  CYS799  TRP800  GLU811  SER814 

> <Gold.Protein.RotatedAtoms>
  151.5413  135.1068  159.9926 H   0  0  0  0  0  0  0  0  0  0  0  0  # atno 6907 bound_to 6896
  152.4534  133.7670  159.6788 H   0  0  0  0  0  0  0  0  0  0  0  0  # atno 6908 bound_to 6896
  150.8469  133.7781  159.3064 H   0  0  0  0  0  0  0  0  0  0  0  0  # atno 6909 bound_to 6896
  145.3780  139.2385  143.3419 H   0  0  0  0  0  0  0  0  0  0  0  0  # atno 7974 bound_to 7965
  154.8487  140.2926  155.5612 H   0  0  0  0  0  0  0  0  0  0  0  0  # atno 8008 bound_to 7997
  156.3015  140.2500  156.3374 H   0  0  0  0  0  0  0  0  0  0  0  0  # atno 8009 bound_to 7997
  154.9045  140.0390  157.1901 H   0  0  0  0  0  0  0  0  0  0  0  0  # atno 8010 bound_to 7997
  139.5939  144.1155  152.1666 H   0  0  0  0  0  0  0  0  0  0  0  0  # atno 10167 bound_to 10162
  156.1658  130.6633  151.0113 H   0  0  0  0  0  0  0  0  0  0  0  0  # atno 10718 bound_to 10713
  154.2704  135.2766  155.2740 H   0  0  0  0  0  0  0  0  0  0  0  0  # atno 10763 bound_to 10752
  154.5306  135.5730  153.6759 H   0  0  0  0  0  0  0  0  0  0  0  0  # atno 10764 bound_to 10752
  152.9946  135.6227  154.2859 H   0  0  0  0  0  0  0  0  0  0  0  0  # atno 10765 bound_to 10752
  139.9214  134.9638  156.7914 H   0  0  0  0  0  0  0  0  0  0  0  0  # atno 11005 bound_to 11000
  146.2855  140.4442  142.8759 LP  0  0  0  0  0  0  0  0  0  0  0  0  # atno 17320 bound_to 7965
  144.8528  140.7027  143.6157 LP  0  0  0  0  0  0  0  0  0  0  0  0  # atno 17321 bound_to 7965
  140.0735  144.5759  150.7174 LP  0  0  0  0  0  0  0  0  0  0  0  0  # atno 17342 bound_to 10162
  140.7195  143.2576  151.4324 LP  0  0  0  0  0  0  0  0  0  0  0  0  # atno 17343 bound_to 10162
  157.6767  131.0848  150.7477 LP  0  0  0  0  0  0  0  0  0  0  0  0  # atno 17370 bound_to 10713
  156.7538  130.4777  149.5451 LP  0  0  0  0  0  0  0  0  0  0  0  0  # atno 17371 bound_to 10713
  140.6464  133.9771  155.7733 LP  0  0  0  0  0  0  0  0  0  0  0  0  # atno 17394 bound_to 11000
  141.0737  134.0167  157.3489 LP  0  0  0  0  0  0  0  0  0  0  0  0  # atno 17395 bound_to 11000

$$$$
