AV-unprocessed.smi:1433|AV-procd|sdf|5846|dock2
  -GOLD-   22720 5513D 1   1.00000     0.00000
 Structure written by MMmdl.
 45 46  0  0  0  0  0  0  0  0  2 V2000
  148.8360  132.9492  152.4800 C   0  0  0  0  0  0  0  0  0  0  0  0
  147.4097  132.6086  152.9486 C   0  0  1  0  0  0  0  0  0  0  0  0
  146.6464  133.8166  153.5292 C   0  0  0  0  0  0  0  0  0  0  0  0
  146.2081  134.7547  152.4599 N   0  3  2  0  0  0  0  0  0  0  0  0
  145.4992  135.9949  152.9154 C   0  0  2  0  0  0  0  0  0  0  0  0
  145.4411  137.0147  151.7568 C   0  0  0  0  0  0  0  0  0  0  0  0
  146.1107  136.6504  154.1861 C   0  0  0  0  0  0  0  0  0  0  0  0
  147.4567  137.1743  153.9723 N   0  0  0  0  0  0  0  0  0  0  0  0
  147.8307  138.4469  154.1778 C   0  0  0  0  0  0  0  0  0  0  0  0
  147.0587  139.3275  154.5570 O   0  0  0  0  0  0  0  0  0  0  0  0
  149.3014  138.7774  153.9226 C   0  0  0  0  0  0  0  0  0  0  0  0
  149.8130  139.6778  154.9392 N   0  0  0  0  0  0  0  0  0  0  0  0
  149.2054  140.0816  156.1101 C   0  0  0  0  0  0  0  0  0  0  0  0
  150.0709  140.9234  156.7477 C   0  0  0  0  0  0  0  0  0  0  0  0
  151.1970  140.9720  155.8791 C   0  0  0  0  0  0  0  0  0  0  0  0
  151.0407  140.2248  154.7980 N   0  0  0  0  0  0  0  0  0  0  0  0
  145.4323  134.0082  151.4350 C   0  0  0  0  0  0  0  0  0  0  0  0
  146.2525  132.8397  150.8626 C   0  0  2  0  0  0  0  0  0  0  0  0
  145.4449  132.0088  149.8592 C   0  0  0  0  0  0  0  0  0  0  0  0
  146.6437  131.9776  151.9251 O   0  0  0  0  0  0  0  0  0  0  0  0
  149.4455  133.2934  153.3158 H   0  0  0  0  0  0  0  0  0  0  0  0
  148.8492  133.7360  151.7261 H   0  0  0  0  0  0  0  0  0  0  0  0
  149.3251  132.0716  152.0566 H   0  0  0  0  0  0  0  0  0  0  0  0
  147.5115  131.8698  153.7443 H   0  0  0  0  0  0  0  0  0  0  0  0
  145.7700  133.4685  154.0785 H   0  0  0  0  0  0  0  0  0  0  0  0
  147.3018  134.3119  154.2451 H   0  0  0  0  0  0  0  0  0  0  0  0
  144.4772  135.7072  153.1668 H   0  0  0  0  0  0  0  0  0  0  0  0
  144.8663  137.9006  152.0264 H   0  0  0  0  0  0  0  0  0  0  0  0
  144.9682  136.6054  150.8652 H   0  0  0  0  0  0  0  0  0  0  0  0
  146.4416  137.3448  151.4749 H   0  0  0  0  0  0  0  0  0  0  0  0
  145.4952  137.4775  154.5426 H   0  0  0  0  0  0  0  0  0  0  0  0
  146.1624  135.9230  154.9971 H   0  0  0  0  0  0  0  0  0  0  0  0
  148.1614  136.5176  153.6677 H   0  0  0  0  0  0  0  0  0  0  0  0
  149.9055  137.8684  153.9034 H   0  0  0  0  0  0  0  0  0  0  0  0
  149.4068  139.2521  152.9462 H   0  0  0  0  0  0  0  0  0  0  0  0
  148.2197  139.7382  156.3883 H   0  0  0  0  0  0  0  0  0  0  0  0
  149.9230  141.4272  157.6913 H   0  0  0  0  0  0  0  0  0  0  0  0
  152.1175  141.5237  156.0018 H   0  0  0  0  0  0  0  0  0  0  0  0
  144.5103  133.6330  151.8827 H   0  0  0  0  0  0  0  0  0  0  0  0
  145.1381  134.6654  150.6181 H   0  0  0  0  0  0  0  0  0  0  0  0
  147.1341  133.2244  150.3500 H   0  0  0  0  0  0  0  0  0  0  0  0
  145.1213  132.6174  149.0145 H   0  0  0  0  0  0  0  0  0  0  0  0
  144.5557  131.5817  150.3241 H   0  0  0  0  0  0  0  0  0  0  0  0
  146.0415  131.1855  149.4654 H   0  0  0  0  0  0  0  0  0  0  0  0
  147.0575  135.0700  152.0133 H   0  0  0  0  0  0  0  0  0  0  0  0
  1  2  1  0  0  0  0
  1 21  1  0  0  0  0
  1 22  1  0  0  0  0
  1 23  1  0  0  0  0
  2 20  1  0  0  0  0
  2  3  1  0  0  0  0
  2 24  1  0  0  0  0
  3  4  1  0  0  0  0
  3 25  1  0  0  0  0
  3 26  1  0  0  0  0
  4  5  1  0  0  0  0
  4 17  1  0  0  0  0
  4 45  1  0  0  0  0
  5  6  1  0  0  0  0
  5  7  1  0  0  0  0
  5 27  1  0  0  0  0
  6 28  1  0  0  0  0
  6 29  1  0  0  0  0
  6 30  1  0  0  0  0
  7  8  1  0  0  0  0
  7 31  1  0  0  0  0
  7 32  1  0  0  0  0
  8  9  1  0  0  0  0
  8 33  1  0  0  0  0
  9 10  2  0  0  0  0
  9 11  1  0  0  0  0
 11 12  1  0  0  0  0
 11 34  1  0  0  0  0
 11 35  1  0  0  0  0
 12 16  1  0  0  0  0
 12 13  1  0  0  0  0
 13 14  2  0  0  0  0
 13 36  1  0  0  0  0
 14 15  1  0  0  0  0
 14 37  1  0  0  0  0
 15 16  2  0  0  0  0
 15 38  1  0  0  0  0
 17 18  1  0  0  0  0
 17 39  1  0  0  0  0
 17 40  1  0  0  0  0
 18 19  1  0  0  0  0
 18 20  1  0  0  0  0
 18 41  1  0  0  0  0
 19 42  1  0  0  0  0
 19 43  1  0  0  0  0
 19 44  1  0  0  0  0
M  CHG  1   4   1
M  END
> <s_m_source_file>
AV-unprocessed.smi

> <i_m_source_file_index>
1433

> <i_lp_mmshare_version>
43012

> <i_f3d_flags>
0

> <s_epik_input>
W0NIM11bQ0BASF0xW0NIMl1OKFtDSDJdW0NASF0oTzEpW0NIM10pW0NASF0oW0NIM10pW0NIMl1bTkhdQyg9TylbQ0gyXW4yW2NIXVtjSF1bY0hdbjI=

> <s_epik_cmdline>
J2VwaWtfcHl0aG9uJywgJy1waCcsICc3LjAnLCAnLXRuJywgJzgnLCAnLW1hJywgJzIwMCcsICctbWV0YWxfYmluZGluZycsICctaW1hZScsICc8aW5maWxlLm1hZT4nLCAnLW9tYWUnLCAnPG91dGZpbGUubWFlPic=

> <r_lp_tautomer_probability>
1

> <r_epik_Ionization_Penalty>
0.748405

> <r_epik_Ionization_Penalty_Charging>
0.748396

> <r_epik_Ionization_Penalty_Neutral>
8.54426e-06

> <r_epik_State_Penalty>
0.775162

> <r_epik_Charging_Adjusted_Penalty>
1.52356

> <i_epik_Tot_Q>
1

> <i_epik_Tot_abs_Q>
1

> <r_epik_Metal_State_Penalty>
0.775167

> <b_epik_Metal_Only>
0

> <s_lp_Force_Field>
OPLS_2005

> <r_lp_Energy>
23.467

> <b_lp_Chiralities_Consistent>
1

> <s_lp_Variant>
AV-unprocessed.smi:1433-12

> <Gold.Version>
5.8.1

> <Gold.Id.Protein>
6NUR|6NUR_protein|mol2

> <Gold.PLP.Fitness>
41.6352

> <Gold.PLP.PLP>
-32.1326

> <Gold.PLP.part.hbond>
-3.0000

> <Gold.PLP.part.metal>
0.0000

> <Gold.PLP.part.buried>
3.0688

> <Gold.PLP.part.nonpolar>
-31.8012

> <Gold.PLP.part.repulsive>
0.3992

> <Gold.PLP.ligand.clash>
0.0000

> <Gold.PLP.ligand.torsion>
0.5484

> <Gold.PLP.Chemscore.Hbond>
3.4960

> <Gold.PLP.Chemscore.CHOScore>
0.0000

> <Gold.PLP.Chemscore.Metal>
0.0000

> <Gold.Chemscore.Hbonds>
donor molecule, donor type, donor heavy atom, donor atom, acceptor molecule, acceptor atom, score
      L1  H     4    45       P1  7948  1.20
      L1  H     8    33       P1  7948  0.61
      P1  H  7989  7998       L1    16  1.00

> <Gold.PLP.Chemscore.Internal.Correction>
0.1114

> <Gold.Rescore>
     Score         DG    S(hbond)    S(metal)    S(lipo)     H(rot)  DE(clash)    DE(int)     intcor
     13.89     -17.96       2.26        0.00      82.83       1.87       1.87       2.21       ----

> <Gold.Chemscore.Fitness>
13.8867

> <Gold.Chemscore.DG>
-17.9580

> <Gold.Chemscore.ZeroCoef>
-5.4800

> <Gold.Chemscore.Hbond>
2.2645

> <Gold.Chemscore.Metal>
0.0000

> <Gold.Chemscore.Lipo>
82.8260

> <Gold.Chemscore.Internal_Hbond>
0.0000

> <Gold.Chemscore.DEClash>
1.8659

> <Gold.Chemscore.DEInternal>
2.2054

> <Gold.Chemscore.Rot>
1.8657

> <Gold.Chemscore.Internal.Correction>
   9.000000E+99

> <Gold.Chemscore.Hbonds>
donor molecule, donor type, donor heavy atom, donor atom, acceptor molecule, acceptor atom, score
      L1  H     4    45       P1  7948  0.59
      L1  H     8    33       P1  7948  0.60
      P1  H  7989  7998       L1    16  0.82

> <Gold.Chemscore.Hbond.Weighted>
-7.5635

> <Gold.Chemscore.Metal.Weighted>
-0.0000

> <Gold.Chemscore.Lipo.Weighted>
-9.6906

> <Gold.Chemscore.Internal_Hbond.Weighted>
0.0000

> <Gold.Chemscore.DEClash.Weighted>
1.8659

> <Gold.Chemscore.DEInternal.Weighted>
2.2054

> <Gold.Chemscore.Rot.Weighted>
4.7761

> <Gold.Chemscore.Internal.Correction.Weighted>
   9.000000E+99

> <Gold.Protein.RotatedTorsions>
[ 6907 6896 6895 6894 ] final   42.26 input  -60.11 | X-H torsion
[ 7974 7965 7964 7962 ] final   11.08 input  175.53 | X-H torsion
[ 8008 7997 7996 7995 ] final  156.89 input   59.86 | X-H torsion
[ 10167 10162 10161 10158 ] final -176.46 input  -65.29 | X-H torsion
[ 10718 10713 10712 10709 ] final  -22.66 input   66.30 | X-H torsion
[ 10763 10752 10751 10750 ] final -167.68 input  -60.55 | X-H torsion
[ 11005 11000 10999 10996 ] final -151.65 input  -57.11 | X-H torsion

> <Gold.Protein.ActiveResidues>
 VAL166  LYS551  ARG553  GLY616  TRP617  ASP618  TYR619  PRO620  LYS621  CYS622 
 ASP623  PHE694  ASN695  SER759  ASP760  ASP761  ALA762  ILE779  LEU786  VAL792 
 PHE793  MET794  SER795  GLU796  ALA797  LYS798  CYS799  TRP800  GLU811  SER814 

> <Gold.Protein.RotatedAtoms>
  152.2056  134.8548  160.0502 H   0  0  0  0  0  0  0  0  0  0  0  0  # atno 6907 bound_to 6896
  151.9385  133.3626  159.3965 H   0  0  0  0  0  0  0  0  0  0  0  0  # atno 6908 bound_to 6896
  150.6964  134.4388  159.5326 H   0  0  0  0  0  0  0  0  0  0  0  0  # atno 6909 bound_to 6896
  146.2377  139.9538  142.8467 H   0  0  0  0  0  0  0  0  0  0  0  0  # atno 7974 bound_to 7965
  156.2396  140.1900  156.7024 H   0  0  0  0  0  0  0  0  0  0  0  0  # atno 8008 bound_to 7997
  154.6172  140.0613  156.9596 H   0  0  0  0  0  0  0  0  0  0  0  0  # atno 8009 bound_to 7997
  155.1920  140.3285  155.4359 H   0  0  0  0  0  0  0  0  0  0  0  0  # atno 8010 bound_to 7997
  139.5529  144.2064  152.1108 H   0  0  0  0  0  0  0  0  0  0  0  0  # atno 10167 bound_to 10162
  156.5015  130.4589  149.6698 H   0  0  0  0  0  0  0  0  0  0  0  0  # atno 10718 bound_to 10713
  154.6706  135.2939  154.9746 H   0  0  0  0  0  0  0  0  0  0  0  0  # atno 10763 bound_to 10752
  154.0774  135.6609  153.4837 H   0  0  0  0  0  0  0  0  0  0  0  0  # atno 10764 bound_to 10752
  153.0484  135.5189  154.7701 H   0  0  0  0  0  0  0  0  0  0  0  0  # atno 10765 bound_to 10752
  140.7273  134.3660  157.5173 H   0  0  0  0  0  0  0  0  0  0  0  0  # atno 11005 bound_to 11000
  145.1836  140.9779  143.4252 LP  0  0  0  0  0  0  0  0  0  0  0  0  # atno 17320 bound_to 7965
  144.9920  139.3680  143.6210 LP  0  0  0  0  0  0  0  0  0  0  0  0  # atno 17321 bound_to 7965
  140.1562  144.5068  150.6658 LP  0  0  0  0  0  0  0  0  0  0  0  0  # atno 17342 bound_to 10162
  140.6795  143.2320  151.5420 LP  0  0  0  0  0  0  0  0  0  0  0  0  # atno 17343 bound_to 10162
  156.3328  130.7340  151.2273 LP  0  0  0  0  0  0  0  0  0  0  0  0  # atno 17370 bound_to 10713
  157.7462  131.0425  150.4698 LP  0  0  0  0  0  0  0  0  0  0  0  0  # atno 17371 bound_to 10713
  139.8834  134.8995  156.2767 LP  0  0  0  0  0  0  0  0  0  0  0  0  # atno 17394 bound_to 11000
  140.9952  133.7185  156.0874 LP  0  0  0  0  0  0  0  0  0  0  0  0  # atno 17395 bound_to 11000

$$$$
