AV-unprocessed.smi:447|AV-procd|sdf|2598|dock3
  -GOLD-   2262022593D 1   1.00000     0.00000
 Structure written by MMmdl.
 45 47  0  0  0  0  0  0  0  0  1 V2000
  152.2888  137.7041  159.1855 C   0  0  0  0  0  0  0  0  0  0  0  0
  152.7923  138.3383  157.8939 C   0  0  0  0  0  0  0  0  0  0  0  0
  153.9925  138.5668  157.7458 O   0  0  0  0  0  0  0  0  0  0  0  0
  151.8615  138.6275  156.9726 N   0  0  0  0  0  0  0  0  0  0  0  0
  152.1101  139.2875  155.6924 C   0  0  1  0  0  0  0  0  0  0  0  0
  152.9204  138.3846  154.7498 C   0  0  0  0  0  0  0  0  0  0  0  0
  150.7756  139.6643  155.1007 C   0  0  0  0  0  0  0  0  0  0  0  0
  150.0885  138.8261  154.3182 N   0  0  0  0  0  0  0  0  0  0  0  0
  148.9627  139.5549  153.9942 C   0  0  0  0  0  0  0  0  0  0  0  0
  147.8462  139.2155  153.1971 C   0  0  0  0  0  0  0  0  0  0  0  0
  146.7982  140.1397  153.0067 C   0  0  0  0  0  0  0  0  0  0  0  0
  146.8523  141.4136  153.6085 C   0  0  0  0  0  0  0  0  0  0  0  0
  147.9569  141.7714  154.4052 C   0  0  0  0  0  0  0  0  0  0  0  0
  149.0000  140.8446  154.5926 C   0  0  0  0  0  0  0  0  0  0  0  0
  150.1978  140.8795  155.2999 N   0  0  0  0  0  0  0  0  0  0  0  0
  150.6791  142.0142  156.0785 C   0  0  0  0  0  0  0  0  0  0  0  0
  150.2288  141.9463  157.5523 C   0  0  2  0  0  0  0  0  0  0  0  0
  149.1143  142.7999  157.7136 O   0  0  0  0  0  0  0  0  0  0  0  0
  151.3523  142.2655  158.5301 C   0  0  0  0  0  0  0  0  0  0  0  0
  151.8375  141.2589  159.3930 C   0  0  0  0  0  0  0  0  0  0  0  0
  152.8809  141.5383  160.2964 C   0  0  0  0  0  0  0  0  0  0  0  0
  153.4438  142.8277  160.3454 C   0  0  0  0  0  0  0  0  0  0  0  0
  152.9675  143.8354  159.4852 C   0  0  0  0  0  0  0  0  0  0  0  0
  151.9272  143.5553  158.5783 C   0  0  0  0  0  0  0  0  0  0  0  0
  151.5549  136.9255  158.9747 H   0  0  0  0  0  0  0  0  0  0  0  0
  151.8206  138.4596  159.8171 H   0  0  0  0  0  0  0  0  0  0  0  0
  153.1122  137.2548  159.7416 H   0  0  0  0  0  0  0  0  0  0  0  0
  150.8995  138.4012  157.1809 H   0  0  0  0  0  0  0  0  0  0  0  0
  152.6859  140.1880  155.8964 H   0  0  0  0  0  0  0  0  0  0  0  0
  153.1014  138.8821  153.7966 H   0  0  0  0  0  0  0  0  0  0  0  0
  152.3950  137.4515  154.5433 H   0  0  0  0  0  0  0  0  0  0  0  0
  153.8908  138.1335  155.1785 H   0  0  0  0  0  0  0  0  0  0  0  0
  147.7957  138.2425  152.7315 H   0  0  0  0  0  0  0  0  0  0  0  0
  145.9491  139.8702  152.3958 H   0  0  0  0  0  0  0  0  0  0  0  0
  146.0457  142.1161  153.4579 H   0  0  0  0  0  0  0  0  0  0  0  0
  148.0015  142.7466  154.8669 H   0  0  0  0  0  0  0  0  0  0  0  0
  151.7610  142.1070  155.9932 H   0  0  0  0  0  0  0  0  0  0  0  0
  150.2746  142.9162  155.6173 H   0  0  0  0  0  0  0  0  0  0  0  0
  149.8688  140.9388  157.7654 H   0  0  0  0  0  0  0  0  0  0  0  0
  149.0285  143.3293  156.9353 H   0  0  0  0  0  0  0  0  0  0  0  0
  151.4143  140.2655  159.3592 H   0  0  0  0  0  0  0  0  0  0  0  0
  153.2507  140.7626  160.9507 H   0  0  0  0  0  0  0  0  0  0  0  0
  154.2459  143.0417  161.0363 H   0  0  0  0  0  0  0  0  0  0  0  0
  153.4052  144.8222  159.5156 H   0  0  0  0  0  0  0  0  0  0  0  0
  151.5772  144.3342  157.9167 H   0  0  0  0  0  0  0  0  0  0  0  0
  1  2  1  0  0  0  0
  1 25  1  0  0  0  0
  1 26  1  0  0  0  0
  1 27  1  0  0  0  0
  2  3  2  0  0  0  0
  2  4  1  0  0  0  0
  4  5  1  0  0  0  0
  4 28  1  0  0  0  0
  5  6  1  0  0  0  0
  5  7  1  0  0  0  0
  5 29  1  0  0  0  0
  6 30  1  0  0  0  0
  6 31  1  0  0  0  0
  6 32  1  0  0  0  0
  7 15  1  0  0  0  0
  7  8  2  0  0  0  0
  8  9  1  0  0  0  0
  9 14  2  0  0  0  0
  9 10  1  0  0  0  0
 10 11  2  0  0  0  0
 10 33  1  0  0  0  0
 11 12  1  0  0  0  0
 11 34  1  0  0  0  0
 12 13  2  0  0  0  0
 12 35  1  0  0  0  0
 13 14  1  0  0  0  0
 13 36  1  0  0  0  0
 14 15  1  0  0  0  0
 15 16  1  0  0  0  0
 16 17  1  0  0  0  0
 16 37  1  0  0  0  0
 16 38  1  0  0  0  0
 17 18  1  0  0  0  0
 17 19  1  0  0  0  0
 17 39  1  0  0  0  0
 18 40  1  0  0  0  0
 19 24  1  0  0  0  0
 19 20  2  0  0  0  0
 20 21  1  0  0  0  0
 20 41  1  0  0  0  0
 21 22  2  0  0  0  0
 21 42  1  0  0  0  0
 22 23  1  0  0  0  0
 22 43  1  0  0  0  0
 23 24  2  0  0  0  0
 23 44  1  0  0  0  0
 24 45  1  0  0  0  0
M  END
> <s_m_source_file>
AV-unprocessed.smi

> <i_m_source_file_index>
447

> <i_lp_mmshare_version>
43012

> <i_f3d_flags>
0

> <s_epik_input>
W0NIM11DKD1PKVtOSF1bQ0BIXShbQ0gzXSljKG4xKW4oYyhjMTIpW2NIXVtjSF1bY0hdW2NIXTIpW0NIMl1bQ0BIXShbT0hdKWMzW2NIXVtjSF1bY0hdW2NIXVtjSF0z

> <s_epik_cmdline>
J2VwaWtfcHl0aG9uJywgJy1waCcsICc3LjAnLCAnLXRuJywgJzgnLCAnLW1hJywgJzIwMCcsICctbWV0YWxfYmluZGluZycsICctaW1hZScsICc8aW5maWxlLm1hZT4nLCAnLW9tYWUnLCAnPG91dGZpbGUubWFlPic=

> <r_epik_Ionization_Penalty>
0.13301

> <r_epik_Ionization_Penalty_Charging>
0

> <r_epik_Ionization_Penalty_Neutral>
0.13301

> <r_epik_State_Penalty>
0.122384

> <r_epik_Charging_Adjusted_Penalty>
0.122384

> <i_epik_Tot_Q>
0

> <i_epik_Tot_abs_Q>
0

> <r_epik_Metal_State_Penalty>
0.0997374

> <b_epik_Metal_Only>
0

> <s_lp_Force_Field>
OPLS_2005

> <r_lp_Energy>
6.90784

> <b_lp_Chiralities_Consistent>
1

> <s_lp_Variant>
AV-unprocessed.smi:447-2

> <Gold.Version>
5.8.1

> <Gold.Id.Protein>
6NUR|6NUR_protein|mol2

> <Gold.PLP.Fitness>
52.3614

> <Gold.PLP.PLP>
-49.9418

> <Gold.PLP.part.hbond>
-2.0000

> <Gold.PLP.part.metal>
0.0000

> <Gold.PLP.part.buried>
0.4068

> <Gold.PLP.part.nonpolar>
-48.8260

> <Gold.PLP.part.repulsive>
0.2627

> <Gold.PLP.ligand.clash>
0.0000

> <Gold.PLP.ligand.torsion>
1.8335

> <Gold.PLP.Chemscore.Hbond>
2.0000

> <Gold.PLP.Chemscore.CHOScore>
0.0000

> <Gold.PLP.Chemscore.Metal>
0.0000

> <Gold.Chemscore.Hbonds>
donor molecule, donor type, donor heavy atom, donor atom, acceptor molecule, acceptor atom, score
      L1  H    18    40       P1  8028  1.00
      P1  H  7997  8008       L1     3  0.99

> <Gold.PLP.Chemscore.Internal.Correction>
0.0866

> <Gold.Rescore>
     Score         DG    S(hbond)    S(metal)    S(lipo)     H(rot)  DE(clash)    DE(int)     intcor
     20.32     -22.47       1.89        0.00     142.83       2.35       0.37       1.79       ----

> <Gold.Chemscore.Fitness>
20.3157

> <Gold.Chemscore.DG>
-22.4716

> <Gold.Chemscore.ZeroCoef>
-5.4800

> <Gold.Chemscore.Hbond>
1.8874

> <Gold.Chemscore.Metal>
0.0000

> <Gold.Chemscore.Lipo>
142.8290

> <Gold.Chemscore.Internal_Hbond>
0.0000

> <Gold.Chemscore.DEClash>
0.3708

> <Gold.Chemscore.DEInternal>
1.7851

> <Gold.Chemscore.Rot>
2.3528

> <Gold.Chemscore.Internal.Correction>
   9.000000E+99

> <Gold.Chemscore.Hbonds>
donor molecule, donor type, donor heavy atom, donor atom, acceptor molecule, acceptor atom, score
      L1  H    18    40       P1  8028  0.82
      P1  H  7997  8008       L1     3  0.94

> <Gold.Chemscore.Hbond.Weighted>
-6.3038

> <Gold.Chemscore.Metal.Weighted>
-0.0000

> <Gold.Chemscore.Lipo.Weighted>
-16.7110

> <Gold.Chemscore.Internal_Hbond.Weighted>
0.0000

> <Gold.Chemscore.DEClash.Weighted>
0.3708

> <Gold.Chemscore.DEInternal.Weighted>
1.7851

> <Gold.Chemscore.Rot.Weighted>
6.0231

> <Gold.Chemscore.Internal.Correction.Weighted>
   9.000000E+99

> <Gold.Protein.RotatedTorsions>
[ 6907 6896 6895 6894 ] final -104.57 input  -60.11 | X-H torsion
[ 7974 7965 7964 7962 ] final  -77.94 input  175.53 | X-H torsion
[ 8008 7997 7996 7995 ] final -100.28 input   59.86 | X-H torsion
[ 10167 10162 10161 10158 ] final  141.17 input  -65.29 | X-H torsion
[ 10718 10713 10712 10709 ] final    8.56 input   66.30 | X-H torsion
[ 10763 10752 10751 10750 ] final  -97.39 input  -60.55 | X-H torsion
[ 11005 11000 10999 10996 ] final -118.91 input  -57.11 | X-H torsion

> <Gold.Protein.ActiveResidues>
 VAL166  LYS551  ARG553  GLY616  TRP617  ASP618  TYR619  PRO620  LYS621  CYS622 
 ASP623  PHE694  ASN695  SER759  ASP760  ASP761  ALA762  ILE779  LEU786  VAL792 
 PHE793  MET794  SER795  GLU796  ALA797  LYS798  CYS799  TRP800  GLU811  SER814 

> <Gold.Protein.RotatedAtoms>
  150.7294  134.0258  159.3716 H   0  0  0  0  0  0  0  0  0  0  0  0  # atno 6907 bound_to 6896
  151.8225  135.0645  160.0436 H   0  0  0  0  0  0  0  0  0  0  0  0  # atno 6908 bound_to 6896
  152.2993  133.5603  159.5644 H   0  0  0  0  0  0  0  0  0  0  0  0  # atno 6909 bound_to 6896
  145.5930  140.9425  143.1282 H   0  0  0  0  0  0  0  0  0  0  0  0  # atno 7974 bound_to 7965
  154.8264  140.0442  157.1446 H   0  0  0  0  0  0  0  0  0  0  0  0  # atno 8008 bound_to 7997
  154.9202  140.3025  155.5200 H   0  0  0  0  0  0  0  0  0  0  0  0  # atno 8009 bound_to 7997
  156.2984  140.2342  156.4251 H   0  0  0  0  0  0  0  0  0  0  0  0  # atno 8010 bound_to 7997
  139.5028  144.6188  151.6100 H   0  0  0  0  0  0  0  0  0  0  0  0  # atno 10167 bound_to 10162
  156.9534  130.5905  149.5658 H   0  0  0  0  0  0  0  0  0  0  0  0  # atno 10718 bound_to 10713
  154.7323  135.5048  153.8985 H   0  0  0  0  0  0  0  0  0  0  0  0  # atno 10763 bound_to 10752
  153.0962  135.6673  153.9767 H   0  0  0  0  0  0  0  0  0  0  0  0  # atno 10764 bound_to 10752
  153.9565  135.3052  155.3415 H   0  0  0  0  0  0  0  0  0  0  0  0  # atno 10765 bound_to 10752
  141.0252  134.0064  157.3224 H   0  0  0  0  0  0  0  0  0  0  0  0  # atno 11005 bound_to 11000
  144.7343  139.7632  143.7335 LP  0  0  0  0  0  0  0  0  0  0  0  0  # atno 17320 bound_to 7965
  146.1633  139.4755  142.9974 LP  0  0  0  0  0  0  0  0  0  0  0  0  # atno 17321 bound_to 7965
  140.5884  143.9823  150.6309 LP  0  0  0  0  0  0  0  0  0  0  0  0  # atno 17342 bound_to 10162
  140.2995  143.3270  152.0985 LP  0  0  0  0  0  0  0  0  0  0  0  0  # atno 17343 bound_to 10162
  156.0353  130.5441  150.8638 LP  0  0  0  0  0  0  0  0  0  0  0  0  # atno 17370 bound_to 10713
  157.5707  131.0946  150.9422 LP  0  0  0  0  0  0  0  0  0  0  0  0  # atno 17371 bound_to 10713
  139.9171  135.0198  156.7925 LP  0  0  0  0  0  0  0  0  0  0  0  0  # atno 17394 bound_to 11000
  140.6503  133.9737  155.7752 LP  0  0  0  0  0  0  0  0  0  0  0  0  # atno 17395 bound_to 11000

$$$$
