AV-unprocessed.smi:2888|AV-procd|sdf|11102|dock5
  -GOLD-   2272015573D 1   1.00000     0.00000
 Structure written by MMmdl.
 33 35  0  0  0  0  0  0  0  0  1 V2000
  151.8478  145.1464  158.6800 C   0  0  0  0  0  0  0  0  0  0  0  0
  152.1461  143.7352  159.1393 C   0  0  0  0  0  0  0  0  0  0  0  0
  152.7983  143.4782  160.3632 C   0  0  0  0  0  0  0  0  0  0  0  0
  153.0175  142.1201  160.6753 C   0  0  0  0  0  0  0  0  0  0  0  0
  153.7084  141.7038  161.9564 C   0  0  0  0  0  0  0  0  0  0  0  0
  152.6268  141.1262  159.8465 N   0  0  0  0  0  0  0  0  0  0  0  0
  152.0211  141.4848  158.7117 C   0  0  0  0  0  0  0  0  0  0  0  0
  151.6452  140.4425  157.8846 N   0  0  0  0  0  0  0  0  0  0  0  0
  151.2394  140.6053  156.4933 C   0  0  2  0  0  0  0  0  0  0  0  0
  149.7805  140.2193  156.2393 C   0  0  0  0  0  0  0  0  0  0  0  0
  149.9180  139.2157  155.0853 C   0  0  2  0  0  0  0  0  0  0  0  0
  150.4498  137.8634  155.5766 C   0  0  0  0  0  0  0  0  0  0  0  0
  151.9119  138.1936  155.8700 C   0  0  0  0  0  0  0  0  0  0  0  0
  151.9815  139.6863  155.5031 C   0  0  1  0  0  0  0  0  0  0  0  0
  151.0659  139.7178  154.4211 O   0  0  0  0  0  0  0  0  0  0  0  0
  151.7592  142.7364  158.3160 N   0  0  0  0  0  0  0  0  0  0  0  0
  152.1006  145.8737  159.4517 H   0  0  0  0  0  0  0  0  0  0  0  0
  150.7885  145.2545  158.4452 H   0  0  0  0  0  0  0  0  0  0  0  0
  152.4247  145.3822  157.7856 H   0  0  0  0  0  0  0  0  0  0  0  0
  153.1118  144.2744  161.0225 H   0  0  0  0  0  0  0  0  0  0  0  0
  153.8592  142.5578  162.6174 H   0  0  0  0  0  0  0  0  0  0  0  0
  154.6823  141.2663  161.7353 H   0  0  0  0  0  0  0  0  0  0  0  0
  153.1111  140.9633  162.4888 H   0  0  0  0  0  0  0  0  0  0  0  0
  151.8534  139.5092  158.2077 H   0  0  0  0  0  0  0  0  0  0  0  0
  151.3822  141.6463  156.1993 H   0  0  0  0  0  0  0  0  0  0  0  0
  149.2840  139.7785  157.1049 H   0  0  0  0  0  0  0  0  0  0  0  0
  149.2067  141.0936  155.9300 H   0  0  0  0  0  0  0  0  0  0  0  0
  149.0309  139.1394  154.4561 H   0  0  0  0  0  0  0  0  0  0  0  0
  149.9129  137.4979  156.4527 H   0  0  0  0  0  0  0  0  0  0  0  0
  150.3787  137.1093  154.7921 H   0  0  0  0  0  0  0  0  0  0  0  0
  152.1943  137.9928  156.9037 H   0  0  0  0  0  0  0  0  0  0  0  0
  152.5688  137.6099  155.2242 H   0  0  0  0  0  0  0  0  0  0  0  0
  152.9840  140.0300  155.2469 H   0  0  0  0  0  0  0  0  0  0  0  0
  1  2  1  0  0  0  0
  1 17  1  0  0  0  0
  1 18  1  0  0  0  0
  1 19  1  0  0  0  0
  2 16  1  0  0  0  0
  2  3  2  0  0  0  0
  3  4  1  0  0  0  0
  3 20  1  0  0  0  0
  4  5  1  0  0  0  0
  4  6  2  0  0  0  0
  5 21  1  0  0  0  0
  5 22  1  0  0  0  0
  5 23  1  0  0  0  0
  6  7  1  0  0  0  0
  7  8  1  0  0  0  0
  7 16  2  0  0  0  0
  8  9  1  0  0  0  0
  8 24  1  0  0  0  0
  9 14  1  0  0  0  0
  9 10  1  0  0  0  0
  9 25  1  0  0  0  0
 10 11  1  0  0  0  0
 10 26  1  0  0  0  0
 10 27  1  0  0  0  0
 11 15  1  0  0  0  0
 11 12  1  0  0  0  0
 11 28  1  0  0  0  0
 12 13  1  0  0  0  0
 12 29  1  0  0  0  0
 12 30  1  0  0  0  0
 13 14  1  0  0  0  0
 13 31  1  0  0  0  0
 13 32  1  0  0  0  0
 14 15  1  0  0  0  0
 14 33  1  0  0  0  0
M  END
> <s_m_source_file>
AV-unprocessed.smi

> <i_m_source_file_index>
2888

> <i_lp_mmshare_version>
43012

> <i_f3d_flags>
0

> <s_epik_input>
W0NIM11jMVtjSF1jKFtDSDNdKW5jKG4xKVtOSF1bQ0BIXShbQ0gyXVtDQEBIXTIzKVtDQEBIXShPMylbQ0gyXVtDSDJdMg==

> <s_epik_cmdline>
J2VwaWtfcHl0aG9uJywgJy1waCcsICc3LjAnLCAnLXRuJywgJzgnLCAnLW1hJywgJzIwMCcsICctbWV0YWxfYmluZGluZycsICctaW1hZScsICc8aW5maWxlLm1hZT4nLCAnLW9tYWUnLCAnPG91dGZpbGUubWFlPic=

> <r_lp_tautomer_probability>
1

> <r_epik_Ionization_Penalty>
0.00890508

> <r_epik_Ionization_Penalty_Charging>
0

> <r_epik_Ionization_Penalty_Neutral>
0.00890508

> <r_epik_State_Penalty>
0.0067342

> <r_epik_Charging_Adjusted_Penalty>
0.0067342

> <i_epik_Tot_Q>
0

> <i_epik_Tot_abs_Q>
0

> <r_epik_Metal_State_Penalty>
0.00663442

> <b_epik_Metal_Only>
0

> <s_lp_Force_Field>
OPLS_2005

> <r_lp_Energy>
31.8735

> <b_lp_Chiralities_Consistent>
1

> <s_lp_Variant>
AV-unprocessed.smi:2888-3

> <Gold.Version>
5.8.1

> <Gold.Id.Protein>
6NUR|6NUR_protein|mol2

> <Gold.PLP.Fitness>
36.9053

> <Gold.PLP.PLP>
-34.0732

> <Gold.PLP.part.hbond>
-1.0000

> <Gold.PLP.part.metal>
0.0000

> <Gold.PLP.part.buried>
-4.2019

> <Gold.PLP.part.nonpolar>
-29.1499

> <Gold.PLP.part.repulsive>
0.2235

> <Gold.PLP.ligand.clash>
0.0000

> <Gold.PLP.ligand.torsion>
0.0884

> <Gold.PLP.Chemscore.Hbond>
1.0000

> <Gold.PLP.Chemscore.CHOScore>
0.0000

> <Gold.PLP.Chemscore.Metal>
0.0000

> <Gold.Chemscore.Hbonds>
donor molecule, donor type, donor heavy atom, donor atom, acceptor molecule, acceptor atom, score
      P1  H  7989  7998       L1    15  1.00

> <Gold.PLP.Chemscore.Internal.Correction>
0.0089

> <Gold.Rescore>
     Score         DG    S(hbond)    S(metal)    S(lipo)     H(rot)  DE(clash)    DE(int)     intcor
     17.16     -17.30       0.97        0.00      95.20       1.00       0.03       0.11       ----

> <Gold.Chemscore.Fitness>
17.1604

> <Gold.Chemscore.DG>
-17.2955

> <Gold.Chemscore.ZeroCoef>
-5.4800

> <Gold.Chemscore.Hbond>
0.9692

> <Gold.Chemscore.Metal>
0.0000

> <Gold.Chemscore.Lipo>
95.1997

> <Gold.Chemscore.Internal_Hbond>
0.0000

> <Gold.Chemscore.DEClash>
0.0295

> <Gold.Chemscore.DEInternal>
0.1056

> <Gold.Chemscore.Rot>
1.0000

> <Gold.Chemscore.Internal.Correction>
   9.000000E+99

> <Gold.Chemscore.Hbonds>
donor molecule, donor type, donor heavy atom, donor atom, acceptor molecule, acceptor atom, score
      P1  H  7989  7998       L1    15  0.39

> <Gold.Chemscore.Hbond.Weighted>
-3.2371

> <Gold.Chemscore.Metal.Weighted>
-0.0000

> <Gold.Chemscore.Lipo.Weighted>
-11.1384

> <Gold.Chemscore.Internal_Hbond.Weighted>
0.0000

> <Gold.Chemscore.DEClash.Weighted>
0.0295

> <Gold.Chemscore.DEInternal.Weighted>
0.1056

> <Gold.Chemscore.Rot.Weighted>
2.5600

> <Gold.Chemscore.Internal.Correction.Weighted>
   9.000000E+99

> <Gold.Protein.RotatedTorsions>
[ 6907 6896 6895 6894 ] final   51.14 input  -60.11 | X-H torsion
[ 7974 7965 7964 7962 ] final  129.87 input  175.53 | X-H torsion
[ 8008 7997 7996 7995 ] final -113.03 input   59.86 | X-H torsion
[ 10167 10162 10161 10158 ] final  -80.24 input  -65.29 | X-H torsion
[ 10718 10713 10712 10709 ] final   90.92 input   66.30 | X-H torsion
[ 10763 10752 10751 10750 ] final  123.91 input  -60.55 | X-H torsion
[ 11005 11000 10999 10996 ] final -142.40 input  -57.11 | X-H torsion

> <Gold.Protein.ActiveResidues>
 VAL166  LYS551  ARG553  GLY616  TRP617  ASP618  TYR619  PRO620  LYS621  CYS622 
 ASP623  PHE694  ASN695  SER759  ASP760  ASP761  ALA762  ILE779  LEU786  VAL792 
 PHE793  MET794  SER795  GLU796  ALA797  LYS798  CYS799  TRP800  GLU811  SER814 

> <Gold.Protein.RotatedAtoms>
  152.3094  134.7516  160.0339 H   0  0  0  0  0  0  0  0  0  0  0  0  # atno 6907 bound_to 6896
  151.8001  133.3364  159.3532 H   0  0  0  0  0  0  0  0  0  0  0  0  # atno 6908 bound_to 6896
  150.7312  134.5691  159.5926 H   0  0  0  0  0  0  0  0  0  0  0  0  # atno 6909 bound_to 6896
  145.0240  139.4106  143.5183 H   0  0  0  0  0  0  0  0  0  0  0  0  # atno 7974 bound_to 7965
  155.0144  140.0393  157.2412 H   0  0  0  0  0  0  0  0  0  0  0  0  # atno 8008 bound_to 7997
  154.7432  140.2753  155.6332 H   0  0  0  0  0  0  0  0  0  0  0  0  # atno 8009 bound_to 7997
  156.2869  140.2661  156.2165 H   0  0  0  0  0  0  0  0  0  0  0  0  # atno 8010 bound_to 7997
  140.4521  143.2480  151.8474 H   0  0  0  0  0  0  0  0  0  0  0  0  # atno 10167 bound_to 10162
  157.6960  131.0388  150.3651 H   0  0  0  0  0  0  0  0  0  0  0  0  # atno 10718 bound_to 10713
  153.6530  135.3359  155.3105 H   0  0  0  0  0  0  0  0  0  0  0  0  # atno 10763 bound_to 10752
  154.8533  135.4345  154.1884 H   0  0  0  0  0  0  0  0  0  0  0  0  # atno 10764 bound_to 10752
  153.2831  135.7010  153.7440 H   0  0  0  0  0  0  0  0  0  0  0  0  # atno 10765 bound_to 10752
  140.8229  134.2609  157.4892 H   0  0  0  0  0  0  0  0  0  0  0  0  # atno 11005 bound_to 11000
  146.3489  139.9753  142.8701 LP  0  0  0  0  0  0  0  0  0  0  0  0  # atno 17320 bound_to 7965
  145.1858  140.9788  143.4240 LP  0  0  0  0  0  0  0  0  0  0  0  0  # atno 17321 bound_to 7965
  139.4797  144.5108  151.8935 LP  0  0  0  0  0  0  0  0  0  0  0  0  # atno 17342 bound_to 10162
  140.4195  144.2262  150.5887 LP  0  0  0  0  0  0  0  0  0  0  0  0  # atno 17343 bound_to 10162
  156.4083  130.3929  149.6910 LP  0  0  0  0  0  0  0  0  0  0  0  0  # atno 17370 bound_to 10713
  156.4203  130.7765  151.2782 LP  0  0  0  0  0  0  0  0  0  0  0  0  # atno 17371 bound_to 10713
  139.8707  134.9545  156.4177 LP  0  0  0  0  0  0  0  0  0  0  0  0  # atno 17394 bound_to 11000
  140.9080  133.7732  155.9757 LP  0  0  0  0  0  0  0  0  0  0  0  0  # atno 17395 bound_to 11000

$$$$
