AV-unprocessed.smi:1366|AV-procd|sdf|5570|dock8
  -GOLD-   22720 5163D 1   1.00000     0.00000
 Structure written by MMmdl.
 31 32  0  0  0  0  0  0  0  0  1 V2000
  150.2691  135.1275  154.7797 N   0  0  0  0  0  0  0  0  0  0  0  0
  150.4074  136.2535  155.0072 C   0  0  0  0  0  0  0  0  0  0  0  0
  150.5814  137.6709  155.2934 C   0  0  0  0  0  0  0  0  0  0  0  0
  151.0260  138.0943  156.5653 C   0  0  0  0  0  0  0  0  0  0  0  0
  151.1965  139.4003  156.8651 N   0  0  0  0  0  0  0  0  0  0  0  0
  150.9236  140.2685  155.8899 C   0  0  0  0  0  0  0  0  0  0  0  0
  151.1376  141.9838  156.2835 S   0  0  0  0  0  0  0  0  0  0  0  0
  151.2966  141.8486  158.0849 C   0  0  0  0  0  0  0  0  0  0  0  0
  151.1907  143.2167  158.7716 C   0  0  2  0  0  0  0  0  0  0  0  0
  152.2944  144.1842  158.3016 C   0  0  0  0  0  0  0  0  0  0  0  0
  152.2102  145.5101  159.0664 C   0  0  0  0  0  0  0  0  0  0  0  0
  152.2118  145.2378  160.5743 C   0  0  0  0  0  0  0  0  0  0  0  0
  151.1202  144.2175  160.9334 C   0  0  0  0  0  0  0  0  0  0  0  0
  151.3075  143.0235  160.1802 O   0  0  0  0  0  0  0  0  0  0  0  0
  150.4995  139.9981  154.6541 N   0  0  0  0  0  0  0  0  0  0  0  0
  150.3243  138.6947  154.3455 C   0  0  0  0  0  0  0  0  0  0  0  0
  149.8774  138.4242  153.0508 N   0  0  0  0  0  0  0  0  0  0  0  0
  151.2463  137.3854  157.3504 H   0  0  0  0  0  0  0  0  0  0  0  0
  150.5245  141.1754  158.4591 H   0  0  0  0  0  0  0  0  0  0  0  0
  152.2593  141.3887  158.3098 H   0  0  0  0  0  0  0  0  0  0  0  0
  150.2128  143.6471  158.5476 H   0  0  0  0  0  0  0  0  0  0  0  0
  153.2739  143.7323  158.4641 H   0  0  0  0  0  0  0  0  0  0  0  0
  152.2082  144.3668  157.2302 H   0  0  0  0  0  0  0  0  0  0  0  0
  153.0430  146.1596  158.7954 H   0  0  0  0  0  0  0  0  0  0  0  0
  151.2966  146.0376  158.7892 H   0  0  0  0  0  0  0  0  0  0  0  0
  153.1856  144.8496  160.8761 H   0  0  0  0  0  0  0  0  0  0  0  0
  152.0593  146.1653  161.1263 H   0  0  0  0  0  0  0  0  0  0  0  0
  151.1685  143.9750  161.9950 H   0  0  0  0  0  0  0  0  0  0  0  0
  150.1264  144.6268  160.7456 H   0  0  0  0  0  0  0  0  0  0  0  0
  149.7170  137.4795  152.7319 H   0  0  0  0  0  0  0  0  0  0  0  0
  149.6951  139.1684  152.3926 H   0  0  0  0  0  0  0  0  0  0  0  0
  1  2  3  0  0  0  0
  2  3  1  0  0  0  0
  3 16  1  0  0  0  0
  3  4  2  0  0  0  0
  4  5  1  0  0  0  0
  4 18  1  0  0  0  0
  5  6  2  0  0  0  0
  6  7  1  0  0  0  0
  6 15  1  0  0  0  0
  7  8  1  0  0  0  0
  8  9  1  0  0  0  0
  8 19  1  0  0  0  0
  8 20  1  0  0  0  0
  9 14  1  0  0  0  0
  9 10  1  0  0  0  0
  9 21  1  0  0  0  0
 10 11  1  0  0  0  0
 10 22  1  0  0  0  0
 10 23  1  0  0  0  0
 11 12  1  0  0  0  0
 11 24  1  0  0  0  0
 11 25  1  0  0  0  0
 12 13  1  0  0  0  0
 12 26  1  0  0  0  0
 12 27  1  0  0  0  0
 13 14  1  0  0  0  0
 13 28  1  0  0  0  0
 13 29  1  0  0  0  0
 15 16  2  0  0  0  0
 16 17  1  0  0  0  0
 17 30  1  0  0  0  0
 17 31  1  0  0  0  0
M  END
> <s_m_source_file>
AV-unprocessed.smi

> <i_m_source_file_index>
1366

> <i_lp_mmshare_version>
43012

> <i_f3d_flags>
0

> <s_epik_input>
TiNDYzFbY0hdbmMobmMxW05IMl0pU1tDSDJdW0NAQEhdMltDSDJdW0NIMl1bQ0gyXVtDSDJdTzI=

> <s_epik_cmdline>
J2VwaWtfcHl0aG9uJywgJy1waCcsICc3LjAnLCAnLXRuJywgJzgnLCAnLW1hJywgJzIwMCcsICctbWV0YWxfYmluZGluZycsICctaW1hZScsICc8aW5maWxlLm1hZT4nLCAnLW9tYWUnLCAnPG91dGZpbGUubWFlPic=

> <r_lp_tautomer_probability>
1

> <r_epik_Ionization_Penalty>
5.69531e-05

> <r_epik_Ionization_Penalty_Charging>
0

> <r_epik_Ionization_Penalty_Neutral>
5.69531e-05

> <r_epik_State_Penalty>
-0

> <r_epik_Charging_Adjusted_Penalty>
0

> <i_epik_Tot_Q>
0

> <i_epik_Tot_abs_Q>
0

> <r_epik_Metal_State_Penalty>
-0

> <b_epik_Metal_Only>
0

> <s_lp_Force_Field>
OPLS_2005

> <r_lp_Energy>
5.78872

> <b_lp_Chiralities_Consistent>
1

> <s_lp_Variant>
AV-unprocessed.smi:1366-1

> <Gold.Version>
5.8.1

> <Gold.Id.Protein>
6NUR|6NUR_protein|mol2

> <Gold.PLP.Fitness>
41.9444

> <Gold.PLP.PLP>
-33.3188

> <Gold.PLP.part.hbond>
-4.1125

> <Gold.PLP.part.metal>
0.0000

> <Gold.PLP.part.buried>
-4.7291

> <Gold.PLP.part.nonpolar>
-25.3782

> <Gold.PLP.part.repulsive>
0.3850

> <Gold.PLP.ligand.clash>
0.0000

> <Gold.PLP.ligand.torsion>
0.1879

> <Gold.PLP.Chemscore.Hbond>
3.0000

> <Gold.PLP.Chemscore.CHOScore>
0.0000

> <Gold.PLP.Chemscore.Metal>
0.0000

> <Gold.Chemscore.Hbonds>
donor molecule, donor type, donor heavy atom, donor atom, acceptor molecule, acceptor atom, score
      L1  H    17    30       P1  7948  1.00
      L1  H    17    31       P1  7957  0.93
      P1  H  7989  7998       L1    15  1.00

> <Gold.PLP.Chemscore.Internal.Correction>
0.0012

> <Gold.Rescore>
     Score         DG    S(hbond)    S(metal)    S(lipo)     H(rot)  DE(clash)    DE(int)     intcor
     18.20     -18.44       2.41        0.00      79.69       1.73       0.10       0.14       ----

> <Gold.Chemscore.Fitness>
18.1990

> <Gold.Chemscore.DG>
-18.4403

> <Gold.Chemscore.ZeroCoef>
-5.4800

> <Gold.Chemscore.Hbond>
2.4120

> <Gold.Chemscore.Metal>
0.0000

> <Gold.Chemscore.Lipo>
79.6944

> <Gold.Chemscore.Internal_Hbond>
0.0000

> <Gold.Chemscore.DEClash>
0.0998

> <Gold.Chemscore.DEInternal>
0.1415

> <Gold.Chemscore.Rot>
1.7266

> <Gold.Chemscore.Internal.Correction>
   9.000000E+99

> <Gold.Chemscore.Hbonds>
donor molecule, donor type, donor heavy atom, donor atom, acceptor molecule, acceptor atom, score
      L1  H    17    30       P1  7948  0.39
      L1  H    17    31       P1  7957  0.78
      P1  H  7989  7998       L1    15  0.51

> <Gold.Chemscore.Hbond.Weighted>
-8.0561

> <Gold.Chemscore.Metal.Weighted>
-0.0000

> <Gold.Chemscore.Lipo.Weighted>
-9.3242

> <Gold.Chemscore.Internal_Hbond.Weighted>
0.0000

> <Gold.Chemscore.DEClash.Weighted>
0.0998

> <Gold.Chemscore.DEInternal.Weighted>
0.1415

> <Gold.Chemscore.Rot.Weighted>
4.4200

> <Gold.Chemscore.Internal.Correction.Weighted>
   9.000000E+99

> <Gold.Protein.RotatedTorsions>
[ 6907 6896 6895 6894 ] final  161.13 input  -60.11 | X-H torsion
[ 7974 7965 7964 7962 ] final   17.03 input  175.53 | X-H torsion
[ 8008 7997 7996 7995 ] final  157.77 input   59.86 | X-H torsion
[ 10167 10162 10161 10158 ] final  -48.95 input  -65.29 | X-H torsion
[ 10718 10713 10712 10709 ] final  -92.55 input   66.30 | X-H torsion
[ 10763 10752 10751 10750 ] final   90.32 input  -60.55 | X-H torsion
[ 11005 11000 10999 10996 ] final  -34.23 input  -57.11 | X-H torsion

> <Gold.Protein.ActiveResidues>
 VAL166  LYS551  ARG553  GLY616  TRP617  ASP618  TYR619  PRO620  LYS621  CYS622 
 ASP623  PHE694  ASN695  SER759  ASP760  ASP761  ALA762  ILE779  LEU786  VAL792 
 PHE793  MET794  SER795  GLU796  ALA797  LYS798  CYS799  TRP800  GLU811  SER814 

> <Gold.Protein.RotatedAtoms>
  151.9602  133.3693  159.4032 H   0  0  0  0  0  0  0  0  0  0  0  0  # atno 6907 bound_to 6896
  150.6965  134.4248  159.5231 H   0  0  0  0  0  0  0  0  0  0  0  0  # atno 6908 bound_to 6896
  152.1936  134.8650  160.0566 H   0  0  0  0  0  0  0  0  0  0  0  0  # atno 6909 bound_to 6896
  146.2231  139.8662  142.8596 H   0  0  0  0  0  0  0  0  0  0  0  0  # atno 7974 bound_to 7965
  156.2343  140.1876  156.7159 H   0  0  0  0  0  0  0  0  0  0  0  0  # atno 8008 bound_to 7997
  154.6079  140.0626  156.9482 H   0  0  0  0  0  0  0  0  0  0  0  0  # atno 8009 bound_to 7997
  155.2065  140.3296  155.4338 H   0  0  0  0  0  0  0  0  0  0  0  0  # atno 8010 bound_to 7997
  140.6708  143.2718  151.4144 H   0  0  0  0  0  0  0  0  0  0  0  0  # atno 10167 bound_to 10162
  156.0003  130.4992  150.5643 H   0  0  0  0  0  0  0  0  0  0  0  0  # atno 10718 bound_to 10713
  153.1963  135.4438  155.0212 H   0  0  0  0  0  0  0  0  0  0  0  0  # atno 10763 bound_to 10752
  154.8121  135.3299  154.7280 H   0  0  0  0  0  0  0  0  0  0  0  0  # atno 10764 bound_to 10752
  153.7729  135.6983  153.4958 H   0  0  0  0  0  0  0  0  0  0  0  0  # atno 10765 bound_to 10752
  140.9700  133.7115  156.1507 H   0  0  0  0  0  0  0  0  0  0  0  0  # atno 11005 bound_to 11000
  145.2654  141.0091  143.3802 LP  0  0  0  0  0  0  0  0  0  0  0  0  # atno 17320 bound_to 7965
  144.9265  139.4349  143.6516 LP  0  0  0  0  0  0  0  0  0  0  0  0  # atno 17321 bound_to 7965
  139.5975  144.1366  152.2160 LP  0  0  0  0  0  0  0  0  0  0  0  0  # atno 17342 bound_to 10162
  140.0740  144.5756  150.7171 LP  0  0  0  0  0  0  0  0  0  0  0  0  # atno 17343 bound_to 10162
  157.3548  131.0739  151.1684 LP  0  0  0  0  0  0  0  0  0  0  0  0  # atno 17370 bound_to 10713
  157.2489  130.6604  149.5922 LP  0  0  0  0  0  0  0  0  0  0  0  0  # atno 17371 bound_to 10713
  140.7343  134.4220  157.5562 LP  0  0  0  0  0  0  0  0  0  0  0  0  # atno 17394 bound_to 11000
  139.8908  134.8794  156.2349 LP  0  0  0  0  0  0  0  0  0  0  0  0  # atno 17395 bound_to 11000

$$$$
