AV-unprocessed.smi:2928|AV-procd|sdf|11237|dock9
  -GOLD-   2272016133D 1   1.00000     0.00000
 Structure written by MMmdl.
 56 59  0  0  0  0  0  0  0  0  3 V2000
  150.5568  141.3905  155.9214 C   0  0  0  0  0  0  0  0  0  0  0  0
  150.3333  139.9528  155.6368 N   0  3  2  0  0  0  0  0  0  0  0  0
  149.4760  139.2492  156.6215 C   0  0  2  0  0  0  0  0  0  0  0  0
  150.2019  139.0799  157.9809 C   0  0  0  0  0  0  0  0  0  0  0  0
  151.6056  138.4537  157.8714 C   0  0  0  0  0  0  0  0  0  0  0  0
  152.4043  139.0011  156.6733 C   0  0  0  0  0  0  0  0  0  0  0  0
  151.5658  139.1680  155.3810 C   0  0  1  0  0  0  0  0  0  0  0  0
  151.1806  137.8419  154.6838 C   0  0  0  0  0  0  0  0  0  0  0  0
  150.0817  137.0270  155.4137 C   0  0  2  0  0  0  0  0  0  0  0  0
  149.4844  136.0538  154.5015 N   0  0  0  0  0  0  0  0  0  0  0  0
  149.4241  134.7311  154.7140 C   0  0  0  0  0  0  0  0  0  0  0  0
  149.8912  134.1787  155.7098 O   0  0  0  0  0  0  0  0  0  0  0  0
  148.8130  134.0999  153.6975 N   0  0  0  0  0  0  0  0  0  0  0  0
  148.5854  132.7022  153.5504 C   0  0  0  0  0  0  0  0  0  0  0  0
  149.4233  131.7531  154.1909 C   0  0  0  0  0  0  0  0  0  0  0  0
  149.1328  130.3794  154.0925 C   0  0  0  0  0  0  0  0  0  0  0  0
  147.9986  129.9745  153.3685 C   0  0  0  0  0  0  0  0  0  0  0  0
  147.2148  130.9014  152.7803 N   0  3  0  0  0  0  0  0  0  0  0  0
  147.4500  132.2368  152.8251 C   0  0  0  0  0  0  0  0  0  0  0  0
  146.5492  133.0894  152.1468 N   0  0  0  0  0  0  0  0  0  0  0  0
  145.2259  133.3557  152.6992 C   0  0  0  0  0  0  0  0  0  0  0  0
  144.4379  133.9854  151.5540 C   0  0  0  0  0  0  0  0  0  0  0  0
  144.9897  133.2531  150.3346 C   0  0  0  0  0  0  0  0  0  0  0  0
  146.4593  133.0072  150.6921 C   0  0  0  0  0  0  0  0  0  0  0  0
  148.9671  137.9333  155.9885 C   0  0  0  0  0  0  0  0  0  0  0  0
  151.1052  141.5497  156.8493 H   0  0  0  0  0  0  0  0  0  0  0  0
  149.6035  141.9137  155.9996 H   0  0  0  0  0  0  0  0  0  0  0  0
  151.1210  141.8551  155.1122 H   0  0  0  0  0  0  0  0  0  0  0  0
  148.5951  139.8679  156.7994 H   0  0  0  0  0  0  0  0  0  0  0  0
  150.2988  140.0588  158.4510 H   0  0  0  0  0  0  0  0  0  0  0  0
  149.5882  138.4920  158.6642 H   0  0  0  0  0  0  0  0  0  0  0  0
  152.1587  138.6413  158.7922 H   0  0  0  0  0  0  0  0  0  0  0  0
  151.5354  137.3708  157.8160 H   0  0  0  0  0  0  0  0  0  0  0  0
  152.8198  139.9703  156.9505 H   0  0  0  0  0  0  0  0  0  0  0  0
  153.2669  138.3619  156.4818 H   0  0  0  0  0  0  0  0  0  0  0  0
  152.1752  139.7267  154.6690 H   0  0  0  0  0  0  0  0  0  0  0  0
  150.8211  138.0899  153.6836 H   0  0  0  0  0  0  0  0  0  0  0  0
  152.0678  137.2255  154.5330 H   0  0  0  0  0  0  0  0  0  0  0  0
  150.5271  136.4673  156.2326 H   0  0  0  0  0  0  0  0  0  0  0  0
  149.0758  136.4176  153.6529 H   0  0  0  0  0  0  0  0  0  0  0  0
  148.5710  134.6677  152.8984 H   0  0  0  0  0  0  0  0  0  0  0  0
  150.2752  132.0604  154.7786 H   0  0  0  0  0  0  0  0  0  0  0  0
  149.7643  129.6493  154.5773 H   0  0  0  0  0  0  0  0  0  0  0  0
  147.6931  128.9454  153.2456 H   0  0  0  0  0  0  0  0  0  0  0  0
  144.7453  132.4255  153.0051 H   0  0  0  0  0  0  0  0  0  0  0  0
  145.2801  134.0167  153.5648 H   0  0  0  0  0  0  0  0  0  0  0  0
  143.3592  133.8747  151.6681 H   0  0  0  0  0  0  0  0  0  0  0  0
  144.6651  135.0501  151.4834 H   0  0  0  0  0  0  0  0  0  0  0  0
  144.4752  132.2981  150.2174 H   0  0  0  0  0  0  0  0  0  0  0  0
  144.8679  133.8156  149.4084 H   0  0  0  0  0  0  0  0  0  0  0  0
  147.0829  133.7888  150.2578 H   0  0  0  0  0  0  0  0  0  0  0  0
  146.8043  132.0449  150.3110 H   0  0  0  0  0  0  0  0  0  0  0  0
  148.3654  137.3760  156.7075 H   0  0  0  0  0  0  0  0  0  0  0  0
  148.2858  138.2030  155.1795 H   0  0  0  0  0  0  0  0  0  0  0  0
  149.8175  139.9427  154.7685 H   0  0  0  0  0  0  0  0  0  0  0  0
  146.3986  130.5758  152.2622 H   0  0  0  0  0  0  0  0  0  0  0  0
  1  2  1  0  0  0  0
  1 26  1  0  0  0  0
  1 27  1  0  0  0  0
  1 28  1  0  0  0  0
  2  7  1  0  0  0  0
  2  3  1  0  0  0  0
  2 55  1  0  0  0  0
  3 25  1  0  0  0  0
  3  4  1  0  0  0  0
  3 29  1  0  0  0  0
  4  5  1  0  0  0  0
  4 30  1  0  0  0  0
  4 31  1  0  0  0  0
  5  6  1  0  0  0  0
  5 32  1  0  0  0  0
  5 33  1  0  0  0  0
  6  7  1  0  0  0  0
  6 34  1  0  0  0  0
  6 35  1  0  0  0  0
  7  8  1  0  0  0  0
  7 36  1  0  0  0  0
  8  9  1  0  0  0  0
  8 37  1  0  0  0  0
  8 38  1  0  0  0  0
  9 10  1  0  0  0  0
  9 25  1  0  0  0  0
  9 39  1  0  0  0  0
 10 11  1  0  0  0  0
 10 40  1  0  0  0  0
 11 12  2  0  0  0  0
 11 13  1  0  0  0  0
 13 14  1  0  0  0  0
 13 41  1  0  0  0  0
 14 19  1  0  0  0  0
 14 15  2  0  0  0  0
 15 16  1  0  0  0  0
 15 42  1  0  0  0  0
 16 17  2  0  0  0  0
 16 43  1  0  0  0  0
 17 18  1  0  0  0  0
 17 44  1  0  0  0  0
 18 19  2  0  0  0  0
 18 56  1  0  0  0  0
 19 20  1  0  0  0  0
 20 24  1  0  0  0  0
 20 21  1  0  0  0  0
 21 22  1  0  0  0  0
 21 45  1  0  0  0  0
 21 46  1  0  0  0  0
 22 23  1  0  0  0  0
 22 47  1  0  0  0  0
 22 48  1  0  0  0  0
 23 24  1  0  0  0  0
 23 49  1  0  0  0  0
 23 50  1  0  0  0  0
 24 51  1  0  0  0  0
 24 52  1  0  0  0  0
 25 53  1  0  0  0  0
 25 54  1  0  0  0  0
M  CHG  1   2   1
M  CHG  1  18   1
M  END
> <s_m_source_file>
AV-unprocessed.smi

> <i_m_source_file_index>
2928

> <i_lp_mmshare_version>
43012

> <i_f3d_flags>
0

> <s_epik_input>
W0NIMl0xW0NIMl1bQ0gyXVtDQEhdKE4oW0NIM10pW0NIXTEyKVtDSDJdW0NASF0oW0NIMl0yKVtOSF1DKD1PKVtOSF1jM1tjSF1bY0hdW2NIXW5jM040W0NIMl1bQ0gyXVtDSDJdW0NIMl00

> <s_epik_cmdline>
J2VwaWtfcHl0aG9uJywgJy1waCcsICc3LjAnLCAnLXRuJywgJzgnLCAnLW1hJywgJzIwMCcsICctbWV0YWxfYmluZGluZycsICctaW1hZScsICc8aW5maWxlLm1hZT4nLCAnLW9tYWUnLCAnPG91dGZpbGUubWFlPic=

> <r_lp_tautomer_probability>
0.999994

> <r_epik_Ionization_Penalty>
1.2404

> <r_epik_Ionization_Penalty_Charging>
1.24038

> <r_epik_Ionization_Penalty_Neutral>
1.86539e-05

> <r_epik_State_Penalty>
1.30821

> <r_epik_Charging_Adjusted_Penalty>
2.54859

> <i_epik_Tot_Q>
2

> <i_epik_Tot_abs_Q>
2

> <r_epik_Metal_State_Penalty>
1.3782

> <b_epik_Metal_Only>
0

> <s_lp_Force_Field>
OPLS_2005

> <r_lp_Energy>
72.5254

> <b_lp_Chiralities_Consistent>
1

> <s_lp_Variant>
AV-unprocessed.smi:2928-7

> <Gold.Version>
5.8.1

> <Gold.Id.Protein>
6NUR|6NUR_protein|mol2

> <Gold.PLP.Fitness>
43.4269

> <Gold.PLP.PLP>
-38.2859

> <Gold.PLP.part.hbond>
-2.9048

> <Gold.PLP.part.metal>
0.0000

> <Gold.PLP.part.buried>
-4.9093

> <Gold.PLP.part.nonpolar>
-31.2487

> <Gold.PLP.part.repulsive>
0.2711

> <Gold.PLP.ligand.clash>
0.0000

> <Gold.PLP.ligand.torsion>
0.4029

> <Gold.PLP.Chemscore.Hbond>
1.8560

> <Gold.PLP.Chemscore.CHOScore>
0.0000

> <Gold.PLP.Chemscore.Metal>
0.0000

> <Gold.Chemscore.Hbonds>
donor molecule, donor type, donor heavy atom, donor atom, acceptor molecule, acceptor atom, score
      L1  H    10    40       P1  7948  0.88
      L1  H    13    41       P1  7948  0.94

> <Gold.PLP.Chemscore.Internal.Correction>
0.3787

> <Gold.Rescore>
     Score         DG    S(hbond)    S(metal)    S(lipo)     H(rot)  DE(clash)    DE(int)     intcor
     15.42     -17.06       1.39        0.00      85.34       1.19       0.00       1.64       ----

> <Gold.Chemscore.Fitness>
15.4210

> <Gold.Chemscore.DG>
-17.0649

> <Gold.Chemscore.ZeroCoef>
-5.4800

> <Gold.Chemscore.Hbond>
1.3896

> <Gold.Chemscore.Metal>
0.0000

> <Gold.Chemscore.Lipo>
85.3406

> <Gold.Chemscore.Internal_Hbond>
0.0000

> <Gold.Chemscore.DEClash>
0.0000

> <Gold.Chemscore.DEInternal>
1.6439

> <Gold.Chemscore.Rot>
1.1879

> <Gold.Chemscore.Internal.Correction>
   9.000000E+99

> <Gold.Chemscore.Hbonds>
donor molecule, donor type, donor heavy atom, donor atom, acceptor molecule, acceptor atom, score
      L1  H    10    40       P1  7948  0.85
      L1  H    13    41       P1  7948  0.23

> <Gold.Chemscore.Hbond.Weighted>
-4.6412

> <Gold.Chemscore.Metal.Weighted>
-0.0000

> <Gold.Chemscore.Lipo.Weighted>
-9.9848

> <Gold.Chemscore.Internal_Hbond.Weighted>
0.0000

> <Gold.Chemscore.DEClash.Weighted>
0.0000

> <Gold.Chemscore.DEInternal.Weighted>
1.6439

> <Gold.Chemscore.Rot.Weighted>
3.0410

> <Gold.Chemscore.Internal.Correction.Weighted>
   9.000000E+99

> <Gold.Protein.RotatedTorsions>
[ 6907 6896 6895 6894 ] final -161.60 input  -60.11 | X-H torsion
[ 7974 7965 7964 7962 ] final  -49.91 input  175.53 | X-H torsion
[ 8008 7997 7996 7995 ] final -116.40 input   59.86 | X-H torsion
[ 10167 10162 10161 10158 ] final  -12.26 input  -65.29 | X-H torsion
[ 10718 10713 10712 10709 ] final  -33.96 input   66.30 | X-H torsion
[ 10763 10752 10751 10750 ] final -110.80 input  -60.55 | X-H torsion
[ 11005 11000 10999 10996 ] final  179.09 input  -57.11 | X-H torsion

> <Gold.Protein.ActiveResidues>
 VAL166  LYS551  ARG553  GLY616  TRP617  ASP618  TYR619  PRO620  LYS621  CYS622 
 ASP623  PHE694  ASN695  SER759  ASP760  ASP761  ALA762  ILE779  LEU786  VAL792 
 PHE793  MET794  SER795  GLU796  ALA797  LYS798  CYS799  TRP800  GLU811  SER814 

> <Gold.Protein.RotatedAtoms>
  151.3672  133.3868  159.2695 H   0  0  0  0  0  0  0  0  0  0  0  0  # atno 6907 bound_to 6896
  150.9679  134.9058  159.7781 H   0  0  0  0  0  0  0  0  0  0  0  0  # atno 6908 bound_to 6896
  152.5174  134.3633  159.9344 H   0  0  0  0  0  0  0  0  0  0  0  0  # atno 6909 bound_to 6896
  145.9355  140.7710  142.9578 H   0  0  0  0  0  0  0  0  0  0  0  0  # atno 7974 bound_to 7965
  155.0673  140.0393  157.2597 H   0  0  0  0  0  0  0  0  0  0  0  0  # atno 8008 bound_to 7997
  154.7011  140.2673  155.6694 H   0  0  0  0  0  0  0  0  0  0  0  0  # atno 8009 bound_to 7997
  156.2760  140.2740  156.1622 H   0  0  0  0  0  0  0  0  0  0  0  0  # atno 8010 bound_to 7997
  140.7157  143.5551  150.9258 H   0  0  0  0  0  0  0  0  0  0  0  0  # atno 10167 bound_to 10162
  156.3563  130.4316  149.7661 H   0  0  0  0  0  0  0  0  0  0  0  0  # atno 10718 bound_to 10713
  154.8267  135.4551  154.0941 H   0  0  0  0  0  0  0  0  0  0  0  0  # atno 10763 bound_to 10752
  153.2249  135.6898  153.7963 H   0  0  0  0  0  0  0  0  0  0  0  0  # atno 10764 bound_to 10752
  153.7367  135.3318  155.3273 H   0  0  0  0  0  0  0  0  0  0  0  0  # atno 10765 bound_to 10752
  140.4023  134.6766  157.4569 H   0  0  0  0  0  0  0  0  0  0  0  0  # atno 11005 bound_to 11000
  144.6771  140.2196  143.7368 LP  0  0  0  0  0  0  0  0  0  0  0  0  # atno 17320 bound_to 7965
  145.8369  139.2111  143.1850 LP  0  0  0  0  0  0  0  0  0  0  0  0  # atno 17321 bound_to 7965
  139.9276  143.6532  152.3083 LP  0  0  0  0  0  0  0  0  0  0  0  0  # atno 17342 bound_to 10162
  139.6971  144.7640  151.1338 LP  0  0  0  0  0  0  0  0  0  0  0  0  # atno 17343 bound_to 10162
  156.4842  130.8055  151.3068 LP  0  0  0  0  0  0  0  0  0  0  0  0  # atno 17370 bound_to 10713
  157.7468  130.9996  150.2895 LP  0  0  0  0  0  0  0  0  0  0  0  0  # atno 17371 bound_to 10713
  140.0327  134.6382  155.9084 LP  0  0  0  0  0  0  0  0  0  0  0  0  # atno 17394 bound_to 11000
  141.1852  133.6554  156.5188 LP  0  0  0  0  0  0  0  0  0  0  0  0  # atno 17395 bound_to 11000

$$$$
