AV-unprocessed.smi:1162|AV-procd|sdf|4919|dock1
  -GOLD-   22720 3503D 1   1.00000     0.00000
 Structure written by MMmdl.
 44 45  0  0  0  0  0  0  0  0  1 V2000
  152.2946  140.9844  158.7262 C   0  0  0  0  0  0  0  0  0  0  0  0
  152.8519  140.1900  157.6849 O   0  0  0  0  0  0  0  0  0  0  0  0
  152.0109  139.7242  156.6951 C   0  0  0  0  0  0  0  0  0  0  0  0
  152.5633  138.9702  155.6406 C   0  0  0  0  0  0  0  0  0  0  0  0
  151.7131  138.4947  154.6239 C   0  0  0  0  0  0  0  0  0  0  0  0
  150.3295  138.7834  154.6991 C   0  0  0  0  0  0  0  0  0  0  0  0
  149.3711  138.3835  153.7290 N   0  0  0  0  0  0  0  0  0  0  0  0
  148.0730  138.7200  153.6405 C   0  0  0  0  0  0  0  0  0  0  0  0
  147.4821  139.4929  154.3944 O   0  0  0  0  0  0  0  0  0  0  0  0
  147.4887  138.1155  152.5958 N   0  0  0  0  0  0  0  0  0  0  0  0
  146.0958  138.2919  152.1921 C   0  0  0  0  0  0  0  0  0  0  0  0
  145.3247  136.9694  152.1035 C   0  0  0  0  0  0  0  0  0  0  0  0
  144.1087  136.9314  152.2980 O   0  0  0  0  0  0  0  0  0  0  0  0
  146.0531  135.8882  151.7872 N   0  0  0  0  0  0  0  0  0  0  0  0
  145.5330  134.5326  151.6356 C   0  0  0  0  0  0  0  0  0  0  0  0
  146.6667  133.5524  151.2686 C   0  0  0  0  0  0  0  0  0  0  0  0
  146.1269  132.1337  151.0237 C   0  0  0  0  0  0  0  0  0  0  0  0
  145.0240  132.1311  149.9537 C   0  0  0  0  0  0  0  0  0  0  0  0
  143.8908  133.1006  150.3238 C   0  0  0  0  0  0  0  0  0  0  0  0
  144.4299  134.5206  150.5601 C   0  0  0  0  0  0  0  0  0  0  0  0
  149.8788  139.5542  155.7905 C   0  0  0  0  0  0  0  0  0  0  0  0
  150.6881  140.0127  156.7682 N   0  0  0  0  0  0  0  0  0  0  0  0
  153.0841  141.2776  159.4182 H   0  0  0  0  0  0  0  0  0  0  0  0
  151.5463  140.4299  159.2942 H   0  0  0  0  0  0  0  0  0  0  0  0
  151.8434  141.8971  158.3343 H   0  0  0  0  0  0  0  0  0  0  0  0
  153.6230  138.7651  155.6082 H   0  0  0  0  0  0  0  0  0  0  0  0
  152.1414  137.9361  153.8067 H   0  0  0  0  0  0  0  0  0  0  0  0
  149.7289  137.8037  152.9840 H   0  0  0  0  0  0  0  0  0  0  0  0
  148.0531  137.5069  152.0216 H   0  0  0  0  0  0  0  0  0  0  0  0
  145.6054  138.9296  152.9278 H   0  0  0  0  0  0  0  0  0  0  0  0
  146.0442  138.8186  151.2373 H   0  0  0  0  0  0  0  0  0  0  0  0
  147.0446  136.0128  151.6420 H   0  0  0  0  0  0  0  0  0  0  0  0
  145.0855  134.2157  152.5798 H   0  0  0  0  0  0  0  0  0  0  0  0
  147.1821  133.9023  150.3729 H   0  0  0  0  0  0  0  0  0  0  0  0
  147.4138  133.5249  152.0628 H   0  0  0  0  0  0  0  0  0  0  0  0
  146.9405  131.4745  150.7199 H   0  0  0  0  0  0  0  0  0  0  0  0
  145.7322  131.7284  151.9561 H   0  0  0  0  0  0  0  0  0  0  0  0
  145.4480  132.4159  148.9899 H   0  0  0  0  0  0  0  0  0  0  0  0
  144.6264  131.1232  149.8316 H   0  0  0  0  0  0  0  0  0  0  0  0
  143.1399  133.1142  149.5335 H   0  0  0  0  0  0  0  0  0  0  0  0
  143.3856  132.7468  151.2237 H   0  0  0  0  0  0  0  0  0  0  0  0
  143.6119  135.1785  150.8558 H   0  0  0  0  0  0  0  0  0  0  0  0
  144.8225  134.9174  149.6225 H   0  0  0  0  0  0  0  0  0  0  0  0
  148.8336  139.8107  155.8855 H   0  0  0  0  0  0  0  0  0  0  0  0
  1  2  1  0  0  0  0
  1 23  1  0  0  0  0
  1 24  1  0  0  0  0
  1 25  1  0  0  0  0
  2  3  1  0  0  0  0
  3 22  1  0  0  0  0
  3  4  2  0  0  0  0
  4  5  1  0  0  0  0
  4 26  1  0  0  0  0
  5  6  2  0  0  0  0
  5 27  1  0  0  0  0
  6  7  1  0  0  0  0
  6 21  1  0  0  0  0
  7  8  1  0  0  0  0
  7 28  1  0  0  0  0
  8  9  2  0  0  0  0
  8 10  1  0  0  0  0
 10 11  1  0  0  0  0
 10 29  1  0  0  0  0
 11 12  1  0  0  0  0
 11 30  1  0  0  0  0
 11 31  1  0  0  0  0
 12 13  2  0  0  0  0
 12 14  1  0  0  0  0
 14 15  1  0  0  0  0
 14 32  1  0  0  0  0
 15 20  1  0  0  0  0
 15 16  1  0  0  0  0
 15 33  1  0  0  0  0
 16 17  1  0  0  0  0
 16 34  1  0  0  0  0
 16 35  1  0  0  0  0
 17 18  1  0  0  0  0
 17 36  1  0  0  0  0
 17 37  1  0  0  0  0
 18 19  1  0  0  0  0
 18 38  1  0  0  0  0
 18 39  1  0  0  0  0
 19 20  1  0  0  0  0
 19 40  1  0  0  0  0
 19 41  1  0  0  0  0
 20 42  1  0  0  0  0
 20 43  1  0  0  0  0
 21 22  2  0  0  0  0
 21 44  1  0  0  0  0
M  END
> <s_m_source_file>
AV-unprocessed.smi

> <i_m_source_file_index>
1162

> <i_lp_mmshare_version>
43012

> <i_f3d_flags>
0

> <s_epik_input>
W0NIM11PYzFbY0hdW2NIXWMoW2NIXW4xKVtOSF1DKD1PKVtOSF1bQ0gyXUMoPU8pW05IXVtDSF0yW0NIMl1bQ0gyXVtDSDJdW0NIMl1bQ0gyXTI=

> <s_epik_cmdline>
J2VwaWtfcHl0aG9uJywgJy1waCcsICc3LjAnLCAnLXRuJywgJzgnLCAnLW1hJywgJzIwMCcsICctbWV0YWxfYmluZGluZycsICctaW1hZScsICc8aW5maWxlLm1hZT4nLCAnLW9tYWUnLCAnPG91dGZpbGUubWFlPic=

> <r_lp_tautomer_probability>
1

> <r_epik_Ionization_Penalty>
0.000141568

> <r_epik_Ionization_Penalty_Charging>
0

> <r_epik_Ionization_Penalty_Neutral>
0.000141568

> <r_epik_State_Penalty>
-0

> <r_epik_Charging_Adjusted_Penalty>
0

> <i_epik_Tot_Q>
0

> <i_epik_Tot_abs_Q>
0

> <r_epik_Metal_State_Penalty>
-0

> <b_epik_Metal_Only>
0

> <s_lp_Force_Field>
OPLS_2005

> <r_lp_Energy>
7.6567

> <b_lp_Chiralities_Consistent>
1

> <s_lp_Variant>
AV-unprocessed.smi:1162-1

> <Gold.Version>
5.8.1

> <Gold.Id.Protein>
6NUR|6NUR_protein|mol2

> <Gold.PLP.Fitness>
47.9762

> <Gold.PLP.PLP>
-37.5760

> <Gold.PLP.part.hbond>
-5.2676

> <Gold.PLP.part.metal>
0.0000

> <Gold.PLP.part.buried>
-1.7711

> <Gold.PLP.part.nonpolar>
-32.2990

> <Gold.PLP.part.repulsive>
1.0931

> <Gold.PLP.ligand.clash>
0.0000

> <Gold.PLP.ligand.torsion>
0.4007

> <Gold.PLP.Chemscore.Hbond>
3.7200

> <Gold.PLP.Chemscore.CHOScore>
0.0000

> <Gold.PLP.Chemscore.Metal>
0.0000

> <Gold.Chemscore.Hbonds>
donor molecule, donor type, donor heavy atom, donor atom, acceptor molecule, acceptor atom, score
      L1  H     7    28       P1  7948  0.70
      L1  H    10    29       P1  7948  1.00
      L1  H    14    32       P1  7948  1.00
      P1  H  7997  8009       L1     2  0.89

> <Gold.PLP.Chemscore.Internal.Correction>
0.0416

> <Gold.Rescore>
     Score         DG    S(hbond)    S(metal)    S(lipo)     H(rot)  DE(clash)    DE(int)     intcor
     18.58     -22.00       3.27        0.00      87.60       1.82       0.04       3.38       ----

> <Gold.Chemscore.Fitness>
18.5760

> <Gold.Chemscore.DG>
-22.0011

> <Gold.Chemscore.ZeroCoef>
-5.4800

> <Gold.Chemscore.Hbond>
3.2731

> <Gold.Chemscore.Metal>
0.0000

> <Gold.Chemscore.Lipo>
87.5984

> <Gold.Chemscore.Internal_Hbond>
0.0000

> <Gold.Chemscore.DEClash>
0.0432

> <Gold.Chemscore.DEInternal>
3.3819

> <Gold.Chemscore.Rot>
1.8204

> <Gold.Chemscore.Internal.Correction>
   9.000000E+99

> <Gold.Chemscore.Hbonds>
donor molecule, donor type, donor heavy atom, donor atom, acceptor molecule, acceptor atom, score
      L1  H     7    28       P1  7948  0.40
      L1  H    10    29       P1  7948  0.91
      L1  H    14    32       P1  7948  1.00
      P1  H  7997  8009       L1     2  0.17

> <Gold.Chemscore.Hbond.Weighted>
-10.9322

> <Gold.Chemscore.Metal.Weighted>
-0.0000

> <Gold.Chemscore.Lipo.Weighted>
-10.2490

> <Gold.Chemscore.Internal_Hbond.Weighted>
0.0000

> <Gold.Chemscore.DEClash.Weighted>
0.0432

> <Gold.Chemscore.DEInternal.Weighted>
3.3819

> <Gold.Chemscore.Rot.Weighted>
4.6601

> <Gold.Chemscore.Internal.Correction.Weighted>
   9.000000E+99

> <Gold.Protein.RotatedTorsions>
[ 6907 6896 6895 6894 ] final   61.88 input  -60.11 | X-H torsion
[ 7974 7965 7964 7962 ] final   30.10 input  175.53 | X-H torsion
[ 8008 7997 7996 7995 ] final  172.78 input   59.86 | X-H torsion
[ 10167 10162 10161 10158 ] final  -64.39 input  -65.29 | X-H torsion
[ 10718 10713 10712 10709 ] final   20.68 input   66.30 | X-H torsion
[ 10763 10752 10751 10750 ] final   97.86 input  -60.55 | X-H torsion
[ 11005 11000 10999 10996 ] final -106.89 input  -57.11 | X-H torsion

> <Gold.Protein.ActiveResidues>
 VAL166  LYS551  ARG553  GLY616  TRP617  ASP618  TYR619  PRO620  LYS621  CYS622 
 ASP623  PHE694  ASN695  SER759  ASP760  ASP761  ALA762  ILE779  LEU786  VAL792 
 PHE793  MET794  SER795  GLU796  ALA797  LYS798  CYS799  TRP800  GLU811  SER814 

> <Gold.Protein.RotatedAtoms>
  152.4126  134.6097  160.0022 H   0  0  0  0  0  0  0  0  0  0  0  0  # atno 6907 bound_to 6896
  151.6270  133.3329  159.3108 H   0  0  0  0  0  0  0  0  0  0  0  0  # atno 6908 bound_to 6896
  150.8016  134.7154  159.6672 H   0  0  0  0  0  0  0  0  0  0  0  0  # atno 6909 bound_to 6896
  146.1632  139.6833  142.9019 H   0  0  0  0  0  0  0  0  0  0  0  0  # atno 7974 bound_to 7965
  156.1141  140.1477  156.9297 H   0  0  0  0  0  0  0  0  0  0  0  0  # atno 8008 bound_to 7997
  154.4788  140.0886  156.7370 H   0  0  0  0  0  0  0  0  0  0  0  0  # atno 8009 bound_to 7997
  155.4544  140.3436  155.4307 H   0  0  0  0  0  0  0  0  0  0  0  0  # atno 8010 bound_to 7997
  140.5804  143.2326  151.6354 H   0  0  0  0  0  0  0  0  0  0  0  0  # atno 10167 bound_to 10162
  157.1279  130.6578  149.5943 H   0  0  0  0  0  0  0  0  0  0  0  0  # atno 10718 bound_to 10713
  153.2820  135.4168  155.1088 H   0  0  0  0  0  0  0  0  0  0  0  0  # atno 10763 bound_to 10752
  154.8492  135.3497  154.6098 H   0  0  0  0  0  0  0  0  0  0  0  0  # atno 10764 bound_to 10752
  153.6519  135.7052  153.5264 H   0  0  0  0  0  0  0  0  0  0  0  0  # atno 10765 bound_to 10752
  141.0981  133.8933  157.1911 H   0  0  0  0  0  0  0  0  0  0  0  0  # atno 11005 bound_to 11000
  145.4535  141.0429  143.2791 LP  0  0  0  0  0  0  0  0  0  0  0  0  # atno 17320 bound_to 7965
  144.8055  139.6059  143.7052 LP  0  0  0  0  0  0  0  0  0  0  0  0  # atno 17321 bound_to 7965
  139.5166  144.3340  152.0801 LP  0  0  0  0  0  0  0  0  0  0  0  0  # atno 17342 bound_to 10162
  140.2489  144.4190  150.6229 LP  0  0  0  0  0  0  0  0  0  0  0  0  # atno 17343 bound_to 10162
  155.9814  130.4821  150.6826 LP  0  0  0  0  0  0  0  0  0  0  0  0  # atno 17370 bound_to 10713
  157.4418  131.0862  151.0936 LP  0  0  0  0  0  0  0  0  0  0  0  0  # atno 17371 bound_to 10713
  139.9824  135.0093  156.9782 LP  0  0  0  0  0  0  0  0  0  0  0  0  # atno 17394 bound_to 11000
  140.5089  134.1022  155.7266 LP  0  0  0  0  0  0  0  0  0  0  0  0  # atno 17395 bound_to 11000

$$$$
