AV-unprocessed.smi:1047|AV-procd|sdf|4577|dock2
  -GOLD-   22720 3 43D 1   1.00000     0.00000
 Structure written by MMmdl.
 56 58  0  0  0  0  0  0  0  0  2 V2000
  142.4460  145.7120  154.1782 C   0  0  0  0  0  0  0  0  0  0  0  0
  143.8340  145.1647  154.5401 C   0  0  0  0  0  0  0  0  0  0  0  0
  143.9471  143.6995  154.3106 N   0  3  2  0  0  0  0  0  0  0  0  0
  142.9920  142.8994  155.1152 C   0  0  0  0  0  0  0  0  0  0  0  0
  143.4717  142.7594  156.5710 C   0  0  0  0  0  0  0  0  0  0  0  0
  144.7736  142.1865  156.5876 O   0  0  0  0  0  0  0  0  0  0  0  0
  145.7375  142.9982  155.9244 C   0  0  1  0  0  0  0  0  0  0  0  0
  147.1047  142.3149  156.0819 C   0  0  0  0  0  0  0  0  0  0  0  0
  147.0714  140.9373  155.5999 N   0  0  0  0  0  0  0  0  0  0  0  0
  147.9300  140.7077  154.4419 C   0  0  0  0  0  0  0  0  0  0  0  0
  149.3420  140.2784  154.8730 C   0  0  1  0  0  0  0  0  0  0  0  0
  150.0279  139.7840  153.7388 O   0  0  0  0  0  0  0  0  0  0  0  0
  150.1398  141.4563  155.4651 C   0  0  0  0  0  0  0  0  0  0  0  0
  151.0487  141.0390  156.5181 N   0  0  0  0  0  0  0  0  0  0  0  0
  151.7911  139.9157  156.5573 C   0  0  0  0  0  0  0  0  0  0  0  0
  152.5601  139.7314  157.6267 N   0  0  0  0  0  0  0  0  0  0  0  0
  152.2887  140.8704  158.3654 C   0  0  0  0  0  0  0  0  0  0  0  0
  152.7861  141.2916  159.6181 C   0  0  0  0  0  0  0  0  0  0  0  0
  152.3640  142.5121  160.1922 C   0  0  0  0  0  0  0  0  0  0  0  0
  152.9229  142.9258  161.5422 C   0  0  0  0  0  0  0  0  0  0  0  0
  151.4302  143.3329  159.5100 C   0  0  0  0  0  0  0  0  0  0  0  0
  150.9620  144.6477  160.1078 C   0  0  0  0  0  0  0  0  0  0  0  0
  150.9233  142.9270  158.2579 C   0  0  0  0  0  0  0  0  0  0  0  0
  151.3498  141.7101  157.6980 C   0  0  0  0  0  0  0  0  0  0  0  0
  145.3211  143.1504  154.4427 C   0  0  0  0  0  0  0  0  0  0  0  0
  142.3648  146.7626  154.4579 H   0  0  0  0  0  0  0  0  0  0  0  0
  141.6588  145.1700  154.7029 H   0  0  0  0  0  0  0  0  0  0  0  0
  142.2454  145.6483  153.1092 H   0  0  0  0  0  0  0  0  0  0  0  0
  144.6090  145.7072  153.9989 H   0  0  0  0  0  0  0  0  0  0  0  0
  144.0014  145.3694  155.5982 H   0  0  0  0  0  0  0  0  0  0  0  0
  141.9927  143.3341  155.0754 H   0  0  0  0  0  0  0  0  0  0  0  0
  142.9120  141.9081  154.6668 H   0  0  0  0  0  0  0  0  0  0  0  0
  143.4746  143.7227  157.0830 H   0  0  0  0  0  0  0  0  0  0  0  0
  142.7955  142.1089  157.1259 H   0  0  0  0  0  0  0  0  0  0  0  0
  145.7743  143.9703  156.4182 H   0  0  0  0  0  0  0  0  0  0  0  0
  147.8471  142.8759  155.5125 H   0  0  0  0  0  0  0  0  0  0  0  0
  147.4241  142.3482  157.1243 H   0  0  0  0  0  0  0  0  0  0  0  0
  146.1177  140.6787  155.3649 H   0  0  0  0  0  0  0  0  0  0  0  0
  147.4942  139.9606  153.7769 H   0  0  0  0  0  0  0  0  0  0  0  0
  147.9966  141.6314  153.8657 H   0  0  0  0  0  0  0  0  0  0  0  0
  149.2766  139.4838  155.6180 H   0  0  0  0  0  0  0  0  0  0  0  0
  149.5319  140.0111  152.9670 H   0  0  0  0  0  0  0  0  0  0  0  0
  150.7128  141.9607  154.6852 H   0  0  0  0  0  0  0  0  0  0  0  0
  149.4599  142.1997  155.8829 H   0  0  0  0  0  0  0  0  0  0  0  0
  151.7630  139.1906  155.7569 H   0  0  0  0  0  0  0  0  0  0  0  0
  153.4975  140.6663  160.1371 H   0  0  0  0  0  0  0  0  0  0  0  0
  153.4547  143.8739  161.4614 H   0  0  0  0  0  0  0  0  0  0  0  0
  153.6207  142.1826  161.9292 H   0  0  0  0  0  0  0  0  0  0  0  0
  152.1189  143.0399  162.2694 H   0  0  0  0  0  0  0  0  0  0  0  0
  150.2536  145.1537  159.4514 H   0  0  0  0  0  0  0  0  0  0  0  0
  151.8067  145.3180  160.2676 H   0  0  0  0  0  0  0  0  0  0  0  0
  150.4687  144.4767  161.0647 H   0  0  0  0  0  0  0  0  0  0  0  0
  150.2111  143.5418  157.7277 H   0  0  0  0  0  0  0  0  0  0  0  0
  145.3382  142.1711  153.9621 H   0  0  0  0  0  0  0  0  0  0  0  0
  146.0385  143.7625  153.8978 H   0  0  0  0  0  0  0  0  0  0  0  0
  143.6751  143.5643  153.3472 H   0  0  0  0  0  0  0  0  0  0  0  0
  1  2  1  0  0  0  0
  1 26  1  0  0  0  0
  1 27  1  0  0  0  0
  1 28  1  0  0  0  0
  2  3  1  0  0  0  0
  2 29  1  0  0  0  0
  2 30  1  0  0  0  0
  3 25  1  0  0  0  0
  3  4  1  0  0  0  0
  3 56  1  0  0  0  0
  4  5  1  0  0  0  0
  4 31  1  0  0  0  0
  4 32  1  0  0  0  0
  5  6  1  0  0  0  0
  5 33  1  0  0  0  0
  5 34  1  0  0  0  0
  6  7  1  0  0  0  0
  7  8  1  0  0  0  0
  7 25  1  0  0  0  0
  7 35  1  0  0  0  0
  8  9  1  0  0  0  0
  8 36  1  0  0  0  0
  8 37  1  0  0  0  0
  9 10  1  0  0  0  0
  9 38  1  0  0  0  0
 10 11  1  0  0  0  0
 10 39  1  0  0  0  0
 10 40  1  0  0  0  0
 11 12  1  0  0  0  0
 11 13  1  0  0  0  0
 11 41  1  0  0  0  0
 12 42  1  0  0  0  0
 13 14  1  0  0  0  0
 13 43  1  0  0  0  0
 13 44  1  0  0  0  0
 14 24  1  0  0  0  0
 14 15  1  0  0  0  0
 15 16  2  0  0  0  0
 15 45  1  0  0  0  0
 16 17  1  0  0  0  0
 17 24  2  0  0  0  0
 17 18  1  0  0  0  0
 18 19  2  0  0  0  0
 18 46  1  0  0  0  0
 19 20  1  0  0  0  0
 19 21  1  0  0  0  0
 20 47  1  0  0  0  0
 20 48  1  0  0  0  0
 20 49  1  0  0  0  0
 21 22  1  0  0  0  0
 21 23  2  0  0  0  0
 22 50  1  0  0  0  0
 22 51  1  0  0  0  0
 22 52  1  0  0  0  0
 23 24  1  0  0  0  0
 23 53  1  0  0  0  0
 25 54  1  0  0  0  0
 25 55  1  0  0  0  0
M  CHG  1   3   1
M  END
> <s_m_source_file>
AV-unprocessed.smi

> <i_m_source_file_index>
1047

> <i_lp_mmshare_version>
43012

> <i_f3d_flags>
0

> <s_epik_input>
W0NIM11bQ0gyXU4xW0NIMl1bQ0gyXU9bQ0BIXShbQ0gyXTEpW0NIMl1bTkhdW0NIMl1bQ0BIXShbT0hdKVtDSDJdbihbY0hdbjIpYyhjMjMpW2NIXWMoW0NIM10pYyhbY0hdMylbQ0gzXQ==

> <s_epik_cmdline>
J2VwaWtfcHl0aG9uJywgJy1waCcsICc3LjAnLCAnLXRuJywgJzgnLCAnLW1hJywgJzIwMCcsICctbWV0YWxfYmluZGluZycsICctaW1hZScsICc8aW5maWxlLm1hZT4nLCAnLW9tYWUnLCAnPG91dGZpbGUubWFlPic=

> <r_epik_Ionization_Penalty>
1.19246

> <r_epik_Ionization_Penalty_Charging>
0.210041

> <r_epik_Ionization_Penalty_Neutral>
0.982415

> <r_epik_State_Penalty>
1.57595

> <r_epik_Charging_Adjusted_Penalty>
1.78599

> <i_epik_Tot_Q>
1

> <i_epik_Tot_abs_Q>
1

> <r_epik_Metal_State_Penalty>
1.46172

> <b_epik_Metal_Only>
0

> <s_lp_Force_Field>
OPLS_2005

> <r_lp_Energy>
32.1695

> <b_lp_Chiralities_Consistent>
1

> <s_lp_Variant>
AV-unprocessed.smi:1047-18

> <Gold.Version>
5.8.1

> <Gold.Id.Protein>
6NUR|6NUR_protein|mol2

> <Gold.PLP.Fitness>
56.9434

> <Gold.PLP.PLP>
-45.4321

> <Gold.PLP.part.hbond>
-4.0000

> <Gold.PLP.part.metal>
0.0000

> <Gold.PLP.part.buried>
-4.5116

> <Gold.PLP.part.nonpolar>
-36.3486

> <Gold.PLP.part.repulsive>
0.0495

> <Gold.PLP.ligand.clash>
0.0000

> <Gold.PLP.ligand.torsion>
1.4248

> <Gold.PLP.Chemscore.Hbond>
4.6640

> <Gold.PLP.Chemscore.CHOScore>
0.0000

> <Gold.PLP.Chemscore.Metal>
0.0000

> <Gold.Chemscore.Hbonds>
donor molecule, donor type, donor heavy atom, donor atom, acceptor molecule, acceptor atom, score
      L1  H     3    56       P1 10174  1.86
      L1  H    12    42       P1  7957  0.85
      P1  H  7989  7998       L1    12  0.85
      P1  H  7997  8010       L1    16  0.86

> <Gold.PLP.Chemscore.Internal.Correction>
0.3690

> <Gold.Rescore>
     Score         DG    S(hbond)    S(metal)    S(lipo)     H(rot)  DE(clash)    DE(int)     intcor
     20.52     -22.12       2.82        0.00     119.14       2.62       0.07       1.53       ----

> <Gold.Chemscore.Fitness>
20.5196

> <Gold.Chemscore.DG>
-22.1212

> <Gold.Chemscore.ZeroCoef>
-5.4800

> <Gold.Chemscore.Hbond>
2.8177

> <Gold.Chemscore.Metal>
0.0000

> <Gold.Chemscore.Lipo>
119.1437

> <Gold.Chemscore.Internal_Hbond>
0.0000

> <Gold.Chemscore.DEClash>
0.0678

> <Gold.Chemscore.DEInternal>
1.5339

> <Gold.Chemscore.Rot>
2.6209

> <Gold.Chemscore.Internal.Correction>
   9.000000E+99

> <Gold.Chemscore.Hbonds>
donor molecule, donor type, donor heavy atom, donor atom, acceptor molecule, acceptor atom, score
      L1  H     3    56       P1 10174  0.67
      L1  H    12    42       P1  7957  0.85
      P1  H  7989  7998       L1    12  0.14
      P1  H  7997  8010       L1    16  0.13

> <Gold.Chemscore.Hbond.Weighted>
-9.4110

> <Gold.Chemscore.Metal.Weighted>
-0.0000

> <Gold.Chemscore.Lipo.Weighted>
-13.9398

> <Gold.Chemscore.Internal_Hbond.Weighted>
0.0000

> <Gold.Chemscore.DEClash.Weighted>
0.0678

> <Gold.Chemscore.DEInternal.Weighted>
1.5339

> <Gold.Chemscore.Rot.Weighted>
6.7096

> <Gold.Chemscore.Internal.Correction.Weighted>
   9.000000E+99

> <Gold.Protein.RotatedTorsions>
[ 6907 6896 6895 6894 ] final    9.37 input  -60.11 | X-H torsion
[ 7974 7965 7964 7962 ] final  137.84 input  175.53 | X-H torsion
[ 8008 7997 7996 7995 ] final   45.48 input   59.86 | X-H torsion
[ 10167 10162 10161 10158 ] final  152.59 input  -65.29 | X-H torsion
[ 10718 10713 10712 10709 ] final   44.22 input   66.30 | X-H torsion
[ 10763 10752 10751 10750 ] final  -63.00 input  -60.55 | X-H torsion
[ 11005 11000 10999 10996 ] final    8.53 input  -57.11 | X-H torsion

> <Gold.Protein.ActiveResidues>
 VAL166  LYS551  ARG553  GLY616  TRP617  ASP618  TYR619  PRO620  LYS621  CYS622 
 ASP623  PHE694  ASN695  SER759  ASP760  ASP761  ALA762  ILE779  LEU786  VAL792 
 PHE793  MET794  SER795  GLU796  ALA797  LYS798  CYS799  TRP800  GLU811  SER814 

> <Gold.Protein.RotatedAtoms>
  151.7211  135.0894  160.0283 H   0  0  0  0  0  0  0  0  0  0  0  0  # atno 6907 bound_to 6896
  152.3601  133.6282  159.6017 H   0  0  0  0  0  0  0  0  0  0  0  0  # atno 6908 bound_to 6896
  150.7598  133.9353  159.3481 H   0  0  0  0  0  0  0  0  0  0  0  0  # atno 6909 bound_to 6896
  144.9429  139.4909  143.5563 H   0  0  0  0  0  0  0  0  0  0  0  0  # atno 7974 bound_to 7965
  155.3365  140.3405  155.4239 H   0  0  0  0  0  0  0  0  0  0  0  0  # atno 8008 bound_to 7997
  156.1835  140.1672  156.8266 H   0  0  0  0  0  0  0  0  0  0  0  0  # atno 8009 bound_to 7997
  154.5360  140.0735  156.8411 H   0  0  0  0  0  0  0  0  0  0  0  0  # atno 8010 bound_to 7997
  139.4832  144.5345  151.7668 H   0  0  0  0  0  0  0  0  0  0  0  0  # atno 10167 bound_to 10162
  157.4244  130.7988  149.7545 H   0  0  0  0  0  0  0  0  0  0  0  0  # atno 10718 bound_to 10713
  154.3084  135.6220  153.5455 H   0  0  0  0  0  0  0  0  0  0  0  0  # atno 10763 bound_to 10752
  152.9832  135.5695  154.5205 H   0  0  0  0  0  0  0  0  0  0  0  0  # atno 10764 bound_to 10752
  154.4849  135.2865  155.1518 H   0  0  0  0  0  0  0  0  0  0  0  0  # atno 10765 bound_to 10752
  140.5360  134.0420  155.7888 H   0  0  0  0  0  0  0  0  0  0  0  0  # atno 11005 bound_to 11000
  146.3292  139.8461  142.8881 LP  0  0  0  0  0  0  0  0  0  0  0  0  # atno 17320 bound_to 7965
  145.2963  141.0181  143.3634 LP  0  0  0  0  0  0  0  0  0  0  0  0  # atno 17321 bound_to 7965
  140.4875  144.1359  150.5944 LP  0  0  0  0  0  0  0  0  0  0  0  0  # atno 17342 bound_to 10162
  140.4208  143.2612  151.9717 LP  0  0  0  0  0  0  0  0  0  0  0  0  # atno 17343 bound_to 10162
  155.9891  130.3954  150.3086 LP  0  0  0  0  0  0  0  0  0  0  0  0  # atno 17370 bound_to 10713
  157.1237  131.0253  151.2998 LP  0  0  0  0  0  0  0  0  0  0  0  0  # atno 17371 bound_to 10713
  141.1254  133.9391  157.2645 LP  0  0  0  0  0  0  0  0  0  0  0  0  # atno 17394 bound_to 11000
  139.9529  135.0172  156.9045 LP  0  0  0  0  0  0  0  0  0  0  0  0  # atno 17395 bound_to 11000

$$$$
