#       Name:                AV-unprocessed.smi:101
#       Creating user name   scv26
#       Creation time:       Thu Mar 26 17:45:41 2020


#       File generated by GOLD software.
#

@<TRIPOS>MOLECULE
AV-unprocessed.smi:101
    56    58     1
SMALL
NO_CHARGES


@<TRIPOS>ATOM
      1 ****        -1.7221   3.5597   2.9683 C.3            1 S1                 0.0000
      2 ****        -2.6132   2.5893   2.2128 C.2            1 S1                 0.0000
      3 ****        -2.1244   1.4867   1.6027 C.2            1 S1                 0.0000
      4 ****        -2.9417   0.6067   0.9148 N.am           1 S1                 0.0000
      5 ****        -2.3749  -0.6297   0.2563 C.3            1 S1                 0.0000
      6 ****        -1.0271  -0.4110  -0.0387 O.3            1 S1                 0.0000
      7 ****        -0.2663  -1.5561   0.3207 C.3            1 S1                 0.0000
      8 ****         1.2070  -1.1921   0.5527 C.3            1 S1                 0.0000
      9 ****         1.8339  -0.9573  -0.6973 O.3            1 S1                 0.0000
     10 ****         3.1345  -0.6097  -0.7437 C.2            1 S1                 0.0000
     11 ****         3.8424  -0.4825   0.2576 O.2            1 S1                 0.0000
     12 ****         3.6302  -0.3990  -2.1346 C.ar           1 S1                 0.0000
     13 ****         4.9915  -0.0761  -2.3436 C.ar           1 S1                 0.0000
     14 ****         5.4891   0.1265  -3.6455 C.ar           1 S1                 0.0000
     15 ****         4.6314   0.0087  -4.7546 C.ar           1 S1                 0.0000
     16 ****         3.2747  -0.3097  -4.5601 C.ar           1 S1                 0.0000
     17 ****         2.7750  -0.5121  -3.2588 C.ar           1 S1                 0.0000
     18 ****        -1.0079  -2.1225   1.5368 C.3            1 S1                 0.0000
     19 ****        -0.6259  -1.4553   2.7264 O.3            1 S1                 0.0000
     20 ****        -2.4674  -1.8345   1.2103 C.3            1 S1                 0.0000
     21 ****        -3.0562  -2.9466   0.5672 O.3            1 S1                 0.0000
     22 ****        -4.3409   0.8358   0.8700 C.2            1 S1                 0.0000
     23 ****        -5.0448   0.0083   0.2899 O.2            1 S1                 0.0000
     24 ****        -4.8421   1.9497   1.4755 N.pl3          1 S1                -1.0000
     25 ****        -4.0570   2.8452   2.1410 C.2            1 S1                 0.0000
     26 ****        -4.5225   3.8497   2.6787 O.2            1 S1                 0.0000
     27 ****        -0.6779   3.2478   2.9335 H              1 S1                 0.0000
     28 ****        -2.0233   3.6184   4.0146 H              1 S1                 0.0000
     29 ****        -1.7913   4.5569   2.5328 H              1 S1                 0.0000
     30 ****        -1.0644   1.2899   1.6635 H              1 S1                 0.0000
     31 ****        -2.9220  -0.7566  -0.6796 H              1 S1                 0.0000
     32 ****        -0.3429  -2.2802  -0.4927 H              1 S1                 0.0000
     33 ****         1.2911  -0.3133   1.1940 H              1 S1                 0.0000
     34 ****         1.7163  -2.0173   1.0524 H              1 S1                 0.0000
     35 ****         5.6696   0.0186  -1.5077 H              1 S1                 0.0000
     36 ****         6.5305   0.3720  -3.7925 H              1 S1                 0.0000
     37 ****         5.0133   0.1628  -5.7530 H              1 S1                 0.0000
     38 ****         2.6147  -0.3992  -5.4103 H              1 S1                 0.0000
     39 ****         1.7281  -0.7534  -3.1451 H              1 S1                 0.0000
     40 ****        -0.8105  -3.1868   1.6727 H              1 S1                 0.0000
     41 ****         0.2908  -1.6209   2.8833 H              1 S1                 0.0000
     42 ****        -3.0556  -1.5985   2.0991 H              1 S1                 0.0000
     43 ****        -3.9422  -2.7143   0.3320 H              1 S1                 0.0000
     44 ****        -0.6985   0.3813   0.4755 LP             1 S1                 0.0000
     45 ****        -0.9250  -0.2381  -1.0184 LP             1 S1                 0.0000
     46 ****         3.4560  -0.6398   1.1664 LP             1 S1                 0.0000
     47 ****         4.8030  -0.2220   0.1609 LP             1 S1                 0.0000
     48 ****        -1.1667  -1.7990   3.4941 LP             1 S1                 0.0000
     49 ****        -0.7782  -0.4721   2.6251 LP             1 S1                 0.0000
     50 ****        -3.0646  -3.7313   1.1869 LP             1 S1                 0.0000
     51 ****        -2.5363  -3.1770  -0.2554 LP             1 S1                 0.0000
     52 ****        -4.6264  -0.7960  -0.1319 LP             1 S1                 0.0000
     53 ****        -6.0348   0.1408   0.2406 LP             1 S1                 0.0000
     54 ****        -5.8269   2.1175   1.4299 LP             1 S1                 0.0000
     55 ****        -3.9183   4.4847   3.1601 LP             1 S1                 0.0000
     56 ****        -5.5049   4.0310   2.6341 LP             1 S1                 0.0000
@<TRIPOS>BOND
    1    1    2 1     
    2    1   27 1     
    3    1   28 1     
    4    1   29 1     
    5    2   25 1     
    6    2    3 2     
    7    3    4 1     
    8    3   30 1     
    9    4    5 1     
   10    4   22 am    
   11    5   20 1     
   12    5    6 1     
   13    5   31 1     
   14    6    7 1     
   15    7    8 1     
   16    7   18 1     
   17    7   32 1     
   18    8    9 1     
   19    8   33 1     
   20    8   34 1     
   21    9   10 1     
   22   10   11 2     
   23   10   12 1     
   24   12   17 ar    
   25   12   13 ar    
   26   13   14 ar    
   27   13   35 1     
   28   14   15 ar    
   29   14   36 1     
   30   15   16 ar    
   31   15   37 1     
   32   16   17 ar    
   33   16   38 1     
   34   17   39 1     
   35   18   19 1     
   36   18   20 1     
   37   18   40 1     
   38   19   41 1     
   39   20   21 1     
   40   20   42 1     
   41   21   43 1     
   42   22   23 2     
   43   22   24 1     
   44   24   25 1     
   45   25   26 2     
   46    6   44 1     
   47    6   45 1     
   48   11   46 1     
   49   11   47 1     
   50   19   48 1     
   51   19   49 1     
   52   21   50 1     
   53   21   51 1     
   54   23   52 1     
   55   23   53 1     
   56   24   54 1     
   57   26   55 1     
   58   26   56 1     
@<TRIPOS>SUBSTRUCTURE
      1 S1             1
@<TRIPOS>SET
LONE_PAIRS      STATIC     ATOMS    <user>   **** ""
13 44 45 46 47 48 49 50 51 52 53 54 55 56
DONOR_HYDROGENS      STATIC     ATOMS    <user>   **** ""
2 41 43
ATOM$BLUE        STATIC     ATOMS    COLORGROUP SYSTEM
13 44 45 46 47 48 49 50 51 52 53 54 55 56
ATOM$RED        STATIC     ATOMS    COLORGROUP SYSTEM
2 41 43
