AV-unprocessed.smi:2531|AV-procd|sdf|9965|dock10
  -GOLD-   2272014 03D 1   1.00000     0.00000
 Structure written by MMmdl.
 47 49  0  0  0  0  0  0  0  0  2 V2000
  149.4418  142.6282  158.7914 O   0  0  0  0  0  0  0  0  0  0  0  0
  150.3017  142.2910  157.9765 C   0  0  0  0  0  0  0  0  0  0  0  0
  151.7003  142.9375  157.9920 C   0  0  0  0  0  0  0  0  0  0  0  0
  152.3357  142.9162  159.3967 C   0  0  0  0  0  0  0  0  0  0  0  0
  152.1175  144.3170  159.9658 C   0  0  0  0  0  0  0  0  0  0  0  0
  152.2501  145.2266  158.7481 C   0  0  0  0  0  0  0  0  0  0  0  0
  151.6513  144.4280  157.5840 C   0  0  0  0  0  0  0  0  0  0  0  0
  150.0266  141.3745  156.9588 N   0  0  0  0  0  0  0  0  0  0  0  0
  150.4944  141.5791  155.5961 C   0  0  0  0  0  0  0  0  0  0  0  0
  149.2425  140.8045  155.1620 C   0  0  0  0  0  0  0  0  0  0  0  0
  149.5960  139.0176  154.8256 S   0  0  0  0  0  0  0  0  0  0  0  0
  151.0302  138.8781  154.5293 O   0  0  0  0  0  0  0  0  0  0  0  0
  148.9777  138.1777  155.8627 O   0  0  0  0  0  0  0  0  0  0  0  0
  148.7275  138.7401  153.3589 N   0  0  0  0  0  0  0  0  0  0  0  0
  147.2903  139.0249  153.3265 C   0  0  0  0  0  0  0  0  0  0  0  0
  146.6707  138.6739  151.9618 C   0  0  0  0  0  0  0  0  0  0  0  0
  145.5285  137.6780  152.0527 C   0  0  0  0  0  0  0  0  0  0  0  0
  145.7048  136.3077  151.7630 C   0  0  0  0  0  0  0  0  0  0  0  0
  144.5945  135.4407  151.8327 C   0  0  0  0  0  0  0  0  0  0  0  0
  143.3334  135.9609  152.1908 C   0  0  0  0  0  0  0  0  0  0  0  0
  143.2139  137.3374  152.4700 C   0  0  0  0  0  0  0  0  0  0  0  0
  144.3011  138.1357  152.3916 N   0  3  0  0  0  0  0  0  0  0  0  0
  148.6606  141.0778  156.5557 C   0  0  0  0  0  0  0  0  0  0  0  0
  152.3525  142.3845  157.3146 H   0  0  0  0  0  0  0  0  0  0  0  0
  151.9292  142.1431  160.0508 H   0  0  0  0  0  0  0  0  0  0  0  0
  153.4054  142.7228  159.3059 H   0  0  0  0  0  0  0  0  0  0  0  0
  151.1119  144.3976  160.3809 H   0  0  0  0  0  0  0  0  0  0  0  0
  152.8267  144.5650  160.7558 H   0  0  0  0  0  0  0  0  0  0  0  0
  151.7608  146.1905  158.8908 H   0  0  0  0  0  0  0  0  0  0  0  0
  153.3062  145.4188  158.5535 H   0  0  0  0  0  0  0  0  0  0  0  0
  152.2072  144.6074  156.6631 H   0  0  0  0  0  0  0  0  0  0  0  0
  150.6281  144.7620  157.4023 H   0  0  0  0  0  0  0  0  0  0  0  0
  150.4790  142.6251  155.2840 H   0  0  0  0  0  0  0  0  0  0  0  0
  151.4435  141.0894  155.3753 H   0  0  0  0  0  0  0  0  0  0  0  0
  148.7036  141.2701  154.3367 H   0  0  0  0  0  0  0  0  0  0  0  0
  149.2037  139.1697  152.5654 H   0  0  0  0  0  0  0  0  0  0  0  0
  146.7856  138.4822  154.1272 H   0  0  0  0  0  0  0  0  0  0  0  0
  147.1468  140.0858  153.5323 H   0  0  0  0  0  0  0  0  0  0  0  0
  146.3003  139.5836  151.4879 H   0  0  0  0  0  0  0  0  0  0  0  0
  147.4392  138.2789  151.2956 H   0  0  0  0  0  0  0  0  0  0  0  0
  146.6750  135.9260  151.4802 H   0  0  0  0  0  0  0  0  0  0  0  0
  144.7081  134.3897  151.6100 H   0  0  0  0  0  0  0  0  0  0  0  0
  142.4706  135.3133  152.2477 H   0  0  0  0  0  0  0  0  0  0  0  0
  142.2890  137.8211  152.7483 H   0  0  0  0  0  0  0  0  0  0  0  0
  148.2230  140.2148  157.0579 H   0  0  0  0  0  0  0  0  0  0  0  0
  148.0024  141.9486  156.5769 H   0  0  0  0  0  0  0  0  0  0  0  0
  144.1915  139.1302  152.5905 H   0  0  0  0  0  0  0  0  0  0  0  0
  1  2  2  0  0  0  0
  2  3  1  0  0  0  0
  2  8  1  0  0  0  0
  3  7  1  0  0  0  0
  3  4  1  0  0  0  0
  3 24  1  0  0  0  0
  4  5  1  0  0  0  0
  4 25  1  0  0  0  0
  4 26  1  0  0  0  0
  5  6  1  0  0  0  0
  5 27  1  0  0  0  0
  5 28  1  0  0  0  0
  6  7  1  0  0  0  0
  6 29  1  0  0  0  0
  6 30  1  0  0  0  0
  7 31  1  0  0  0  0
  7 32  1  0  0  0  0
  8 23  1  0  0  0  0
  8  9  1  0  0  0  0
  9 10  1  0  0  0  0
  9 33  1  0  0  0  0
  9 34  1  0  0  0  0
 10 11  1  0  0  0  0
 10 23  1  0  0  0  0
 10 35  1  0  0  0  0
 11 12  2  0  0  0  0
 11 13  2  0  0  0  0
 11 14  1  0  0  0  0
 14 15  1  0  0  0  0
 14 36  1  0  0  0  0
 15 16  1  0  0  0  0
 15 37  1  0  0  0  0
 15 38  1  0  0  0  0
 16 17  1  0  0  0  0
 16 39  1  0  0  0  0
 16 40  1  0  0  0  0
 17 22  1  0  0  0  0
 17 18  2  0  0  0  0
 18 19  1  0  0  0  0
 18 41  1  0  0  0  0
 19 20  2  0  0  0  0
 19 42  1  0  0  0  0
 20 21  1  0  0  0  0
 20 43  1  0  0  0  0
 21 22  2  0  0  0  0
 21 44  1  0  0  0  0
 22 47  1  0  0  0  0
 23 45  1  0  0  0  0
 23 46  1  0  0  0  0
M  CHG  1  22   1
M  END
> <s_m_source_file>
AV-unprocessed.smi

> <i_m_source_file_index>
2531

> <i_lp_mmshare_version>
43012

> <i_f3d_flags>
0

> <s_epik_input>
W0NIMl0xW0NIMl1bQ0gyXVtDSDJdW0NIXTFDKD1PKU4yW0NIMl1bQ0hdKFtDSDJdMilTKD1PKSg9TylbTkhdW0NIMl1bQ0gyXWMzW2NIXVtjSF1bY0hdW2NIXW4z

> <s_epik_cmdline>
J2VwaWtfcHl0aG9uJywgJy1waCcsICc3LjAnLCAnLXRuJywgJzgnLCAnLW1hJywgJzIwMCcsICctbWV0YWxfYmluZGluZycsICctaW1hZScsICc8aW5maWxlLm1hZT4nLCAnLW9tYWUnLCAnPG91dGZpbGUubWFlPic=

> <r_epik_Ionization_Penalty>
2.00952

> <r_epik_Ionization_Penalty_Charging>
2.00945

> <r_epik_Ionization_Penalty_Neutral>
6.7549e-05

> <r_epik_State_Penalty>
2.13885

> <r_epik_Charging_Adjusted_Penalty>
4.1483

> <i_epik_Tot_Q>
1

> <i_epik_Tot_abs_Q>
1

> <r_epik_Metal_State_Penalty>
2.25125

> <b_epik_Metal_Only>
0

> <s_lp_Force_Field>
OPLS_2005

> <r_lp_Energy>
39.4399

> <b_lp_Chiralities_Consistent>
1

> <s_lp_Variant>
AV-unprocessed.smi:2531-2

> <Gold.Version>
5.8.1

> <Gold.Id.Protein>
6NUR|6NUR_protein|mol2

> <Gold.PLP.Fitness>
60.6711

> <Gold.PLP.PLP>
-50.4620

> <Gold.PLP.part.hbond>
-6.0000

> <Gold.PLP.part.metal>
0.0000

> <Gold.PLP.part.buried>
-1.9770

> <Gold.PLP.part.nonpolar>
-42.5829

> <Gold.PLP.part.repulsive>
0.3031

> <Gold.PLP.ligand.clash>
0.0000

> <Gold.PLP.ligand.torsion>
1.7241

> <Gold.PLP.Chemscore.Hbond>
3.9913

> <Gold.PLP.Chemscore.CHOScore>
0.0000

> <Gold.PLP.Chemscore.Metal>
0.0000

> <Gold.Chemscore.Hbonds>
donor molecule, donor type, donor heavy atom, donor atom, acceptor molecule, acceptor atom, score
      L1  H    14    36       P1  7957  1.00
      L1  H    22    47       P1 10175  1.46
      P1  H  7989  7998       L1    12  0.29

> <Gold.PLP.Chemscore.Internal.Correction>
1.6836

> <Gold.Rescore>
     Score         DG    S(hbond)    S(metal)    S(lipo)     H(rot)  DE(clash)    DE(int)     intcor
     21.27     -23.14       2.71        0.00     116.67       1.97       0.15       1.71       ----

> <Gold.Chemscore.Fitness>
21.2731

> <Gold.Chemscore.DG>
-23.1368

> <Gold.Chemscore.ZeroCoef>
-5.4800

> <Gold.Chemscore.Hbond>
2.7132

> <Gold.Chemscore.Metal>
0.0000

> <Gold.Chemscore.Lipo>
116.6705

> <Gold.Chemscore.Internal_Hbond>
0.0000

> <Gold.Chemscore.DEClash>
0.1541

> <Gold.Chemscore.DEInternal>
1.7096

> <Gold.Chemscore.Rot>
1.9749

> <Gold.Chemscore.Internal.Correction>
   9.000000E+99

> <Gold.Chemscore.Hbonds>
donor molecule, donor type, donor heavy atom, donor atom, acceptor molecule, acceptor atom, score
      L1  H    14    36       P1  7957  1.00
      L1  H    22    47       P1 10175  0.72
      P1  H  7989  7998       L1    12  0.16

> <Gold.Chemscore.Hbond.Weighted>
-9.0620

> <Gold.Chemscore.Metal.Weighted>
-0.0000

> <Gold.Chemscore.Lipo.Weighted>
-13.6504

> <Gold.Chemscore.Internal_Hbond.Weighted>
0.0000

> <Gold.Chemscore.DEClash.Weighted>
0.1541

> <Gold.Chemscore.DEInternal.Weighted>
1.7096

> <Gold.Chemscore.Rot.Weighted>
5.0556

> <Gold.Chemscore.Internal.Correction.Weighted>
   9.000000E+99

> <Gold.Protein.RotatedTorsions>
[ 6907 6896 6895 6894 ] final  -49.68 input  -60.11 | X-H torsion
[ 7974 7965 7964 7962 ] final  155.28 input  175.53 | X-H torsion
[ 8008 7997 7996 7995 ] final  -44.18 input   59.86 | X-H torsion
[ 10167 10162 10161 10158 ] final  -92.64 input  -65.29 | X-H torsion
[ 10718 10713 10712 10709 ] final  -21.07 input   66.30 | X-H torsion
[ 10763 10752 10751 10750 ] final -152.80 input  -60.55 | X-H torsion
[ 11005 11000 10999 10996 ] final   41.81 input  -57.11 | X-H torsion

> <Gold.Protein.ActiveResidues>
 VAL166  LYS551  ARG553  GLY616  TRP617  ASP618  TYR619  PRO620  LYS621  CYS622 
 ASP623  PHE694  ASN695  SER759  ASP760  ASP761  ALA762  ILE779  LEU786  VAL792 
 PHE793  MET794  SER795  GLU796  ALA797  LYS798  CYS799  TRP800  GLU811  SER814 

> <Gold.Protein.RotatedAtoms>
  150.8781  134.8168  159.7204 H   0  0  0  0  0  0  0  0  0  0  0  0  # atno 6907 bound_to 6896
  152.4760  134.4839  159.9684 H   0  0  0  0  0  0  0  0  0  0  0  0  # atno 6908 bound_to 6896
  151.4917  133.3485  159.2890 H   0  0  0  0  0  0  0  0  0  0  0  0  # atno 6909 bound_to 6896
  144.8035  139.7046  143.6172 H   0  0  0  0  0  0  0  0  0  0  0  0  # atno 7974 bound_to 7965
  154.3997  140.1429  156.3641 H   0  0  0  0  0  0  0  0  0  0  0  0  # atno 8008 bound_to 7997
  155.8154  140.3471  155.5461 H   0  0  0  0  0  0  0  0  0  0  0  0  # atno 8009 bound_to 7997
  155.8343  140.0917  157.1764 H   0  0  0  0  0  0  0  0  0  0  0  0  # atno 8010 bound_to 7997
  140.3328  143.2985  151.9923 H   0  0  0  0  0  0  0  0  0  0  0  0  # atno 10167 bound_to 10162
  156.5232  130.4637  149.6586 H   0  0  0  0  0  0  0  0  0  0  0  0  # atno 10718 bound_to 10713
  154.7970  135.3228  154.7642 H   0  0  0  0  0  0  0  0  0  0  0  0  # atno 10763 bound_to 10752
  153.8318  135.6878  153.4818 H   0  0  0  0  0  0  0  0  0  0  0  0  # atno 10764 bound_to 10752
  153.1667  135.4639  154.9789 H   0  0  0  0  0  0  0  0  0  0  0  0  # atno 10765 bound_to 10752
  140.1799  134.4117  155.8206 H   0  0  0  0  0  0  0  0  0  0  0  0  # atno 11005 bound_to 11000
  146.2321  139.5835  142.9548 LP  0  0  0  0  0  0  0  0  0  0  0  0  # atno 17320 bound_to 7965
  145.5495  141.0414  143.2286 LP  0  0  0  0  0  0  0  0  0  0  0  0  # atno 17321 bound_to 7965
  139.4853  144.6221  151.7235 LP  0  0  0  0  0  0  0  0  0  0  0  0  # atno 17342 bound_to 10162
  140.5381  144.0622  150.6078 LP  0  0  0  0  0  0  0  0  0  0  0  0  # atno 17343 bound_to 10162
  156.3130  130.7239  151.2135 LP  0  0  0  0  0  0  0  0  0  0  0  0  # atno 17370 bound_to 10713
  157.7433  131.0476  150.4953 LP  0  0  0  0  0  0  0  0  0  0  0  0  # atno 17371 bound_to 10713
  141.2222  133.6995  156.7911 LP  0  0  0  0  0  0  0  0  0  0  0  0  # atno 17394 bound_to 11000
  140.2280  134.8707  157.3447 LP  0  0  0  0  0  0  0  0  0  0  0  0  # atno 17395 bound_to 11000

$$$$
