AV-unprocessed.smi:852|AV-procd|sdf|3952|dock1
  -GOLD-   22720 1423D 1   1.00000     0.00000
 Structure written by MMmdl.
 30 31  0  0  0  0  0  0  0  0  1 V2000
  147.3833  133.7459  155.5485 C   0  0  0  0  0  0  0  0  0  0  0  0
  148.6327  134.1603  154.7466 C   0  0  2  0  0  0  0  0  0  0  0  0
  149.8352  133.9505  155.5802 C   0  0  0  0  0  0  0  0  0  0  0  0
  150.7774  133.7862  156.2325 N   0  0  0  0  0  0  0  0  0  0  0  0
  148.5134  135.5673  154.3596 N   0  0  0  0  0  0  0  0  0  0  0  0
  148.2936  136.6227  155.1637 C   0  0  0  0  0  0  0  0  0  0  0  0
  148.1121  136.5287  156.3765 O   0  0  0  0  0  0  0  0  0  0  0  0
  148.2668  138.0000  154.4954 C   0  0  0  0  0  0  0  0  0  0  0  0
  149.4363  138.7891  154.8423 N   0  0  0  0  0  0  0  0  0  0  0  0
  149.8655  139.9618  154.3641 C   0  0  0  0  0  0  0  0  0  0  0  0
  150.9994  140.3844  154.9085 N   0  0  0  0  0  0  0  0  0  0  0  0
  151.2173  139.3507  155.7726 C   0  0  0  0  0  0  0  0  0  0  0  0
  152.3809  139.3208  156.6422 C   0  0  0  0  0  0  0  0  0  0  0  0
  153.3078  139.2967  157.3346 N   0  0  0  0  0  0  0  0  0  0  0  0
  150.3188  138.3684  155.7812 N   0  0  0  0  0  0  0  0  0  0  0  0
  148.7201  133.2853  153.4980 C   0  0  0  0  0  0  0  0  0  0  0  0
  147.5117  132.6080  152.8898 C   0  0  0  0  0  0  0  0  0  0  0  0
  148.5943  131.7790  153.5463 C   0  0  0  0  0  0  0  0  0  0  0  0
  147.4157  132.6858  155.8021 H   0  0  0  0  0  0  0  0  0  0  0  0
  146.4690  133.9199  154.9797 H   0  0  0  0  0  0  0  0  0  0  0  0
  147.2997  134.2964  156.4858 H   0  0  0  0  0  0  0  0  0  0  0  0
  148.6426  135.7615  153.3774 H   0  0  0  0  0  0  0  0  0  0  0  0
  148.2282  137.8792  153.4123 H   0  0  0  0  0  0  0  0  0  0  0  0
  147.3696  138.5463  154.7913 H   0  0  0  0  0  0  0  0  0  0  0  0
  149.3411  140.5135  153.5977 H   0  0  0  0  0  0  0  0  0  0  0  0
  149.4432  133.6602  152.7754 H   0  0  0  0  0  0  0  0  0  0  0  0
  146.5577  132.6888  153.4069 H   0  0  0  0  0  0  0  0  0  0  0  0
  147.4476  132.5796  151.8040 H   0  0  0  0  0  0  0  0  0  0  0  0
  149.2495  131.2030  152.8963 H   0  0  0  0  0  0  0  0  0  0  0  0
  148.3609  131.3096  154.4996 H   0  0  0  0  0  0  0  0  0  0  0  0
  1  2  1  0  0  0  0
  1 19  1  0  0  0  0
  1 20  1  0  0  0  0
  1 21  1  0  0  0  0
  2  3  1  0  0  0  0
  2  5  1  0  0  0  0
  2 16  1  0  0  0  0
  3  4  3  0  0  0  0
  5  6  1  0  0  0  0
  5 22  1  0  0  0  0
  6  7  2  0  0  0  0
  6  8  1  0  0  0  0
  8  9  1  0  0  0  0
  8 23  1  0  0  0  0
  8 24  1  0  0  0  0
  9 15  1  0  0  0  0
  9 10  1  0  0  0  0
 10 11  2  0  0  0  0
 10 25  1  0  0  0  0
 11 12  1  0  0  0  0
 12 13  1  0  0  0  0
 12 15  2  0  0  0  0
 13 14  3  0  0  0  0
 16 18  1  0  0  0  0
 16 17  1  0  0  0  0
 16 26  1  0  0  0  0
 17 18  1  0  0  0  0
 17 27  1  0  0  0  0
 17 28  1  0  0  0  0
 18 29  1  0  0  0  0
 18 30  1  0  0  0  0
M  END
> <s_m_source_file>
AV-unprocessed.smi

> <i_m_source_file_index>
852

> <i_lp_mmshare_version>
43012

> <i_f3d_flags>
0

> <s_epik_input>
W0NIMl0xW0NIMl1bQ0hdMVtDQF0oW0NIM10pKEMjTilbTkhdQyg9TylbQ0gyXW4yW2NIXW5jKG4yKUMjTg==

> <s_epik_cmdline>
J2VwaWtfcHl0aG9uJywgJy1waCcsICc3LjAnLCAnLXRuJywgJzgnLCAnLW1hJywgJzIwMCcsICctbWV0YWxfYmluZGluZycsICctaW1hZScsICc8aW5maWxlLm1hZT4nLCAnLW9tYWUnLCAnPG91dGZpbGUubWFlPic=

> <r_lp_tautomer_probability>
1

> <r_epik_Ionization_Penalty>
2.64294e-06

> <r_epik_Ionization_Penalty_Charging>
0

> <r_epik_Ionization_Penalty_Neutral>
2.64294e-06

> <r_epik_State_Penalty>
-0

> <r_epik_Charging_Adjusted_Penalty>
0

> <i_epik_Tot_Q>
0

> <i_epik_Tot_abs_Q>
0

> <r_epik_Metal_State_Penalty>
-0

> <b_epik_Metal_Only>
0

> <s_lp_Force_Field>
OPLS_2005

> <r_lp_Energy>
16.3367

> <b_lp_Chiralities_Consistent>
1

> <s_lp_Variant>
AV-unprocessed.smi:852-2

> <Gold.Version>
5.8.1

> <Gold.Id.Protein>
6NUR|6NUR_protein|mol2

> <Gold.PLP.Fitness>
35.1312

> <Gold.PLP.PLP>
-24.3733

> <Gold.PLP.part.hbond>
-2.9362

> <Gold.PLP.part.metal>
0.0000

> <Gold.PLP.part.buried>
-0.0580

> <Gold.PLP.part.nonpolar>
-20.3955

> <Gold.PLP.part.repulsive>
0.1135

> <Gold.PLP.ligand.clash>
0.0000

> <Gold.PLP.ligand.torsion>
1.0574

> <Gold.PLP.Chemscore.Hbond>
3.0000

> <Gold.PLP.Chemscore.CHOScore>
0.7777

> <Gold.PLP.Chemscore.Metal>
0.0000

> <Gold.Chemscore.Hbonds>
donor molecule, donor type, donor heavy atom, donor atom, acceptor molecule, acceptor atom, score
      L1  H     5    22       P1  7948  1.00
      P1  H  7989  7998       L1    11  0.75
      P1  H  7997  8008       L1    14  0.94
      L1  C    10    25       P1  7957  0.86

> <Gold.PLP.Chemscore.Internal.Correction>
1.5396

> <Gold.Rescore>
     Score         DG    S(hbond)    S(metal)    S(lipo)     H(rot)  DE(clash)    DE(int)     intcor
     10.28     -11.81       2.87        0.00      25.88       2.46       0.00       1.53       ----

> <Gold.Chemscore.Fitness>
10.2801

> <Gold.Chemscore.DG>
-11.8143

> <Gold.Chemscore.ZeroCoef>
-5.4800

> <Gold.Chemscore.Hbond>
2.8733

> <Gold.Chemscore.Metal>
0.0000

> <Gold.Chemscore.Lipo>
25.8765

> <Gold.Chemscore.Internal_Hbond>
0.0000

> <Gold.Chemscore.DEClash>
0.0000

> <Gold.Chemscore.DEInternal>
1.5342

> <Gold.Chemscore.Rot>
2.4571

> <Gold.Chemscore.Internal.Correction>
   9.000000E+99

> <Gold.Chemscore.Hbonds>
donor molecule, donor type, donor heavy atom, donor atom, acceptor molecule, acceptor atom, score
      L1  H     5    22       P1  7948  0.98
      P1  H  7989  7998       L1    11  0.09
      P1  H  7997  8008       L1    14  0.49

> <Gold.Chemscore.Hbond.Weighted>
-9.5968

> <Gold.Chemscore.Metal.Weighted>
-0.0000

> <Gold.Chemscore.Lipo.Weighted>
-3.0276

> <Gold.Chemscore.Internal_Hbond.Weighted>
0.0000

> <Gold.Chemscore.DEClash.Weighted>
0.0000

> <Gold.Chemscore.DEInternal.Weighted>
1.5342

> <Gold.Chemscore.Rot.Weighted>
6.2901

> <Gold.Chemscore.Internal.Correction.Weighted>
   9.000000E+99

> <Gold.Protein.RotatedTorsions>
[ 6907 6896 6895 6894 ] final   38.76 input  -60.11 | X-H torsion
[ 7974 7965 7964 7962 ] final  -42.19 input  175.53 | X-H torsion
[ 8008 7997 7996 7995 ] final  -57.03 input   59.86 | X-H torsion
[ 10167 10162 10161 10158 ] final   -6.52 input  -65.29 | X-H torsion
[ 10718 10713 10712 10709 ] final  -99.21 input   66.30 | X-H torsion
[ 10763 10752 10751 10750 ] final  154.45 input  -60.55 | X-H torsion
[ 11005 11000 10999 10996 ] final   89.11 input  -57.11 | X-H torsion

> <Gold.Protein.ActiveResidues>
 VAL166  LYS551  ARG553  GLY616  TRP617  ASP618  TYR619  PRO620  LYS621  CYS622 
 ASP623  PHE694  ASN695  SER759  ASP760  ASP761  ALA762  ILE779  LEU786  VAL792 
 PHE793  MET794  SER795  GLU796  ALA797  LYS798  CYS799  TRP800  GLU811  SER814 

> <Gold.Protein.RotatedAtoms>
  152.1607  134.8914  160.0541 H   0  0  0  0  0  0  0  0  0  0  0  0  # atno 6907 bound_to 6896
  151.9911  133.3786  159.4153 H   0  0  0  0  0  0  0  0  0  0  0  0  # atno 6908 bound_to 6896
  150.6887  134.3858  159.5098 H   0  0  0  0  0  0  0  0  0  0  0  0  # atno 6909 bound_to 6896
  146.0139  140.6931  142.9211 H   0  0  0  0  0  0  0  0  0  0  0  0  # atno 7974 bound_to 7965
  154.4252  140.1116  156.5733 H   0  0  0  0  0  0  0  0  0  0  0  0  # atno 8008 bound_to 7997
  155.6190  140.3495  155.4627 H   0  0  0  0  0  0  0  0  0  0  0  0  # atno 8009 bound_to 7997
  156.0039  140.1205  157.0509 H   0  0  0  0  0  0  0  0  0  0  0  0  # atno 8010 bound_to 7997
  140.6999  143.6184  150.8636 H   0  0  0  0  0  0  0  0  0  0  0  0  # atno 10167 bound_to 10162
  156.0128  130.5272  150.6637 H   0  0  0  0  0  0  0  0  0  0  0  0  # atno 10718 bound_to 10713
  154.1525  135.2814  155.3131 H   0  0  0  0  0  0  0  0  0  0  0  0  # atno 10763 bound_to 10752
  154.6207  135.5468  153.7575 H   0  0  0  0  0  0  0  0  0  0  0  0  # atno 10764 bound_to 10752
  153.0216  135.6438  154.1669 H   0  0  0  0  0  0  0  0  0  0  0  0  # atno 10765 bound_to 10752
  139.8882  134.8531  156.3095 H   0  0  0  0  0  0  0  0  0  0  0  0  # atno 11005 bound_to 11000
  144.6963  140.3447  143.7193 LP  0  0  0  0  0  0  0  0  0  0  0  0  # atno 17320 bound_to 7965
  145.7299  139.1733  143.2436 LP  0  0  0  0  0  0  0  0  0  0  0  0  # atno 17321 bound_to 7965
  139.9905  143.5852  152.2911 LP  0  0  0  0  0  0  0  0  0  0  0  0  # atno 17342 bound_to 10162
  139.6505  144.7660  151.2157 LP  0  0  0  0  0  0  0  0  0  0  0  0  # atno 17343 bound_to 10162
  157.4374  131.0857  151.0978 LP  0  0  0  0  0  0  0  0  0  0  0  0  # atno 17370 bound_to 10713
  157.1532  130.6193  149.5588 LP  0  0  0  0  0  0  0  0  0  0  0  0  # atno 17371 bound_to 10713
  140.9859  133.7238  156.0741 LP  0  0  0  0  0  0  0  0  0  0  0  0  # atno 17394 bound_to 11000
  140.7688  134.3856  157.5512 LP  0  0  0  0  0  0  0  0  0  0  0  0  # atno 17395 bound_to 11000

$$$$
