AV-unprocessed.smi:1485|AV-procd|sdf|6003|dock6
  -GOLD-   22720 6 93D 1   1.00000     0.00000
 Structure written by MMmdl.
 44 45  0  0  0  0  0  0  0  0  1 V2000
  149.6766  144.4808  159.4792 C   0  0  0  0  0  0  0  0  0  0  0  0
  150.5218  145.5998  159.6818 O   0  0  0  0  0  0  0  0  0  0  0  0
  151.8212  145.2279  160.1086 C   0  0  0  0  0  0  0  0  0  0  0  0
  151.7066  144.4438  161.4245 C   0  0  0  0  0  0  0  0  0  0  0  0
  152.2307  143.0815  161.2847 N   0  0  0  0  0  0  0  0  0  0  0  0
  152.0619  142.5399  160.0216 N   0  0  0  0  0  0  0  0  0  0  0  0
  152.4899  141.3463  159.7632 C   0  0  0  0  0  0  0  0  0  0  0  0
  152.3292  140.7287  158.4177 C   0  0  0  0  0  0  0  0  0  0  0  0
  152.9497  139.7165  158.0879 O   0  0  0  0  0  0  0  0  0  0  0  0
  151.4618  141.3521  157.5998 N   0  0  0  0  0  0  0  0  0  0  0  0
  151.1290  140.9374  156.2409 C   0  0  2  0  0  0  0  0  0  0  0  0
  149.8101  141.6039  155.8097 C   0  0  0  0  0  0  0  0  0  0  0  0
  149.3841  141.1455  154.4068 C   0  0  0  0  0  0  0  0  0  0  0  0
  149.2762  139.6145  154.3301 C   0  0  0  0  0  0  0  0  0  0  0  0
  150.5948  138.9357  154.7474 C   0  0  2  0  0  0  0  0  0  0  0  0
  150.4884  137.4061  154.6717 C   0  0  0  0  0  0  0  0  0  0  0  0
  151.0198  139.4009  156.1538 C   0  0  0  0  0  0  0  0  0  0  0  0
  153.1511  140.5552  160.7874 C   0  0  0  0  0  0  0  0  0  0  0  0
  153.3132  141.0992  162.0134 C   0  0  0  0  0  0  0  0  0  0  0  0
  152.8441  142.4492  162.3301 C   0  0  0  0  0  0  0  0  0  0  0  0
  152.9916  142.9712  163.4347 O   0  0  0  0  0  0  0  0  0  0  0  0
  148.6910  144.8188  159.1591 H   0  0  0  0  0  0  0  0  0  0  0  0
  149.5534  143.9073  160.3989 H   0  0  0  0  0  0  0  0  0  0  0  0
  150.0737  143.8219  158.7058 H   0  0  0  0  0  0  0  0  0  0  0  0
  152.3010  144.6123  159.3460 H   0  0  0  0  0  0  0  0  0  0  0  0
  152.4358  146.1186  160.2487 H   0  0  0  0  0  0  0  0  0  0  0  0
  152.2275  144.9744  162.2235 H   0  0  0  0  0  0  0  0  0  0  0  0
  150.6606  144.4084  161.7348 H   0  0  0  0  0  0  0  0  0  0  0  0
  150.9957  142.1766  157.9503 H   0  0  0  0  0  0  0  0  0  0  0  0
  151.9167  141.2751  155.5642 H   0  0  0  0  0  0  0  0  0  0  0  0
  149.0214  141.3603  156.5230 H   0  0  0  0  0  0  0  0  0  0  0  0
  149.9165  142.6892  155.8245 H   0  0  0  0  0  0  0  0  0  0  0  0
  148.4286  141.5991  154.1423 H   0  0  0  0  0  0  0  0  0  0  0  0
  150.1081  141.4982  153.6710 H   0  0  0  0  0  0  0  0  0  0  0  0
  148.4649  139.2746  154.9754 H   0  0  0  0  0  0  0  0  0  0  0  0
  149.0078  139.3185  153.3154 H   0  0  0  0  0  0  0  0  0  0  0  0
  151.3692  139.2455  154.0440 H   0  0  0  0  0  0  0  0  0  0  0  0
  149.7265  137.0274  155.3537 H   0  0  0  0  0  0  0  0  0  0  0  0
  151.4353  136.9340  154.9348 H   0  0  0  0  0  0  0  0  0  0  0  0
  150.2270  137.0795  153.6648 H   0  0  0  0  0  0  0  0  0  0  0  0
  151.9763  138.9460  156.4149 H   0  0  0  0  0  0  0  0  0  0  0  0
  150.2983  139.0429  156.8901 H   0  0  0  0  0  0  0  0  0  0  0  0
  153.5074  139.5563  160.5816 H   0  0  0  0  0  0  0  0  0  0  0  0
  153.8033  140.5225  162.7842 H   0  0  0  0  0  0  0  0  0  0  0  0
  1  2  1  0  0  0  0
  1 22  1  0  0  0  0
  1 23  1  0  0  0  0
  1 24  1  0  0  0  0
  2  3  1  0  0  0  0
  3  4  1  0  0  0  0
  3 25  1  0  0  0  0
  3 26  1  0  0  0  0
  4  5  1  0  0  0  0
  4 27  1  0  0  0  0
  4 28  1  0  0  0  0
  5 20  1  0  0  0  0
  5  6  1  0  0  0  0
  6  7  2  0  0  0  0
  7  8  1  0  0  0  0
  7 18  1  0  0  0  0
  8  9  2  0  0  0  0
  8 10  1  0  0  0  0
 10 11  1  0  0  0  0
 10 29  1  0  0  0  0
 11 17  1  0  0  0  0
 11 12  1  0  0  0  0
 11 30  1  0  0  0  0
 12 13  1  0  0  0  0
 12 31  1  0  0  0  0
 12 32  1  0  0  0  0
 13 14  1  0  0  0  0
 13 33  1  0  0  0  0
 13 34  1  0  0  0  0
 14 15  1  0  0  0  0
 14 35  1  0  0  0  0
 14 36  1  0  0  0  0
 15 16  1  0  0  0  0
 15 17  1  0  0  0  0
 15 37  1  0  0  0  0
 16 38  1  0  0  0  0
 16 39  1  0  0  0  0
 16 40  1  0  0  0  0
 17 41  1  0  0  0  0
 17 42  1  0  0  0  0
 18 19  2  0  0  0  0
 18 43  1  0  0  0  0
 19 20  1  0  0  0  0
 19 44  1  0  0  0  0
 20 21  2  0  0  0  0
M  END
> <s_m_source_file>
AV-unprocessed.smi

> <i_m_source_file_index>
1485

> <i_lp_mmshare_version>
43012

> <i_f3d_flags>
0

> <s_epik_input>
W0NIM11PW0NIMl1bQ0gyXW4xbmMoW2NIXVtjSF1jMT1PKUMoPU8pW05IXVtDQEBIXTJbQ0gyXVtDSDJdW0NIMl1bQ0BASF0oW0NIM10pW0NIMl0y

> <s_epik_cmdline>
J2VwaWtfcHl0aG9uJywgJy1waCcsICc3LjAnLCAnLXRuJywgJzgnLCAnLW1hJywgJzIwMCcsICctbWV0YWxfYmluZGluZycsICctaW1hZScsICc8aW5maWxlLm1hZT4nLCAnLW9tYWUnLCAnPG91dGZpbGUubWFlPic=

> <r_lp_tautomer_probability>
1

> <r_epik_Ionization_Penalty>
6.4688e-07

> <r_epik_Ionization_Penalty_Charging>
6.63567e-09

> <r_epik_Ionization_Penalty_Neutral>
6.40245e-07

> <r_epik_State_Penalty>
-0

> <r_epik_Charging_Adjusted_Penalty>
6.63567e-09

> <i_epik_Tot_Q>
0

> <i_epik_Tot_abs_Q>
0

> <r_epik_Metal_State_Penalty>
-0

> <b_epik_Metal_Only>
0

> <s_lp_Force_Field>
OPLS_2005

> <r_lp_Energy>
28.6474

> <b_lp_Chiralities_Consistent>
1

> <s_lp_Variant>
AV-unprocessed.smi:1485-3

> <Gold.Version>
5.8.1

> <Gold.Id.Protein>
6NUR|6NUR_protein|mol2

> <Gold.PLP.Fitness>
48.7760

> <Gold.PLP.PLP>
-47.9668

> <Gold.PLP.part.hbond>
-2.2218

> <Gold.PLP.part.metal>
0.0000

> <Gold.PLP.part.buried>
-2.8102

> <Gold.PLP.part.nonpolar>
-43.0123

> <Gold.PLP.part.repulsive>
0.4055

> <Gold.PLP.ligand.clash>
0.0000

> <Gold.PLP.ligand.torsion>
1.1020

> <Gold.PLP.Chemscore.Hbond>
1.0000

> <Gold.PLP.Chemscore.CHOScore>
0.0000

> <Gold.PLP.Chemscore.Metal>
0.0000

> <Gold.Chemscore.Hbonds>
donor molecule, donor type, donor heavy atom, donor atom, acceptor molecule, acceptor atom, score
      P1  H  7997  8010       L1     9  1.00

> <Gold.PLP.Chemscore.Internal.Correction>
0.0133

> <Gold.Rescore>
     Score         DG    S(hbond)    S(metal)    S(lipo)     H(rot)  DE(clash)    DE(int)     intcor
     12.47     -16.89       0.95        0.00     104.15       1.55       1.81       2.62       ----

> <Gold.Chemscore.Fitness>
12.4702

> <Gold.Chemscore.DG>
-16.8918

> <Gold.Chemscore.ZeroCoef>
-5.4800

> <Gold.Chemscore.Hbond>
0.9546

> <Gold.Chemscore.Metal>
0.0000

> <Gold.Chemscore.Lipo>
104.1516

> <Gold.Chemscore.Internal_Hbond>
0.0000

> <Gold.Chemscore.DEClash>
1.8055

> <Gold.Chemscore.DEInternal>
2.6161

> <Gold.Chemscore.Rot>
1.5478

> <Gold.Chemscore.Internal.Correction>
   9.000000E+99

> <Gold.Chemscore.Hbonds>
donor molecule, donor type, donor heavy atom, donor atom, acceptor molecule, acceptor atom, score
      P1  H  7997  8010       L1     9  0.88

> <Gold.Chemscore.Hbond.Weighted>
-3.1883

> <Gold.Chemscore.Metal.Weighted>
-0.0000

> <Gold.Chemscore.Lipo.Weighted>
-12.1857

> <Gold.Chemscore.Internal_Hbond.Weighted>
0.0000

> <Gold.Chemscore.DEClash.Weighted>
1.8055

> <Gold.Chemscore.DEInternal.Weighted>
2.6161

> <Gold.Chemscore.Rot.Weighted>
3.9623

> <Gold.Chemscore.Internal.Correction.Weighted>
   9.000000E+99

> <Gold.Protein.RotatedTorsions>
[ 6907 6896 6895 6894 ] final -104.94 input  -60.11 | X-H torsion
[ 7974 7965 7964 7962 ] final -164.29 input  175.53 | X-H torsion
[ 8008 7997 7996 7995 ] final   41.57 input   59.86 | X-H torsion
[ 10167 10162 10161 10158 ] final   22.70 input  -65.29 | X-H torsion
[ 10718 10713 10712 10709 ] final -167.89 input   66.30 | X-H torsion
[ 10763 10752 10751 10750 ] final  -56.52 input  -60.55 | X-H torsion
[ 11005 11000 10999 10996 ] final -178.10 input  -57.11 | X-H torsion

> <Gold.Protein.ActiveResidues>
 VAL166  LYS551  ARG553  GLY616  TRP617  ASP618  TYR619  PRO620  LYS621  CYS622 
 ASP623  PHE694  ASN695  SER759  ASP760  ASP761  ALA762  ILE779  LEU786  VAL792 
 PHE793  MET794  SER795  GLU796  ALA797  LYS798  CYS799  TRP800  GLU811  SER814 

> <Gold.Protein.RotatedAtoms>
  150.7312  134.0202  159.3698 H   0  0  0  0  0  0  0  0  0  0  0  0  # atno 6907 bound_to 6896
  151.8166  135.0662  160.0429 H   0  0  0  0  0  0  0  0  0  0  0  0  # atno 6908 bound_to 6896
  152.3034  133.5642  159.5669 H   0  0  0  0  0  0  0  0  0  0  0  0  # atno 6909 bound_to 6896
  144.7301  140.2982  143.6209 H   0  0  0  0  0  0  0  0  0  0  0  0  # atno 7974 bound_to 7965
  155.2718  140.3366  155.4264 H   0  0  0  0  0  0  0  0  0  0  0  0  # atno 8008 bound_to 7997
  156.2129  140.1777  156.7696 H   0  0  0  0  0  0  0  0  0  0  0  0  # atno 8009 bound_to 7997
  154.5712  140.0670  156.8951 H   0  0  0  0  0  0  0  0  0  0  0  0  # atno 8010 bound_to 7997
  140.5327  143.9813  150.6474 H   0  0  0  0  0  0  0  0  0  0  0  0  # atno 10167 bound_to 10162
  156.6890  130.9152  151.3066 H   0  0  0  0  0  0  0  0  0  0  0  0  # atno 10718 bound_to 10713
  154.2080  135.6399  153.5107 H   0  0  0  0  0  0  0  0  0  0  0  0  # atno 10763 bound_to 10752
  152.9996  135.5467  154.6245 H   0  0  0  0  0  0  0  0  0  0  0  0  # atno 10764 bound_to 10752
  154.5675  135.2914  155.0833 H   0  0  0  0  0  0  0  0  0  0  0  0  # atno 10765 bound_to 10752
  140.4336  134.6496  157.4724 H   0  0  0  0  0  0  0  0  0  0  0  0  # atno 11005 bound_to 11000
  145.7787  139.1883  143.2170 LP  0  0  0  0  0  0  0  0  0  0  0  0  # atno 17320 bound_to 7965
  146.0852  140.7719  142.9622 LP  0  0  0  0  0  0  0  0  0  0  0  0  # atno 17321 bound_to 7965
  140.3192  143.3148  152.0801 LP  0  0  0  0  0  0  0  0  0  0  0  0  # atno 17342 bound_to 10162
  139.4960  144.6585  151.6519 LP  0  0  0  0  0  0  0  0  0  0  0  0  # atno 17343 bound_to 10162
  157.7016  130.9339  150.0802 LP  0  0  0  0  0  0  0  0  0  0  0  0  # atno 17370 bound_to 10713
  156.1811  130.3650  149.9034 LP  0  0  0  0  0  0  0  0  0  0  0  0  # atno 17371 bound_to 10713
  140.0118  134.6680  155.9370 LP  0  0  0  0  0  0  0  0  0  0  0  0  # atno 17394 bound_to 11000
  141.1735  133.6538  156.4741 LP  0  0  0  0  0  0  0  0  0  0  0  0  # atno 17395 bound_to 11000

$$$$
