#       Name:                AV-unprocessed.smi:1381
#       Creating user name   scv26
#       Creation time:       Fri Mar 27 05:21:24 2020


#       File generated by GOLD software.
#

@<TRIPOS>MOLECULE
AV-unprocessed.smi:1381
    50    51     1
SMALL
NO_CHARGES


@<TRIPOS>ATOM
      1 ****        -4.6613   6.7844   1.5223 C.3            1 S1                 0.0000
      2 ****        -3.9807   5.4868   1.2505 C.2            1 S1                 0.0000
      3 ****        -3.5625   4.8782   0.1006 C.2            1 S1                 0.0000
      4 ****        -2.9976   3.6626   0.5696 C.2            1 S1                 0.0000
      5 ****        -2.4374   2.7238  -0.3340 N.am           1 S1                 0.0000
      6 ****        -1.8851   1.5346  -0.0394 C.2            1 S1                 0.0000
      7 ****        -1.7799   1.0605   1.0923 O.2            1 S1                 0.0000
      8 ****        -1.4499   0.9090  -1.1427 N.am           1 S1                 0.0000
      9 ****        -0.8129  -0.4028  -1.1566 C.3            1 S1                 0.0000
     10 ****         0.6547  -0.3242  -0.6937 C.3            1 S1                 0.0000
     11 ****         1.3307  -1.6450  -0.7278 N.4            1 S1                 1.0000
     12 ****         2.8067  -1.5220  -0.7839 C.3            1 S1                 0.0000
     13 ****         3.4631  -2.9123  -0.8776 C.3            1 S1                 0.0000
     14 ****         4.9936  -2.8314  -0.8622 C.3            1 S1                 0.0000
     15 ****         3.0478  -3.6972   0.2347 O.3            1 S1                 0.0000
     16 ****         1.6399  -3.9042   0.2633 C.3            1 S1                 0.0000
     17 ****         1.3170  -4.8300   1.4412 C.3            1 S1                 0.0000
     18 ****         0.9315  -2.5417   0.3851 C.3            1 S1                 0.0000
     19 ****        -3.0630   3.5408   1.8865 N.2            1 S1                 0.0000
     20 ****        -3.6944   4.7090   2.3296 O.3            1 S1                 0.0000
     21 ****        -4.7152   7.3924   0.6192 H              1 S1                 0.0000
     22 ****        -4.1224   7.3526   2.2806 H              1 S1                 0.0000
     23 ****        -5.6776   6.6196   1.8801 H              1 S1                 0.0000
     24 ****        -3.6495   5.2459  -0.9110 H              1 S1                 0.0000
     25 ****        -2.4621   2.9864  -1.3081 H              1 S1                 0.0000
     26 ****        -1.5763   1.3667  -2.0339 H              1 S1                 0.0000
     27 ****        -1.3933  -1.0855  -0.5355 H              1 S1                 0.0000
     28 ****        -0.8608  -0.7921  -2.1738 H              1 S1                 0.0000
     29 ****         1.1806   0.3646  -1.3567 H              1 S1                 0.0000
     30 ****         0.7310   0.0975   0.3096 H              1 S1                 0.0000
     31 ****         3.0935  -0.9230  -1.6492 H              1 S1                 0.0000
     32 ****         3.1617  -0.9947   0.1034 H              1 S1                 0.0000
     33 ****         3.1517  -3.4049  -1.8005 H              1 S1                 0.0000
     34 ****         5.3648  -2.2452  -1.7033 H              1 S1                 0.0000
     35 ****         5.4371  -3.8251  -0.9295 H              1 S1                 0.0000
     36 ****         5.3563  -2.3669   0.0554 H              1 S1                 0.0000
     37 ****         1.3309  -4.3978  -0.6599 H              1 S1                 0.0000
     38 ****         0.2472  -5.0315   1.5004 H              1 S1                 0.0000
     39 ****         1.6272  -4.3875   2.3884 H              1 S1                 0.0000
     40 ****         1.8298  -5.7865   1.3371 H              1 S1                 0.0000
     41 ****         1.1817  -2.0722   1.3381 H              1 S1                 0.0000
     42 ****        -0.1467  -2.6961   0.3803 H              1 S1                 0.0000
     43 ****         1.0501  -2.0938  -1.5880 H              1 S1                 0.0000
     44 ****        -2.1207   1.5708   1.8818 LP             1 S1                 0.0000
     45 ****        -1.3536   0.1652   1.2217 LP             1 S1                 0.0000
     46 ****         3.3200  -3.2300   1.0759 LP             1 S1                 0.0000
     47 ****         3.5014  -4.5871   0.1860 LP             1 S1                 0.0000
     48 ****        -2.7328   2.7790   2.4439 LP             1 S1                 0.0000
     49 ****        -4.5401   4.4734   2.8084 LP             1 S1                 0.0000
     50 ****        -3.0871   5.2050   2.9502 LP             1 S1                 0.0000
@<TRIPOS>BOND
    1    1    2 1     
    2    1   21 1     
    3    1   22 1     
    4    1   23 1     
    5    2   20 1     
    6    2    3 2     
    7    3    4 1     
    8    3   24 1     
    9    4    5 1     
   10    4   19 2     
   11    5    6 am    
   12    5   25 1     
   13    6    7 2     
   14    6    8 am    
   15    8    9 1     
   16    8   26 1     
   17    9   10 1     
   18    9   27 1     
   19    9   28 1     
   20   10   11 1     
   21   10   29 1     
   22   10   30 1     
   23   11   18 1     
   24   11   12 1     
   25   11   43 1     
   26   12   13 1     
   27   12   31 1     
   28   12   32 1     
   29   13   14 1     
   30   13   15 1     
   31   13   33 1     
   32   14   34 1     
   33   14   35 1     
   34   14   36 1     
   35   15   16 1     
   36   16   17 1     
   37   16   18 1     
   38   16   37 1     
   39   17   38 1     
   40   17   39 1     
   41   17   40 1     
   42   18   41 1     
   43   18   42 1     
   44   19   20 1     
   45    7   44 1     
   46    7   45 1     
   47   15   46 1     
   48   15   47 1     
   49   19   48 1     
   50   20   49 1     
   51   20   50 1     
@<TRIPOS>SUBSTRUCTURE
      1 S1             1
@<TRIPOS>SET
LONE_PAIRS      STATIC     ATOMS    <user>   **** ""
7 44 45 46 47 48 49 50
DONOR_HYDROGENS      STATIC     ATOMS    <user>   **** ""
3 25 26 43
ATOM$BLUE        STATIC     ATOMS    COLORGROUP SYSTEM
7 44 45 46 47 48 49 50
ATOM$RED        STATIC     ATOMS    COLORGROUP SYSTEM
3 25 26 43
