AV-unprocessed.smi:164|AV-procd|sdf|1383|dock6
  -GOLD-   2262019113D 1   1.00000     0.00000
 Structure written by MMmdl.
 53 55  0  0  0  0  0  0  0  0  1 V2000
  152.1398  144.5298  160.9640 C   0  0  0  0  0  0  0  0  0  0  0  0
  152.3719  143.1731  160.3210 C   0  0  0  0  0  0  0  0  0  0  0  0
  153.1902  142.2352  160.9831 C   0  0  0  0  0  0  0  0  0  0  0  0
  153.4304  140.9722  160.4142 C   0  0  0  0  0  0  0  0  0  0  0  0
  152.8465  140.6294  159.1794 C   0  0  0  0  0  0  0  0  0  0  0  0
  153.1174  139.2647  158.5733 C   0  0  0  0  0  0  0  0  0  0  0  0
  152.0117  141.5572  158.5149 C   0  0  0  0  0  0  0  0  0  0  0  0
  151.4449  141.2078  157.3163 O   0  0  0  0  0  0  0  0  0  0  0  0
  150.4784  140.1724  157.4240 C   0  0  0  0  0  0  0  0  0  0  0  0
  150.0853  139.7111  156.0116 C   0  0  1  0  0  0  0  0  0  0  0  0
  151.2171  139.8975  155.1848 O   0  0  0  0  0  0  0  0  0  0  0  0
  149.7066  138.2128  155.9834 C   0  0  0  0  0  0  0  0  0  0  0  0
  148.7177  137.8497  156.9860 N   0  0  0  0  0  0  0  0  0  0  0  0
  147.3520  138.0295  156.6544 C   0  0  0  0  0  0  0  0  0  0  0  0
  146.9980  138.4970  155.5702 O   0  0  0  0  0  0  0  0  0  0  0  0
  146.4159  137.6018  157.6880 C   0  0  0  0  0  0  0  0  0  0  0  0
  145.0938  137.7141  157.4753 F   0  0  0  0  0  0  0  0  0  0  0  0
  146.8557  137.0860  158.8560 C   0  0  0  0  0  0  0  0  0  0  0  0
  148.1964  136.9366  159.1607 N   0  0  0  0  0  0  0  0  0  0  0  0
  148.5870  136.2969  160.4730 C   0  0  2  0  0  0  0  0  0  0  0  0
  148.0886  134.8473  160.6263 C   0  0  0  0  0  0  0  0  0  0  0  0
  147.2413  134.9103  161.8864 C   0  0  0  0  0  0  0  0  0  0  0  0
  147.7653  136.1596  162.5863 C   0  0  0  0  0  0  0  0  0  0  0  0
  148.0386  137.0464  161.5130 O   0  0  0  0  0  0  0  0  0  0  0  0
  149.1758  137.2916  158.2036 C   0  0  0  0  0  0  0  0  0  0  0  0
  150.3750  137.1108  158.4234 O   0  0  0  0  0  0  0  0  0  0  0  0
  151.7854  142.8402  159.0741 C   0  0  0  0  0  0  0  0  0  0  0  0
  150.9173  143.8540  158.3407 C   0  0  0  0  0  0  0  0  0  0  0  0
  152.5415  144.5632  161.9771 H   0  0  0  0  0  0  0  0  0  0  0  0
  151.0741  144.7527  161.0220 H   0  0  0  0  0  0  0  0  0  0  0  0
  152.6283  145.3129  160.3838 H   0  0  0  0  0  0  0  0  0  0  0  0
  153.6433  142.4826  161.9321 H   0  0  0  0  0  0  0  0  0  0  0  0
  154.0656  140.2678  160.9308 H   0  0  0  0  0  0  0  0  0  0  0  0
  153.3668  139.3561  157.5159 H   0  0  0  0  0  0  0  0  0  0  0  0
  152.2370  138.6285  158.6650 H   0  0  0  0  0  0  0  0  0  0  0  0
  153.9499  138.7675  159.0716 H   0  0  0  0  0  0  0  0  0  0  0  0
  150.8367  139.3361  158.0278 H   0  0  0  0  0  0  0  0  0  0  0  0
  149.6065  140.5806  157.9367 H   0  0  0  0  0  0  0  0  0  0  0  0
  149.2567  140.3210  155.6493 H   0  0  0  0  0  0  0  0  0  0  0  0
  151.9891  139.6540  155.6723 H   0  0  0  0  0  0  0  0  0  0  0  0
  149.3579  137.8865  155.0021 H   0  0  0  0  0  0  0  0  0  0  0  0
  150.5757  137.5821  156.1784 H   0  0  0  0  0  0  0  0  0  0  0  0
  146.1174  136.7790  159.5822 H   0  0  0  0  0  0  0  0  0  0  0  0
  149.6751  136.3556  160.5250 H   0  0  0  0  0  0  0  0  0  0  0  0
  147.5322  134.5001  159.7550 H   0  0  0  0  0  0  0  0  0  0  0  0
  148.9524  134.1965  160.7660 H   0  0  0  0  0  0  0  0  0  0  0  0
  146.1908  135.0432  161.6269 H   0  0  0  0  0  0  0  0  0  0  0  0
  147.3252  134.0138  162.5011 H   0  0  0  0  0  0  0  0  0  0  0  0
  147.0454  136.5845  163.2859 H   0  0  0  0  0  0  0  0  0  0  0  0
  148.6885  135.9452  163.1268 H   0  0  0  0  0  0  0  0  0  0  0  0
  150.7543  143.5804  157.2984 H   0  0  0  0  0  0  0  0  0  0  0  0
  151.3845  144.8386  158.3403 H   0  0  0  0  0  0  0  0  0  0  0  0
  149.9441  143.9344  158.8253 H   0  0  0  0  0  0  0  0  0  0  0  0
  1  2  1  0  0  0  0
  1 29  1  0  0  0  0
  1 30  1  0  0  0  0
  1 31  1  0  0  0  0
  2 27  1  0  0  0  0
  2  3  2  0  0  0  0
  3  4  1  0  0  0  0
  3 32  1  0  0  0  0
  4  5  2  0  0  0  0
  4 33  1  0  0  0  0
  5  6  1  0  0  0  0
  5  7  1  0  0  0  0
  6 34  1  0  0  0  0
  6 35  1  0  0  0  0
  6 36  1  0  0  0  0
  7  8  1  0  0  0  0
  7 27  2  0  0  0  0
  8  9  1  0  0  0  0
  9 10  1  0  0  0  0
  9 37  1  0  0  0  0
  9 38  1  0  0  0  0
 10 11  1  0  0  0  0
 10 12  1  0  0  0  0
 10 39  1  0  0  0  0
 11 40  1  0  0  0  0
 12 13  1  0  0  0  0
 12 41  1  0  0  0  0
 12 42  1  0  0  0  0
 13 25  1  0  0  0  0
 13 14  1  0  0  0  0
 14 15  2  0  0  0  0
 14 16  1  0  0  0  0
 16 17  1  0  0  0  0
 16 18  2  0  0  0  0
 18 19  1  0  0  0  0
 18 43  1  0  0  0  0
 19 20  1  0  0  0  0
 19 25  1  0  0  0  0
 20 24  1  0  0  0  0
 20 21  1  0  0  0  0
 20 44  1  0  0  0  0
 21 22  1  0  0  0  0
 21 45  1  0  0  0  0
 21 46  1  0  0  0  0
 22 23  1  0  0  0  0
 22 47  1  0  0  0  0
 22 48  1  0  0  0  0
 23 24  1  0  0  0  0
 23 49  1  0  0  0  0
 23 50  1  0  0  0  0
 25 26  2  0  0  0  0
 27 28  1  0  0  0  0
 28 51  1  0  0  0  0
 28 52  1  0  0  0  0
 28 53  1  0  0  0  0
M  END
> <s_m_source_file>
AV-unprocessed.smi

> <i_m_source_file_index>
164

> <i_lp_mmshare_version>
43012

> <i_f3d_flags>
0

> <s_epik_input>
W0NIM11jMVtjSF1bY0hdYyhbQ0gzXSljKGMxW0NIM10pT1tDSDJdW0NASF0oW09IXSlbQ0gyXW4yYyg9TyljKEYpW2NIXW4oYzI9TylbQ0BASF0zW0NIMl1bQ0gyXVtDSDJdTzM=

> <s_epik_cmdline>
J2VwaWtfcHl0aG9uJywgJy1waCcsICc3LjAnLCAnLXRuJywgJzgnLCAnLW1hJywgJzIwMCcsICctbWV0YWxfYmluZGluZycsICctaW1hZScsICc8aW5maWxlLm1hZT4nLCAnLW9tYWUnLCAnPG91dGZpbGUubWFlPic=

> <r_lp_tautomer_probability>
1

> <r_epik_Ionization_Penalty>
1.45842e-07

> <r_epik_Ionization_Penalty_Charging>
2.86622e-08

> <r_epik_Ionization_Penalty_Neutral>
1.1718e-07

> <r_epik_State_Penalty>
-0

> <r_epik_Charging_Adjusted_Penalty>
2.86622e-08

> <i_epik_Tot_Q>
0

> <i_epik_Tot_abs_Q>
0

> <r_epik_Metal_State_Penalty>
-0

> <b_epik_Metal_Only>
0

> <s_epik_Chemistry_Notes>
This compound contains an acetal/aminal-like group ( X-CH(R)-Y where X, Y are N, S, or O) that may be acid/base labile, releasing an aldehyde.

> <s_lp_Force_Field>
OPLS_2005

> <r_lp_Energy>
41.2459

> <b_lp_Chiralities_Consistent>
1

> <s_lp_Variant>
AV-unprocessed.smi:164-2

> <Gold.Version>
5.8.1

> <Gold.Id.Protein>
6NUR|6NUR_protein|mol2

> <Gold.PLP.Fitness>
52.2394

> <Gold.PLP.PLP>
-45.7554

> <Gold.PLP.part.hbond>
-3.0000

> <Gold.PLP.part.metal>
0.0000

> <Gold.PLP.part.buried>
-6.6076

> <Gold.PLP.part.nonpolar>
-36.1410

> <Gold.PLP.part.repulsive>
0.0268

> <Gold.PLP.ligand.clash>
0.0000

> <Gold.PLP.ligand.torsion>
0.8725

> <Gold.PLP.Chemscore.Hbond>
2.6820

> <Gold.PLP.Chemscore.CHOScore>
0.0000

> <Gold.PLP.Chemscore.Metal>
0.0000

> <Gold.Chemscore.Hbonds>
donor molecule, donor type, donor heavy atom, donor atom, acceptor molecule, acceptor atom, score
      P1  H  6931  6943       L1    24  1.00
      P1  H  6934  6947       L1    24  0.34
      P1  H  7989  7998       L1    11  1.00

> <Gold.PLP.Chemscore.Internal.Correction>
0.1829

> <Gold.Rescore>
     Score         DG    S(hbond)    S(metal)    S(lipo)     H(rot)  DE(clash)    DE(int)     intcor
     19.33     -20.28       2.40        0.00     117.67       2.73       0.00       0.94       ----

> <Gold.Chemscore.Fitness>
19.3302

> <Gold.Chemscore.DG>
-20.2753

> <Gold.Chemscore.ZeroCoef>
-5.4800

> <Gold.Chemscore.Hbond>
2.4015

> <Gold.Chemscore.Metal>
0.0000

> <Gold.Chemscore.Lipo>
117.6659

> <Gold.Chemscore.Internal_Hbond>
0.0000

> <Gold.Chemscore.DEClash>
0.0009

> <Gold.Chemscore.DEInternal>
0.9442

> <Gold.Chemscore.Rot>
2.7315

> <Gold.Chemscore.Internal.Correction>
   9.000000E+99

> <Gold.Chemscore.Hbonds>
donor molecule, donor type, donor heavy atom, donor atom, acceptor molecule, acceptor atom, score
      P1  H  6931  6943       L1    24  0.63
      P1  H  6934  6947       L1    24  0.32
      P1  H  7989  7998       L1    11  0.83

> <Gold.Chemscore.Hbond.Weighted>
-8.0209

> <Gold.Chemscore.Metal.Weighted>
-0.0000

> <Gold.Chemscore.Lipo.Weighted>
-13.7669

> <Gold.Chemscore.Internal_Hbond.Weighted>
0.0000

> <Gold.Chemscore.DEClash.Weighted>
0.0009

> <Gold.Chemscore.DEInternal.Weighted>
0.9442

> <Gold.Chemscore.Rot.Weighted>
6.9925

> <Gold.Chemscore.Internal.Correction.Weighted>
   9.000000E+99

> <Gold.Protein.RotatedTorsions>
[ 6907 6896 6895 6894 ] final  -89.61 input  -60.11 | X-H torsion
[ 7974 7965 7964 7962 ] final   -0.81 input  175.53 | X-H torsion
[ 8008 7997 7996 7995 ] final   62.06 input   59.86 | X-H torsion
[ 10167 10162 10161 10158 ] final   84.17 input  -65.29 | X-H torsion
[ 10718 10713 10712 10709 ] final -131.21 input   66.30 | X-H torsion
[ 10763 10752 10751 10750 ] final  -42.98 input  -60.55 | X-H torsion
[ 11005 11000 10999 10996 ] final  -12.55 input  -57.11 | X-H torsion

> <Gold.Protein.ActiveResidues>
 VAL166  LYS551  ARG553  GLY616  TRP617  ASP618  TYR619  PRO620  LYS621  CYS622 
 ASP623  PHE694  ASN695  SER759  ASP760  ASP761  ALA762  ILE779  LEU786  VAL792 
 PHE793  MET794  SER795  GLU796  ALA797  LYS798  CYS799  TRP800  GLU811  SER814 

> <Gold.Protein.RotatedAtoms>
  150.6875  134.2560  159.4529 H   0  0  0  0  0  0  0  0  0  0  0  0  # atno 6907 bound_to 6896
  152.0494  134.9660  160.0584 H   0  0  0  0  0  0  0  0  0  0  0  0  # atno 6908 bound_to 6896
  152.1131  133.4277  159.4677 H   0  0  0  0  0  0  0  0  0  0  0  0  # atno 6909 bound_to 6896
  146.2423  140.1326  142.8337 H   0  0  0  0  0  0  0  0  0  0  0  0  # atno 7974 bound_to 7965
  155.6083  140.3494  155.4614 H   0  0  0  0  0  0  0  0  0  0  0  0  # atno 8008 bound_to 7997
  156.0174  140.1246  157.0417 H   0  0  0  0  0  0  0  0  0  0  0  0  # atno 8009 bound_to 7997
  154.4302  140.1069  156.5901 H   0  0  0  0  0  0  0  0  0  0  0  0  # atno 8010 bound_to 7997
  139.9108  144.6273  150.8539 H   0  0  0  0  0  0  0  0  0  0  0  0  # atno 10167 bound_to 10162
  156.2221  130.6985  151.0767 H   0  0  0  0  0  0  0  0  0  0  0  0  # atno 10718 bound_to 10713
  153.9879  135.6709  153.4753 H   0  0  0  0  0  0  0  0  0  0  0  0  # atno 10763 bound_to 10752
  153.0718  135.4970  154.8317 H   0  0  0  0  0  0  0  0  0  0  0  0  # atno 10764 bound_to 10752
  154.7126  135.3100  154.9135 H   0  0  0  0  0  0  0  0  0  0  0  0  # atno 10765 bound_to 10752
  140.7669  133.8470  155.9173 H   0  0  0  0  0  0  0  0  0  0  0  0  # atno 11005 bound_to 11000
  145.0313  140.8873  143.5108 LP  0  0  0  0  0  0  0  0  0  0  0  0  # atno 17320 bound_to 7965
  145.1391  139.2583  143.5499 LP  0  0  0  0  0  0  0  0  0  0  0  0  # atno 17321 bound_to 7965
  140.7685  143.3367  151.2294 LP  0  0  0  0  0  0  0  0  0  0  0  0  # atno 17342 bound_to 10162
  139.6944  143.9638  152.2875 LP  0  0  0  0  0  0  0  0  0  0  0  0  # atno 17343 bound_to 10162
  157.7093  131.0742  150.6559 LP  0  0  0  0  0  0  0  0  0  0  0  0  # atno 17370 bound_to 10713
  156.6622  130.4515  149.5684 LP  0  0  0  0  0  0  0  0  0  0  0  0  # atno 17371 bound_to 10713
  140.9611  134.1655  157.4653 LP  0  0  0  0  0  0  0  0  0  0  0  0  # atno 17394 bound_to 11000
  139.8762  134.9945  156.5696 LP  0  0  0  0  0  0  0  0  0  0  0  0  # atno 17395 bound_to 11000

$$$$
