#       Name:                AV-unprocessed.smi:3122
#       Creating user name   scv26
#       Creation time:       Fri Mar 27 17:28:28 2020


#       File generated by GOLD software.
#

@<TRIPOS>MOLECULE
AV-unprocessed.smi:3122
    36    37     1
SMALL
NO_CHARGES


@<TRIPOS>ATOM
      1 ****        -3.2660  -2.2464   1.5176 C.3            1 S1                 0.0000
      2 ****        -2.6491  -1.5700   0.2848 C.3            1 S1                 0.0000
      3 ****        -3.0778  -2.2439  -1.0264 C.3            1 S1                 0.0000
      4 ****        -1.1599  -1.4698   0.3911 C.2            1 S1                 0.0000
      5 ****        -0.2853  -2.4688   0.5408 N.2            1 S1                 0.0000
      6 ****         0.9605  -1.8830   0.5302 N.2            1 S1                 0.0000
      7 ****         0.7462  -0.5732   0.3827 C.2            1 S1                 0.0000
      8 ****         1.7771   0.5008   0.2504 C.3            1 S1                 0.0000
      9 ****         2.0635   0.8604  -1.2205 C.3            1 S1                 0.0000
     10 ****         3.0079   1.9742  -1.2952 N.3            1 S1                 0.0000
     11 ****         2.5316   3.1242  -0.5280 C.3            1 S1                 0.0000
     12 ****         2.2276   2.7111   0.9234 C.3            1 S1                 0.0000
     13 ****         1.2779   1.6505   0.9291 O.3            1 S1                 0.0000
     14 ****        -0.5690  -0.2541   0.2572 O.3            1 S1                 0.0000
     15 ****        -3.0027  -1.7114   2.4306 H              1 S1                 0.0000
     16 ****        -2.9189  -3.2749   1.6221 H              1 S1                 0.0000
     17 ****        -4.3540  -2.2682   1.4504 H              1 S1                 0.0000
     18 ****        -3.0341  -0.5496   0.2585 H              1 S1                 0.0000
     19 ****        -2.6877  -1.7050  -1.8903 H              1 S1                 0.0000
     20 ****        -4.1639  -2.2716  -1.1175 H              1 S1                 0.0000
     21 ****        -2.7133  -3.2702  -1.0820 H              1 S1                 0.0000
     22 ****         2.6904   0.1565   0.7396 H              1 S1                 0.0000
     23 ****         2.4636  -0.0052  -1.7491 H              1 S1                 0.0000
     24 ****         1.1333   1.1317  -1.7215 H              1 S1                 0.0000
     25 ****         3.1407   2.2434  -2.2649 H              1 S1                 0.0000
     26 ****         3.2769   3.9197  -0.5432 H              1 S1                 0.0000
     27 ****         1.6302   3.5303  -0.9888 H              1 S1                 0.0000
     28 ****         3.1379   2.4063   1.4423 H              1 S1                 0.0000
     29 ****         1.8153   3.5558   1.4753 H              1 S1                 0.0000
     30 ****        -0.4929  -3.4419   0.6402 LP             1 S1                 0.0000
     31 ****         1.8441  -2.3435   0.6155 LP             1 S1                 0.0000
     32 ****         3.8775   1.6743  -0.9027 LP             1 S1                 0.0000
     33 ****         1.0706   1.4047   1.8760 LP             1 S1                 0.0000
     34 ****         0.4426   1.9595   0.4744 LP             1 S1                 0.0000
     35 ****        -0.8619   0.3752   0.9771 LP             1 S1                 0.0000
     36 ****        -0.7627   0.1491  -0.6371 LP             1 S1                 0.0000
@<TRIPOS>BOND
    1    1    2 1     
    2    1   15 1     
    3    1   16 1     
    4    1   17 1     
    5    2    3 1     
    6    2    4 1     
    7    2   18 1     
    8    3   19 1     
    9    3   20 1     
   10    3   21 1     
   11    4   14 1     
   12    4    5 2     
   13    5    6 1     
   14    6    7 2     
   15    7    8 1     
   16    7   14 1     
   17    8   13 1     
   18    8    9 1     
   19    8   22 1     
   20    9   10 1     
   21    9   23 1     
   22    9   24 1     
   23   10   11 1     
   24   10   25 1     
   25   11   12 1     
   26   11   26 1     
   27   11   27 1     
   28   12   13 1     
   29   12   28 1     
   30   12   29 1     
   31    5   30 1     
   32    6   31 1     
   33   10   32 1     
   34   13   33 1     
   35   13   34 1     
   36   14   35 1     
   37   14   36 1     
@<TRIPOS>SUBSTRUCTURE
      1 S1             1
@<TRIPOS>SET
LONE_PAIRS      STATIC     ATOMS    <user>   **** ""
7 30 31 32 33 34 35 36
DONOR_HYDROGENS      STATIC     ATOMS    <user>   **** ""
1 25
ATOM$BLUE        STATIC     ATOMS    COLORGROUP SYSTEM
7 30 31 32 33 34 35 36
ATOM$RED        STATIC     ATOMS    COLORGROUP SYSTEM
1 25
