#       Name:                AV-unprocessed.smi:3343
#       Creating user name   scv26
#       Creation time:       Fri Mar 27 19:30:37 2020


#       File generated by GOLD software.
#

@<TRIPOS>MOLECULE
AV-unprocessed.smi:3343
    47    48     1
SMALL
NO_CHARGES


@<TRIPOS>ATOM
      1 ****        -3.3911   3.5025   0.6510 C.3            1 S1                 0.0000
      2 ****        -3.0790   2.1417   1.3011 C.3            1 S1                 0.0000
      3 ****        -1.6303   1.6907   1.0618 C.2            1 S1                 0.0000
      4 ****        -0.7275   2.5181   0.9282 O.2            1 S1                 0.0000
      5 ****        -1.4209   0.3657   1.0118 N.am           1 S1                 0.0000
      6 ****        -0.1253  -0.2707   0.8063 C.3            1 S1                 0.0000
      7 ****         0.2834  -0.2568  -0.6793 C.3            1 S1                 0.0000
      8 ****         1.6192  -0.8628  -0.9037 N.4            1 S1                 1.0000
      9 ****         2.2344  -0.4226  -2.1794 C.3            1 S1                 0.0000
     10 ****         3.6590  -0.9985  -2.3236 C.3            1 S1                 0.0000
     11 ****         3.6739  -2.4599  -2.2419 N.3            1 S1                 0.0000
     12 ****         3.1043  -3.1059  -3.4195 C.3            1 S1                 0.0000
     13 ****         3.0539  -2.8955  -0.9895 C.3            1 S1                 0.0000
     14 ****         1.6213  -2.3452  -0.8248 C.3            1 S1                 0.0000
     15 ****        -3.3700   2.1597   2.7277 N.pl3          1 S1                 0.0000
     16 ****        -2.9088   2.9428   3.7072 C.2            1 S1                 0.0000
     17 ****        -3.3938   2.6473   4.9048 N.2            1 S1                 0.0000
     18 ****        -4.2016   1.5976   4.5707 C.2            1 S1                 0.0000
     19 ****        -4.2197   1.2612   3.2808 N.2            1 S1                 0.0000
     20 ****        -3.1799   3.4866  -0.4189 H              1 S1                 0.0000
     21 ****        -2.8058   4.3097   1.0932 H              1 S1                 0.0000
     22 ****        -4.4447   3.7563   0.7714 H              1 S1                 0.0000
     23 ****        -3.7335   1.4031   0.8336 H              1 S1                 0.0000
     24 ****        -2.2164  -0.2439   1.1395 H              1 S1                 0.0000
     25 ****         0.6329   0.2228   1.4168 H              1 S1                 0.0000
     26 ****        -0.2059  -1.2919   1.1772 H              1 S1                 0.0000
     27 ****        -0.4626  -0.7648  -1.2925 H              1 S1                 0.0000
     28 ****         0.3074   0.7792  -1.0204 H              1 S1                 0.0000
     29 ****         1.6037  -0.7139  -3.0202 H              1 S1                 0.0000
     30 ****         2.2916   0.6663  -2.1974 H              1 S1                 0.0000
     31 ****         4.1060  -0.6790  -3.2658 H              1 S1                 0.0000
     32 ****         4.2943  -0.6010  -1.5308 H              1 S1                 0.0000
     33 ****         3.1964  -4.1892  -3.3362 H              1 S1                 0.0000
     34 ****         3.6432  -2.7974  -4.3159 H              1 S1                 0.0000
     35 ****         2.0510  -2.8677  -3.5612 H              1 S1                 0.0000
     36 ****         3.0512  -3.9851  -0.9419 H              1 S1                 0.0000
     37 ****         3.6729  -2.5524  -0.1593 H              1 S1                 0.0000
     38 ****         1.2363  -2.6683   0.1417 H              1 S1                 0.0000
     39 ****         0.9522  -2.7622  -1.5785 H              1 S1                 0.0000
     40 ****        -2.2028   3.7434   3.5409 H              1 S1                 0.0000
     41 ****        -4.7914   1.0629   5.3008 H              1 S1                 0.0000
     42 ****         2.2219  -0.5234  -0.1678 H              1 S1                 0.0000
     43 ****        -0.9340   3.4954   0.9751 LP             1 S1                 0.0000
     44 ****         0.2119   2.2125   0.7729 LP             1 S1                 0.0000
     45 ****         4.6282  -2.7586  -2.2333 LP             1 S1                 0.0000
     46 ****        -3.2192   3.0699   5.7942 LP             1 S1                 0.0000
     47 ****        -4.7325   0.5286   2.8333 LP             1 S1                 0.0000
@<TRIPOS>BOND
    1    1    2 1     
    2    1   20 1     
    3    1   21 1     
    4    1   22 1     
    5    2    3 1     
    6    2   15 1     
    7    2   23 1     
    8    3    4 2     
    9    3    5 am    
   10    5    6 1     
   11    5   24 1     
   12    6    7 1     
   13    6   25 1     
   14    6   26 1     
   15    7    8 1     
   16    7   27 1     
   17    7   28 1     
   18    8   14 1     
   19    8    9 1     
   20    8   42 1     
   21    9   10 1     
   22    9   29 1     
   23    9   30 1     
   24   10   11 1     
   25   10   31 1     
   26   10   32 1     
   27   11   12 1     
   28   11   13 1     
   29   12   33 1     
   30   12   34 1     
   31   12   35 1     
   32   13   14 1     
   33   13   36 1     
   34   13   37 1     
   35   14   38 1     
   36   14   39 1     
   37   15   19 1     
   38   15   16 1     
   39   16   17 2     
   40   16   40 1     
   41   17   18 1     
   42   18   19 2     
   43   18   41 1     
   44    4   43 1     
   45    4   44 1     
   46   11   45 1     
   47   17   46 1     
   48   19   47 1     
@<TRIPOS>SUBSTRUCTURE
      1 S1             1
@<TRIPOS>SET
LONE_PAIRS      STATIC     ATOMS    <user>   **** ""
5 43 44 45 46 47
DONOR_HYDROGENS      STATIC     ATOMS    <user>   **** ""
2 24 42
ATOM$BLUE        STATIC     ATOMS    COLORGROUP SYSTEM
5 43 44 45 46 47
ATOM$RED        STATIC     ATOMS    COLORGROUP SYSTEM
2 24 42
