#       Name:                AV-unprocessed.smi:2265
#       Creating user name   scv26
#       Creation time:       Fri Mar 27 12:35:07 2020


#       File generated by GOLD software.
#

@<TRIPOS>MOLECULE
AV-unprocessed.smi:2265
    41    42     1
SMALL
NO_CHARGES


@<TRIPOS>ATOM
      1 ****         4.4359   0.3283   5.0417 C.3            1 S1                 0.0000
      2 ****         2.9265   0.1925   5.2684 C.3            1 S1                 0.0000
      3 ****         2.2080  -0.4512   4.0752 C.3            1 S1                 0.0000
      4 ****         0.7156  -0.5999   4.3128 C.3            1 S1                 0.0000
      5 ****        -0.2387   0.5154   3.9771 C.3            1 S1                 0.0000
      6 ****        -0.2725  -0.7702   3.1757 C.3            1 S1                 0.0000
      7 ****         0.1937  -0.7065   1.8224 N.am           1 S1                 0.0000
      8 ****         0.0940  -1.6551   0.8742 C.2            1 S1                 0.0000
      9 ****        -0.4792  -2.7193   1.1063 O.2            1 S1                 0.0000
     10 ****         0.6320  -1.2989  -0.3133 N.am           1 S1                 0.0000
     11 ****         0.6690  -2.0308  -1.5064 C.2            1 S1                 0.0000
     12 ****         0.2006  -3.2425  -1.6181 N.2            1 S1                 0.0000
     13 ****         0.2556  -3.9418  -2.8238 C.2            1 S1                 0.0000
     14 ****         0.8020  -3.3854  -3.9199 C.2            1 S1                 0.0000
     15 ****         1.3297  -2.0874  -3.8762 N.am           1 S1                 0.0000
     16 ****         1.9089  -1.5290  -5.0983 C.3            1 S1                 0.0000
     17 ****         1.2989  -1.3569  -2.7286 C.2            1 S1                 0.0000
     18 ****         1.7450  -0.2109  -2.6426 O.2            1 S1                 0.0000
     19 ****         4.9181   0.7903   5.9032 H              1 S1                 0.0000
     20 ****         4.6492   0.9467   4.1695 H              1 S1                 0.0000
     21 ****         4.8993  -0.6458   4.8837 H              1 S1                 0.0000
     22 ****         2.7504  -0.4013   6.1659 H              1 S1                 0.0000
     23 ****         2.5015   1.1781   5.4620 H              1 S1                 0.0000
     24 ****         2.3787   0.1476   3.1799 H              1 S1                 0.0000
     25 ****         2.6242  -1.4395   3.8770 H              1 S1                 0.0000
     26 ****         0.4822  -1.1694   5.2106 H              1 S1                 0.0000
     27 ****        -1.0576   0.6979   4.6698 H              1 S1                 0.0000
     28 ****         0.1708   1.4036   3.4993 H              1 S1                 0.0000
     29 ****        -1.1361  -1.4040   3.3717 H              1 S1                 0.0000
     30 ****         0.5720   0.1831   1.5305 H              1 S1                 0.0000
     31 ****         1.0476  -0.3792  -0.3399 H              1 S1                 0.0000
     32 ****        -0.1590  -4.9390  -2.8267 H              1 S1                 0.0000
     33 ****         0.8661  -3.8865  -4.8747 H              1 S1                 0.0000
     34 ****         1.3121  -0.6864  -5.4497 H              1 S1                 0.0000
     35 ****         1.9582  -2.2586  -5.9073 H              1 S1                 0.0000
     36 ****         2.9250  -1.1748  -4.9186 H              1 S1                 0.0000
     37 ****        -0.8773  -2.8865   2.0083 LP             1 S1                 0.0000
     38 ****        -0.5467  -3.4168   0.3929 LP             1 S1                 0.0000
     39 ****        -0.2087  -3.6820  -0.8185 LP             1 S1                 0.0000
     40 ****         1.6960   0.2808  -1.7732 LP             1 S1                 0.0000
     41 ****         2.1559   0.2270  -3.4422 LP             1 S1                 0.0000
@<TRIPOS>BOND
    1    1    2 1     
    2    1   19 1     
    3    1   20 1     
    4    1   21 1     
    5    2    3 1     
    6    2   22 1     
    7    2   23 1     
    8    3    4 1     
    9    3   24 1     
   10    3   25 1     
   11    4    6 1     
   12    4    5 1     
   13    4   26 1     
   14    5    6 1     
   15    5   27 1     
   16    5   28 1     
   17    6    7 1     
   18    6   29 1     
   19    7    8 am    
   20    7   30 1     
   21    8    9 2     
   22    8   10 am    
   23   10   11 1     
   24   10   31 1     
   25   11   17 1     
   26   11   12 2     
   27   12   13 1     
   28   13   14 2     
   29   13   32 1     
   30   14   15 1     
   31   14   33 1     
   32   15   16 1     
   33   15   17 am    
   34   16   34 1     
   35   16   35 1     
   36   16   36 1     
   37   17   18 2     
   38    9   37 1     
   39    9   38 1     
   40   12   39 1     
   41   18   40 1     
   42   18   41 1     
@<TRIPOS>SUBSTRUCTURE
      1 S1             1
@<TRIPOS>SET
LONE_PAIRS      STATIC     ATOMS    <user>   **** ""
5 37 38 39 40 41
DONOR_HYDROGENS      STATIC     ATOMS    <user>   **** ""
2 30 31
ATOM$BLUE        STATIC     ATOMS    COLORGROUP SYSTEM
5 37 38 39 40 41
ATOM$RED        STATIC     ATOMS    COLORGROUP SYSTEM
2 30 31
