AV-unprocessed.smi:2032|AV-procd|sdf|8254|dock1
  -GOLD-   2272010523D 1   1.00000     0.00000
 Structure written by MMmdl.
 42 43  0  0  0  0  0  0  0  0  3 V2000
  148.4430  141.5273  154.1984 C   0  0  0  0  0  0  0  0  0  0  0  0
  148.9764  140.1805  154.6986 C   0  0  1  0  0  0  0  0  0  0  0  0
  148.5127  139.0078  153.8070 C   0  0  0  0  0  0  0  0  0  0  0  0
  149.0951  137.7177  154.2682 N   0  3  2  0  0  0  0  0  0  0  0  0
  148.4960  137.1510  155.5257 C   0  0  1  0  0  0  0  0  0  0  0  0
  147.0176  136.7393  155.3206 C   0  0  0  0  0  0  0  0  0  0  0  0
  149.3102  135.9421  156.0671 C   0  0  0  0  0  0  0  0  0  0  0  0
  149.4770  135.9719  157.5175 N   0  0  0  0  0  0  0  0  0  0  0  0
  148.5392  135.6413  158.4169 C   0  0  0  0  0  0  0  0  0  0  0  0
  147.4178  135.2961  158.0360 O   0  0  0  0  0  0  0  0  0  0  0  0
  148.9614  135.7227  159.6980 N   0  5  0  0  0  0  0  0  0  0  0  0
  148.1340  135.3829  160.6997 C   0  0  0  0  0  0  0  0  0  0  0  0
  147.3103  134.3304  160.6411 N   0  0  0  0  0  0  0  0  0  0  0  0
  146.5371  134.1662  161.7920 C   0  0  0  0  0  0  0  0  0  0  0  0
  146.7718  135.1210  162.7456 C   0  0  0  0  0  0  0  0  0  0  0  0
  147.9777  136.2622  162.2233 S   0  0  0  0  0  0  0  0  0  0  0  0
  150.5767  137.8663  154.2700 C   0  0  0  0  0  0  0  0  0  0  0  0
  151.0204  139.0476  155.1593 C   0  0  1  0  0  0  0  0  0  0  0  0
  152.5383  139.2564  155.1192 C   0  0  0  0  0  0  0  0  0  0  0  0
  150.4001  140.2391  154.6837 O   0  0  0  0  0  0  0  0  0  0  0  0
  147.3529  141.5445  154.2055 H   0  0  0  0  0  0  0  0  0  0  0  0
  148.7745  141.7314  153.1797 H   0  0  0  0  0  0  0  0  0  0  0  0
  148.7915  142.3438  154.8314 H   0  0  0  0  0  0  0  0  0  0  0  0
  148.6326  140.0382  155.7240 H   0  0  0  0  0  0  0  0  0  0  0  0
  147.4281  138.9722  153.7292 H   0  0  0  0  0  0  0  0  0  0  0  0
  148.8550  139.1837  152.7860 H   0  0  0  0  0  0  0  0  0  0  0  0
  148.5066  137.9277  156.2890 H   0  0  0  0  0  0  0  0  0  0  0  0
  146.6046  136.2406  156.1970 H   0  0  0  0  0  0  0  0  0  0  0  0
  146.9098  136.0571  154.4770 H   0  0  0  0  0  0  0  0  0  0  0  0
  146.3688  137.5978  155.1525 H   0  0  0  0  0  0  0  0  0  0  0  0
  148.8136  135.0086  155.8012 H   0  0  0  0  0  0  0  0  0  0  0  0
  150.3118  135.8917  155.6444 H   0  0  0  0  0  0  0  0  0  0  0  0
  150.3797  136.2543  157.8709 H   0  0  0  0  0  0  0  0  0  0  0  0
  145.8424  133.3413  161.8459 H   0  0  0  0  0  0  0  0  0  0  0  0
  146.3115  135.2239  163.7166 H   0  0  0  0  0  0  0  0  0  0  0  0
  151.0932  136.9497  154.5430 H   0  0  0  0  0  0  0  0  0  0  0  0
  150.8937  138.0607  153.2442 H   0  0  0  0  0  0  0  0  0  0  0  0
  150.7292  138.8762  156.1963 H   0  0  0  0  0  0  0  0  0  0  0  0
  153.0651  138.3734  155.4819 H   0  0  0  0  0  0  0  0  0  0  0  0
  152.8327  140.0984  155.7459 H   0  0  0  0  0  0  0  0  0  0  0  0
  152.8834  139.4592  154.1048 H   0  0  0  0  0  0  0  0  0  0  0  0
  148.8817  137.0408  153.5497 H   0  0  0  0  0  0  0  0  0  0  0  0
  1  2  1  0  0  0  0
  1 21  1  0  0  0  0
  1 22  1  0  0  0  0
  1 23  1  0  0  0  0
  2 20  1  0  0  0  0
  2  3  1  0  0  0  0
  2 24  1  0  0  0  0
  3  4  1  0  0  0  0
  3 25  1  0  0  0  0
  3 26  1  0  0  0  0
  4  5  1  0  0  0  0
  4 17  1  0  0  0  0
  4 42  1  0  0  0  0
  5  6  1  0  0  0  0
  5  7  1  0  0  0  0
  5 27  1  0  0  0  0
  6 28  1  0  0  0  0
  6 29  1  0  0  0  0
  6 30  1  0  0  0  0
  7  8  1  0  0  0  0
  7 31  1  0  0  0  0
  7 32  1  0  0  0  0
  8  9  1  0  0  0  0
  8 33  1  0  0  0  0
  9 10  2  0  0  0  0
  9 11  1  0  0  0  0
 11 12  1  0  0  0  0
 12 16  1  0  0  0  0
 12 13  2  0  0  0  0
 13 14  1  0  0  0  0
 14 15  2  0  0  0  0
 14 34  1  0  0  0  0
 15 16  1  0  0  0  0
 15 35  1  0  0  0  0
 17 18  1  0  0  0  0
 17 36  1  0  0  0  0
 17 37  1  0  0  0  0
 18 19  1  0  0  0  0
 18 20  1  0  0  0  0
 18 38  1  0  0  0  0
 19 39  1  0  0  0  0
 19 40  1  0  0  0  0
 19 41  1  0  0  0  0
M  CHG  1   4   1
M  CHG  1  11  -1
M  END
> <s_m_source_file>
AV-unprocessed.smi

> <i_m_source_file_index>
2032

> <i_lp_mmshare_version>
43012

> <i_f3d_flags>
0

> <s_epik_input>
W0NIM11bQ0BASF0xW0NIMl1OKFtDSDJdW0NASF0oTzEpW0NIM10pW0NASF0oW0NIM10pW0NIMl1bTkhdQyg9TylbTkhdYzJuW2NIXVtjSF1zMg==

> <s_epik_cmdline>
J2VwaWtfcHl0aG9uJywgJy1waCcsICc3LjAnLCAnLXRuJywgJzgnLCAnLW1hJywgJzIwMCcsICctbWV0YWxfYmluZGluZycsICctaW1hZScsICc8aW5maWxlLm1hZT4nLCAnLW9tYWUnLCAnPG91dGZpbGUubWFlPic=

> <r_lp_tautomer_probability>
0.999

> <r_epik_Ionization_Penalty>
6.71699

> <r_epik_Ionization_Penalty_Charging>
5.88592

> <r_epik_Ionization_Penalty_Neutral>
0.831074

> <r_epik_State_Penalty>
6.08365

> <r_epik_Charging_Adjusted_Penalty>
11.9696

> <i_epik_Tot_Q>
0

> <i_epik_Tot_abs_Q>
2

> <r_epik_Metal_State_Penalty>
2.0947

> <b_epik_Metal_Only>
1

> <s_lp_Force_Field>
OPLS_2005

> <r_lp_Energy>
10.9106

> <b_lp_Chiralities_Consistent>
1

> <s_lp_Variant>
AV-unprocessed.smi:2032-24

> <Gold.Version>
5.8.1

> <Gold.Id.Protein>
6NUR|6NUR_protein|mol2

> <Gold.PLP.Fitness>
45.5109

> <Gold.PLP.PLP>
-32.6609

> <Gold.PLP.part.hbond>
-3.0000

> <Gold.PLP.part.metal>
0.0000

> <Gold.PLP.part.buried>
-1.9540

> <Gold.PLP.part.nonpolar>
-28.4455

> <Gold.PLP.part.repulsive>
0.1544

> <Gold.PLP.ligand.clash>
0.0000

> <Gold.PLP.ligand.torsion>
1.1321

> <Gold.PLP.Chemscore.Hbond>
5.0000

> <Gold.PLP.Chemscore.CHOScore>
0.0000

> <Gold.PLP.Chemscore.Metal>
0.0000

> <Gold.Chemscore.Hbonds>
donor molecule, donor type, donor heavy atom, donor atom, acceptor molecule, acceptor atom, score
      L1  H     4    42       P1  7948  2.00
      P1  H  6896  6909       L1    11  1.98
      P1  H  7989  7998       L1    20  1.00

> <Gold.PLP.Chemscore.Internal.Correction>
0.1143

> <Gold.Rescore>
     Score         DG    S(hbond)    S(metal)    S(lipo)     H(rot)  DE(clash)    DE(int)     intcor
     16.44     -19.12       2.67        0.00      74.97       1.58       0.10       2.59       ----

> <Gold.Chemscore.Fitness>
16.4362

> <Gold.Chemscore.DG>
-19.1245

> <Gold.Chemscore.ZeroCoef>
-5.4800

> <Gold.Chemscore.Hbond>
2.6692

> <Gold.Chemscore.Metal>
0.0000

> <Gold.Chemscore.Lipo>
74.9727

> <Gold.Chemscore.Internal_Hbond>
0.0000

> <Gold.Chemscore.DEClash>
0.1003

> <Gold.Chemscore.DEInternal>
2.5880

> <Gold.Chemscore.Rot>
1.5791

> <Gold.Chemscore.Internal.Correction>
   9.000000E+99

> <Gold.Chemscore.Hbonds>
donor molecule, donor type, donor heavy atom, donor atom, acceptor molecule, acceptor atom, score
      L1  H     4    42       P1  7948  0.98
      P1  H  6896  6909       L1    11  0.25
      P1  H  7989  7998       L1    20  0.39

> <Gold.Chemscore.Hbond.Weighted>
-8.9152

> <Gold.Chemscore.Metal.Weighted>
-0.0000

> <Gold.Chemscore.Lipo.Weighted>
-8.7718

> <Gold.Chemscore.Internal_Hbond.Weighted>
0.0000

> <Gold.Chemscore.DEClash.Weighted>
0.1003

> <Gold.Chemscore.DEInternal.Weighted>
2.5880

> <Gold.Chemscore.Rot.Weighted>
4.0425

> <Gold.Chemscore.Internal.Correction.Weighted>
   9.000000E+99

> <Gold.Protein.RotatedTorsions>
[ 6907 6896 6895 6894 ] final   54.31 input  -60.11 | X-H torsion
[ 7974 7965 7964 7962 ] final   14.59 input  175.53 | X-H torsion
[ 8008 7997 7996 7995 ] final -150.85 input   59.86 | X-H torsion
[ 10167 10162 10161 10158 ] final  -76.66 input  -65.29 | X-H torsion
[ 10718 10713 10712 10709 ] final  -21.09 input   66.30 | X-H torsion
[ 10763 10752 10751 10750 ] final  177.41 input  -60.55 | X-H torsion
[ 11005 11000 10999 10996 ] final    3.41 input  -57.11 | X-H torsion

> <Gold.Protein.ActiveResidues>
 VAL166  LYS551  ARG553  GLY616  TRP617  ASP618  TYR619  PRO620  LYS621  CYS622 
 ASP623  PHE694  ASN695  SER759  ASP760  ASP761  ALA762  ILE779  LEU786  VAL792 
 PHE793  MET794  SER795  GLU796  ALA797  LYS798  CYS799  TRP800  GLU811  SER814 

> <Gold.Protein.RotatedAtoms>
  152.3426  134.7114  160.0259 H   0  0  0  0  0  0  0  0  0  0  0  0  # atno 6907 bound_to 6896
  151.7494  133.3321  159.3395 H   0  0  0  0  0  0  0  0  0  0  0  0  # atno 6908 bound_to 6896
  150.7489  134.6138  159.6145 H   0  0  0  0  0  0  0  0  0  0  0  0  # atno 6909 bound_to 6896
  146.2301  139.9019  142.8538 H   0  0  0  0  0  0  0  0  0  0  0  0  # atno 7974 bound_to 7965
  155.6301  140.0690  157.2651 H   0  0  0  0  0  0  0  0  0  0  0  0  # atno 8008 bound_to 7997
  154.4208  140.1769  156.1511 H   0  0  0  0  0  0  0  0  0  0  0  0  # atno 8009 bound_to 7997
  155.9940  140.3342  155.6784 H   0  0  0  0  0  0  0  0  0  0  0  0  # atno 8010 bound_to 7997
  140.4837  143.2396  151.8017 H   0  0  0  0  0  0  0  0  0  0  0  0  # atno 10167 bound_to 10162
  156.5229  130.4637  149.6587 H   0  0  0  0  0  0  0  0  0  0  0  0  # atno 10718 bound_to 10713
  154.4941  135.2780  155.1473 H   0  0  0  0  0  0  0  0  0  0  0  0  # atno 10763 bound_to 10752
  154.3133  135.6224  153.5479 H   0  0  0  0  0  0  0  0  0  0  0  0  # atno 10764 bound_to 10752
  152.9892  135.5725  154.5368 H   0  0  0  0  0  0  0  0  0  0  0  0  # atno 10765 bound_to 10752
  140.5935  133.9902  155.8099 H   0  0  0  0  0  0  0  0  0  0  0  0  # atno 11005 bound_to 11000
  145.2315  140.9975  143.3988 LP  0  0  0  0  0  0  0  0  0  0  0  0  # atno 17320 bound_to 7965
  144.9526  139.4066  143.6395 LP  0  0  0  0  0  0  0  0  0  0  0  0  # atno 17321 bound_to 7965
  139.4838  144.4739  151.9391 LP  0  0  0  0  0  0  0  0  0  0  0  0  # atno 17342 bound_to 10162
  140.3825  144.2718  150.5907 LP  0  0  0  0  0  0  0  0  0  0  0  0  # atno 17343 bound_to 10162
  156.3132  130.7240  151.2137 LP  0  0  0  0  0  0  0  0  0  0  0  0  # atno 17370 bound_to 10713
  157.7434  131.0475  150.4950 LP  0  0  0  0  0  0  0  0  0  0  0  0  # atno 17371 bound_to 10713
  141.0919  133.9903  157.3222 LP  0  0  0  0  0  0  0  0  0  0  0  0  # atno 17394 bound_to 11000
  139.9264  135.0201  156.8248 LP  0  0  0  0  0  0  0  0  0  0  0  0  # atno 17395 bound_to 11000

$$$$
