AV-unprocessed.smi:18|AV-procd|sdf|108|dock7
  -GOLD-   2262015263D 1   1.00000     0.00000
 Structure written by MMmdl.
 47 50  0  0  0  0  0  0  0  0  1 V2000
  146.2147  131.7832  151.0411 O   0  0  0  0  0  0  0  0  0  0  0  0
  146.0044  133.1779  150.9488 C   0  0  0  0  0  0  0  0  0  0  0  0
  144.5931  133.5021  150.4270 C   0  0  0  0  0  0  0  0  0  0  0  0
  144.3689  135.0273  150.3536 C   0  0  0  0  0  0  0  0  0  0  0  0
  144.4512  135.7058  151.6384 N   0  0  0  0  0  0  0  0  0  0  0  0
  143.6932  135.4384  152.7573 C   0  0  0  0  0  0  0  0  0  0  0  0
  143.9509  136.1829  153.7979 N   0  0  0  0  0  0  0  0  0  0  0  0
  144.9530  137.0375  153.3578 C   0  0  0  0  0  0  0  0  0  0  0  0
  145.6831  138.0936  153.9650 C   0  0  0  0  0  0  0  0  0  0  0  0
  145.4876  138.4451  155.2590 N   0  0  0  0  0  0  0  0  0  0  0  0
  145.6730  137.2801  156.1185 C   0  0  0  0  0  0  0  0  0  0  0  0
  145.2837  137.6098  157.5645 C   0  0  0  0  0  0  0  0  0  0  0  0
  146.0546  138.7187  158.0029 O   0  0  0  0  0  0  0  0  0  0  0  0
  145.7859  139.8842  157.2331 C   0  0  0  0  0  0  0  0  0  0  0  0
  146.1552  139.6614  155.7471 C   0  0  2  0  0  0  0  0  0  0  0  0
  145.7881  140.9090  154.9011 C   0  0  0  0  0  0  0  0  0  0  0  0
  146.9897  141.7816  154.5063 C   0  0  0  0  0  0  0  0  0  0  0  0
  147.7758  141.1364  153.6449 F   0  0  0  0  0  0  0  0  0  0  0  0
  146.5596  142.9085  153.9403 F   0  0  0  0  0  0  0  0  0  0  0  0
  146.6241  138.7260  153.2141 N   0  0  0  0  0  0  0  0  0  0  0  0
  146.8221  138.3613  151.9437 C   0  0  0  0  0  0  0  0  0  0  0  0
  146.2099  137.4025  151.2455 N   0  0  0  0  0  0  0  0  0  0  0  0
  145.2768  136.7559  152.0011 C   0  0  0  0  0  0  0  0  0  0  0  0
  144.1819  132.7010  149.1830 C   0  0  0  0  0  0  0  0  0  0  0  0
  143.4016  131.7761  149.9690 O   0  0  0  0  0  0  0  0  0  0  0  0
  143.4643  132.6934  151.0813 C   0  0  0  0  0  0  0  0  0  0  0  0
  147.1113  131.5984  150.8053 H   0  0  0  0  0  0  0  0  0  0  0  0
  146.1902  133.6346  151.9210 H   0  0  0  0  0  0  0  0  0  0  0  0
  146.7622  133.5840  150.2780 H   0  0  0  0  0  0  0  0  0  0  0  0
  145.0974  135.4895  149.6863 H   0  0  0  0  0  0  0  0  0  0  0  0
  143.3949  135.2478  149.9151 H   0  0  0  0  0  0  0  0  0  0  0  0
  142.9426  134.6615  152.7796 H   0  0  0  0  0  0  0  0  0  0  0  0
  145.0699  136.4440  155.7614 H   0  0  0  0  0  0  0  0  0  0  0  0
  146.7165  136.9629  156.0797 H   0  0  0  0  0  0  0  0  0  0  0  0
  144.2180  137.8299  157.6445 H   0  0  0  0  0  0  0  0  0  0  0  0
  145.4853  136.7571  158.2128 H   0  0  0  0  0  0  0  0  0  0  0  0
  144.7355  140.1612  157.3385 H   0  0  0  0  0  0  0  0  0  0  0  0
  146.3723  140.6980  157.6575 H   0  0  0  0  0  0  0  0  0  0  0  0
  147.2324  139.4992  155.6887 H   0  0  0  0  0  0  0  0  0  0  0  0
  145.2867  140.6146  153.9796 H   0  0  0  0  0  0  0  0  0  0  0  0
  145.0666  141.5165  155.4488 H   0  0  0  0  0  0  0  0  0  0  0  0
  147.5981  142.0737  155.3613 H   0  0  0  0  0  0  0  0  0  0  0  0
  147.5816  138.9150  151.4117 H   0  0  0  0  0  0  0  0  0  0  0  0
  143.5549  133.2519  148.4810 H   0  0  0  0  0  0  0  0  0  0  0  0
  145.0140  132.2205  148.6672 H   0  0  0  0  0  0  0  0  0  0  0  0
  143.7476  132.2046  152.0142 H   0  0  0  0  0  0  0  0  0  0  0  0
  142.5325  133.2489  151.2006 H   0  0  0  0  0  0  0  0  0  0  0  0
  1  2  1  0  0  0  0
  1 27  1  0  0  0  0
  2  3  1  0  0  0  0
  2 28  1  0  0  0  0
  2 29  1  0  0  0  0
  3 26  1  0  0  0  0
  3  4  1  0  0  0  0
  3 24  1  0  0  0  0
  4  5  1  0  0  0  0
  4 30  1  0  0  0  0
  4 31  1  0  0  0  0
  5 23  1  0  0  0  0
  5  6  1  0  0  0  0
  6  7  2  0  0  0  0
  6 32  1  0  0  0  0
  7  8  1  0  0  0  0
  8 23  2  0  0  0  0
  8  9  1  0  0  0  0
  9 10  1  0  0  0  0
  9 20  2  0  0  0  0
 10 15  1  0  0  0  0
 10 11  1  0  0  0  0
 11 12  1  0  0  0  0
 11 33  1  0  0  0  0
 11 34  1  0  0  0  0
 12 13  1  0  0  0  0
 12 35  1  0  0  0  0
 12 36  1  0  0  0  0
 13 14  1  0  0  0  0
 14 15  1  0  0  0  0
 14 37  1  0  0  0  0
 14 38  1  0  0  0  0
 15 16  1  0  0  0  0
 15 39  1  0  0  0  0
 16 17  1  0  0  0  0
 16 40  1  0  0  0  0
 16 41  1  0  0  0  0
 17 18  1  0  0  0  0
 17 19  1  0  0  0  0
 17 42  1  0  0  0  0
 20 21  1  0  0  0  0
 21 22  2  0  0  0  0
 21 43  1  0  0  0  0
 22 23  1  0  0  0  0
 24 25  1  0  0  0  0
 24 44  1  0  0  0  0
 24 45  1  0  0  0  0
 25 26  1  0  0  0  0
 26 46  1  0  0  0  0
 26 47  1  0  0  0  0
M  END
> <s_m_source_file>
AV-unprocessed.smi

> <i_m_source_file_index>
18

> <i_lp_mmshare_version>
43012

> <i_f3d_flags>
0

> <s_epik_input>
W0NIMl0xT1tDSDJdQzEoW0NIMl1bT0hdKVtDSDJdbihbY0hdbjIpYyhjMjMpbltjSF1uYzNONFtDSDJdW0NIMl1PW0NIMl1bQ0BIXTRbQ0gyXVtDSF0oRilG

> <s_epik_cmdline>
J2VwaWtfcHl0aG9uJywgJy1waCcsICc3LjAnLCAnLXRuJywgJzgnLCAnLW1hJywgJzIwMCcsICctbWV0YWxfYmluZGluZycsICctaW1hZScsICc8aW5maWxlLm1hZT4nLCAnLW9tYWUnLCAnPG91dGZpbGUubWFlPic=

> <r_lp_tautomer_probability>
1

> <r_epik_Ionization_Penalty>
6.63711e-05

> <r_epik_Ionization_Penalty_Charging>
0

> <r_epik_Ionization_Penalty_Neutral>
6.63711e-05

> <r_epik_State_Penalty>
-0

> <r_epik_Charging_Adjusted_Penalty>
0

> <i_epik_Tot_Q>
0

> <i_epik_Tot_abs_Q>
0

> <r_epik_Metal_State_Penalty>
-0

> <b_epik_Metal_Only>
0

> <s_lp_Force_Field>
OPLS_2005

> <r_lp_Energy>
38.6195

> <b_lp_Chiralities_Consistent>
1

> <s_lp_Variant>
AV-unprocessed.smi:18-2

> <Gold.Version>
5.8.1

> <Gold.Id.Protein>
6NUR|6NUR_protein|mol2

> <Gold.PLP.Fitness>
43.6019

> <Gold.PLP.PLP>
-36.4053

> <Gold.PLP.part.hbond>
-2.0000

> <Gold.PLP.part.metal>
0.0000

> <Gold.PLP.part.buried>
-5.9031

> <Gold.PLP.part.nonpolar>
-31.6323

> <Gold.PLP.part.repulsive>
2.4258

> <Gold.PLP.ligand.clash>
0.0000

> <Gold.PLP.ligand.torsion>
0.9468

> <Gold.PLP.Chemscore.Hbond>
1.8447

> <Gold.PLP.Chemscore.CHOScore>
1.0000

> <Gold.PLP.Chemscore.Metal>
0.0000

> <Gold.Chemscore.Hbonds>
donor molecule, donor type, donor heavy atom, donor atom, acceptor molecule, acceptor atom, score
      L1  H     1    27       P1 10747  0.89
      P1  H 10785 10796       L1    25  0.94
      L1  C    21    43       P1  7957  1.00

> <Gold.PLP.Chemscore.Internal.Correction>
0.5559

> <Gold.Rescore>
     Score         DG    S(hbond)    S(metal)    S(lipo)     H(rot)  DE(clash)    DE(int)     intcor
      4.42      -9.86       1.81        0.00      50.58       2.96       0.71       4.74       ----

> <Gold.Chemscore.Fitness>
4.4208

> <Gold.Chemscore.DG>
-9.8621

> <Gold.Chemscore.ZeroCoef>
-5.4800

> <Gold.Chemscore.Hbond>
1.8122

> <Gold.Chemscore.Metal>
0.0000

> <Gold.Chemscore.Lipo>
50.5811

> <Gold.Chemscore.Internal_Hbond>
0.0000

> <Gold.Chemscore.DEClash>
0.7062

> <Gold.Chemscore.DEInternal>
4.7351

> <Gold.Chemscore.Rot>
2.9643

> <Gold.Chemscore.Internal.Correction>
   9.000000E+99

> <Gold.Chemscore.Hbonds>
donor molecule, donor type, donor heavy atom, donor atom, acceptor molecule, acceptor atom, score
      L1  H     1    27       P1 10747  0.86
      P1  H 10785 10796       L1    25  0.39

> <Gold.Chemscore.Hbond.Weighted>
-6.0527

> <Gold.Chemscore.Metal.Weighted>
-0.0000

> <Gold.Chemscore.Lipo.Weighted>
-5.9180

> <Gold.Chemscore.Internal_Hbond.Weighted>
0.0000

> <Gold.Chemscore.DEClash.Weighted>
0.7062

> <Gold.Chemscore.DEInternal.Weighted>
4.7351

> <Gold.Chemscore.Rot.Weighted>
7.5886

> <Gold.Chemscore.Internal.Correction.Weighted>
   9.000000E+99

> <Gold.Protein.RotatedTorsions>
[ 6907 6896 6895 6894 ] final   78.32 input  -60.11 | X-H torsion
[ 7974 7965 7964 7962 ] final  120.86 input  175.53 | X-H torsion
[ 8008 7997 7996 7995 ] final   -0.93 input   59.86 | X-H torsion
[ 10167 10162 10161 10158 ] final -120.43 input  -65.29 | X-H torsion
[ 10718 10713 10712 10709 ] final   57.79 input   66.30 | X-H torsion
[ 10763 10752 10751 10750 ] final  129.01 input  -60.55 | X-H torsion
[ 11005 11000 10999 10996 ] final  135.21 input  -57.11 | X-H torsion

> <Gold.Protein.ActiveResidues>
 VAL166  LYS551  ARG553  GLY616  TRP617  ASP618  TYR619  PRO620  LYS621  CYS622 
 ASP623  PHE694  ASN695  SER759  ASP760  ASP761  ALA762  ILE779  LEU786  VAL792 
 PHE793  MET794  SER795  GLU796  ALA797  LYS798  CYS799  TRP800  GLU811  SER814 

> <Gold.Protein.RotatedAtoms>
  152.5154  134.3682  159.9308 H   0  0  0  0  0  0  0  0  0  0  0  0  # atno 6907 bound_to 6896
  151.3636  133.3874  159.2700 H   0  0  0  0  0  0  0  0  0  0  0  0  # atno 6908 bound_to 6896
  150.9633  134.9037  159.7802 H   0  0  0  0  0  0  0  0  0  0  0  0  # atno 6909 bound_to 6896
  145.1261  139.3357  143.4689 H   0  0  0  0  0  0  0  0  0  0  0  0  # atno 7974 bound_to 7965
  154.6525  140.2572  155.7198 H   0  0  0  0  0  0  0  0  0  0  0  0  # atno 8008 bound_to 7997
  156.2581  140.2865  156.0885 H   0  0  0  0  0  0  0  0  0  0  0  0  # atno 8009 bound_to 7997
  155.1430  140.0380  157.2793 H   0  0  0  0  0  0  0  0  0  0  0  0  # atno 8010 bound_to 7997
  140.0359  143.5202  152.2154 H   0  0  0  0  0  0  0  0  0  0  0  0  # atno 10167 bound_to 10162
  157.5543  130.8788  149.9011 H   0  0  0  0  0  0  0  0  0  0  0  0  # atno 10718 bound_to 10713
  153.7347  135.3233  155.3293 H   0  0  0  0  0  0  0  0  0  0  0  0  # atno 10763 bound_to 10752
  154.8314  135.4530  154.1086 H   0  0  0  0  0  0  0  0  0  0  0  0  # atno 10764 bound_to 10752
  153.2244  135.6952  153.8044 H   0  0  0  0  0  0  0  0  0  0  0  0  # atno 10765 bound_to 10752
  139.9964  134.9495  156.9975 H   0  0  0  0  0  0  0  0  0  0  0  0  # atno 11005 bound_to 11000
  146.3517  140.1241  142.8599 LP  0  0  0  0  0  0  0  0  0  0  0  0  # atno 17320 bound_to 7965
  145.0686  140.9139  143.4895 LP  0  0  0  0  0  0  0  0  0  0  0  0  # atno 17321 bound_to 7965
  139.6045  144.7592  151.3093 LP  0  0  0  0  0  0  0  0  0  0  0  0  # atno 17342 bound_to 10162
  140.7282  143.6943  150.7896 LP  0  0  0  0  0  0  0  0  0  0  0  0  # atno 17343 bound_to 10162
  156.0604  130.3701  150.0994 LP  0  0  0  0  0  0  0  0  0  0  0  0  # atno 17370 bound_to 10713
  156.9164  130.9668  151.3555 LP  0  0  0  0  0  0  0  0  0  0  0  0  # atno 17371 bound_to 10713
  140.4809  134.1290  155.7217 LP  0  0  0  0  0  0  0  0  0  0  0  0  # atno 17394 bound_to 11000
  141.1608  133.8796  157.1853 LP  0  0  0  0  0  0  0  0  0  0  0  0  # atno 17395 bound_to 11000

$$$$
