AV-unprocessed.smi:1965|AV-procd|sdf|7933|dock3
  -GOLD-   2272010103D 1   1.00000     0.00000
 Structure written by MMmdl.
 37 39  0  0  0  0  0  0  0  0  2 V2000
  142.7081  136.1610  153.5173 O   0  0  0  0  0  0  0  0  0  0  0  0
  142.9274  137.3289  153.2011 C   0  0  0  0  0  0  0  0  0  0  0  0
  141.9401  138.2489  153.1877 N   0  0  0  0  0  0  0  0  0  0  0  0
  140.5526  138.1373  153.4932 C   0  0  0  0  0  0  0  0  0  0  0  0
  139.8464  136.9996  153.4597 N   0  0  0  0  0  0  0  0  0  0  0  0
  138.5019  137.2035  153.7803 C   0  0  0  0  0  0  0  0  0  0  0  0
  138.1951  138.5138  154.0485 C   0  0  0  0  0  0  0  0  0  0  0  0
  139.5901  139.5492  153.9064 S   0  0  0  0  0  0  0  0  0  0  0  0
  144.1483  137.7680  152.8535 N   0  0  0  0  0  0  0  0  0  0  0  0
  145.3666  136.9655  152.8728 C   0  0  1  0  0  0  0  0  0  0  0  0
  145.4815  136.0722  154.1013 C   0  0  0  0  0  0  0  0  0  0  0  0
  146.5122  135.0244  153.6690 C   0  0  0  0  0  0  0  0  0  0  0  0
  146.4246  134.9196  152.1916 N   0  3  1  0  0  0  0  0  0  0  0  0
  146.1556  133.5422  151.6985 C   0  0  0  0  0  0  0  0  0  0  0  0
  145.6935  133.5630  150.2339 C   0  0  0  0  0  0  0  0  0  0  0  0
  144.3746  134.3414  150.0696 C   0  0  0  0  0  0  0  0  0  0  0  0
  144.1501  135.3663  151.1977 C   0  0  0  0  0  0  0  0  0  0  0  0
  145.4848  135.9690  151.7040 C   0  0  1  0  0  0  0  0  0  0  0  0
  142.2128  139.1505  152.8236 H   0  0  0  0  0  0  0  0  0  0  0  0
  137.8300  136.3580  153.7921 H   0  0  0  0  0  0  0  0  0  0  0  0
  137.2362  138.9315  154.3171 H   0  0  0  0  0  0  0  0  0  0  0  0
  144.2431  138.7419  152.6017 H   0  0  0  0  0  0  0  0  0  0  0  0
  146.2350  137.6281  152.8622 H   0  0  0  0  0  0  0  0  0  0  0  0
  145.7835  136.6167  154.9965 H   0  0  0  0  0  0  0  0  0  0  0  0
  144.5259  135.5878  154.3082 H   0  0  0  0  0  0  0  0  0  0  0  0
  147.5176  135.3648  153.9195 H   0  0  0  0  0  0  0  0  0  0  0  0
  146.3559  134.0729  154.1790 H   0  0  0  0  0  0  0  0  0  0  0  0
  147.0597  132.9427  151.8080 H   0  0  0  0  0  0  0  0  0  0  0  0
  145.3862  133.0669  152.3094 H   0  0  0  0  0  0  0  0  0  0  0  0
  146.4702  134.0271  149.6243 H   0  0  0  0  0  0  0  0  0  0  0  0
  145.5759  132.5475  149.8546 H   0  0  0  0  0  0  0  0  0  0  0  0
  144.3782  134.8451  149.1022 H   0  0  0  0  0  0  0  0  0  0  0  0
  143.5313  133.6502  150.0478 H   0  0  0  0  0  0  0  0  0  0  0  0
  143.4761  136.1444  150.8382 H   0  0  0  0  0  0  0  0  0  0  0  0
  143.6351  134.8819  152.0287 H   0  0  0  0  0  0  0  0  0  0  0  0
  145.9556  136.4751  150.8598 H   0  0  0  0  0  0  0  0  0  0  0  0
  147.3333  135.1804  151.8359 H   0  0  0  0  0  0  0  0  0  0  0  0
  1  2  2  0  0  0  0
  2  3  1  0  0  0  0
  2  9  1  0  0  0  0
  3  4  1  0  0  0  0
  3 19  1  0  0  0  0
  4  8  1  0  0  0  0
  4  5  2  0  0  0  0
  5  6  1  0  0  0  0
  6  7  2  0  0  0  0
  6 20  1  0  0  0  0
  7  8  1  0  0  0  0
  7 21  1  0  0  0  0
  9 10  1  0  0  0  0
  9 22  1  0  0  0  0
 10 18  1  0  0  0  0
 10 11  1  0  0  0  0
 10 23  1  0  0  0  0
 11 12  1  0  0  0  0
 11 24  1  0  0  0  0
 11 25  1  0  0  0  0
 12 13  1  0  0  0  0
 12 26  1  0  0  0  0
 12 27  1  0  0  0  0
 13 18  1  0  0  0  0
 13 14  1  0  0  0  0
 13 37  1  0  0  0  0
 14 15  1  0  0  0  0
 14 28  1  0  0  0  0
 14 29  1  0  0  0  0
 15 16  1  0  0  0  0
 15 30  1  0  0  0  0
 15 31  1  0  0  0  0
 16 17  1  0  0  0  0
 16 32  1  0  0  0  0
 16 33  1  0  0  0  0
 17 18  1  0  0  0  0
 17 34  1  0  0  0  0
 17 35  1  0  0  0  0
 18 36  1  0  0  0  0
M  CHG  1  13   1
M  END
> <s_m_source_file>
AV-unprocessed.smi

> <i_m_source_file_index>
1965

> <i_lp_mmshare_version>
43012

> <i_f3d_flags>
0

> <s_epik_input>
czFbY0hdW2NIXW5jMVtOSF1DKD1PKVtOSF1bQ0BIXShbQ0gyXVtDSDJdMilbQ0BASF0oTjIzKVtDSDJdW0NIMl1bQ0gyXVtDSDJdMw==

> <s_epik_cmdline>
J2VwaWtfcHl0aG9uJywgJy1waCcsICc3LjAnLCAnLXRuJywgJzgnLCAnLW1hJywgJzIwMCcsICctbWV0YWxfYmluZGluZycsICctaW1hZScsICc8aW5maWxlLm1hZT4nLCAnLW9tYWUnLCAnPG91dGZpbGUubWFlPic=

> <r_lp_tautomer_probability>
1

> <r_epik_Ionization_Penalty>
0.00125962

> <r_epik_Ionization_Penalty_Charging>
0.00107044

> <r_epik_Ionization_Penalty_Neutral>
0.000189176

> <r_epik_State_Penalty>
-0

> <r_epik_Charging_Adjusted_Penalty>
0.00107044

> <i_epik_Tot_Q>
1

> <i_epik_Tot_abs_Q>
1

> <r_epik_Metal_State_Penalty>
0.0179285

> <b_epik_Metal_Only>
0

> <s_lp_Force_Field>
OPLS_2005

> <r_lp_Energy>
41.2924

> <b_lp_Chiralities_Consistent>
1

> <s_lp_Variant>
AV-unprocessed.smi:1965-2

> <Gold.Version>
5.8.1

> <Gold.Id.Protein>
6NUR|6NUR_protein|mol2

> <Gold.PLP.Fitness>
40.9971

> <Gold.PLP.PLP>
-30.1319

> <Gold.PLP.part.hbond>
-4.0000

> <Gold.PLP.part.metal>
0.0000

> <Gold.PLP.part.buried>
-3.2334

> <Gold.PLP.part.nonpolar>
-22.9581

> <Gold.PLP.part.repulsive>
0.2925

> <Gold.PLP.ligand.clash>
0.0000

> <Gold.PLP.ligand.torsion>
0.3291

> <Gold.PLP.Chemscore.Hbond>
3.8400

> <Gold.PLP.Chemscore.CHOScore>
0.0000

> <Gold.PLP.Chemscore.Metal>
0.0000

> <Gold.Chemscore.Hbonds>
donor molecule, donor type, donor heavy atom, donor atom, acceptor molecule, acceptor atom, score
      L1  H     3    19       P1 10175  1.00
      L1  H     9    22       P1 10175  1.00
      L1  H    13    37       P1  7948  2.00

> <Gold.PLP.Chemscore.Internal.Correction>
0.0034

> <Gold.Rescore>
     Score         DG    S(hbond)    S(metal)    S(lipo)     H(rot)  DE(clash)    DE(int)     intcor
     15.78     -18.77       2.75        0.00      57.07       1.00       0.13       2.87       ----

> <Gold.Chemscore.Fitness>
15.7775

> <Gold.Chemscore.DG>
-18.7742

> <Gold.Chemscore.ZeroCoef>
-5.4800

> <Gold.Chemscore.Hbond>
2.7475

> <Gold.Chemscore.Metal>
0.0000

> <Gold.Chemscore.Lipo>
57.0744

> <Gold.Chemscore.Internal_Hbond>
0.0000

> <Gold.Chemscore.DEClash>
0.1307

> <Gold.Chemscore.DEInternal>
2.8661

> <Gold.Chemscore.Rot>
1.0000

> <Gold.Chemscore.Internal.Correction>
   9.000000E+99

> <Gold.Chemscore.Hbonds>
donor molecule, donor type, donor heavy atom, donor atom, acceptor molecule, acceptor atom, score
      L1  H     3    19       P1 10175  0.90
      L1  H     9    22       P1 10175  0.98
      L1  H    13    37       P1  7948  0.94

> <Gold.Chemscore.Hbond.Weighted>
-9.1765

> <Gold.Chemscore.Metal.Weighted>
-0.0000

> <Gold.Chemscore.Lipo.Weighted>
-6.6777

> <Gold.Chemscore.Internal_Hbond.Weighted>
0.0000

> <Gold.Chemscore.DEClash.Weighted>
0.1307

> <Gold.Chemscore.DEInternal.Weighted>
2.8661

> <Gold.Chemscore.Rot.Weighted>
2.5600

> <Gold.Chemscore.Internal.Correction.Weighted>
   9.000000E+99

> <Gold.Protein.RotatedTorsions>
[ 6907 6896 6895 6894 ] final  129.40 input  -60.11 | X-H torsion
[ 7974 7965 7964 7962 ] final   95.38 input  175.53 | X-H torsion
[ 8008 7997 7996 7995 ] final  116.02 input   59.86 | X-H torsion
[ 10167 10162 10161 10158 ] final  144.58 input  -65.29 | X-H torsion
[ 10718 10713 10712 10709 ] final  177.37 input   66.30 | X-H torsion
[ 10763 10752 10751 10750 ] final  107.38 input  -60.55 | X-H torsion
[ 11005 11000 10999 10996 ] final -115.86 input  -57.11 | X-H torsion

> <Gold.Protein.ActiveResidues>
 VAL166  LYS551  ARG553  GLY616  TRP617  ASP618  TYR619  PRO620  LYS621  CYS622 
 ASP623  PHE694  ASN695  SER759  ASP760  ASP761  ALA762  ILE779  LEU786  VAL792 
 PHE793  MET794  SER795  GLU796  ALA797  LYS798  CYS799  TRP800  GLU811  SER814 

> <Gold.Protein.RotatedAtoms>
  152.3628  133.6318  159.6027 H   0  0  0  0  0  0  0  0  0  0  0  0  # atno 6907 bound_to 6896
  150.7613  133.9397  159.3461 H   0  0  0  0  0  0  0  0  0  0  0  0  # atno 6908 bound_to 6896
  151.7232  135.0891  160.0339 H   0  0  0  0  0  0  0  0  0  0  0  0  # atno 6909 bound_to 6896
  145.4530  139.2292  143.3029 H   0  0  0  0  0  0  0  0  0  0  0  0  # atno 7974 bound_to 7965
  156.2415  140.2926  156.0458 H   0  0  0  0  0  0  0  0  0  0  0  0  # atno 8008 bound_to 7997
  155.1936  140.0407  157.2922 H   0  0  0  0  0  0  0  0  0  0  0  0  # atno 8009 bound_to 7997
  154.6178  140.2468  155.7595 H   0  0  0  0  0  0  0  0  0  0  0  0  # atno 8010 bound_to 7997
  139.4944  144.5962  151.6578 H   0  0  0  0  0  0  0  0  0  0  0  0  # atno 10167 bound_to 10162
  156.9064  130.9895  151.3027 H   0  0  0  0  0  0  0  0  0  0  0  0  # atno 10718 bound_to 10713
  153.4060  135.3846  155.2019 H   0  0  0  0  0  0  0  0  0  0  0  0  # atno 10763 bound_to 10752
  154.8733  135.3782  154.4560 H   0  0  0  0  0  0  0  0  0  0  0  0  # atno 10764 bound_to 10752
  153.5063  135.7088  153.5867 H   0  0  0  0  0  0  0  0  0  0  0  0  # atno 10765 bound_to 10752
  141.0460  133.9762  157.2916 H   0  0  0  0  0  0  0  0  0  0  0  0  # atno 11005 bound_to 11000
  146.2494  140.5291  142.8900 LP  0  0  0  0  0  0  0  0  0  0  0  0  # atno 17320 bound_to 7965
  144.8050  140.6283  143.6453 LP  0  0  0  0  0  0  0  0  0  0  0  0  # atno 17321 bound_to 7965
  140.5600  144.0284  150.6165 LP  0  0  0  0  0  0  0  0  0  0  0  0  # atno 17342 bound_to 10162
  140.3367  143.3045  152.0631 LP  0  0  0  0  0  0  0  0  0  0  0  0  # atno 17343 bound_to 10162
  157.5994  130.8502  149.8779 LP  0  0  0  0  0  0  0  0  0  0  0  0  # atno 17370 bound_to 10713
  156.0557  130.3709  150.1097 LP  0  0  0  0  0  0  0  0  0  0  0  0  # atno 17371 bound_to 10713
  139.9312  135.0200  156.8407 LP  0  0  0  0  0  0  0  0  0  0  0  0  # atno 17394 bound_to 11000
  140.6145  134.0051  155.7591 LP  0  0  0  0  0  0  0  0  0  0  0  0  # atno 17395 bound_to 11000

$$$$
