AV-unprocessed.smi:1999|AV-procd|sdf|8098|dock2
  -GOLD-   2272010313D 1   1.00000     0.00000
 Structure written by MMmdl.
 38 39  0  0  0  0  0  0  0  0  3 V2000
  146.2291  136.3152  162.5762 C   0  0  0  0  0  0  0  0  0  0  0  0
  147.2210  136.1839  161.4716 C   0  0  0  0  0  0  0  0  0  0  0  0
  148.0750  137.1565  161.1431 N   0  0  0  0  0  0  0  0  0  0  0  0
  148.8957  136.7959  160.0846 N   0  0  0  0  0  0  0  0  0  0  0  0
  148.6437  135.5635  159.6206 C   0  0  0  0  0  0  0  0  0  0  0  0
  149.3268  135.0284  158.5954 N   0  5  0  0  0  0  0  0  0  0  0  0
  148.7604  134.0590  157.8444 C   0  0  0  0  0  0  0  0  0  0  0  0
  147.9957  133.1795  158.2462 O   0  0  0  0  0  0  0  0  0  0  0  0
  149.0723  134.1358  156.5417 N   0  0  0  0  0  0  0  0  0  0  0  0
  148.5345  133.3049  155.4626 C   0  0  2  0  0  0  0  0  0  0  0  0
  148.9533  131.8463  155.6898 C   0  0  0  0  0  0  0  0  0  0  0  0
  149.0091  133.8228  154.0855 C   0  0  0  0  0  0  0  0  0  0  0  0
  147.8876  134.0264  153.1340 N   0  3  0  0  0  0  0  0  0  0  0  0
  147.4257  132.7779  152.4859 C   0  0  0  0  0  0  0  0  0  0  0  0
  146.3443  133.0994  151.4400 C   0  0  0  0  0  0  0  0  0  0  0  0
  145.2687  133.7956  152.0600 O   0  0  0  0  0  0  0  0  0  0  0  0
  145.6882  135.0322  152.6257 C   0  0  0  0  0  0  0  0  0  0  0  0
  146.7412  134.7655  153.7135 C   0  0  0  0  0  0  0  0  0  0  0  0
  147.3556  134.7334  160.4919 S   0  0  0  0  0  0  0  0  0  0  0  0
  145.2416  136.5253  162.1655 H   0  0  0  0  0  0  0  0  0  0  0  0
  146.5096  137.1262  163.2490 H   0  0  0  0  0  0  0  0  0  0  0  0
  146.1816  135.3888  163.1488 H   0  0  0  0  0  0  0  0  0  0  0  0
  149.7125  134.8680  156.2697 H   0  0  0  0  0  0  0  0  0  0  0  0
  147.4444  133.3284  155.4945 H   0  0  0  0  0  0  0  0  0  0  0  0
  148.5464  131.1966  154.9145 H   0  0  0  0  0  0  0  0  0  0  0  0
  148.5898  131.4792  156.6502 H   0  0  0  0  0  0  0  0  0  0  0  0
  150.0384  131.7367  155.6807 H   0  0  0  0  0  0  0  0  0  0  0  0
  149.5169  134.7759  154.2419 H   0  0  0  0  0  0  0  0  0  0  0  0
  149.7508  133.1519  153.6495 H   0  0  0  0  0  0  0  0  0  0  0  0
  148.2651  132.2784  152.0004 H   0  0  0  0  0  0  0  0  0  0  0  0
  147.0335  132.0943  153.2405 H   0  0  0  0  0  0  0  0  0  0  0  0
  146.7569  133.6968  150.6250 H   0  0  0  0  0  0  0  0  0  0  0  0
  145.9621  132.1789  150.9984 H   0  0  0  0  0  0  0  0  0  0  0  0
  146.0871  135.6872  151.8490 H   0  0  0  0  0  0  0  0  0  0  0  0
  144.8229  135.5369  153.0555 H   0  0  0  0  0  0  0  0  0  0  0  0
  146.3021  134.1864  154.5272 H   0  0  0  0  0  0  0  0  0  0  0  0
  147.0745  135.7116  154.1392 H   0  0  0  0  0  0  0  0  0  0  0  0
  148.2598  134.6030  152.3913 H   0  0  0  0  0  0  0  0  0  0  0  0
  1  2  1  0  0  0  0
  1 20  1  0  0  0  0
  1 21  1  0  0  0  0
  1 22  1  0  0  0  0
  2 19  1  0  0  0  0
  2  3  2  0  0  0  0
  3  4  1  0  0  0  0
  4  5  2  0  0  0  0
  5  6  1  0  0  0  0
  5 19  1  0  0  0  0
  6  7  1  0  0  0  0
  7  8  2  0  0  0  0
  7  9  1  0  0  0  0
  9 10  1  0  0  0  0
  9 23  1  0  0  0  0
 10 11  1  0  0  0  0
 10 12  1  0  0  0  0
 10 24  1  0  0  0  0
 11 25  1  0  0  0  0
 11 26  1  0  0  0  0
 11 27  1  0  0  0  0
 12 13  1  0  0  0  0
 12 28  1  0  0  0  0
 12 29  1  0  0  0  0
 13 18  1  0  0  0  0
 13 14  1  0  0  0  0
 13 38  1  0  0  0  0
 14 15  1  0  0  0  0
 14 30  1  0  0  0  0
 14 31  1  0  0  0  0
 15 16  1  0  0  0  0
 15 32  1  0  0  0  0
 15 33  1  0  0  0  0
 16 17  1  0  0  0  0
 17 18  1  0  0  0  0
 17 34  1  0  0  0  0
 17 35  1  0  0  0  0
 18 36  1  0  0  0  0
 18 37  1  0  0  0  0
M  CHG  1   6  -1
M  CHG  1  13   1
M  END
> <s_m_source_file>
AV-unprocessed.smi

> <i_m_source_file_index>
1999

> <i_lp_mmshare_version>
43012

> <i_f3d_flags>
0

> <s_epik_input>
W0NIM11jMW5uYyhzMSlbTkhdQyg9TylbTkhdW0NASF0oW0NIM10pW0NIMl1OMltDSDJdW0NIMl1PW0NIMl1bQ0gyXTI=

> <s_epik_cmdline>
J2VwaWtfcHl0aG9uJywgJy1waCcsICc3LjAnLCAnLXRuJywgJzgnLCAnLW1hJywgJzIwMCcsICctbWV0YWxfYmluZGluZycsICctaW1hZScsICc8aW5maWxlLm1hZT4nLCAnLW9tYWUnLCAnPG91dGZpbGUubWFlPic=

> <r_lp_tautomer_probability>
1

> <r_epik_Ionization_Penalty>
3.39984

> <r_epik_Ionization_Penalty_Charging>
3.28696

> <r_epik_Ionization_Penalty_Neutral>
0.11288

> <r_epik_State_Penalty>
3.47917

> <r_epik_Charging_Adjusted_Penalty>
6.76613

> <i_epik_Tot_Q>
0

> <i_epik_Tot_abs_Q>
2

> <r_epik_Metal_State_Penalty>
1.13142

> <b_epik_Metal_Only>
1

> <s_lp_Force_Field>
OPLS_2005

> <r_lp_Energy>
12.288

> <b_lp_Chiralities_Consistent>
1

> <s_lp_Variant>
AV-unprocessed.smi:1999-7

> <Gold.Version>
5.8.1

> <Gold.Id.Protein>
6NUR|6NUR_protein|mol2

> <Gold.PLP.Fitness>
37.7596

> <Gold.PLP.PLP>
-22.9778

> <Gold.PLP.part.hbond>
-4.8768

> <Gold.PLP.part.metal>
0.0000

> <Gold.PLP.part.buried>
-0.8814

> <Gold.PLP.part.nonpolar>
-17.0735

> <Gold.PLP.part.repulsive>
0.1277

> <Gold.PLP.ligand.clash>
0.0000

> <Gold.PLP.ligand.torsion>
1.2690

> <Gold.PLP.Chemscore.Hbond>
5.6880

> <Gold.PLP.Chemscore.CHOScore>
0.0000

> <Gold.PLP.Chemscore.Metal>
0.0000

> <Gold.Chemscore.Hbonds>
donor molecule, donor type, donor heavy atom, donor atom, acceptor molecule, acceptor atom, score
      L1  H    13    38       P1  7948  1.90
      P1  H  6896  6908       L1     6  2.00
      P1  H  6931  6943       L1     3  1.00
      P1  H  6934  6947       L1     3  0.61

> <Gold.PLP.Chemscore.Internal.Correction>
0.2558

> <Gold.Rescore>
     Score         DG    S(hbond)    S(metal)    S(lipo)     H(rot)  DE(clash)    DE(int)     intcor
     11.30     -14.12       2.25        0.00      44.66       1.60       0.06       2.76       ----

> <Gold.Chemscore.Fitness>
11.2996

> <Gold.Chemscore.DG>
-14.1214

> <Gold.Chemscore.ZeroCoef>
-5.4800

> <Gold.Chemscore.Hbond>
2.2518

> <Gold.Chemscore.Metal>
0.0000

> <Gold.Chemscore.Lipo>
44.6649

> <Gold.Chemscore.Internal_Hbond>
0.0000

> <Gold.Chemscore.DEClash>
0.0601

> <Gold.Chemscore.DEInternal>
2.7617

> <Gold.Chemscore.Rot>
1.6036

> <Gold.Chemscore.Internal.Correction>
   9.000000E+99

> <Gold.Chemscore.Hbonds>
donor molecule, donor type, donor heavy atom, donor atom, acceptor molecule, acceptor atom, score
      L1  H    13    38       P1  7948  0.20
      P1  H  6896  6908       L1     6  0.15
      P1  H  6931  6943       L1     3  0.25
      P1  H  6934  6947       L1     3  0.47

> <Gold.Chemscore.Hbond.Weighted>
-7.5210

> <Gold.Chemscore.Metal.Weighted>
-0.0000

> <Gold.Chemscore.Lipo.Weighted>
-5.2258

> <Gold.Chemscore.Internal_Hbond.Weighted>
0.0000

> <Gold.Chemscore.DEClash.Weighted>
0.0601

> <Gold.Chemscore.DEInternal.Weighted>
2.7617

> <Gold.Chemscore.Rot.Weighted>
4.1053

> <Gold.Chemscore.Internal.Correction.Weighted>
   9.000000E+99

> <Gold.Protein.RotatedTorsions>
[ 6907 6896 6895 6894 ] final  141.08 input  -60.11 | X-H torsion
[ 7974 7965 7964 7962 ] final  -71.29 input  175.53 | X-H torsion
[ 8008 7997 7996 7995 ] final   -2.74 input   59.86 | X-H torsion
[ 10167 10162 10161 10158 ] final -131.76 input  -65.29 | X-H torsion
[ 10718 10713 10712 10709 ] final  -65.39 input   66.30 | X-H torsion
[ 10763 10752 10751 10750 ] final  168.81 input  -60.55 | X-H torsion
[ 11005 11000 10999 10996 ] final  -30.25 input  -57.11 | X-H torsion

> <Gold.Protein.ActiveResidues>
 VAL166  LYS551  ARG553  GLY616  TRP617  ASP618  TYR619  PRO620  LYS621  CYS622 
 ASP623  PHE694  ASN695  SER759  ASP760  ASP761  ALA762  ILE779  LEU786  VAL792 
 PHE793  MET794  SER795  GLU796  ALA797  LYS798  CYS799  TRP800  GLU811  SER814 

> <Gold.Protein.RotatedAtoms>
  152.2353  133.5091  159.5238 H   0  0  0  0  0  0  0  0  0  0  0  0  # atno 6907 bound_to 6896
  150.7049  134.1162  159.4027 H   0  0  0  0  0  0  0  0  0  0  0  0  # atno 6908 bound_to 6896
  151.9083  135.0349  160.0563 H   0  0  0  0  0  0  0  0  0  0  0  0  # atno 6909 bound_to 6896
  145.6799  140.9191  143.0837 H   0  0  0  0  0  0  0  0  0  0  0  0  # atno 7974 bound_to 7965
  154.6324  140.2526  155.7418 H   0  0  0  0  0  0  0  0  0  0  0  0  # atno 8008 bound_to 7997
  156.2486  140.2904  156.0601 H   0  0  0  0  0  0  0  0  0  0  0  0  # atno 8009 bound_to 7997
  155.1724  140.0387  157.2856 H   0  0  0  0  0  0  0  0  0  0  0  0  # atno 8010 bound_to 7997
  139.9155  143.6443  152.2565 H   0  0  0  0  0  0  0  0  0  0  0  0  # atno 10167 bound_to 10162
  156.0672  130.4246  150.1558 H   0  0  0  0  0  0  0  0  0  0  0  0  # atno 10718 bound_to 10713
  154.3739  135.2753  155.2250 H   0  0  0  0  0  0  0  0  0  0  0  0  # atno 10763 bound_to 10752
  154.4386  135.5960  153.6118 H   0  0  0  0  0  0  0  0  0  0  0  0  # atno 10764 bound_to 10752
  152.9837  135.6013  154.3974 H   0  0  0  0  0  0  0  0  0  0  0  0  # atno 10765 bound_to 10752
  140.9367  133.7304  156.1015 H   0  0  0  0  0  0  0  0  0  0  0  0  # atno 11005 bound_to 11000
  144.7029  139.8683  143.7439 LP  0  0  0  0  0  0  0  0  0  0  0  0  # atno 17320 bound_to 7965
  146.0973  139.3966  143.0369 LP  0  0  0  0  0  0  0  0  0  0  0  0  # atno 17321 bound_to 7965
  139.6906  144.7647  151.1446 LP  0  0  0  0  0  0  0  0  0  0  0  0  # atno 17342 bound_to 10162
  140.7675  143.5595  150.9115 LP  0  0  0  0  0  0  0  0  0  0  0  0  # atno 17343 bound_to 10162
  156.9616  130.9806  151.3478 LP  0  0  0  0  0  0  0  0  0  0  0  0  # atno 17370 bound_to 10713
  157.5721  130.8318  149.8406 LP  0  0  0  0  0  0  0  0  0  0  0  0  # atno 17371 bound_to 10713
  140.7790  134.3747  157.5491 LP  0  0  0  0  0  0  0  0  0  0  0  0  # atno 17394 bound_to 11000
  139.8809  134.9069  156.2934 LP  0  0  0  0  0  0  0  0  0  0  0  0  # atno 17395 bound_to 11000

$$$$
