AV-unprocessed.smi:261|AV-procd|sdf|1993|dock4
  -GOLD-   2262021183D 1   1.00000     0.00000
 Structure written by MMmdl.
 51 54  0  0  0  0  0  0  0  0  1 V2000
  151.4176  144.3389  159.5692 C   0  0  0  0  0  0  0  0  0  0  0  0
  152.5948  143.7908  158.9992 O   0  0  0  0  0  0  0  0  0  0  0  0
  152.4412  142.4489  158.5604 C   0  0  1  0  0  0  0  0  0  0  0  0
  152.1918  141.4596  159.7019 C   0  0  0  0  0  0  0  0  0  0  0  0
  151.4636  140.2826  159.0288 C   0  0  2  0  0  0  0  0  0  0  0  0
  152.4576  139.2002  158.5563 C   0  0  0  0  0  0  0  0  0  0  0  0
  152.3299  137.9555  159.0287 N   0  0  0  0  0  0  0  0  0  0  0  0
  153.3514  139.4976  157.7671 O   0  0  0  0  0  0  0  0  0  0  0  0
  150.7254  140.9259  157.9382 N   0  0  0  0  0  0  0  0  0  0  0  0
  149.5749  140.4469  157.3862 C   0  0  0  0  0  0  0  0  0  0  0  0
  148.6992  139.8062  158.2060 N   0  0  0  0  0  0  0  0  0  0  0  0
  147.5519  139.3131  157.7335 C   0  0  0  0  0  0  0  0  0  0  0  0
  147.0806  139.3501  156.4876 N   0  0  0  0  0  0  0  0  0  0  0  0
  147.9457  139.9942  155.6544 C   0  0  0  0  0  0  0  0  0  0  0  0
  149.2009  140.5691  156.0120 C   0  0  0  0  0  0  0  0  0  0  0  0
  149.7807  141.1385  154.8822 N   0  0  0  0  0  0  0  0  0  0  0  0
  148.9282  140.9107  153.9218 C   0  0  0  0  0  0  0  0  0  0  0  0
  147.7975  140.2265  154.2993 N   0  0  0  0  0  0  0  0  0  0  0  0
  146.6874  139.8352  153.4486 C   0  0  0  0  0  0  0  0  0  0  0  0
  146.8786  138.4296  152.8450 C   0  0  2  0  0  0  0  0  0  0  0  0
  147.6872  138.5297  151.6878 O   0  0  0  0  0  0  0  0  0  0  0  0
  145.5411  137.7667  152.4653 C   0  0  1  0  0  0  0  0  0  0  0  0
  145.6867  136.4471  151.7018 C   0  0  0  0  0  0  0  0  0  0  0  0
  144.4048  135.7329  152.0614 C   0  0  0  0  0  0  0  0  0  0  0  0
  144.2440  136.1238  153.5255 C   0  0  0  0  0  0  0  0  0  0  0  0
  144.8020  137.4296  153.6393 O   0  0  0  0  0  0  0  0  0  0  0  0
  151.1743  142.2975  157.7185 C   0  0  0  0  0  0  0  0  0  0  0  0
  153.3024  142.1309  157.9696 H   0  0  0  0  0  0  0  0  0  0  0  0
  150.7828  139.8403  159.7560 H   0  0  0  0  0  0  0  0  0  0  0  0
  151.6169  145.3561  159.9065 H   0  0  0  0  0  0  0  0  0  0  0  0
  151.0898  143.7579  160.4321 H   0  0  0  0  0  0  0  0  0  0  0  0
  150.6031  144.3821  158.8457 H   0  0  0  0  0  0  0  0  0  0  0  0
  153.1090  141.1716  160.2175 H   0  0  0  0  0  0  0  0  0  0  0  0
  151.5337  141.9144  160.4439 H   0  0  0  0  0  0  0  0  0  0  0  0
  152.9718  137.2361  158.7285 H   0  0  0  0  0  0  0  0  0  0  0  0
  151.5915  137.7404  159.6829 H   0  0  0  0  0  0  0  0  0  0  0  0
  146.9217  138.8184  158.4579 H   0  0  0  0  0  0  0  0  0  0  0  0
  149.1040  141.2349  152.9064 H   0  0  0  0  0  0  0  0  0  0  0  0
  145.7769  139.8708  154.0479 H   0  0  0  0  0  0  0  0  0  0  0  0
  146.5697  140.5796  152.6596 H   0  0  0  0  0  0  0  0  0  0  0  0
  147.3990  137.7966  153.5652 H   0  0  0  0  0  0  0  0  0  0  0  0
  148.2888  139.2489  151.8038 H   0  0  0  0  0  0  0  0  0  0  0  0
  144.9289  138.4545  151.8791 H   0  0  0  0  0  0  0  0  0  0  0  0
  145.8099  136.5886  150.6276 H   0  0  0  0  0  0  0  0  0  0  0  0
  146.5421  135.8793  152.0711 H   0  0  0  0  0  0  0  0  0  0  0  0
  143.5759  136.1263  151.4709 H   0  0  0  0  0  0  0  0  0  0  0  0
  144.4548  134.6543  151.9101 H   0  0  0  0  0  0  0  0  0  0  0  0
  143.2042  136.1029  153.8522 H   0  0  0  0  0  0  0  0  0  0  0  0
  144.8144  135.4479  154.1641 H   0  0  0  0  0  0  0  0  0  0  0  0
  150.4001  142.9848  158.0638 H   0  0  0  0  0  0  0  0  0  0  0  0
  151.3706  142.5015  156.6649 H   0  0  0  0  0  0  0  0  0  0  0  0
  1  2  1  0  0  0  0
  1 30  1  0  0  0  0
  1 31  1  0  0  0  0
  1 32  1  0  0  0  0
  2  3  1  0  0  0  0
  3 28  1  0  0  0  0
  3 27  1  0  0  0  0
  3  4  1  0  0  0  0
  4  5  1  0  0  0  0
  4 33  1  0  0  0  0
  4 34  1  0  0  0  0
  5 29  1  0  0  0  0
  5  6  1  0  0  0  0
  5  9  1  0  0  0  0
  6  7  1  0  0  0  0
  6  8  2  0  0  0  0
  7 35  1  0  0  0  0
  7 36  1  0  0  0  0
  9 10  1  0  0  0  0
  9 27  1  0  0  0  0
 10 15  1  0  0  0  0
 10 11  2  0  0  0  0
 11 12  1  0  0  0  0
 12 13  2  0  0  0  0
 12 37  1  0  0  0  0
 13 14  1  0  0  0  0
 14 18  1  0  0  0  0
 14 15  2  0  0  0  0
 15 16  1  0  0  0  0
 16 17  2  0  0  0  0
 17 18  1  0  0  0  0
 17 38  1  0  0  0  0
 18 19  1  0  0  0  0
 19 20  1  0  0  0  0
 19 39  1  0  0  0  0
 19 40  1  0  0  0  0
 20 21  1  0  0  0  0
 20 22  1  0  0  0  0
 20 41  1  0  0  0  0
 21 42  1  0  0  0  0
 22 26  1  0  0  0  0
 22 23  1  0  0  0  0
 22 43  1  0  0  0  0
 23 24  1  0  0  0  0
 23 44  1  0  0  0  0
 23 45  1  0  0  0  0
 24 25  1  0  0  0  0
 24 46  1  0  0  0  0
 24 47  1  0  0  0  0
 25 26  1  0  0  0  0
 25 48  1  0  0  0  0
 25 49  1  0  0  0  0
 27 50  1  0  0  0  0
 27 51  1  0  0  0  0
M  END
> <s_m_source_file>
AV-unprocessed.smi

> <i_m_source_file_index>
261

> <i_lp_mmshare_version>
43012

> <i_f3d_flags>
0

> <s_epik_input>
W0NIM11PW0NASF0xW0NIMl1bQ0BASF0oQyg9TylbTkgyXSlOKFtDSDJdMSljKG5bY0hdbjIpYyhjMjMpbltjSF1uM1tDSDJdW0NASF0oW09IXSlbQ0BASF00W0NIMl1bQ0gyXVtDSDJdTzQ=

> <s_epik_cmdline>
J2VwaWtfcHl0aG9uJywgJy1waCcsICc3LjAnLCAnLXRuJywgJzgnLCAnLW1hJywgJzIwMCcsICctbWV0YWxfYmluZGluZycsICctaW1hZScsICc8aW5maWxlLm1hZT4nLCAnLW9tYWUnLCAnPG91dGZpbGUubWFlPic=

> <r_lp_tautomer_probability>
1

> <r_epik_Ionization_Penalty>
0.000713824

> <r_epik_Ionization_Penalty_Charging>
0

> <r_epik_Ionization_Penalty_Neutral>
0.000713824

> <r_epik_State_Penalty>
0.000402132

> <r_epik_Charging_Adjusted_Penalty>
0.000402132

> <i_epik_Tot_Q>
0

> <i_epik_Tot_abs_Q>
0

> <r_epik_Metal_State_Penalty>
-0

> <b_epik_Metal_Only>
0

> <s_lp_Force_Field>
OPLS_2005

> <r_lp_Energy>
43.0256

> <b_lp_Chiralities_Consistent>
1

> <s_lp_Variant>
AV-unprocessed.smi:261-11

> <Gold.Version>
5.8.1

> <Gold.Id.Protein>
6NUR|6NUR_protein|mol2

> <Gold.PLP.Fitness>
44.5658

> <Gold.PLP.PLP>
-35.0039

> <Gold.PLP.part.hbond>
-5.6854

> <Gold.PLP.part.metal>
0.0000

> <Gold.PLP.part.buried>
-1.3738

> <Gold.PLP.part.nonpolar>
-28.8076

> <Gold.PLP.part.repulsive>
0.3806

> <Gold.PLP.ligand.clash>
0.0000

> <Gold.PLP.ligand.torsion>
1.4353

> <Gold.PLP.Chemscore.Hbond>
3.1060

> <Gold.PLP.Chemscore.CHOScore>
1.0000

> <Gold.PLP.Chemscore.Metal>
0.0000

> <Gold.Chemscore.Hbonds>
donor molecule, donor type, donor heavy atom, donor atom, acceptor molecule, acceptor atom, score
      L1  H    21    42       P1  7957  0.86
      P1  H  7954  7966       L1    21  0.98
      P1  H  7989  7998       L1    16  0.12
      P1  H  7997  8008       L1     8  1.00
      L1  C    17    38       P1  7957  1.00

> <Gold.PLP.Chemscore.Internal.Correction>
0.1146

> <Gold.Rescore>
     Score         DG    S(hbond)    S(metal)    S(lipo)     H(rot)  DE(clash)    DE(int)     intcor
     11.91     -14.06       2.21        0.00      79.87       3.18       0.90       1.25       ----

> <Gold.Chemscore.Fitness>
11.9102

> <Gold.Chemscore.DG>
-14.0558

> <Gold.Chemscore.ZeroCoef>
-5.4800

> <Gold.Chemscore.Hbond>
2.2094

> <Gold.Chemscore.Metal>
0.0000

> <Gold.Chemscore.Lipo>
79.8711

> <Gold.Chemscore.Internal_Hbond>
0.0000

> <Gold.Chemscore.DEClash>
0.8976

> <Gold.Chemscore.DEInternal>
1.2479

> <Gold.Chemscore.Rot>
3.1831

> <Gold.Chemscore.Internal.Correction>
   9.000000E+99

> <Gold.Chemscore.Hbonds>
donor molecule, donor type, donor heavy atom, donor atom, acceptor molecule, acceptor atom, score
      L1  H    21    42       P1  7957  0.84
      P1  H  7954  7966       L1    21  0.28
      P1  H  7989  7998       L1    16  0.01
      P1  H  7997  8008       L1     8  0.96

> <Gold.Chemscore.Hbond.Weighted>
-7.3795

> <Gold.Chemscore.Metal.Weighted>
-0.0000

> <Gold.Chemscore.Lipo.Weighted>
-9.3449

> <Gold.Chemscore.Internal_Hbond.Weighted>
0.0000

> <Gold.Chemscore.DEClash.Weighted>
0.8976

> <Gold.Chemscore.DEInternal.Weighted>
1.2479

> <Gold.Chemscore.Rot.Weighted>
8.1486

> <Gold.Chemscore.Internal.Correction.Weighted>
   9.000000E+99

> <Gold.Protein.RotatedTorsions>
[ 6907 6896 6895 6894 ] final   18.15 input  -60.11 | X-H torsion
[ 7974 7965 7964 7962 ] final   69.22 input  175.53 | X-H torsion
[ 8008 7997 7996 7995 ] final  -63.37 input   59.86 | X-H torsion
[ 10167 10162 10161 10158 ] final    8.95 input  -65.29 | X-H torsion
[ 10718 10713 10712 10709 ] final   -6.31 input   66.30 | X-H torsion
[ 10763 10752 10751 10750 ] final   28.91 input  -60.55 | X-H torsion
[ 11005 11000 10999 10996 ] final  101.63 input  -57.11 | X-H torsion

> <Gold.Protein.ActiveResidues>
 VAL166  LYS551  ARG553  GLY616  TRP617  ASP618  TYR619  PRO620  LYS621  CYS622 
 ASP623  PHE694  ASN695  SER759  ASP760  ASP761  ALA762  ILE779  LEU786  VAL792 
 PHE793  MET794  SER795  GLU796  ALA797  LYS798  CYS799  TRP800  GLU811  SER814 

> <Gold.Protein.RotatedAtoms>
  151.8608  135.0525  160.0468 H   0  0  0  0  0  0  0  0  0  0  0  0  # atno 6907 bound_to 6896
  152.2665  133.5339  159.5421 H   0  0  0  0  0  0  0  0  0  0  0  0  # atno 6908 bound_to 6896
  150.7135  134.0674  159.3895 H   0  0  0  0  0  0  0  0  0  0  0  0  # atno 6909 bound_to 6896
  145.7931  139.2944  143.1198 H   0  0  0  0  0  0  0  0  0  0  0  0  # atno 7974 bound_to 7965
  154.4550  140.0976  156.6731 H   0  0  0  0  0  0  0  0  0  0  0  0  # atno 8008 bound_to 7997
  155.5166  140.3478  155.4380 H   0  0  0  0  0  0  0  0  0  0  0  0  # atno 8009 bound_to 7997
  156.0760  140.1361  156.9760 H   0  0  0  0  0  0  0  0  0  0  0  0  # atno 8010 bound_to 7997
  140.6284  143.8049  150.7263 H   0  0  0  0  0  0  0  0  0  0  0  0  # atno 10167 bound_to 10162
  156.7338  130.5188  149.5839 H   0  0  0  0  0  0  0  0  0  0  0  0  # atno 10718 bound_to 10713
  153.0462  135.6502  154.0810 H   0  0  0  0  0  0  0  0  0  0  0  0  # atno 10763 bound_to 10752
  154.0507  135.2896  155.3342 H   0  0  0  0  0  0  0  0  0  0  0  0  # atno 10764 bound_to 10752
  154.6721  135.5352  153.8218 H   0  0  0  0  0  0  0  0  0  0  0  0  # atno 10765 bound_to 10752
  139.8774  134.9191  156.4936 H   0  0  0  0  0  0  0  0  0  0  0  0  # atno 11005 bound_to 11000
  145.9956  140.8565  143.0044 LP  0  0  0  0  0  0  0  0  0  0  0  0  # atno 17320 bound_to 7965
  144.6779  140.2278  143.7359 LP  0  0  0  0  0  0  0  0  0  0  0  0  # atno 17321 bound_to 7965
  140.1655  143.4239  152.2037 LP  0  0  0  0  0  0  0  0  0  0  0  0  # atno 17342 bound_to 10162
  139.5501  144.7330  151.4461 LP  0  0  0  0  0  0  0  0  0  0  0  0  # atno 17343 bound_to 10162
  156.1511  130.6310  151.0597 LP  0  0  0  0  0  0  0  0  0  0  0  0  # atno 17370 bound_to 10713
  157.6848  131.0828  150.7273 LP  0  0  0  0  0  0  0  0  0  0  0  0  # atno 17371 bound_to 10713
  140.8640  133.8038  155.9295 LP  0  0  0  0  0  0  0  0  0  0  0  0  # atno 17394 bound_to 11000
  140.9020  134.2367  157.5036 LP  0  0  0  0  0  0  0  0  0  0  0  0  # atno 17395 bound_to 11000

$$$$
