AV-unprocessed.smi:1386|AV-procd|sdf|5638|dock7
  -GOLD-   22720 5253D 1   1.00000     0.00000
 Structure written by MMmdl.
 35 36  0  0  0  0  0  0  0  0  1 V2000
  149.2884  139.7016  157.4991 C   0  0  0  0  0  0  0  0  0  0  0  0
  149.6559  141.1523  157.1537 C   0  0  2  0  0  0  0  0  0  0  0  0
  149.9416  141.3224  155.6495 C   0  0  0  0  0  0  0  0  0  0  0  0
  148.7671  141.0659  154.8361 N   0  0  0  0  0  0  0  0  0  0  0  0
  147.5807  141.7871  154.8259 C   0  0  0  0  0  0  0  0  0  0  0  0
  146.7642  141.1870  153.8940 C   0  0  0  0  0  0  0  0  0  0  0  0
  147.4230  140.1006  153.3232 N   0  0  0  0  0  0  0  0  0  0  0  0
  148.6017  140.0904  153.9319 C   0  0  0  0  0  0  0  0  0  0  0  0
  150.8219  141.5672  157.9309 N   0  0  0  0  0  0  0  0  0  0  0  0
  150.8899  142.6367  158.7417 C   0  0  0  0  0  0  0  0  0  0  0  0
  149.9196  143.3669  158.9475 O   0  0  0  0  0  0  0  0  0  0  0  0
  152.1105  142.8485  159.2967 N   0  0  0  0  0  0  0  0  0  0  0  0
  153.2149  141.8765  159.3589 C   0  0  0  0  0  0  0  0  0  0  0  0
  153.2099  141.1994  160.7392 C   0  0  0  0  0  0  0  0  0  0  0  0
  153.5044  142.4158  162.0608 S   0  0  0  0  0  0  0  0  0  0  0  0
  152.2784  143.6785  161.5954 C   0  0  0  0  0  0  0  0  0  0  0  0
  152.3939  144.0404  160.1048 C   0  0  0  0  0  0  0  0  0  0  0  0
  148.4067  139.3784  156.9453 H   0  0  0  0  0  0  0  0  0  0  0  0
  149.0659  139.5927  158.5612 H   0  0  0  0  0  0  0  0  0  0  0  0
  150.1022  139.0170  157.2573 H   0  0  0  0  0  0  0  0  0  0  0  0
  148.8042  141.7868  157.4069 H   0  0  0  0  0  0  0  0  0  0  0  0
  150.3053  142.3286  155.4359 H   0  0  0  0  0  0  0  0  0  0  0  0
  150.7260  140.6330  155.3349 H   0  0  0  0  0  0  0  0  0  0  0  0
  147.4216  142.6453  155.4620 H   0  0  0  0  0  0  0  0  0  0  0  0
  145.7616  141.4518  153.5926 H   0  0  0  0  0  0  0  0  0  0  0  0
  149.3662  139.3606  153.7095 H   0  0  0  0  0  0  0  0  0  0  0  0
  151.6593  141.0155  157.8163 H   0  0  0  0  0  0  0  0  0  0  0  0
  153.1687  141.1229  158.5725 H   0  0  0  0  0  0  0  0  0  0  0  0
  154.1662  142.3859  159.1992 H   0  0  0  0  0  0  0  0  0  0  0  0
  152.2555  140.7025  160.9167 H   0  0  0  0  0  0  0  0  0  0  0  0
  153.9839  140.4336  160.7909 H   0  0  0  0  0  0  0  0  0  0  0  0
  151.2789  143.3040  161.8195 H   0  0  0  0  0  0  0  0  0  0  0  0
  152.4345  144.5623  162.2141 H   0  0  0  0  0  0  0  0  0  0  0  0
  153.3941  144.4159  159.8846 H   0  0  0  0  0  0  0  0  0  0  0  0
  151.7186  144.8645  159.8694 H   0  0  0  0  0  0  0  0  0  0  0  0
  1  2  1  0  0  0  0
  1 18  1  0  0  0  0
  1 19  1  0  0  0  0
  1 20  1  0  0  0  0
  2  3  1  0  0  0  0
  2  9  1  0  0  0  0
  2 21  1  0  0  0  0
  3  4  1  0  0  0  0
  3 22  1  0  0  0  0
  3 23  1  0  0  0  0
  4  8  1  0  0  0  0
  4  5  1  0  0  0  0
  5  6  2  0  0  0  0
  5 24  1  0  0  0  0
  6  7  1  0  0  0  0
  6 25  1  0  0  0  0
  7  8  2  0  0  0  0
  8 26  1  0  0  0  0
  9 10  1  0  0  0  0
  9 27  1  0  0  0  0
 10 11  2  0  0  0  0
 10 12  1  0  0  0  0
 12 17  1  0  0  0  0
 12 13  1  0  0  0  0
 13 14  1  0  0  0  0
 13 28  1  0  0  0  0
 13 29  1  0  0  0  0
 14 15  1  0  0  0  0
 14 30  1  0  0  0  0
 14 31  1  0  0  0  0
 15 16  1  0  0  0  0
 16 17  1  0  0  0  0
 16 32  1  0  0  0  0
 16 33  1  0  0  0  0
 17 34  1  0  0  0  0
 17 35  1  0  0  0  0
M  END
> <s_m_source_file>
AV-unprocessed.smi

> <i_m_source_file_index>
1386

> <i_lp_mmshare_version>
43012

> <i_f3d_flags>
0

> <s_epik_input>
W2NIXTFuW2NIXVtjSF1uMVtDSDJdW0NAQEhdKFtDSDNdKVtOSF1DKD1PKU4yW0NIMl1bQ0gyXVNbQ0gyXVtDSDJdMg==

> <s_epik_cmdline>
J2VwaWtfcHl0aG9uJywgJy1waCcsICc3LjAnLCAnLXRuJywgJzgnLCAnLW1hJywgJzIwMCcsICctbWV0YWxfYmluZGluZycsICctaW1hZScsICc8aW5maWxlLm1hZT4nLCAnLW9tYWUnLCAnPG91dGZpbGUubWFlPic=

> <r_lp_tautomer_probability>
1

> <r_epik_Ionization_Penalty>
0.622677

> <r_epik_Ionization_Penalty_Charging>
0.62263

> <r_epik_Ionization_Penalty_Neutral>
4.67019e-05

> <r_epik_State_Penalty>
0.63879

> <r_epik_Charging_Adjusted_Penalty>
1.26142

> <i_epik_Tot_Q>
0

> <i_epik_Tot_abs_Q>
0

> <r_epik_Metal_State_Penalty>
0.307117

> <b_epik_Metal_Only>
0

> <s_lp_Force_Field>
OPLS_2005

> <r_lp_Energy>
25.5009

> <b_lp_Chiralities_Consistent>
1

> <s_lp_Variant>
AV-unprocessed.smi:1386-3

> <Gold.Version>
5.8.1

> <Gold.Id.Protein>
6NUR|6NUR_protein|mol2

> <Gold.PLP.Fitness>
42.8627

> <Gold.PLP.PLP>
-36.4477

> <Gold.PLP.part.hbond>
-0.1108

> <Gold.PLP.part.metal>
0.0000

> <Gold.PLP.part.buried>
-3.5274

> <Gold.PLP.part.nonpolar>
-34.2438

> <Gold.PLP.part.repulsive>
0.9215

> <Gold.PLP.ligand.clash>
0.0000

> <Gold.PLP.ligand.torsion>
0.1268

> <Gold.PLP.Chemscore.Hbond>
0.0000

> <Gold.PLP.Chemscore.CHOScore>
2.2107

> <Gold.PLP.Chemscore.Metal>
0.0000

> <Gold.Chemscore.Hbonds>
donor molecule, donor type, donor heavy atom, donor atom, acceptor molecule, acceptor atom, score
      L1  C     5    24       P1  8028  0.96
      L1  C     6    25       P1 10175  0.97
      L1  C     8    26       P1  7957  0.22

> <Gold.PLP.Chemscore.Internal.Correction>
0.0366

> <Gold.Rescore>
     Score         DG    S(hbond)    S(metal)    S(lipo)     H(rot)  DE(clash)    DE(int)     intcor
     10.90     -11.04       0.00        0.00      82.30       1.59       0.01       0.13       ----

> <Gold.Chemscore.Fitness>
10.9035

> <Gold.Chemscore.DG>
-11.0383

> <Gold.Chemscore.ZeroCoef>
-5.4800

> <Gold.Chemscore.Hbond>
0.0000

> <Gold.Chemscore.Metal>
0.0000

> <Gold.Chemscore.Lipo>
82.2984

> <Gold.Chemscore.Internal_Hbond>
0.0000

> <Gold.Chemscore.DEClash>
0.0096

> <Gold.Chemscore.DEInternal>
0.1252

> <Gold.Chemscore.Rot>
1.5901

> <Gold.Chemscore.Internal.Correction>
   9.000000E+99

> <Gold.Chemscore.Hbond.Weighted>
-0.0000

> <Gold.Chemscore.Metal.Weighted>
-0.0000

> <Gold.Chemscore.Lipo.Weighted>
-9.6289

> <Gold.Chemscore.Internal_Hbond.Weighted>
0.0000

> <Gold.Chemscore.DEClash.Weighted>
0.0096

> <Gold.Chemscore.DEInternal.Weighted>
0.1252

> <Gold.Chemscore.Rot.Weighted>
4.0706

> <Gold.Chemscore.Internal.Correction.Weighted>
   9.000000E+99

> <Gold.Protein.RotatedTorsions>
[ 6907 6896 6895 6894 ] final -159.54 input  -60.11 | X-H torsion
[ 7974 7965 7964 7962 ] final   27.12 input  175.53 | X-H torsion
[ 8008 7997 7996 7995 ] final  -49.95 input   59.86 | X-H torsion
[ 10167 10162 10161 10158 ] final   29.79 input  -65.29 | X-H torsion
[ 10718 10713 10712 10709 ] final  -53.87 input   66.30 | X-H torsion
[ 10763 10752 10751 10750 ] final   58.24 input  -60.55 | X-H torsion
[ 11005 11000 10999 10996 ] final  -52.24 input  -57.11 | X-H torsion

> <Gold.Protein.ActiveResidues>
 VAL166  LYS551  ARG553  GLY616  TRP617  ASP618  TYR619  PRO620  LYS621  CYS622 
 ASP623  PHE694  ASN695  SER759  ASP760  ASP761  ALA762  ILE779  LEU786  VAL792 
 PHE793  MET794  SER795  GLU796  ALA797  LYS798  CYS799  TRP800  GLU811  SER814 

> <Gold.Protein.RotatedAtoms>
  151.3352  133.3984  159.2665 H   0  0  0  0  0  0  0  0  0  0  0  0  # atno 6907 bound_to 6896
  150.9923  134.9256  159.7917 H   0  0  0  0  0  0  0  0  0  0  0  0  # atno 6908 bound_to 6896
  152.5251  134.3317  159.9237 H   0  0  0  0  0  0  0  0  0  0  0  0  # atno 6909 bound_to 6896
  146.1801  139.7235  142.8906 H   0  0  0  0  0  0  0  0  0  0  0  0  # atno 7974 bound_to 7965
  154.4053  140.1284  156.4585 H   0  0  0  0  0  0  0  0  0  0  0  0  # atno 8008 bound_to 7997
  155.7296  140.3491  155.5033 H   0  0  0  0  0  0  0  0  0  0  0  0  # atno 8009 bound_to 7997
  155.9140  140.1041  157.1248 H   0  0  0  0  0  0  0  0  0  0  0  0  # atno 8010 bound_to 7997
  140.4735  144.0726  150.6244 H   0  0  0  0  0  0  0  0  0  0  0  0  # atno 10167 bound_to 10162
  156.1498  130.4151  149.9963 H   0  0  0  0  0  0  0  0  0  0  0  0  # atno 10718 bound_to 10713
  152.9866  135.5613  154.5521 H   0  0  0  0  0  0  0  0  0  0  0  0  # atno 10763 bound_to 10752
  154.4956  135.2795  155.1464 H   0  0  0  0  0  0  0  0  0  0  0  0  # atno 10764 bound_to 10752
  154.2916  135.6325  153.5440 H   0  0  0  0  0  0  0  0  0  0  0  0  # atno 10765 bound_to 10752
  141.0914  133.6632  156.3995 H   0  0  0  0  0  0  0  0  0  0  0  0  # atno 11005 bound_to 11000
  145.4099  141.0395  143.3023 LP  0  0  0  0  0  0  0  0  0  0  0  0  # atno 17320 bound_to 7965
  144.8301  139.5642  143.6947 LP  0  0  0  0  0  0  0  0  0  0  0  0  # atno 17321 bound_to 7965
  140.3948  143.2734  152.0018 LP  0  0  0  0  0  0  0  0  0  0  0  0  # atno 17342 bound_to 10162
  139.4822  144.6047  151.7542 LP  0  0  0  0  0  0  0  0  0  0  0  0  # atno 17343 bound_to 10162
  156.7824  130.9226  151.3646 LP  0  0  0  0  0  0  0  0  0  0  0  0  # atno 17370 bound_to 10713
  157.6647  130.8997  149.9907 LP  0  0  0  0  0  0  0  0  0  0  0  0  # atno 17371 bound_to 10713
  140.5243  134.6274  157.5329 LP  0  0  0  0  0  0  0  0  0  0  0  0  # atno 17394 bound_to 11000
  139.9741  134.7245  155.9985 LP  0  0  0  0  0  0  0  0  0  0  0  0  # atno 17395 bound_to 11000

$$$$
