AV-unprocessed.smi:1758|AV-procd|sdf|7082|dock9
  -GOLD-   22720 8303D 1   1.00000     0.00000
 Structure written by MMmdl.
 44 46  0  0  0  0  0  0  0  0  2 V2000
  142.8222  134.6980  153.0390 C   0  0  0  0  0  0  0  0  0  0  0  0
  143.5989  134.9096  151.7336 C   0  0  0  0  0  0  0  0  0  0  0  0
  144.2271  133.6852  151.2775 N   0  0  0  0  0  0  0  0  0  0  0  0
  145.3323  133.0454  151.8029 C   0  0  0  0  0  0  0  0  0  0  0  0
  145.5194  131.9361  151.0274 C   0  0  0  0  0  0  0  0  0  0  0  0
  146.5035  130.9213  151.1309 N   0  0  0  0  0  0  0  0  0  0  0  0
  146.3330  129.6629  151.5672 C   0  0  0  0  0  0  0  0  0  0  0  0
  145.2732  129.1933  151.9807 O   0  0  0  0  0  0  0  0  0  0  0  0
  147.4798  128.9700  151.5146 N   0  0  0  0  0  0  0  0  0  0  0  0
  147.6437  127.5761  151.9239 C   0  0  1  0  0  0  0  0  0  0  0  0
  148.2794  126.6991  150.8279 C   0  0  0  0  0  0  0  0  0  0  0  0
  149.2541  125.7867  151.5796 C   0  0  0  0  0  0  0  0  0  0  0  0
  149.7196  126.6412  152.6778 N   0  3  2  0  0  0  0  0  0  0  0  0
  150.5029  126.0278  153.7692 C   0  0  0  0  0  0  0  0  0  0  0  0
  151.0270  127.1553  154.6844 C   0  0  0  0  0  0  0  0  0  0  0  0
  149.8966  128.0957  155.1612 C   0  0  0  0  0  0  0  0  0  0  0  0
  149.0331  128.5985  153.9839 C   0  0  0  0  0  0  0  0  0  0  0  0
  148.5474  127.3884  153.1659 C   0  0  1  0  0  0  0  0  0  0  0  0
  144.4899  131.9673  150.0512 C   0  0  0  0  0  0  0  0  0  0  0  0
  143.7149  133.0296  150.2066 N   0  0  0  0  0  0  0  0  0  0  0  0
  142.3669  135.6302  153.3741 H   0  0  0  0  0  0  0  0  0  0  0  0
  143.4786  134.3435  153.8341 H   0  0  0  0  0  0  0  0  0  0  0  0
  142.0246  133.9655  152.9112 H   0  0  0  0  0  0  0  0  0  0  0  0
  142.9343  135.2762  150.9502 H   0  0  0  0  0  0  0  0  0  0  0  0
  144.3711  135.6666  151.8750 H   0  0  0  0  0  0  0  0  0  0  0  0
  145.8631  133.4290  152.6617 H   0  0  0  0  0  0  0  0  0  0  0  0
  147.4352  131.1841  150.8451 H   0  0  0  0  0  0  0  0  0  0  0  0
  148.2998  129.4408  151.1607 H   0  0  0  0  0  0  0  0  0  0  0  0
  146.6611  127.1579  152.1523 H   0  0  0  0  0  0  0  0  0  0  0  0
  147.5394  126.1381  150.2564 H   0  0  0  0  0  0  0  0  0  0  0  0
  148.8380  127.3178  150.1237 H   0  0  0  0  0  0  0  0  0  0  0  0
  148.7333  124.9168  151.9833 H   0  0  0  0  0  0  0  0  0  0  0  0
  150.0767  125.4403  150.9535 H   0  0  0  0  0  0  0  0  0  0  0  0
  149.8835  125.3259  154.3295 H   0  0  0  0  0  0  0  0  0  0  0  0
  151.3374  125.4632  153.3521 H   0  0  0  0  0  0  0  0  0  0  0  0
  151.5464  126.7292  155.5432 H   0  0  0  0  0  0  0  0  0  0  0  0
  151.7686  127.7409  154.1394 H   0  0  0  0  0  0  0  0  0  0  0  0
  149.2620  127.5615  155.8696 H   0  0  0  0  0  0  0  0  0  0  0  0
  150.3173  128.9419  155.7054 H   0  0  0  0  0  0  0  0  0  0  0  0
  148.1856  129.1677  154.3668 H   0  0  0  0  0  0  0  0  0  0  0  0
  149.6149  129.2741  153.3555 H   0  0  0  0  0  0  0  0  0  0  0  0
  147.9995  126.7291  153.8430 H   0  0  0  0  0  0  0  0  0  0  0  0
  144.2831  131.2709  149.2522 H   0  0  0  0  0  0  0  0  0  0  0  0
  150.3233  127.3255  152.2450 H   0  0  0  0  0  0  0  0  0  0  0  0
  1  2  1  0  0  0  0
  1 21  1  0  0  0  0
  1 22  1  0  0  0  0
  1 23  1  0  0  0  0
  2  3  1  0  0  0  0
  2 24  1  0  0  0  0
  2 25  1  0  0  0  0
  3 20  1  0  0  0  0
  3  4  1  0  0  0  0
  4  5  2  0  0  0  0
  4 26  1  0  0  0  0
  5  6  1  0  0  0  0
  5 19  1  0  0  0  0
  6  7  1  0  0  0  0
  6 27  1  0  0  0  0
  7  8  2  0  0  0  0
  7  9  1  0  0  0  0
  9 10  1  0  0  0  0
  9 28  1  0  0  0  0
 10 18  1  0  0  0  0
 10 11  1  0  0  0  0
 10 29  1  0  0  0  0
 11 12  1  0  0  0  0
 11 30  1  0  0  0  0
 11 31  1  0  0  0  0
 12 13  1  0  0  0  0
 12 32  1  0  0  0  0
 12 33  1  0  0  0  0
 13 18  1  0  0  0  0
 13 14  1  0  0  0  0
 13 44  1  0  0  0  0
 14 15  1  0  0  0  0
 14 34  1  0  0  0  0
 14 35  1  0  0  0  0
 15 16  1  0  0  0  0
 15 36  1  0  0  0  0
 15 37  1  0  0  0  0
 16 17  1  0  0  0  0
 16 38  1  0  0  0  0
 16 39  1  0  0  0  0
 17 18  1  0  0  0  0
 17 40  1  0  0  0  0
 17 41  1  0  0  0  0
 18 42  1  0  0  0  0
 19 20  2  0  0  0  0
 19 43  1  0  0  0  0
M  CHG  1  13   1
M  END
> <s_m_source_file>
AV-unprocessed.smi

> <i_m_source_file_index>
1758

> <i_lp_mmshare_version>
43012

> <i_f3d_flags>
0

> <s_epik_input>
W0NIM11bQ0gyXW4xW2NIXWMoW2NIXW4xKVtOSF1DKD1PKVtOSF1bQ0BIXShbQ0gyXVtDSDJdMilbQ0BASF0oTjIzKVtDSDJdW0NIMl1bQ0gyXVtDSDJdMw==

> <s_epik_cmdline>
J2VwaWtfcHl0aG9uJywgJy1waCcsICc3LjAnLCAnLXRuJywgJzgnLCAnLW1hJywgJzIwMCcsICctbWV0YWxfYmluZGluZycsICctaW1hZScsICc8aW5maWxlLm1hZT4nLCAnLW9tYWUnLCAnPG91dGZpbGUubWFlPic=

> <r_lp_tautomer_probability>
1

> <r_epik_Ionization_Penalty>
0.00111541

> <r_epik_Ionization_Penalty_Charging>
0.000974069

> <r_epik_Ionization_Penalty_Neutral>
0.000141346

> <r_epik_State_Penalty>
0.000633842

> <r_epik_Charging_Adjusted_Penalty>
0.00160791

> <i_epik_Tot_Q>
1

> <i_epik_Tot_abs_Q>
1

> <r_epik_Metal_State_Penalty>
-0

> <b_epik_Metal_Only>
0

> <s_lp_Force_Field>
OPLS_2005

> <r_lp_Energy>
45.3498

> <b_lp_Chiralities_Consistent>
1

> <s_lp_Variant>
AV-unprocessed.smi:1758-4

> <Gold.Version>
5.8.1

> <Gold.Id.Protein>
6NUR|6NUR_protein|mol2

> <Gold.PLP.Fitness>
41.7690

> <Gold.PLP.PLP>
-34.8226

> <Gold.PLP.part.hbond>
-3.0000

> <Gold.PLP.part.metal>
0.0000

> <Gold.PLP.part.buried>
-4.7412

> <Gold.PLP.part.nonpolar>
-27.5721

> <Gold.PLP.part.repulsive>
0.4962

> <Gold.PLP.ligand.clash>
0.0000

> <Gold.PLP.ligand.torsion>
0.8832

> <Gold.PLP.Chemscore.Hbond>
2.9040

> <Gold.PLP.Chemscore.CHOScore>
0.0000

> <Gold.PLP.Chemscore.Metal>
0.0000

> <Gold.Chemscore.Hbonds>
donor molecule, donor type, donor heavy atom, donor atom, acceptor molecule, acceptor atom, score
      L1  H     6    27       P1 10747  1.00
      L1  H     9    28       P1 10747  0.99
      L1  H    13    44       P1 10737  0.91

> <Gold.PLP.Chemscore.Internal.Correction>
0.0008

> <Gold.Rescore>
     Score         DG    S(hbond)    S(metal)    S(lipo)     H(rot)  DE(clash)    DE(int)     intcor
     17.95     -18.95       2.35        0.00      74.05       1.19       0.12       0.88       ----

> <Gold.Chemscore.Fitness>
17.9504

> <Gold.Chemscore.DG>
-18.9484

> <Gold.Chemscore.ZeroCoef>
-5.4800

> <Gold.Chemscore.Hbond>
2.3493

> <Gold.Chemscore.Metal>
0.0000

> <Gold.Chemscore.Lipo>
74.0519

> <Gold.Chemscore.Internal_Hbond>
0.0000

> <Gold.Chemscore.DEClash>
0.1172

> <Gold.Chemscore.DEInternal>
0.8808

> <Gold.Chemscore.Rot>
1.1884

> <Gold.Chemscore.Internal.Correction>
   9.000000E+99

> <Gold.Chemscore.Hbonds>
donor molecule, donor type, donor heavy atom, donor atom, acceptor molecule, acceptor atom, score
      L1  H     6    27       P1 10747  0.97
      L1  H     9    28       P1 10747  0.28
      L1  H    13    44       P1 10737  0.90

> <Gold.Chemscore.Hbond.Weighted>
-7.8466

> <Gold.Chemscore.Metal.Weighted>
-0.0000

> <Gold.Chemscore.Lipo.Weighted>
-8.6641

> <Gold.Chemscore.Internal_Hbond.Weighted>
0.0000

> <Gold.Chemscore.DEClash.Weighted>
0.1172

> <Gold.Chemscore.DEInternal.Weighted>
0.8808

> <Gold.Chemscore.Rot.Weighted>
3.0423

> <Gold.Chemscore.Internal.Correction.Weighted>
   9.000000E+99

> <Gold.Protein.RotatedTorsions>
[ 6907 6896 6895 6894 ] final -139.13 input  -60.11 | X-H torsion
[ 7974 7965 7964 7962 ] final -124.52 input  175.53 | X-H torsion
[ 8008 7997 7996 7995 ] final   74.89 input   59.86 | X-H torsion
[ 10167 10162 10161 10158 ] final  128.48 input  -65.29 | X-H torsion
[ 10718 10713 10712 10709 ] final   74.34 input   66.30 | X-H torsion
[ 10763 10752 10751 10750 ] final  -13.16 input  -60.55 | X-H torsion
[ 11005 11000 10999 10996 ] final   53.07 input  -57.11 | X-H torsion

> <Gold.Protein.ActiveResidues>
 VAL166  LYS551  ARG553  GLY616  TRP617  ASP618  TYR619  PRO620  LYS621  CYS622 
 ASP623  PHE694  ASN695  SER759  ASP760  ASP761  ALA762  ILE779  LEU786  VAL792 
 PHE793  MET794  SER795  GLU796  ALA797  LYS798  CYS799  TRP800  GLU811  SER814 

> <Gold.Protein.RotatedAtoms>
  151.0439  133.5682  159.2648 H   0  0  0  0  0  0  0  0  0  0  0  0  # atno 6907 bound_to 6896
  151.2718  135.0686  159.9147 H   0  0  0  0  0  0  0  0  0  0  0  0  # atno 6908 bound_to 6896
  152.5369  134.0168  159.8017 H   0  0  0  0  0  0  0  0  0  0  0  0  # atno 6909 bound_to 6896
  145.0072  140.7874  143.4460 H   0  0  0  0  0  0  0  0  0  0  0  0  # atno 7974 bound_to 7965
  155.8050  140.3475  155.5424 H   0  0  0  0  0  0  0  0  0  0  0  0  # atno 8008 bound_to 7997
  155.8499  140.0954  157.1701 H   0  0  0  0  0  0  0  0  0  0  0  0  # atno 8009 bound_to 7997
  154.4007  140.1378  156.3819 H   0  0  0  0  0  0  0  0  0  0  0  0  # atno 8010 bound_to 7997
  139.5525  144.6824  151.4280 H   0  0  0  0  0  0  0  0  0  0  0  0  # atno 10167 bound_to 10162
  157.6588  130.9673  150.1197 H   0  0  0  0  0  0  0  0  0  0  0  0  # atno 10718 bound_to 10713
  153.5092  135.7016  153.5790 H   0  0  0  0  0  0  0  0  0  0  0  0  # atno 10763 bound_to 10752
  153.3888  135.3901  155.1908 H   0  0  0  0  0  0  0  0  0  0  0  0  # atno 10764 bound_to 10752
  154.8704  135.3853  154.4570 H   0  0  0  0  0  0  0  0  0  0  0  0  # atno 10765 bound_to 10752
  140.0797  134.5355  155.8959 H   0  0  0  0  0  0  0  0  0  0  0  0  # atno 11005 bound_to 11000
  145.2072  139.2223  143.5162 LP  0  0  0  0  0  0  0  0  0  0  0  0  # atno 17320 bound_to 7965
  146.3463  140.1902  142.8589 LP  0  0  0  0  0  0  0  0  0  0  0  0  # atno 17321 bound_to 7965
  140.6791  143.8122  150.7097 LP  0  0  0  0  0  0  0  0  0  0  0  0  # atno 17342 bound_to 10162
  140.1570  143.4308  152.2093 LP  0  0  0  0  0  0  0  0  0  0  0  0  # atno 17343 bound_to 10162
  156.2072  130.3664  149.8715 LP  0  0  0  0  0  0  0  0  0  0  0  0  # atno 17370 bound_to 10713
  156.6604  130.8779  151.3546 LP  0  0  0  0  0  0  0  0  0  0  0  0  # atno 17371 bound_to 10713
  141.2042  133.6637  156.6108 LP  0  0  0  0  0  0  0  0  0  0  0  0  # atno 17394 bound_to 11000
  140.3506  134.7772  157.4464 LP  0  0  0  0  0  0  0  0  0  0  0  0  # atno 17395 bound_to 11000

$$$$
