AV-unprocessed.smi:1209|AV-procd|sdf|5072|dock9
  -GOLD-   22720 4123D 1   1.00000     0.00000
 Structure written by MMmdl.
 49 51  0  0  0  0  0  0  0  0  2 V2000
  146.6522  133.5169  161.6839 C   0  0  0  0  0  0  0  0  0  0  0  0
  147.0645  134.8098  161.0677 C   0  0  0  0  0  0  0  0  0  0  0  0
  147.6657  135.1271  159.8834 C   0  0  0  0  0  0  0  0  0  0  0  0
  147.7639  136.5455  159.9256 C   0  0  0  0  0  0  0  0  0  0  0  0
  148.3388  137.4767  158.8915 C   0  0  0  0  0  0  0  0  0  0  0  0
  148.9687  136.7787  157.7643 N   0  0  0  0  0  0  0  0  0  0  0  0
  147.9772  136.0120  157.0143 C   0  0  0  0  0  0  0  0  0  0  0  0
  149.6609  137.7058  156.8676 C   0  0  0  0  0  0  0  0  0  0  0  0
  151.0217  138.2299  157.3810 C   0  0  1  0  0  0  0  0  0  0  0  0
  151.8731  137.1232  157.5861 O   0  0  0  0  0  0  0  0  0  0  0  0
  151.7221  139.1805  156.3894 C   0  0  0  0  0  0  0  0  0  0  0  0
  151.2484  140.5664  156.4954 N   0  0  0  0  0  0  0  0  0  0  0  0
  150.4897  141.3028  155.6384 C   0  0  0  0  0  0  0  0  0  0  0  0
  150.3139  142.5316  156.1987 N   0  3  0  0  0  0  0  0  0  0  0  0
  150.9772  142.5831  157.4268 C   0  0  0  0  0  0  0  0  0  0  0  0
  151.0896  143.6069  158.3601 C   0  0  0  0  0  0  0  0  0  0  0  0
  151.8476  143.3392  159.5226 C   0  0  0  0  0  0  0  0  0  0  0  0
  151.9909  144.4364  160.5634 C   0  0  0  0  0  0  0  0  0  0  0  0
  152.4640  142.0760  159.7182 C   0  0  0  0  0  0  0  0  0  0  0  0
  153.2766  141.7992  160.9718 C   0  0  0  0  0  0  0  0  0  0  0  0
  152.3378  141.0479  158.7568 C   0  0  0  0  0  0  0  0  0  0  0  0
  151.5847  141.3274  157.6195 C   0  0  0  0  0  0  0  0  0  0  0  0
  147.2656  137.0382  161.0474 N   0  0  0  0  0  0  0  0  0  0  0  0
  146.8144  135.9366  161.7831 O   0  0  0  0  0  0  0  0  0  0  0  0
  147.1811  132.6814  161.2247 H   0  0  0  0  0  0  0  0  0  0  0  0
  145.5823  133.3527  161.5550 H   0  0  0  0  0  0  0  0  0  0  0  0
  146.8706  133.5080  162.7519 H   0  0  0  0  0  0  0  0  0  0  0  0
  147.9824  134.4509  159.1037 H   0  0  0  0  0  0  0  0  0  0  0  0
  147.5649  138.1493  158.5177 H   0  0  0  0  0  0  0  0  0  0  0  0
  149.0614  138.1185  159.3914 H   0  0  0  0  0  0  0  0  0  0  0  0
  148.4456  135.4756  156.1884 H   0  0  0  0  0  0  0  0  0  0  0  0
  147.2057  136.6629  156.6007 H   0  0  0  0  0  0  0  0  0  0  0  0
  147.4908  135.2670  157.6443 H   0  0  0  0  0  0  0  0  0  0  0  0
  149.8299  137.2304  155.8998 H   0  0  0  0  0  0  0  0  0  0  0  0
  148.9921  138.5416  156.6612 H   0  0  0  0  0  0  0  0  0  0  0  0
  150.9167  138.7399  158.3363 H   0  0  0  0  0  0  0  0  0  0  0  0
  152.7665  137.4323  157.5965 H   0  0  0  0  0  0  0  0  0  0  0  0
  152.8028  139.1787  156.5401 H   0  0  0  0  0  0  0  0  0  0  0  0
  151.5499  138.8528  155.3630 H   0  0  0  0  0  0  0  0  0  0  0  0
  150.0911  140.9694  154.6909 H   0  0  0  0  0  0  0  0  0  0  0  0
  150.6186  144.5664  158.2047 H   0  0  0  0  0  0  0  0  0  0  0  0
  151.5639  144.1191  161.5150 H   0  0  0  0  0  0  0  0  0  0  0  0
  151.4782  145.3484  160.2557 H   0  0  0  0  0  0  0  0  0  0  0  0
  153.0416  144.6822  160.7187 H   0  0  0  0  0  0  0  0  0  0  0  0
  153.6688  140.7817  160.9774 H   0  0  0  0  0  0  0  0  0  0  0  0
  152.6606  141.9226  161.8627 H   0  0  0  0  0  0  0  0  0  0  0  0
  154.1235  142.4826  161.0379 H   0  0  0  0  0  0  0  0  0  0  0  0
  152.8077  140.0864  158.9038 H   0  0  0  0  0  0  0  0  0  0  0  0
  149.7807  143.2784  155.7718 H   0  0  0  0  0  0  0  0  0  0  0  0
  1  2  1  0  0  0  0
  1 25  1  0  0  0  0
  1 26  1  0  0  0  0
  1 27  1  0  0  0  0
  2 24  1  0  0  0  0
  2  3  2  0  0  0  0
  3  4  1  0  0  0  0
  3 28  1  0  0  0  0
  4  5  1  0  0  0  0
  4 23  2  0  0  0  0
  5  6  1  0  0  0  0
  5 29  1  0  0  0  0
  5 30  1  0  0  0  0
  6  7  1  0  0  0  0
  6  8  1  0  0  0  0
  7 31  1  0  0  0  0
  7 32  1  0  0  0  0
  7 33  1  0  0  0  0
  8  9  1  0  0  0  0
  8 34  1  0  0  0  0
  8 35  1  0  0  0  0
  9 10  1  0  0  0  0
  9 11  1  0  0  0  0
  9 36  1  0  0  0  0
 10 37  1  0  0  0  0
 11 12  1  0  0  0  0
 11 38  1  0  0  0  0
 11 39  1  0  0  0  0
 12 22  1  0  0  0  0
 12 13  1  0  0  0  0
 13 14  2  0  0  0  0
 13 40  1  0  0  0  0
 14 15  1  0  0  0  0
 14 49  1  0  0  0  0
 15 22  2  0  0  0  0
 15 16  1  0  0  0  0
 16 17  2  0  0  0  0
 16 41  1  0  0  0  0
 17 18  1  0  0  0  0
 17 19  1  0  0  0  0
 18 42  1  0  0  0  0
 18 43  1  0  0  0  0
 18 44  1  0  0  0  0
 19 20  1  0  0  0  0
 19 21  2  0  0  0  0
 20 45  1  0  0  0  0
 20 46  1  0  0  0  0
 20 47  1  0  0  0  0
 21 22  1  0  0  0  0
 21 48  1  0  0  0  0
 23 24  1  0  0  0  0
M  CHG  1  14   1
M  END
> <s_m_source_file>
AV-unprocessed.smi

> <i_m_source_file_index>
1209

> <i_lp_mmshare_version>
43012

> <i_f3d_flags>
0

> <s_epik_input>
W0NIM11jMVtjSF1jKG5vMSlbQ0gyXU4oW0NIM10pW0NIMl1bQ0BIXShbT0hdKVtDSDJdbihbY0hdbjIpYyhjMjMpW2NIXWMoW0NIM10pYyhbY0hdMylbQ0gzXQ==

> <s_epik_cmdline>
J2VwaWtfcHl0aG9uJywgJy1waCcsICc3LjAnLCAnLXRuJywgJzgnLCAnLW1hJywgJzIwMCcsICctbWV0YWxfYmluZGluZycsICctaW1hZScsICc8aW5maWxlLm1hZT4nLCAnLW9tYWUnLCAnPG91dGZpbGUubWFlPic=

> <r_epik_Ionization_Penalty>
1.23608

> <r_epik_Ionization_Penalty_Charging>
1.21624

> <r_epik_Ionization_Penalty_Neutral>
0.0198409

> <r_epik_State_Penalty>
1.27749

> <r_epik_Charging_Adjusted_Penalty>
2.49372

> <i_epik_Tot_Q>
1

> <i_epik_Tot_abs_Q>
1

> <r_epik_Metal_State_Penalty>
1.34809

> <b_epik_Metal_Only>
0

> <s_lp_Force_Field>
OPLS_2005

> <r_lp_Energy>
23.0789

> <b_lp_Chiralities_Consistent>
1

> <s_lp_Variant>
AV-unprocessed.smi:1209-4

> <Gold.Version>
5.8.1

> <Gold.Id.Protein>
6NUR|6NUR_protein|mol2

> <Gold.PLP.Fitness>
57.3368

> <Gold.PLP.PLP>
-46.8630

> <Gold.PLP.part.hbond>
-3.0000

> <Gold.PLP.part.metal>
0.0000

> <Gold.PLP.part.buried>
-6.0882

> <Gold.PLP.part.nonpolar>
-37.9413

> <Gold.PLP.part.repulsive>
0.1132

> <Gold.PLP.ligand.clash>
0.0000

> <Gold.PLP.ligand.torsion>
0.5566

> <Gold.PLP.Chemscore.Hbond>
3.8320

> <Gold.PLP.Chemscore.CHOScore>
0.0000

> <Gold.PLP.Chemscore.Metal>
0.0000

> <Gold.Chemscore.Hbonds>
donor molecule, donor type, donor heavy atom, donor atom, acceptor molecule, acceptor atom, score
      L1  H    14    49       P1  8028  2.00
      P1  H  6931  6943       L1    23  0.27
      P1  H  6934  6947       L1    23  1.00

> <Gold.PLP.Chemscore.Internal.Correction>
0.0910

> <Gold.Rescore>
     Score         DG    S(hbond)    S(metal)    S(lipo)     H(rot)  DE(clash)    DE(int)     intcor
     20.51     -21.15       2.45        0.00     119.24       2.53       0.04       0.60       ----

> <Gold.Chemscore.Fitness>
20.5054

> <Gold.Chemscore.DG>
-21.1498

> <Gold.Chemscore.ZeroCoef>
-5.4800

> <Gold.Chemscore.Hbond>
2.4512

> <Gold.Chemscore.Metal>
0.0000

> <Gold.Chemscore.Lipo>
119.2360

> <Gold.Chemscore.Internal_Hbond>
0.0000

> <Gold.Chemscore.DEClash>
0.0423

> <Gold.Chemscore.DEInternal>
0.6021

> <Gold.Chemscore.Rot>
2.5265

> <Gold.Chemscore.Internal.Correction>
   9.000000E+99

> <Gold.Chemscore.Hbonds>
donor molecule, donor type, donor heavy atom, donor atom, acceptor molecule, acceptor atom, score
      L1  H    14    49       P1  8028  0.99
      P1  H  6931  6943       L1    23  0.10
      P1  H  6934  6947       L1    23  0.71

> <Gold.Chemscore.Hbond.Weighted>
-8.1869

> <Gold.Chemscore.Metal.Weighted>
-0.0000

> <Gold.Chemscore.Lipo.Weighted>
-13.9506

> <Gold.Chemscore.Internal_Hbond.Weighted>
0.0000

> <Gold.Chemscore.DEClash.Weighted>
0.0423

> <Gold.Chemscore.DEInternal.Weighted>
0.6021

> <Gold.Chemscore.Rot.Weighted>
6.4677

> <Gold.Chemscore.Internal.Correction.Weighted>
   9.000000E+99

> <Gold.Protein.RotatedTorsions>
[ 6907 6896 6895 6894 ] final -114.79 input  -60.11 | X-H torsion
[ 7974 7965 7964 7962 ] final -173.00 input  175.53 | X-H torsion
[ 8008 7997 7996 7995 ] final   -8.94 input   59.86 | X-H torsion
[ 10167 10162 10161 10158 ] final   13.13 input  -65.29 | X-H torsion
[ 10718 10713 10712 10709 ] final   88.53 input   66.30 | X-H torsion
[ 10763 10752 10751 10750 ] final -115.24 input  -60.55 | X-H torsion
[ 11005 11000 10999 10996 ] final   24.95 input  -57.11 | X-H torsion

> <Gold.Protein.ActiveResidues>
 VAL166  LYS551  ARG553  GLY616  TRP617  ASP618  TYR619  PRO620  LYS621  CYS622 
 ASP623  PHE694  ASN695  SER759  ASP760  ASP761  ALA762  ILE779  LEU786  VAL792 
 PHE793  MET794  SER795  GLU796  ALA797  LYS798  CYS799  TRP800  GLU811  SER814 

> <Gold.Protein.RotatedAtoms>
  150.7928  133.8751  159.3269 H   0  0  0  0  0  0  0  0  0  0  0  0  # atno 6907 bound_to 6896
  151.6585  135.0990  160.0184 H   0  0  0  0  0  0  0  0  0  0  0  0  # atno 6908 bound_to 6896
  152.4005  133.6772  159.6348 H   0  0  0  0  0  0  0  0  0  0  0  0  # atno 6909 bound_to 6896
  144.7141  140.1688  143.6369 H   0  0  0  0  0  0  0  0  0  0  0  0  # atno 7974 bound_to 7965
  154.5694  140.2368  155.8215 H   0  0  0  0  0  0  0  0  0  0  0  0  # atno 8008 bound_to 7997
  156.2094  140.3030  155.9658 H   0  0  0  0  0  0  0  0  0  0  0  0  # atno 8009 bound_to 7997
  155.2741  140.0419  157.3000 H   0  0  0  0  0  0  0  0  0  0  0  0  # atno 8010 bound_to 7997
  140.6022  143.8580  150.6977 H   0  0  0  0  0  0  0  0  0  0  0  0  # atno 10167 bound_to 10162
  157.6949  131.0298  150.3288 H   0  0  0  0  0  0  0  0  0  0  0  0  # atno 10718 bound_to 10713
  154.8473  135.4388  154.1632 H   0  0  0  0  0  0  0  0  0  0  0  0  # atno 10763 bound_to 10752
  153.2764  135.6950  153.7435 H   0  0  0  0  0  0  0  0  0  0  0  0  # atno 10764 bound_to 10752
  153.6656  135.3427  155.3114 H   0  0  0  0  0  0  0  0  0  0  0  0  # atno 10765 bound_to 10752
  140.3532  134.2206  155.7678 H   0  0  0  0  0  0  0  0  0  0  0  0  # atno 11005 bound_to 11000
  145.8963  139.2404  143.1520 LP  0  0  0  0  0  0  0  0  0  0  0  0  # atno 17320 bound_to 7965
  145.9855  140.8647  143.0093 LP  0  0  0  0  0  0  0  0  0  0  0  0  # atno 17321 bound_to 7965
  140.2129  143.3869  152.1704 LP  0  0  0  0  0  0  0  0  0  0  0  0  # atno 17342 bound_to 10162
  139.5299  144.7147  151.5092 LP  0  0  0  0  0  0  0  0  0  0  0  0  # atno 17343 bound_to 10162
  156.3765  130.3873  149.7135 LP  0  0  0  0  0  0  0  0  0  0  0  0  # atno 17370 bound_to 10713
  156.4532  130.7916  151.2937 LP  0  0  0  0  0  0  0  0  0  0  0  0  # atno 17371 bound_to 10713
  141.2006  133.7983  157.0481 LP  0  0  0  0  0  0  0  0  0  0  0  0  # atno 17394 bound_to 11000
  140.0686  134.9715  157.1429 LP  0  0  0  0  0  0  0  0  0  0  0  0  # atno 17395 bound_to 11000

$$$$
