AV-unprocessed.smi:1010|AV-procd|sdf|4415|dock7
  -GOLD-   22720 2363D 1   1.00000     0.00000
 Structure written by MMmdl.
 55 57  0  0  0  0  0  0  0  0  2 V2000
  147.5997  137.5813  155.2105 C   0  0  0  0  0  0  0  0  0  0  0  0
  148.7308  138.0931  154.3959 N   0  3  0  0  0  0  0  0  0  0  0  0
  148.3797  139.4104  153.8027 C   0  0  0  0  0  0  0  0  0  0  0  0
  150.1079  138.0106  155.0138 C   0  0  0  0  0  0  0  0  0  0  0  0
  150.4385  136.5042  155.2761 C   0  0  0  0  0  0  0  0  0  0  0  0
  149.6932  135.5818  154.4204 N   0  0  0  0  0  0  0  0  0  0  0  0
  149.3750  134.3135  154.7122 C   0  0  0  0  0  0  0  0  0  0  0  0
  149.6842  133.7589  155.7662 O   0  0  0  0  0  0  0  0  0  0  0  0
  148.7128  133.7378  153.6965 N   0  0  0  0  0  0  0  0  0  0  0  0
  148.3292  132.3745  153.5646 C   0  0  0  0  0  0  0  0  0  0  0  0
  148.9062  131.3610  154.3679 C   0  0  0  0  0  0  0  0  0  0  0  0
  148.4439  130.0393  154.2468 C   0  0  0  0  0  0  0  0  0  0  0  0
  147.4069  129.7788  153.3356 C   0  0  0  0  0  0  0  0  0  0  0  0
  146.8379  130.7349  152.5745 N   0  0  0  0  0  0  0  0  0  0  0  0
  147.2815  132.0121  152.6704 C   0  0  0  0  0  0  0  0  0  0  0  0
  146.6592  132.9705  151.8378 N   0  0  0  0  0  0  0  0  0  0  0  0
  146.0306  134.1544  152.4144 C   0  0  0  0  0  0  0  0  0  0  0  0
  145.1561  134.7191  151.2988 C   0  0  0  0  0  0  0  0  0  0  0  0
  144.6618  133.4547  150.6028 C   0  0  0  0  0  0  0  0  0  0  0  0
  145.8431  132.4862  150.7279 C   0  0  0  0  0  0  0  0  0  0  0  0
  151.1778  138.6368  154.0761 C   0  0  0  0  0  0  0  0  0  0  0  0
  152.5620  138.7767  154.7417 C   0  0  0  0  0  0  0  0  0  0  0  0
  152.4627  139.5106  155.9550 O   0  0  0  0  0  0  0  0  0  0  0  0
  151.6216  138.8865  156.9158 C   0  0  0  0  0  0  0  0  0  0  0  0
  150.1909  138.8031  156.3565 C   0  0  0  0  0  0  0  0  0  0  0  0
  147.5388  138.0917  156.1722 H   0  0  0  0  0  0  0  0  0  0  0  0
  147.6809  136.5080  155.3803 H   0  0  0  0  0  0  0  0  0  0  0  0
  146.6517  137.7339  154.6932 H   0  0  0  0  0  0  0  0  0  0  0  0
  148.1662  140.1508  154.5743 H   0  0  0  0  0  0  0  0  0  0  0  0
  147.4873  139.3160  153.1834 H   0  0  0  0  0  0  0  0  0  0  0  0
  149.1648  139.8042  153.1600 H   0  0  0  0  0  0  0  0  0  0  0  0
  151.5067  136.3059  155.1907 H   0  0  0  0  0  0  0  0  0  0  0  0
  150.1991  136.2204  156.2986 H   0  0  0  0  0  0  0  0  0  0  0  0
  149.3895  135.9458  153.5284 H   0  0  0  0  0  0  0  0  0  0  0  0
  148.5956  134.2990  152.8653 H   0  0  0  0  0  0  0  0  0  0  0  0
  149.6781  131.5802  155.0900 H   0  0  0  0  0  0  0  0  0  0  0  0
  148.8649  129.2473  154.8480 H   0  0  0  0  0  0  0  0  0  0  0  0
  147.0189  128.7778  153.2184 H   0  0  0  0  0  0  0  0  0  0  0  0
  145.4028  133.8853  153.2646 H   0  0  0  0  0  0  0  0  0  0  0  0
  146.7753  134.8758  152.7519 H   0  0  0  0  0  0  0  0  0  0  0  0
  144.3471  135.3486  151.6701 H   0  0  0  0  0  0  0  0  0  0  0  0
  145.7612  135.3113  150.6109 H   0  0  0  0  0  0  0  0  0  0  0  0
  143.8010  133.0556  151.1413 H   0  0  0  0  0  0  0  0  0  0  0  0
  144.3610  133.6263  149.5691 H   0  0  0  0  0  0  0  0  0  0  0  0
  146.4403  132.5105  149.8161 H   0  0  0  0  0  0  0  0  0  0  0  0
  145.5030  131.4614  150.8841 H   0  0  0  0  0  0  0  0  0  0  0  0
  151.2918  138.0486  153.1652 H   0  0  0  0  0  0  0  0  0  0  0  0
  150.8527  139.6289  153.7610 H   0  0  0  0  0  0  0  0  0  0  0  0
  153.0195  137.8050  154.9285 H   0  0  0  0  0  0  0  0  0  0  0  0
  153.2385  139.3086  154.0726 H   0  0  0  0  0  0  0  0  0  0  0  0
  152.0141  137.9095  157.1974 H   0  0  0  0  0  0  0  0  0  0  0  0
  151.6278  139.4931  157.8216 H   0  0  0  0  0  0  0  0  0  0  0  0
  149.8819  139.8383  156.2164 H   0  0  0  0  0  0  0  0  0  0  0  0
  149.5178  138.3863  157.1064 H   0  0  0  0  0  0  0  0  0  0  0  0
  148.7751  137.4622  153.6078 H   0  0  0  0  0  0  0  0  0  0  0  0
  1  2  1  0  0  0  0
  1 26  1  0  0  0  0
  1 27  1  0  0  0  0
  1 28  1  0  0  0  0
  2  3  1  0  0  0  0
  2  4  1  0  0  0  0
  2 55  1  0  0  0  0
  3 29  1  0  0  0  0
  3 30  1  0  0  0  0
  3 31  1  0  0  0  0
  4 25  1  0  0  0  0
  4  5  1  0  0  0  0
  4 21  1  0  0  0  0
  5  6  1  0  0  0  0
  5 32  1  0  0  0  0
  5 33  1  0  0  0  0
  6  7  1  0  0  0  0
  6 34  1  0  0  0  0
  7  8  2  0  0  0  0
  7  9  1  0  0  0  0
  9 10  1  0  0  0  0
  9 35  1  0  0  0  0
 10 15  1  0  0  0  0
 10 11  2  0  0  0  0
 11 12  1  0  0  0  0
 11 36  1  0  0  0  0
 12 13  2  0  0  0  0
 12 37  1  0  0  0  0
 13 14  1  0  0  0  0
 13 38  1  0  0  0  0
 14 15  2  0  0  0  0
 15 16  1  0  0  0  0
 16 20  1  0  0  0  0
 16 17  1  0  0  0  0
 17 18  1  0  0  0  0
 17 39  1  0  0  0  0
 17 40  1  0  0  0  0
 18 19  1  0  0  0  0
 18 41  1  0  0  0  0
 18 42  1  0  0  0  0
 19 20  1  0  0  0  0
 19 43  1  0  0  0  0
 19 44  1  0  0  0  0
 20 45  1  0  0  0  0
 20 46  1  0  0  0  0
 21 22  1  0  0  0  0
 21 47  1  0  0  0  0
 21 48  1  0  0  0  0
 22 23  1  0  0  0  0
 22 49  1  0  0  0  0
 22 50  1  0  0  0  0
 23 24  1  0  0  0  0
 24 25  1  0  0  0  0
 24 51  1  0  0  0  0
 24 52  1  0  0  0  0
 25 53  1  0  0  0  0
 25 54  1  0  0  0  0
M  CHG  1   2   1
M  END
> <s_m_source_file>
AV-unprocessed.smi

> <i_m_source_file_index>
1010

> <i_lp_mmshare_version>
43012

> <i_f3d_flags>
0

> <s_epik_input>
W0NIMl0xW0NIMl1PW0NIMl1bQ0gyXUMxKE4oW0NIM10pW0NIM10pW0NIMl1bTkhdQyg9TylbTkhdYzJbY0hdW2NIXVtjSF1uYzJOM1tDSDJdW0NIMl1bQ0gyXVtDSDJdMw==

> <s_epik_cmdline>
J2VwaWtfcHl0aG9uJywgJy1waCcsICc3LjAnLCAnLXRuJywgJzgnLCAnLW1hJywgJzIwMCcsICctbWV0YWxfYmluZGluZycsICctaW1hZScsICc8aW5maWxlLm1hZT4nLCAnLW9tYWUnLCAnPG91dGZpbGUubWFlPic=

> <r_lp_tautomer_probability>
1

> <r_epik_Ionization_Penalty>
0.0977718

> <r_epik_Ionization_Penalty_Charging>
0.0128317

> <r_epik_Ionization_Penalty_Neutral>
0.0849401

> <r_epik_State_Penalty>
0.0837778

> <r_epik_Charging_Adjusted_Penalty>
0.0966095

> <i_epik_Tot_Q>
1

> <i_epik_Tot_abs_Q>
1

> <r_epik_Metal_State_Penalty>
0.0755623

> <b_epik_Metal_Only>
0

> <s_lp_Force_Field>
OPLS_2005

> <r_lp_Energy>
58.4563

> <b_lp_Chiralities_Consistent>
1

> <s_lp_Variant>
AV-unprocessed.smi:1010-1

> <Gold.Version>
5.8.1

> <Gold.Id.Protein>
6NUR|6NUR_protein|mol2

> <Gold.PLP.Fitness>
46.7392

> <Gold.PLP.PLP>
-35.7224

> <Gold.PLP.part.hbond>
-4.3450

> <Gold.PLP.part.metal>
0.0000

> <Gold.PLP.part.buried>
-3.1215

> <Gold.PLP.part.nonpolar>
-29.3913

> <Gold.PLP.part.repulsive>
0.6176

> <Gold.PLP.ligand.clash>
0.0000

> <Gold.PLP.ligand.torsion>
1.3188

> <Gold.PLP.Chemscore.Hbond>
4.4050

> <Gold.PLP.Chemscore.CHOScore>
0.0000

> <Gold.PLP.Chemscore.Metal>
0.0000

> <Gold.Chemscore.Hbonds>
donor molecule, donor type, donor heavy atom, donor atom, acceptor molecule, acceptor atom, score
      L1  H     2    55       P1  7948  1.50
      L1  H     6    34       P1  7948  1.00
      L1  H     9    35       P1  7948  0.46
      P1  H  7997  8008       L1    23  1.00

> <Gold.PLP.Chemscore.Internal.Correction>
0.4395

> <Gold.Rescore>
     Score         DG    S(hbond)    S(metal)    S(lipo)     H(rot)  DE(clash)    DE(int)     intcor
     14.79     -17.62       1.79        0.00      87.77       1.60       0.08       2.75       ----

> <Gold.Chemscore.Fitness>
14.7940

> <Gold.Chemscore.DG>
-17.6177

> <Gold.Chemscore.ZeroCoef>
-5.4800

> <Gold.Chemscore.Hbond>
1.7886

> <Gold.Chemscore.Metal>
0.0000

> <Gold.Chemscore.Lipo>
87.7652

> <Gold.Chemscore.Internal_Hbond>
0.0000

> <Gold.Chemscore.DEClash>
0.0775

> <Gold.Chemscore.DEInternal>
2.7462

> <Gold.Chemscore.Rot>
1.6033

> <Gold.Chemscore.Internal.Correction>
   9.000000E+99

> <Gold.Chemscore.Hbonds>
donor molecule, donor type, donor heavy atom, donor atom, acceptor molecule, acceptor atom, score
      L1  H     2    55       P1  7948  0.75
      L1  H     6    34       P1  7948  0.55
      L1  H     9    35       P1  7948  0.05
      P1  H  7997  8008       L1    23  0.33

> <Gold.Chemscore.Hbond.Weighted>
-5.9738

> <Gold.Chemscore.Metal.Weighted>
-0.0000

> <Gold.Chemscore.Lipo.Weighted>
-10.2685

> <Gold.Chemscore.Internal_Hbond.Weighted>
0.0000

> <Gold.Chemscore.DEClash.Weighted>
0.0775

> <Gold.Chemscore.DEInternal.Weighted>
2.7462

> <Gold.Chemscore.Rot.Weighted>
4.1046

> <Gold.Chemscore.Internal.Correction.Weighted>
   9.000000E+99

> <Gold.Protein.RotatedTorsions>
[ 6907 6896 6895 6894 ] final   27.78 input  -60.11 | X-H torsion
[ 7974 7965 7964 7962 ] final   27.36 input  175.53 | X-H torsion
[ 8008 7997 7996 7995 ] final  -35.22 input   59.86 | X-H torsion
[ 10167 10162 10161 10158 ] final -169.39 input  -65.29 | X-H torsion
[ 10718 10713 10712 10709 ] final   37.64 input   66.30 | X-H torsion
[ 10763 10752 10751 10750 ] final  -23.38 input  -60.55 | X-H torsion
[ 11005 11000 10999 10996 ] final   14.12 input  -57.11 | X-H torsion

> <Gold.Protein.ActiveResidues>
 VAL166  LYS551  ARG553  GLY616  TRP617  ASP618  TYR619  PRO620  LYS621  CYS622 
 ASP623  PHE694  ASN695  SER759  ASP760  ASP761  ALA762  ILE779  LEU786  VAL792 
 PHE793  MET794  SER795  GLU796  ALA797  LYS798  CYS799  TRP800  GLU811  SER814 

> <Gold.Protein.RotatedAtoms>
  152.0073  134.9895  160.0566 H   0  0  0  0  0  0  0  0  0  0  0  0  # atno 6907 bound_to 6896
  152.1462  133.4489  159.4799 H   0  0  0  0  0  0  0  0  0  0  0  0  # atno 6908 bound_to 6896
  150.6870  134.2163  159.4422 H   0  0  0  0  0  0  0  0  0  0  0  0  # atno 6909 bound_to 6896
  146.1788  139.7202  142.8915 H   0  0  0  0  0  0  0  0  0  0  0  0  # atno 7974 bound_to 7965
  154.4101  140.1663  156.2176 H   0  0  0  0  0  0  0  0  0  0  0  0  # atno 8008 bound_to 7997
  155.9391  140.3409  155.6289 H   0  0  0  0  0  0  0  0  0  0  0  0  # atno 8009 bound_to 7997
  155.7011  140.0745  157.2400 H   0  0  0  0  0  0  0  0  0  0  0  0  # atno 8010 bound_to 7997
  139.5925  144.1182  152.1651 H   0  0  0  0  0  0  0  0  0  0  0  0  # atno 10167 bound_to 10162
  157.3494  130.7590  149.6967 H   0  0  0  0  0  0  0  0  0  0  0  0  # atno 10718 bound_to 10713
  153.6670  135.6973  153.5159 H   0  0  0  0  0  0  0  0  0  0  0  0  # atno 10763 bound_to 10752
  153.2587  135.4251  155.0871 H   0  0  0  0  0  0  0  0  0  0  0  0  # atno 10764 bound_to 10752
  154.8437  135.3549  154.6214 H   0  0  0  0  0  0  0  0  0  0  0  0  # atno 10765 bound_to 10752
  140.4731  134.1011  155.7736 H   0  0  0  0  0  0  0  0  0  0  0  0  # atno 11005 bound_to 11000
  145.4135  141.0399  143.3004 LP  0  0  0  0  0  0  0  0  0  0  0  0  # atno 17320 bound_to 7965
  144.8280  139.5676  143.6956 LP  0  0  0  0  0  0  0  0  0  0  0  0  # atno 17321 bound_to 7965
  140.0759  144.5741  150.7157 LP  0  0  0  0  0  0  0  0  0  0  0  0  # atno 17342 bound_to 10162
  140.7185  143.2567  151.4355 LP  0  0  0  0  0  0  0  0  0  0  0  0  # atno 17343 bound_to 10162
  155.9719  130.4145  150.4135 LP  0  0  0  0  0  0  0  0  0  0  0  0  # atno 17370 bound_to 10713
  157.2195  131.0479  151.2554 LP  0  0  0  0  0  0  0  0  0  0  0  0  # atno 17371 bound_to 10713
  141.1567  133.8869  157.1957 LP  0  0  0  0  0  0  0  0  0  0  0  0  # atno 17394 bound_to 11000
  139.9873  135.0077  156.9892 LP  0  0  0  0  0  0  0  0  0  0  0  0  # atno 17395 bound_to 11000

$$$$
