#       Name:                AV-unprocessed.smi:2919
#       Creating user name   scv26
#       Creation time:       Fri Mar 27 16:08:41 2020


#       File generated by GOLD software.
#

@<TRIPOS>MOLECULE
AV-unprocessed.smi:2919
    39    41     1
SMALL
NO_CHARGES


@<TRIPOS>ATOM
      1 ****        -4.7311   0.2943  -0.1207 C.3            1 S1                 0.0000
      2 ****        -3.2428   0.0814  -0.3337 C.ar           1 S1                 0.0000
      3 ****        -2.5236   1.2125  -0.5031 N.ar           1 S1                 0.0000
      4 ****        -1.2060   1.1529  -0.7005 N.ar           1 S1                 0.0000
      5 ****        -0.5595  -0.0373  -0.7334 C.ar           1 S1                 0.0000
      6 ****         0.8309  -0.0186  -0.9474 N.pl3          1 S1                 0.0000
      7 ****         1.6095   1.1926  -0.7060 C.3            1 S1                 0.0000
      8 ****         3.0876   1.0333  -1.0695 C.3            1 S1                 0.0000
      9 ****         3.7810   1.4620   0.2313 C.3            1 S1                 0.0000
     10 ****         3.6670   0.3805   1.3135 C.3            1 S1                 0.0000
     11 ****         2.1956   0.4906   1.7079 C.3            1 S1                 0.0000
     12 ****         1.6990   1.6097   0.7762 C.3            1 S1                 0.0000
     13 ****         2.8606   2.4207   0.7257 O.3            1 S1                 0.0000
     14 ****        -1.2520  -1.2645  -0.5652 C.ar           1 S1                 0.0000
     15 ****        -0.5486  -2.5452  -0.6011 C.1            1 S1                 0.0000
     16 ****         0.0086  -3.5590  -0.6293 N.1            1 S1                 0.0000
     17 ****        -2.6526  -1.2057  -0.3543 C.ar           1 S1                 0.0000
     18 ****        -3.4789  -2.4747  -0.1600 C.3            1 S1                 0.0000
     19 ****        -5.3039  -0.2114  -0.8984 H              1 S1                 0.0000
     20 ****        -4.9924   1.3530  -0.1500 H              1 S1                 0.0000
     21 ****        -5.0370  -0.0969   0.8499 H              1 S1                 0.0000
     22 ****         1.3257  -0.8988  -0.9308 H              1 S1                 0.0000
     23 ****         1.1965   2.0140  -1.2934 H              1 S1                 0.0000
     24 ****         3.3632   0.0194  -1.3632 H              1 S1                 0.0000
     25 ****         3.3485   1.7040  -1.8890 H              1 S1                 0.0000
     26 ****         4.7937   1.8403   0.0895 H              1 S1                 0.0000
     27 ****         3.9337  -0.6094   0.9418 H              1 S1                 0.0000
     28 ****         4.3092   0.6112   2.1642 H              1 S1                 0.0000
     29 ****         1.6498  -0.4450   1.5851 H              1 S1                 0.0000
     30 ****         2.1064   0.7952   2.7513 H              1 S1                 0.0000
     31 ****         0.8130   2.1274   1.1450 H              1 S1                 0.0000
     32 ****        -3.1001  -3.0454   0.6885 H              1 S1                 0.0000
     33 ****        -3.4169  -3.1030  -1.0491 H              1 S1                 0.0000
     34 ****        -4.5330  -2.2797   0.0283 H              1 S1                 0.0000
     35 ****        -2.9825   2.1007  -0.4803 LP             1 S1                 0.0000
     36 ****        -0.6878   1.9988  -0.8260 LP             1 S1                 0.0000
     37 ****         2.7515   3.1930   0.0998 LP             1 S1                 0.0000
     38 ****         3.1212   2.7588   1.6300 LP             1 S1                 0.0000
     39 ****         0.4901  -4.4351  -0.6537 LP             1 S1                 0.0000
@<TRIPOS>BOND
    1    1    2 1     
    2    1   19 1     
    3    1   20 1     
    4    1   21 1     
    5    2   17 ar    
    6    2    3 ar    
    7    3    4 ar    
    8    4    5 ar    
    9    5    6 1     
   10    5   14 ar    
   11    6    7 1     
   12    6   22 1     
   13    7   12 1     
   14    7    8 1     
   15    7   23 1     
   16    8    9 1     
   17    8   24 1     
   18    8   25 1     
   19    9   13 1     
   20    9   10 1     
   21    9   26 1     
   22   10   11 1     
   23   10   27 1     
   24   10   28 1     
   25   11   12 1     
   26   11   29 1     
   27   11   30 1     
   28   12   13 1     
   29   12   31 1     
   30   14   15 1     
   31   14   17 ar    
   32   15   16 3     
   33   17   18 1     
   34   18   32 1     
   35   18   33 1     
   36   18   34 1     
   37    3   35 1     
   38    4   36 1     
   39   13   37 1     
   40   13   38 1     
   41   16   39 1     
@<TRIPOS>SUBSTRUCTURE
      1 S1             1
@<TRIPOS>SET
LONE_PAIRS      STATIC     ATOMS    <user>   **** ""
5 35 36 37 38 39
DONOR_HYDROGENS      STATIC     ATOMS    <user>   **** ""
1 22
ATOM$BLUE        STATIC     ATOMS    COLORGROUP SYSTEM
5 35 36 37 38 39
ATOM$RED        STATIC     ATOMS    COLORGROUP SYSTEM
1 22
