#       Name:                AV-unprocessed.smi:193
#       Creating user name   scv26
#       Creation time:       Thu Mar 26 19:32:31 2020


#       File generated by GOLD software.
#

@<TRIPOS>MOLECULE
AV-unprocessed.smi:193
    70    74     1
SMALL
NO_CHARGES


@<TRIPOS>ATOM
      1 ****        -3.4446  -4.2652  -0.7885 C.3            1 S1                 0.0000
      2 ****        -3.1247  -2.7865  -0.5189 C.3            1 S1                 0.0000
      3 ****        -1.7558  -2.4067  -1.1172 C.3            1 S1                 0.0000
      4 ****        -1.1136  -1.3230  -0.3690 N.3            1 S1                 0.0000
      5 ****         0.2418  -1.3371  -0.3169 C.ar           1 S1                 0.0000
      6 ****         0.9576  -1.7917  -1.3799 N.ar           1 S1                 0.0000
      7 ****         2.2937  -1.7948  -1.3388 C.ar           1 S1                 0.0000
      8 ****         3.0994  -1.3929  -0.3538 N.ar           1 S1                 0.0000
      9 ****         2.3858  -0.9338   0.7138 C.ar           1 S1                 0.0000
     10 ****         0.9677  -0.8708   0.8140 C.ar           1 S1                 0.0000
     11 ****         0.6011  -0.3525   2.0501 N.2            1 S1                 0.0000
     12 ****         1.7389  -0.1157   2.6445 C.2            1 S1                 0.0000
     13 ****         2.8613  -0.4305   1.9121 N.pl3          1 S1                 0.0000
     14 ****         4.2460  -0.2699   2.3295 C.3            1 S1                 0.0000
     15 ****         4.8198   1.1449   2.0698 C.3            1 S1                 0.0000
     16 ****         4.0830   2.0599   2.8628 O.3            1 S1                 0.0000
     17 ****         6.2996   1.2129   2.4980 C.3            1 S1                 0.0000
     18 ****         6.9569   2.5477   2.1042 C.3            1 S1                 0.0000
     19 ****         6.8142   2.7656   0.7060 O.3            1 S1                 0.0000
     20 ****         5.4547   2.8839   0.3043 C.3            1 S1                 0.0000
     21 ****         4.7010   1.5728   0.5906 C.3            1 S1                 0.0000
     22 ****        -1.6719   0.0263  -0.4282 C.3            1 S1                 0.0000
     23 ****        -3.1559   0.0974  -0.0397 C.3            1 S1                 0.0000
     24 ****        -4.0028  -0.4514  -1.1249 N.4            1 S1                 1.0000
     25 ****        -5.2380   0.3379  -1.3300 C.3            1 S1                 0.0000
     26 ****        -5.7294   0.3356  -2.7589 C.3            1 S1                 0.0000
     27 ****        -5.0414   1.5615  -2.1974 C.3            1 S1                 0.0000
     28 ****        -5.8304   2.8251  -1.9347 C.3            1 S1                 0.0000
     29 ****        -4.2935  -1.9049  -1.0183 C.3            1 S1                 0.0000
     30 ****        -3.5097  -4.4699  -1.8577 H              1 S1                 0.0000
     31 ****        -4.3944  -4.5508  -0.3356 H              1 S1                 0.0000
     32 ****        -2.6764  -4.9177  -0.3720 H              1 S1                 0.0000
     33 ****        -3.0544  -2.6879   0.5656 H              1 S1                 0.0000
     34 ****        -1.1106  -3.2860  -1.0794 H              1 S1                 0.0000
     35 ****        -1.8502  -2.1372  -2.1700 H              1 S1                 0.0000
     36 ****         2.7882  -2.1724  -2.2215 H              1 S1                 0.0000
     37 ****         1.7929   0.3020   3.6396 H              1 S1                 0.0000
     38 ****         4.3125  -0.5167   3.3904 H              1 S1                 0.0000
     39 ****         4.8452  -1.0176   1.8084 H              1 S1                 0.0000
     40 ****         4.4307   2.9270   2.7205 H              1 S1                 0.0000
     41 ****         6.3954   1.0510   3.5725 H              1 S1                 0.0000
     42 ****         6.8514   0.4037   2.0177 H              1 S1                 0.0000
     43 ****         6.5227   3.3799   2.6602 H              1 S1                 0.0000
     44 ****         8.0188   2.5263   2.3496 H              1 S1                 0.0000
     45 ****         4.9856   3.7267   0.8141 H              1 S1                 0.0000
     46 ****         5.4229   3.1046  -0.7628 H              1 S1                 0.0000
     47 ****         5.1178   0.7894  -0.0436 H              1 S1                 0.0000
     48 ****         3.6559   1.6803   0.2978 H              1 S1                 0.0000
     49 ****        -1.1186   0.6841   0.2424 H              1 S1                 0.0000
     50 ****        -1.5271   0.4294  -1.4315 H              1 S1                 0.0000
     51 ****        -3.3588  -0.3819   0.9188 H              1 S1                 0.0000
     52 ****        -3.3984   1.1519   0.1001 H              1 S1                 0.0000
     53 ****        -5.9461   0.3509  -0.5030 H              1 S1                 0.0000
     54 ****        -5.1823  -0.2513  -3.4944 H              1 S1                 0.0000
     55 ****        -6.8046   0.3897  -2.9173 H              1 S1                 0.0000
     56 ****        -4.0315   1.7477  -2.5598 H              1 S1                 0.0000
     57 ****        -6.8336   2.5883  -1.5787 H              1 S1                 0.0000
     58 ****        -5.9154   3.4108  -2.8500 H              1 S1                 0.0000
     59 ****        -5.3278   3.4294  -1.1793 H              1 S1                 0.0000
     60 ****        -4.6129  -2.2437  -2.0047 H              1 S1                 0.0000
     61 ****        -5.1463  -2.0518  -0.3535 H              1 S1                 0.0000
     62 ****        -3.4602  -0.3342  -1.9687 H              1 S1                 0.0000
     63 ****        -1.4274  -1.6268   0.5306 LP             1 S1                 0.0000
     64 ****         0.4831  -2.1246  -2.1947 LP             1 S1                 0.0000
     65 ****         4.0981  -1.4243  -0.3934 LP             1 S1                 0.0000
     66 ****        -0.3216  -0.1968   2.4029 LP             1 S1                 0.0000
     67 ****         4.1701   1.8157   3.8286 LP             1 S1                 0.0000
     68 ****         3.1189   2.0354   2.5985 LP             1 S1                 0.0000
     69 ****         7.2258   1.9956   0.2187 LP             1 S1                 0.0000
     70 ****         7.2940   3.6087   0.4631 LP             1 S1                 0.0000
@<TRIPOS>BOND
    1    1    2 1     
    2    1   30 1     
    3    1   31 1     
    4    1   32 1     
    5    2   29 1     
    6    2    3 1     
    7    2   33 1     
    8    3    4 1     
    9    3   34 1     
   10    3   35 1     
   11    4    5 1     
   12    4   22 1     
   13    5   10 ar    
   14    5    6 ar    
   15    6    7 ar    
   16    7    8 ar    
   17    7   36 1     
   18    8    9 ar    
   19    9   13 1     
   20    9   10 ar    
   21   10   11 1     
   22   11   12 2     
   23   12   13 1     
   24   12   37 1     
   25   13   14 1     
   26   14   15 1     
   27   14   38 1     
   28   14   39 1     
   29   15   21 1     
   30   15   16 1     
   31   15   17 1     
   32   16   40 1     
   33   17   18 1     
   34   17   41 1     
   35   17   42 1     
   36   18   19 1     
   37   18   43 1     
   38   18   44 1     
   39   19   20 1     
   40   20   21 1     
   41   20   45 1     
   42   20   46 1     
   43   21   47 1     
   44   21   48 1     
   45   22   23 1     
   46   22   49 1     
   47   22   50 1     
   48   23   24 1     
   49   23   51 1     
   50   23   52 1     
   51   24   25 1     
   52   24   29 1     
   53   24   62 1     
   54   25   27 1     
   55   25   26 1     
   56   25   53 1     
   57   26   27 1     
   58   26   54 1     
   59   26   55 1     
   60   27   28 1     
   61   27   56 1     
   62   28   57 1     
   63   28   58 1     
   64   28   59 1     
   65   29   60 1     
   66   29   61 1     
   67    4   63 1     
   68    6   64 1     
   69    8   65 1     
   70   11   66 1     
   71   16   67 1     
   72   16   68 1     
   73   19   69 1     
   74   19   70 1     
@<TRIPOS>SUBSTRUCTURE
      1 S1             1
@<TRIPOS>SET
LONE_PAIRS      STATIC     ATOMS    <user>   **** ""
8 63 64 65 66 67 68 69 70
DONOR_HYDROGENS      STATIC     ATOMS    <user>   **** ""
2 40 62
ATOM$BLUE        STATIC     ATOMS    COLORGROUP SYSTEM
8 63 64 65 66 67 68 69 70
ATOM$RED        STATIC     ATOMS    COLORGROUP SYSTEM
2 40 62
