AV-unprocessed.smi:18|AV-procd|sdf|108|dock8
  -GOLD-   2262015263D 1   1.00000     0.00000
 Structure written by MMmdl.
 47 50  0  0  0  0  0  0  0  0  1 V2000
  147.7317  138.7712  152.4089 O   0  0  0  0  0  0  0  0  0  0  0  0
  147.4344  138.4345  153.7492 C   0  0  0  0  0  0  0  0  0  0  0  0
  148.5445  138.9020  154.7075 C   0  0  0  0  0  0  0  0  0  0  0  0
  148.3965  138.2338  156.0909 C   0  0  0  0  0  0  0  0  0  0  0  0
  149.2960  138.7589  157.1073 N   0  0  0  0  0  0  0  0  0  0  0  0
  148.9367  139.4592  158.2380 C   0  0  0  0  0  0  0  0  0  0  0  0
  149.9262  139.8272  159.0054 N   0  0  0  0  0  0  0  0  0  0  0  0
  151.0540  139.3568  158.3458 C   0  0  0  0  0  0  0  0  0  0  0  0
  152.4472  139.4133  158.6152 C   0  0  0  0  0  0  0  0  0  0  0  0
  152.9348  140.0008  159.7347 N   0  0  0  0  0  0  0  0  0  0  0  0
  153.8720  139.0980  160.3957 C   0  0  0  0  0  0  0  0  0  0  0  0
  154.2998  139.6656  161.7544 C   0  0  0  0  0  0  0  0  0  0  0  0
  154.8594  140.9551  161.5542 O   0  0  0  0  0  0  0  0  0  0  0  0
  153.9079  141.8642  161.0146 C   0  0  0  0  0  0  0  0  0  0  0  0
  153.4136  141.3875  159.6280 C   0  0  2  0  0  0  0  0  0  0  0  0
  152.3205  142.3427  159.0807 C   0  0  0  0  0  0  0  0  0  0  0  0
  152.7601  143.8110  158.9719 C   0  0  0  0  0  0  0  0  0  0  0  0
  152.1743  144.4006  157.9301 F   0  0  0  0  0  0  0  0  0  0  0  0
  152.4250  144.4637  160.0841 F   0  0  0  0  0  0  0  0  0  0  0  0
  153.2884  138.8199  157.7266 N   0  0  0  0  0  0  0  0  0  0  0  0
  152.7974  138.2278  156.6337 C   0  0  0  0  0  0  0  0  0  0  0  0
  151.5246  138.1070  156.2502 N   0  0  0  0  0  0  0  0  0  0  0  0
  150.6777  138.6873  157.1479 C   0  0  0  0  0  0  0  0  0  0  0  0
  149.9536  138.8809  154.0975 C   0  0  0  0  0  0  0  0  0  0  0  0
  149.9254  140.3015  153.8456 O   0  0  0  0  0  0  0  0  0  0  0  0
  148.7849  140.4180  154.7222 C   0  0  0  0  0  0  0  0  0  0  0  0
  147.9246  137.9763  151.9352 H   0  0  0  0  0  0  0  0  0  0  0  0
  146.4651  138.8540  154.0188 H   0  0  0  0  0  0  0  0  0  0  0  0
  147.3164  137.3516  153.8008 H   0  0  0  0  0  0  0  0  0  0  0  0
  147.3765  138.3428  156.4614 H   0  0  0  0  0  0  0  0  0  0  0  0
  148.5624  137.1586  156.0135 H   0  0  0  0  0  0  0  0  0  0  0  0
  147.9080  139.6827  158.4816 H   0  0  0  0  0  0  0  0  0  0  0  0
  153.4178  138.1163  160.5387 H   0  0  0  0  0  0  0  0  0  0  0  0
  154.7486  138.9569  159.7612 H   0  0  0  0  0  0  0  0  0  0  0  0
  153.4545  139.7186  162.4423 H   0  0  0  0  0  0  0  0  0  0  0  0
  155.0481  139.0198  162.2137 H   0  0  0  0  0  0  0  0  0  0  0  0
  153.0740  141.9800  161.7092 H   0  0  0  0  0  0  0  0  0  0  0  0
  154.3928  142.8363  160.9369 H   0  0  0  0  0  0  0  0  0  0  0  0
  154.2649  141.3968  158.9458 H   0  0  0  0  0  0  0  0  0  0  0  0
  151.9969  142.0284  158.0889 H   0  0  0  0  0  0  0  0  0  0  0  0
  151.4351  142.2781  159.7144 H   0  0  0  0  0  0  0  0  0  0  0  0
  153.8377  143.9214  158.8572 H   0  0  0  0  0  0  0  0  0  0  0  0
  153.5289  137.7853  155.9737 H   0  0  0  0  0  0  0  0  0  0  0  0
  150.7441  138.6188  154.8018 H   0  0  0  0  0  0  0  0  0  0  0  0
  150.0351  138.2910  153.1840 H   0  0  0  0  0  0  0  0  0  0  0  0
  147.9755  141.0030  154.2838 H   0  0  0  0  0  0  0  0  0  0  0  0
  149.0649  140.8132  155.7001 H   0  0  0  0  0  0  0  0  0  0  0  0
  1  2  1  0  0  0  0
  1 27  1  0  0  0  0
  2  3  1  0  0  0  0
  2 28  1  0  0  0  0
  2 29  1  0  0  0  0
  3 26  1  0  0  0  0
  3  4  1  0  0  0  0
  3 24  1  0  0  0  0
  4  5  1  0  0  0  0
  4 30  1  0  0  0  0
  4 31  1  0  0  0  0
  5 23  1  0  0  0  0
  5  6  1  0  0  0  0
  6  7  2  0  0  0  0
  6 32  1  0  0  0  0
  7  8  1  0  0  0  0
  8 23  2  0  0  0  0
  8  9  1  0  0  0  0
  9 10  1  0  0  0  0
  9 20  2  0  0  0  0
 10 15  1  0  0  0  0
 10 11  1  0  0  0  0
 11 12  1  0  0  0  0
 11 33  1  0  0  0  0
 11 34  1  0  0  0  0
 12 13  1  0  0  0  0
 12 35  1  0  0  0  0
 12 36  1  0  0  0  0
 13 14  1  0  0  0  0
 14 15  1  0  0  0  0
 14 37  1  0  0  0  0
 14 38  1  0  0  0  0
 15 16  1  0  0  0  0
 15 39  1  0  0  0  0
 16 17  1  0  0  0  0
 16 40  1  0  0  0  0
 16 41  1  0  0  0  0
 17 18  1  0  0  0  0
 17 19  1  0  0  0  0
 17 42  1  0  0  0  0
 20 21  1  0  0  0  0
 21 22  2  0  0  0  0
 21 43  1  0  0  0  0
 22 23  1  0  0  0  0
 24 25  1  0  0  0  0
 24 44  1  0  0  0  0
 24 45  1  0  0  0  0
 25 26  1  0  0  0  0
 26 46  1  0  0  0  0
 26 47  1  0  0  0  0
M  END
> <s_m_source_file>
AV-unprocessed.smi

> <i_m_source_file_index>
18

> <i_lp_mmshare_version>
43012

> <i_f3d_flags>
0

> <s_epik_input>
W0NIMl0xT1tDSDJdQzEoW0NIMl1bT0hdKVtDSDJdbihbY0hdbjIpYyhjMjMpbltjSF1uYzNONFtDSDJdW0NIMl1PW0NIMl1bQ0BIXTRbQ0gyXVtDSF0oRilG

> <s_epik_cmdline>
J2VwaWtfcHl0aG9uJywgJy1waCcsICc3LjAnLCAnLXRuJywgJzgnLCAnLW1hJywgJzIwMCcsICctbWV0YWxfYmluZGluZycsICctaW1hZScsICc8aW5maWxlLm1hZT4nLCAnLW9tYWUnLCAnPG91dGZpbGUubWFlPic=

> <r_lp_tautomer_probability>
1

> <r_epik_Ionization_Penalty>
6.63711e-05

> <r_epik_Ionization_Penalty_Charging>
0

> <r_epik_Ionization_Penalty_Neutral>
6.63711e-05

> <r_epik_State_Penalty>
-0

> <r_epik_Charging_Adjusted_Penalty>
0

> <i_epik_Tot_Q>
0

> <i_epik_Tot_abs_Q>
0

> <r_epik_Metal_State_Penalty>
-0

> <b_epik_Metal_Only>
0

> <s_lp_Force_Field>
OPLS_2005

> <r_lp_Energy>
38.6195

> <b_lp_Chiralities_Consistent>
1

> <s_lp_Variant>
AV-unprocessed.smi:18-2

> <Gold.Version>
5.8.1

> <Gold.Id.Protein>
6NUR|6NUR_protein|mol2

> <Gold.PLP.Fitness>
45.6347

> <Gold.PLP.PLP>
-39.3227

> <Gold.PLP.part.hbond>
-6.2175

> <Gold.PLP.part.metal>
0.0000

> <Gold.PLP.part.buried>
-0.5376

> <Gold.PLP.part.nonpolar>
-34.3489

> <Gold.PLP.part.repulsive>
2.3855

> <Gold.PLP.ligand.clash>
0.0000

> <Gold.PLP.ligand.torsion>
1.2500

> <Gold.PLP.Chemscore.Hbond>
2.7520

> <Gold.PLP.Chemscore.CHOScore>
0.0000

> <Gold.PLP.Chemscore.Metal>
0.0000

> <Gold.Chemscore.Hbonds>
donor molecule, donor type, donor heavy atom, donor atom, acceptor molecule, acceptor atom, score
      L1  H     1    27       P1  7948  0.98
      P1  H  7989  7998       L1    25  0.72
      P1  H  7997  8009       L1    20  1.00

> <Gold.PLP.Chemscore.Internal.Correction>
0.5559

> <Gold.Rescore>
     Score         DG    S(hbond)    S(metal)    S(lipo)     H(rot)  DE(clash)    DE(int)     intcor
      8.37     -15.69       2.30        0.00      86.36       2.96       3.87       3.46       ----

> <Gold.Chemscore.Fitness>
8.3679

> <Gold.Chemscore.DG>
-15.6938

> <Gold.Chemscore.ZeroCoef>
-5.4800

> <Gold.Chemscore.Hbond>
2.3049

> <Gold.Chemscore.Metal>
0.0000

> <Gold.Chemscore.Lipo>
86.3585

> <Gold.Chemscore.Internal_Hbond>
0.0000

> <Gold.Chemscore.DEClash>
3.8703

> <Gold.Chemscore.DEInternal>
3.4557

> <Gold.Chemscore.Rot>
2.9643

> <Gold.Chemscore.Internal.Correction>
   9.000000E+99

> <Gold.Chemscore.Hbonds>
donor molecule, donor type, donor heavy atom, donor atom, acceptor molecule, acceptor atom, score
      L1  H     1    27       P1  7948  0.90
      P1  H  7989  7998       L1    25  0.54
      P1  H  7997  8009       L1    20  0.46

> <Gold.Chemscore.Hbond.Weighted>
-7.6985

> <Gold.Chemscore.Metal.Weighted>
-0.0000

> <Gold.Chemscore.Lipo.Weighted>
-10.1039

> <Gold.Chemscore.Internal_Hbond.Weighted>
0.0000

> <Gold.Chemscore.DEClash.Weighted>
3.8703

> <Gold.Chemscore.DEInternal.Weighted>
3.4557

> <Gold.Chemscore.Rot.Weighted>
7.5886

> <Gold.Chemscore.Internal.Correction.Weighted>
   9.000000E+99

> <Gold.Protein.RotatedTorsions>
[ 6907 6896 6895 6894 ] final -139.59 input  -60.11 | X-H torsion
[ 7974 7965 7964 7962 ] final  101.90 input  175.53 | X-H torsion
[ 8008 7997 7996 7995 ] final  145.33 input   59.86 | X-H torsion
[ 10167 10162 10161 10158 ] final -132.40 input  -65.29 | X-H torsion
[ 10718 10713 10712 10709 ] final  -95.57 input   66.30 | X-H torsion
[ 10763 10752 10751 10750 ] final  -46.49 input  -60.55 | X-H torsion
[ 11005 11000 10999 10996 ] final  121.04 input  -57.11 | X-H torsion

> <Gold.Protein.ActiveResidues>
 VAL166  LYS551  ARG553  GLY616  TRP617  ASP618  TYR619  PRO620  LYS621  CYS622 
 ASP623  PHE694  ASN695  SER759  ASP760  ASP761  ALA762  ILE779  LEU786  VAL792 
 PHE793  MET794  SER795  GLU796  ALA797  LYS798  CYS799  TRP800  GLU811  SER814 

> <Gold.Protein.RotatedAtoms>
  151.0497  133.5634  159.2643 H   0  0  0  0  0  0  0  0  0  0  0  0  # atno 6907 bound_to 6896
  151.2650  135.0665  159.9122 H   0  0  0  0  0  0  0  0  0  0  0  0  # atno 6908 bound_to 6896
  152.5379  134.0237  159.8047 H   0  0  0  0  0  0  0  0  0  0  0  0  # atno 6909 bound_to 6896
  145.3662  139.2407  143.3480 H   0  0  0  0  0  0  0  0  0  0  0  0  # atno 7974 bound_to 7965
  156.2886  140.2212  156.5198 H   0  0  0  0  0  0  0  0  0  0  0  0  # atno 8008 bound_to 7997
  154.7538  140.0478  157.0938 H   0  0  0  0  0  0  0  0  0  0  0  0  # atno 8009 bound_to 7997
  155.0076  140.3109  155.4845 H   0  0  0  0  0  0  0  0  0  0  0  0  # atno 8010 bound_to 7997
  139.9089  143.6518  152.2579 H   0  0  0  0  0  0  0  0  0  0  0  0  # atno 10167 bound_to 10162
  156.0046  130.5115  150.6097 H   0  0  0  0  0  0  0  0  0  0  0  0  # atno 10718 bound_to 10713
  154.0459  135.6638  153.4795 H   0  0  0  0  0  0  0  0  0  0  0  0  # atno 10763 bound_to 10752
  153.0483  135.5100  154.7798 H   0  0  0  0  0  0  0  0  0  0  0  0  # atno 10764 bound_to 10752
  154.6789  135.3041  154.9607 H   0  0  0  0  0  0  0  0  0  0  0  0  # atno 10765 bound_to 10752
  139.9209  134.9637  156.7898 H   0  0  0  0  0  0  0  0  0  0  0  0  # atno 11005 bound_to 11000
  146.2906  140.4304  142.8741 LP  0  0  0  0  0  0  0  0  0  0  0  0  # atno 17320 bound_to 7965
  144.8610  140.7139  143.6107 LP  0  0  0  0  0  0  0  0  0  0  0  0  # atno 17321 bound_to 7965
  139.6960  144.7641  151.1356 LP  0  0  0  0  0  0  0  0  0  0  0  0  # atno 17342 bound_to 10162
  140.7690  143.5523  150.9190 LP  0  0  0  0  0  0  0  0  0  0  0  0  # atno 17343 bound_to 10162
  157.3931  131.0799  151.1375 LP  0  0  0  0  0  0  0  0  0  0  0  0  # atno 17370 bound_to 10713
  157.2061  130.6416  149.5756 LP  0  0  0  0  0  0  0  0  0  0  0  0  # atno 17371 bound_to 10713
  140.6476  133.9760  155.7739 LP  0  0  0  0  0  0  0  0  0  0  0  0  # atno 17394 bound_to 11000
  141.0729  134.0178  157.3500 LP  0  0  0  0  0  0  0  0  0  0  0  0  # atno 17395 bound_to 11000

$$$$
