AV-unprocessed.smi:1839|AV-procd|sdf|7484|dock3
  -GOLD-   22720 9183D 1   1.00000     0.00000
 Structure written by MMmdl.
 46 47  0  0  0  0  0  0  0  0  1 V2000
  151.3078  132.0653  156.4882 C   0  0  0  0  0  0  0  0  0  0  0  0
  150.6827  133.3234  156.0797 N   0  0  0  0  0  0  0  0  0  0  0  0
  149.7002  133.1824  154.9982 C   0  0  0  0  0  0  0  0  0  0  0  0
  151.2125  134.5089  156.4717 C   0  0  0  0  0  0  0  0  0  0  0  0
  152.3881  134.6128  156.8280 O   0  0  0  0  0  0  0  0  0  0  0  0
  150.3858  135.5799  156.4110 N   0  0  0  0  0  0  0  0  0  0  0  0
  148.9646  135.5138  156.7824 C   0  0  0  0  0  0  0  0  0  0  0  0
  148.1310  136.3398  155.7867 C   0  0  0  0  0  0  0  0  0  0  0  0
  148.6454  137.7878  155.7070 C   0  0  0  0  0  0  0  0  0  0  0  0
  150.1670  137.8266  155.4457 C   0  0  1  0  0  0  0  0  0  0  0  0
  150.7123  139.2597  155.4682 C   0  0  0  0  0  0  0  0  0  0  0  0
  150.9416  139.8575  154.4165 O   0  0  0  0  0  0  0  0  0  0  0  0
  150.8880  139.8078  156.6799 N   0  0  0  0  0  0  0  0  0  0  0  0
  151.2682  141.1945  156.9277 C   0  0  0  0  0  0  0  0  0  0  0  0
  150.1973  141.9810  157.7132 C   0  0  0  0  0  0  0  0  0  0  0  0
  150.7372  143.2089  158.4305 C   0  0  0  0  0  0  0  0  0  0  0  0
  152.0668  143.6341  158.2242 C   0  0  0  0  0  0  0  0  0  0  0  0
  152.5282  144.7613  158.9317 C   0  0  0  0  0  0  0  0  0  0  0  0
  151.6482  145.4155  159.8157 C   0  0  0  0  0  0  0  0  0  0  0  0
  150.3388  144.9133  159.9515 C   0  0  0  0  0  0  0  0  0  0  0  0
  149.8870  143.8352  159.2762 N   0  0  0  0  0  0  0  0  0  0  0  0
  150.9073  136.9489  156.4783 C   0  0  0  0  0  0  0  0  0  0  0  0
  151.6368  132.1010  157.5281 H   0  0  0  0  0  0  0  0  0  0  0  0
  152.1744  131.8505  155.8619 H   0  0  0  0  0  0  0  0  0  0  0  0
  150.6105  131.2311  156.4016 H   0  0  0  0  0  0  0  0  0  0  0  0
  149.7289  134.0219  154.3020 H   0  0  0  0  0  0  0  0  0  0  0  0
  148.6916  133.1042  155.4037 H   0  0  0  0  0  0  0  0  0  0  0  0
  149.8891  132.2841  154.4089 H   0  0  0  0  0  0  0  0  0  0  0  0
  148.5902  134.4909  156.8264 H   0  0  0  0  0  0  0  0  0  0  0  0
  148.8435  135.9152  157.7896 H   0  0  0  0  0  0  0  0  0  0  0  0
  148.1771  135.8807  154.7987 H   0  0  0  0  0  0  0  0  0  0  0  0
  147.0812  136.3332  156.0810 H   0  0  0  0  0  0  0  0  0  0  0  0
  148.1113  138.3276  154.9243 H   0  0  0  0  0  0  0  0  0  0  0  0
  148.4141  138.2945  156.6452 H   0  0  0  0  0  0  0  0  0  0  0  0
  150.3483  137.4066  154.4542 H   0  0  0  0  0  0  0  0  0  0  0  0
  150.6765  139.2425  157.4893 H   0  0  0  0  0  0  0  0  0  0  0  0
  152.1952  141.1777  157.5013 H   0  0  0  0  0  0  0  0  0  0  0  0
  151.4978  141.6983  155.9879 H   0  0  0  0  0  0  0  0  0  0  0  0
  149.3997  142.2877  157.0358 H   0  0  0  0  0  0  0  0  0  0  0  0
  149.7272  141.3246  158.4473 H   0  0  0  0  0  0  0  0  0  0  0  0
  152.7202  143.1066  157.5448 H   0  0  0  0  0  0  0  0  0  0  0  0
  153.5401  145.1155  158.8013 H   0  0  0  0  0  0  0  0  0  0  0  0
  151.9684  146.2812  160.3763 H   0  0  0  0  0  0  0  0  0  0  0  0
  149.6363  145.3877  160.6206 H   0  0  0  0  0  0  0  0  0  0  0  0
  150.7802  137.3377  157.4904 H   0  0  0  0  0  0  0  0  0  0  0  0
  151.9784  136.9737  156.2683 H   0  0  0  0  0  0  0  0  0  0  0  0
  1  2  1  0  0  0  0
  1 23  1  0  0  0  0
  1 24  1  0  0  0  0
  1 25  1  0  0  0  0
  2  3  1  0  0  0  0
  2  4  1  0  0  0  0
  3 26  1  0  0  0  0
  3 27  1  0  0  0  0
  3 28  1  0  0  0  0
  4  5  2  0  0  0  0
  4  6  1  0  0  0  0
  6 22  1  0  0  0  0
  6  7  1  0  0  0  0
  7  8  1  0  0  0  0
  7 29  1  0  0  0  0
  7 30  1  0  0  0  0
  8  9  1  0  0  0  0
  8 31  1  0  0  0  0
  8 32  1  0  0  0  0
  9 10  1  0  0  0  0
  9 33  1  0  0  0  0
  9 34  1  0  0  0  0
 10 11  1  0  0  0  0
 10 22  1  0  0  0  0
 10 35  1  0  0  0  0
 11 12  2  0  0  0  0
 11 13  1  0  0  0  0
 13 14  1  0  0  0  0
 13 36  1  0  0  0  0
 14 15  1  0  0  0  0
 14 37  1  0  0  0  0
 14 38  1  0  0  0  0
 15 16  1  0  0  0  0
 15 39  1  0  0  0  0
 15 40  1  0  0  0  0
 16 21  1  0  0  0  0
 16 17  2  0  0  0  0
 17 18  1  0  0  0  0
 17 41  1  0  0  0  0
 18 19  2  0  0  0  0
 18 42  1  0  0  0  0
 19 20  1  0  0  0  0
 19 43  1  0  0  0  0
 20 21  2  0  0  0  0
 20 44  1  0  0  0  0
 22 45  1  0  0  0  0
 22 46  1  0  0  0  0
M  END
> <s_m_source_file>
AV-unprocessed.smi

> <i_m_source_file_index>
1839

> <i_lp_mmshare_version>
43012

> <i_f3d_flags>
0

> <s_epik_input>
W0NIM11OKFtDSDNdKUMoPU8pTjFbQ0gyXVtDSDJdW0NIMl1bQ0BIXShbQ0gyXTEpQyg9TylbTkhdW0NIMl1bQ0gyXWMyW2NIXVtjSF1bY0hdW2NIXW4y

> <s_epik_cmdline>
J2VwaWtfcHl0aG9uJywgJy1waCcsICc3LjAnLCAnLXRuJywgJzgnLCAnLW1hJywgJzIwMCcsICctbWV0YWxfYmluZGluZycsICctaW1hZScsICc8aW5maWxlLm1hZT4nLCAnLW9tYWUnLCAnPG91dGZpbGUubWFlPic=

> <r_epik_Ionization_Penalty>
0.0268631

> <r_epik_Ionization_Penalty_Charging>
0

> <r_epik_Ionization_Penalty_Neutral>
0.0268631

> <r_epik_State_Penalty>
0.0219025

> <r_epik_Charging_Adjusted_Penalty>
0.0219025

> <i_epik_Tot_Q>
0

> <i_epik_Tot_abs_Q>
0

> <r_epik_Metal_State_Penalty>
0.0209511

> <b_epik_Metal_Only>
0

> <s_lp_Force_Field>
OPLS_2005

> <r_lp_Energy>
49.2306

> <b_lp_Chiralities_Consistent>
1

> <s_lp_Variant>
AV-unprocessed.smi:1839-1

> <Gold.Version>
5.8.1

> <Gold.Id.Protein>
6NUR|6NUR_protein|mol2

> <Gold.PLP.Fitness>
41.5010

> <Gold.PLP.PLP>
-37.0866

> <Gold.PLP.part.hbond>
-2.4131

> <Gold.PLP.part.metal>
0.0000

> <Gold.PLP.part.buried>
-5.9959

> <Gold.PLP.part.nonpolar>
-29.2967

> <Gold.PLP.part.repulsive>
0.3158

> <Gold.PLP.ligand.clash>
0.0000

> <Gold.PLP.ligand.torsion>
1.3011

> <Gold.PLP.Chemscore.Hbond>
1.8873

> <Gold.PLP.Chemscore.CHOScore>
0.0000

> <Gold.PLP.Chemscore.Metal>
0.0000

> <Gold.Chemscore.Hbonds>
donor molecule, donor type, donor heavy atom, donor atom, acceptor molecule, acceptor atom, score
      P1  H  7989  7998       L1    12  0.99
      P1  H 10752 10763       L1     5  0.90

> <Gold.PLP.Chemscore.Internal.Correction>
1.3548

> <Gold.Rescore>
     Score         DG    S(hbond)    S(metal)    S(lipo)     H(rot)  DE(clash)    DE(int)     intcor
     15.46     -18.12       1.71        0.00      92.44       1.52       0.41       2.25       ----

> <Gold.Chemscore.Fitness>
15.4590

> <Gold.Chemscore.DG>
-18.1192

> <Gold.Chemscore.ZeroCoef>
-5.4800

> <Gold.Chemscore.Hbond>
1.7077

> <Gold.Chemscore.Metal>
0.0000

> <Gold.Chemscore.Lipo>
92.4364

> <Gold.Chemscore.Internal_Hbond>
0.0000

> <Gold.Chemscore.DEClash>
0.4139

> <Gold.Chemscore.DEInternal>
2.2462

> <Gold.Chemscore.Rot>
1.5155

> <Gold.Chemscore.Internal.Correction>
   9.000000E+99

> <Gold.Chemscore.Hbonds>
donor molecule, donor type, donor heavy atom, donor atom, acceptor molecule, acceptor atom, score
      P1  H  7989  7998       L1    12  0.92
      P1  H 10752 10763       L1     5  0.37

> <Gold.Chemscore.Hbond.Weighted>
-5.7037

> <Gold.Chemscore.Metal.Weighted>
-0.0000

> <Gold.Chemscore.Lipo.Weighted>
-10.8151

> <Gold.Chemscore.Internal_Hbond.Weighted>
0.0000

> <Gold.Chemscore.DEClash.Weighted>
0.4139

> <Gold.Chemscore.DEInternal.Weighted>
2.2462

> <Gold.Chemscore.Rot.Weighted>
3.8796

> <Gold.Chemscore.Internal.Correction.Weighted>
   9.000000E+99

> <Gold.Protein.RotatedTorsions>
[ 6907 6896 6895 6894 ] final   23.59 input  -60.11 | X-H torsion
[ 7974 7965 7964 7962 ] final  -78.87 input  175.53 | X-H torsion
[ 8008 7997 7996 7995 ] final  -27.73 input   59.86 | X-H torsion
[ 10167 10162 10161 10158 ] final  125.52 input  -65.29 | X-H torsion
[ 10718 10713 10712 10709 ] final -170.09 input   66.30 | X-H torsion
[ 10763 10752 10751 10750 ] final  103.87 input  -60.55 | X-H torsion
[ 11005 11000 10999 10996 ] final  107.99 input  -57.11 | X-H torsion

> <Gold.Protein.ActiveResidues>
 VAL166  LYS551  ARG553  GLY616  TRP617  ASP618  TYR619  PRO620  LYS621  CYS622 
 ASP623  PHE694  ASN695  SER759  ASP760  ASP761  ALA762  ILE779  LEU786  VAL792 
 PHE793  MET794  SER795  GLU796  ALA797  LYS798  CYS799  TRP800  GLU811  SER814 

> <Gold.Protein.RotatedAtoms>
  151.9446  135.0197  160.0537 H   0  0  0  0  0  0  0  0  0  0  0  0  # atno 6907 bound_to 6896
  152.2006  133.4834  159.5065 H   0  0  0  0  0  0  0  0  0  0  0  0  # atno 6908 bound_to 6896
  150.6954  134.1512  159.4184 H   0  0  0  0  0  0  0  0  0  0  0  0  # atno 6909 bound_to 6896
  145.5807  140.9449  143.1345 H   0  0  0  0  0  0  0  0  0  0  0  0  # atno 7974 bound_to 7965
  154.4364  140.1864  156.0977 H   0  0  0  0  0  0  0  0  0  0  0  0  # atno 8008 bound_to 7997
  156.0316  140.3330  155.7120 H   0  0  0  0  0  0  0  0  0  0  0  0  # atno 8009 bound_to 7997
  155.5831  140.0623  157.2769 H   0  0  0  0  0  0  0  0  0  0  0  0  # atno 8010 bound_to 7997
  139.5681  144.6923  151.3853 H   0  0  0  0  0  0  0  0  0  0  0  0  # atno 10167 bound_to 10162
  156.7211  130.9270  151.3097 H   0  0  0  0  0  0  0  0  0  0  0  0  # atno 10718 bound_to 10713
  153.3584  135.3962  155.1699 H   0  0  0  0  0  0  0  0  0  0  0  0  # atno 10763 bound_to 10752
  154.8675  135.3673  154.5131 H   0  0  0  0  0  0  0  0  0  0  0  0  # atno 10764 bound_to 10752
  153.5589  135.7081  153.5617 H   0  0  0  0  0  0  0  0  0  0  0  0  # atno 10765 bound_to 10752
  139.8837  134.9417  156.5904 H   0  0  0  0  0  0  0  0  0  0  0  0  # atno 11005 bound_to 11000
  144.7395  139.7489  143.7316 LP  0  0  0  0  0  0  0  0  0  0  0  0  # atno 17320 bound_to 7965
  146.1718  139.4871  142.9923 LP  0  0  0  0  0  0  0  0  0  0  0  0  # atno 17321 bound_to 7965
  140.6965  143.7736  150.7335 LP  0  0  0  0  0  0  0  0  0  0  0  0  # atno 17342 bound_to 10162
  140.1234  143.4592  152.2299 LP  0  0  0  0  0  0  0  0  0  0  0  0  # atno 17343 bound_to 10162
  157.6897  130.9221  150.0482 LP  0  0  0  0  0  0  0  0  0  0  0  0  # atno 17370 bound_to 10713
  156.1594  130.3643  149.9321 LP  0  0  0  0  0  0  0  0  0  0  0  0  # atno 17371 bound_to 10713
  140.7959  133.8544  155.8685 LP  0  0  0  0  0  0  0  0  0  0  0  0  # atno 17394 bound_to 11000
  140.9636  134.1624  157.4634 LP  0  0  0  0  0  0  0  0  0  0  0  0  # atno 17395 bound_to 11000

$$$$
