#       Name:                AV-unprocessed.smi:1005
#       Creating user name   scv26
#       Creation time:       Fri Mar 27 02:29:25 2020


#       File generated by GOLD software.
#

@<TRIPOS>MOLECULE
AV-unprocessed.smi:1005
    62    64     1
SMALL
NO_CHARGES


@<TRIPOS>ATOM
      1 ****         1.5975   5.6655   1.5985 C.3            1 S1                 0.0000
      2 ****         0.4464   4.6746   1.5684 C.ar           1 S1                 0.0000
      3 ****        -0.0719   4.2056   2.7965 C.ar           1 S1                 0.0000
      4 ****        -1.1234   3.2989   2.7365 C.ar           1 S1                 0.0000
      5 ****        -1.8370   2.6599   3.7525 N.pl3          1 S1                 1.0000
      6 ****        -2.7834   1.8501   3.2028 C.2            1 S1                 0.0000
      7 ****        -2.6849   1.9616   1.8502 N.pl3          1 S1                 0.0000
      8 ****        -3.4734   1.3005   0.8006 C.3            1 S1                 0.0000
      9 ****        -2.9948  -0.1350   0.5077 C.3            1 S1                 0.0000
     10 ****        -3.8714  -0.6869  -0.4528 O.3            1 S1                 0.0000
     11 ****        -1.5514  -0.2043  -0.0399 C.3            1 S1                 0.0000
     12 ****        -1.0075  -1.5507  -0.2228 N.3            1 S1                 0.0000
     13 ****        -0.7712  -2.2407   1.0439 C.3            1 S1                 0.0000
     14 ****        -0.1641  -3.6376   0.8314 C.3            1 S1                 0.0000
     15 ****         1.0336  -3.5273   0.0697 O.3            1 S1                 0.0000
     16 ****         0.8300  -2.9170  -1.2020 C.3            1 S1                 0.0000
     17 ****         2.1846  -2.8596  -1.9308 C.3            1 S1                 0.0000
     18 ****         2.7530  -4.2062  -2.1955 N.4            1 S1                 1.0000
     19 ****         2.0583  -4.9394  -3.2792 C.3            1 S1                 0.0000
     20 ****         4.2138  -4.1566  -2.4257 C.3            1 S1                 0.0000
     21 ****         0.2402  -1.5101  -0.9779 C.3            1 S1                 0.0000
     22 ****        -1.6630   2.8579   1.5121 C.ar           1 S1                 0.0000
     23 ****        -1.1637   3.3115   0.2928 C.ar           1 S1                 0.0000
     24 ****        -0.0925   4.2325   0.3325 C.ar           1 S1                 0.0000
     25 ****         0.4746   4.7406  -0.9824 C.3            1 S1                 0.0000
     26 ****         1.9004   5.8945   2.6206 H              1 S1                 0.0000
     27 ****         1.3096   6.6015   1.1190 H              1 S1                 0.0000
     28 ****         2.4654   5.2610   1.0772 H              1 S1                 0.0000
     29 ****         0.3336   4.5371   3.7414 H              1 S1                 0.0000
     30 ****        -3.4853   1.2306   3.7426 H              1 S1                 0.0000
     31 ****        -4.5073   1.2817   1.1488 H              1 S1                 0.0000
     32 ****        -3.4691   1.9135  -0.1006 H              1 S1                 0.0000
     33 ****        -3.0901  -0.7155   1.4244 H              1 S1                 0.0000
     34 ****        -3.7890  -0.1955  -1.2557 H              1 S1                 0.0000
     35 ****        -1.5299   0.3252  -0.9936 H              1 S1                 0.0000
     36 ****        -0.8834   0.3502   0.6193 H              1 S1                 0.0000
     37 ****        -0.1018  -1.6483   1.6695 H              1 S1                 0.0000
     38 ****        -1.7016  -2.3513   1.5989 H              1 S1                 0.0000
     39 ****         0.0645  -4.1013   1.7910 H              1 S1                 0.0000
     40 ****        -0.8706  -4.2926   0.3192 H              1 S1                 0.0000
     41 ****         0.1152  -3.5063  -1.7769 H              1 S1                 0.0000
     42 ****         2.0916  -2.3138  -2.8709 H              1 S1                 0.0000
     43 ****         2.8794  -2.2895  -1.3122 H              1 S1                 0.0000
     44 ****         2.1245  -4.3975  -4.2235 H              1 S1                 0.0000
     45 ****         1.0059  -5.0981  -3.0477 H              1 S1                 0.0000
     46 ****         2.5060  -5.9235  -3.4221 H              1 S1                 0.0000
     47 ****         4.4481  -3.5825  -3.3233 H              1 S1                 0.0000
     48 ****         4.6206  -5.1613  -2.5464 H              1 S1                 0.0000
     49 ****         4.7254  -3.6954  -1.5801 H              1 S1                 0.0000
     50 ****         0.0673  -1.0366  -1.9454 H              1 S1                 0.0000
     51 ****         0.9682  -0.8890  -0.4532 H              1 S1                 0.0000
     52 ****        -1.5690   2.9754  -0.6498 H              1 S1                 0.0000
     53 ****        -0.0506   4.3121  -1.8365 H              1 S1                 0.0000
     54 ****         1.5282   4.4757  -1.0728 H              1 S1                 0.0000
     55 ****         0.3828   5.8252  -1.0459 H              1 S1                 0.0000
     56 ****         2.6229  -4.7414  -1.3482 H              1 S1                 0.0000
     57 ****        -1.6915   2.7670   4.7484 H              1 S1                 0.0000
     58 ****        -4.8128  -0.6323  -0.1200 LP             1 S1                 0.0000
     59 ****        -3.6310  -1.6435  -0.6176 LP             1 S1                 0.0000
     60 ****        -1.7003  -2.0615  -0.7318 LP             1 S1                 0.0000
     61 ****         1.4063  -4.4442  -0.0728 LP             1 S1                 0.0000
     62 ****         1.6901  -2.9771   0.5858 LP             1 S1                 0.0000
@<TRIPOS>BOND
    1    1    2 1     
    2    1   26 1     
    3    1   27 1     
    4    1   28 1     
    5    2   24 ar    
    6    2    3 ar    
    7    3    4 ar    
    8    3   29 1     
    9    4   22 ar    
   10    4    5 1     
   11    5    6 2     
   12    5   57 1     
   13    6    7 1     
   14    6   30 1     
   15    7    8 1     
   16    7   22 1     
   17    8    9 1     
   18    8   31 1     
   19    8   32 1     
   20    9   10 1     
   21    9   11 1     
   22    9   33 1     
   23   10   34 1     
   24   11   12 1     
   25   11   35 1     
   26   11   36 1     
   27   12   21 1     
   28   12   13 1     
   29   13   14 1     
   30   13   37 1     
   31   13   38 1     
   32   14   15 1     
   33   14   39 1     
   34   14   40 1     
   35   15   16 1     
   36   16   17 1     
   37   16   21 1     
   38   16   41 1     
   39   17   18 1     
   40   17   42 1     
   41   17   43 1     
   42   18   19 1     
   43   18   20 1     
   44   18   56 1     
   45   19   44 1     
   46   19   45 1     
   47   19   46 1     
   48   20   47 1     
   49   20   48 1     
   50   20   49 1     
   51   21   50 1     
   52   21   51 1     
   53   22   23 ar    
   54   23   24 ar    
   55   23   52 1     
   56   24   25 1     
   57   25   53 1     
   58   25   54 1     
   59   25   55 1     
   60   10   58 1     
   61   10   59 1     
   62   12   60 1     
   63   15   61 1     
   64   15   62 1     
@<TRIPOS>SUBSTRUCTURE
      1 S1             1
@<TRIPOS>SET
LONE_PAIRS      STATIC     ATOMS    <user>   **** ""
5 58 59 60 61 62
DONOR_HYDROGENS      STATIC     ATOMS    <user>   **** ""
3 57 34 56
ATOM$BLUE        STATIC     ATOMS    COLORGROUP SYSTEM
5 58 59 60 61 62
ATOM$RED        STATIC     ATOMS    COLORGROUP SYSTEM
3 57 34 56
