AV-unprocessed.smi:3176|AV-procd|sdf|12126|dock4
  -GOLD-   2272017563D 1   1.00000     0.00000
 Structure written by MMmdl.
 33 34  0  0  0  0  0  0  0  0  2 V2000
  149.0519  140.9033  154.1116 O   0  0  0  0  0  0  0  0  0  0  0  0
  148.3577  140.7037  155.1087 C   0  0  0  0  0  0  0  0  0  0  0  0
  148.8706  140.5846  156.3436 N   0  0  0  0  0  0  0  0  0  0  0  0
  150.2865  140.6766  156.6770 C   0  0  0  0  0  0  0  0  0  0  0  0
  150.8839  142.0202  156.2286 C   0  0  0  0  0  0  0  0  0  0  0  0
  151.2369  142.9116  157.4031 C   0  0  0  0  0  0  0  0  0  0  0  0
  152.2160  142.5483  158.3530 C   0  0  0  0  0  0  0  0  0  0  0  0
  152.4909  143.4205  159.4270 C   0  0  0  0  0  0  0  0  0  0  0  0
  151.7816  144.6352  159.5285 C   0  0  0  0  0  0  0  0  0  0  0  0
  150.8122  144.9466  158.5534 C   0  0  0  0  0  0  0  0  0  0  0  0
  150.5763  144.0844  157.5400 N   0  3  0  0  0  0  0  0  0  0  0  0
  146.8366  140.5587  154.9675 C   0  0  2  0  0  0  0  0  0  0  0  0
  146.1326  141.8282  154.4882 C   0  0  0  0  0  0  0  0  0  0  0  0
  144.7196  141.5894  154.9744 C   0  0  0  0  0  0  0  0  0  0  0  0
  144.9375  140.8581  156.2985 C   0  0  0  0  0  0  0  0  0  0  0  0
  146.2397  140.2811  156.2327 O   0  0  0  0  0  0  0  0  0  0  0  0
  148.2270  140.4245  157.1057 H   0  0  0  0  0  0  0  0  0  0  0  0
  150.4287  140.5290  157.7490 H   0  0  0  0  0  0  0  0  0  0  0  0
  150.8042  139.8561  156.1793 H   0  0  0  0  0  0  0  0  0  0  0  0
  151.7791  141.8492  155.6294 H   0  0  0  0  0  0  0  0  0  0  0  0
  150.1809  142.5510  155.5849 H   0  0  0  0  0  0  0  0  0  0  0  0
  152.7494  141.6129  158.2628 H   0  0  0  0  0  0  0  0  0  0  0  0
  153.2364  143.1599  160.1643 H   0  0  0  0  0  0  0  0  0  0  0  0
  151.9779  145.3172  160.3432 H   0  0  0  0  0  0  0  0  0  0  0  0
  150.2227  145.8519  158.5532 H   0  0  0  0  0  0  0  0  0  0  0  0
  146.6134  139.7320  154.2913 H   0  0  0  0  0  0  0  0  0  0  0  0
  146.5514  142.7154  154.9665 H   0  0  0  0  0  0  0  0  0  0  0  0
  146.1862  141.9617  153.4073 H   0  0  0  0  0  0  0  0  0  0  0  0
  144.1431  142.5081  155.0850 H   0  0  0  0  0  0  0  0  0  0  0  0
  144.1929  140.9402  154.2734 H   0  0  0  0  0  0  0  0  0  0  0  0
  144.9115  141.5572  157.1351 H   0  0  0  0  0  0  0  0  0  0  0  0
  144.1775  140.0958  156.4717 H   0  0  0  0  0  0  0  0  0  0  0  0
  149.8697  144.3299  156.8459 H   0  0  0  0  0  0  0  0  0  0  0  0
  1  2  2  0  0  0  0
  2  3  1  0  0  0  0
  2 12  1  0  0  0  0
  3  4  1  0  0  0  0
  3 17  1  0  0  0  0
  4  5  1  0  0  0  0
  4 18  1  0  0  0  0
  4 19  1  0  0  0  0
  5  6  1  0  0  0  0
  5 20  1  0  0  0  0
  5 21  1  0  0  0  0
  6 11  1  0  0  0  0
  6  7  2  0  0  0  0
  7  8  1  0  0  0  0
  7 22  1  0  0  0  0
  8  9  2  0  0  0  0
  8 23  1  0  0  0  0
  9 10  1  0  0  0  0
  9 24  1  0  0  0  0
 10 11  2  0  0  0  0
 10 25  1  0  0  0  0
 11 33  1  0  0  0  0
 12 16  1  0  0  0  0
 12 13  1  0  0  0  0
 12 26  1  0  0  0  0
 13 14  1  0  0  0  0
 13 27  1  0  0  0  0
 13 28  1  0  0  0  0
 14 15  1  0  0  0  0
 14 29  1  0  0  0  0
 14 30  1  0  0  0  0
 15 16  1  0  0  0  0
 15 31  1  0  0  0  0
 15 32  1  0  0  0  0
M  CHG  1  11   1
M  END
> <s_m_source_file>
AV-unprocessed.smi

> <i_m_source_file_index>
3176

> <i_lp_mmshare_version>
43012

> <i_f3d_flags>
0

> <s_epik_input>
TzFbQ0gyXVtDSDJdW0NIMl1bQ0BIXTFDKD1PKVtOSF1bQ0gyXVtDSDJdYzJbY0hdW2NIXVtjSF1bY0hdbjI=

> <s_epik_cmdline>
J2VwaWtfcHl0aG9uJywgJy1waCcsICc3LjAnLCAnLXRuJywgJzgnLCAnLW1hJywgJzIwMCcsICctbWV0YWxfYmluZGluZycsICctaW1hZScsICc8aW5maWxlLm1hZT4nLCAnLW9tYWUnLCAnPG91dGZpbGUubWFlPic=

> <r_epik_Ionization_Penalty>
1.81664

> <r_epik_Ionization_Penalty_Charging>
1.81664

> <r_epik_Ionization_Penalty_Neutral>
5.71603e-08

> <r_epik_State_Penalty>
1.93152

> <r_epik_Charging_Adjusted_Penalty>
3.74817

> <i_epik_Tot_Q>
1

> <i_epik_Tot_abs_Q>
1

> <r_epik_Metal_State_Penalty>
1.95876

> <b_epik_Metal_Only>
0

> <s_lp_Force_Field>
OPLS_2005

> <r_lp_Energy>
22.4632

> <b_lp_Chiralities_Consistent>
1

> <s_lp_Variant>
AV-unprocessed.smi:3176-3

> <Gold.Version>
5.8.1

> <Gold.Id.Protein>
6NUR|6NUR_protein|mol2

> <Gold.PLP.Fitness>
43.8824

> <Gold.PLP.PLP>
-36.4360

> <Gold.PLP.part.hbond>
-2.6022

> <Gold.PLP.part.metal>
0.0000

> <Gold.PLP.part.buried>
-5.7127

> <Gold.PLP.part.nonpolar>
-28.9280

> <Gold.PLP.part.repulsive>
0.3175

> <Gold.PLP.ligand.clash>
0.0000

> <Gold.PLP.ligand.torsion>
0.3948

> <Gold.PLP.Chemscore.Hbond>
2.7360

> <Gold.PLP.Chemscore.CHOScore>
0.0000

> <Gold.PLP.Chemscore.Metal>
0.0000

> <Gold.Chemscore.Hbonds>
donor molecule, donor type, donor heavy atom, donor atom, acceptor molecule, acceptor atom, score
      L1  H    11    33       P1  8028  2.00

> <Gold.PLP.Chemscore.Internal.Correction>
0.0280

> <Gold.Rescore>
     Score         DG    S(hbond)    S(metal)    S(lipo)     H(rot)  DE(clash)    DE(int)     intcor
     15.81     -17.81       1.66        0.00      93.12       1.61       0.20       1.80       ----

> <Gold.Chemscore.Fitness>
15.8146

> <Gold.Chemscore.DG>
-17.8081

> <Gold.Chemscore.ZeroCoef>
-5.4800

> <Gold.Chemscore.Hbond>
1.6594

> <Gold.Chemscore.Metal>
0.0000

> <Gold.Chemscore.Lipo>
93.1230

> <Gold.Chemscore.Internal_Hbond>
0.0000

> <Gold.Chemscore.DEClash>
0.1969

> <Gold.Chemscore.DEInternal>
1.7965

> <Gold.Chemscore.Rot>
1.6054

> <Gold.Chemscore.Internal.Correction>
   9.000000E+99

> <Gold.Chemscore.Hbonds>
donor molecule, donor type, donor heavy atom, donor atom, acceptor molecule, acceptor atom, score
      L1  H    11    33       P1  8028  0.75
      P1  H  8011  8017       L1     1  0.04

> <Gold.Chemscore.Hbond.Weighted>
-5.5424

> <Gold.Chemscore.Metal.Weighted>
-0.0000

> <Gold.Chemscore.Lipo.Weighted>
-10.8954

> <Gold.Chemscore.Internal_Hbond.Weighted>
0.0000

> <Gold.Chemscore.DEClash.Weighted>
0.1969

> <Gold.Chemscore.DEInternal.Weighted>
1.7965

> <Gold.Chemscore.Rot.Weighted>
4.1097

> <Gold.Chemscore.Internal.Correction.Weighted>
   9.000000E+99

> <Gold.Protein.RotatedTorsions>
[ 6907 6896 6895 6894 ] final   51.47 input  -60.11 | X-H torsion
[ 7974 7965 7964 7962 ] final -136.57 input  175.53 | X-H torsion
[ 8008 7997 7996 7995 ] final  -41.81 input   59.86 | X-H torsion
[ 10167 10162 10161 10158 ] final  160.94 input  -65.29 | X-H torsion
[ 10718 10713 10712 10709 ] final  -66.24 input   66.30 | X-H torsion
[ 10763 10752 10751 10750 ] final  -29.67 input  -60.55 | X-H torsion
[ 11005 11000 10999 10996 ] final -178.20 input  -57.11 | X-H torsion

> <Gold.Protein.ActiveResidues>
 VAL166  LYS551  ARG553  GLY616  TRP617  ASP618  TYR619  PRO620  LYS621  CYS622 
 ASP623  PHE694  ASN695  SER759  ASP760  ASP761  ALA762  ILE779  LEU786  VAL792 
 PHE793  MET794  SER795  GLU796  ALA797  LYS798  CYS799  TRP800  GLU811  SER814 

> <Gold.Protein.RotatedAtoms>
  152.3130  134.7474  160.0331 H   0  0  0  0  0  0  0  0  0  0  0  0  # atno 6907 bound_to 6896
  151.7948  133.3358  159.3517 H   0  0  0  0  0  0  0  0  0  0  0  0  # atno 6908 bound_to 6896
  150.7330  134.5739  159.5949 H   0  0  0  0  0  0  0  0  0  0  0  0  # atno 6909 bound_to 6896
  144.8915  140.6649  143.5142 H   0  0  0  0  0  0  0  0  0  0  0  0  # atno 7974 bound_to 7965
  154.4002  140.1489  156.3252 H   0  0  0  0  0  0  0  0  0  0  0  0  # atno 8008 bound_to 7997
  155.8493  140.3458  155.5661 H   0  0  0  0  0  0  0  0  0  0  0  0  # atno 8009 bound_to 7997
  155.8002  140.0869  157.1952 H   0  0  0  0  0  0  0  0  0  0  0  0  # atno 8010 bound_to 7997
  139.4844  144.4585  151.8736 H   0  0  0  0  0  0  0  0  0  0  0  0  # atno 10167 bound_to 10162
  156.0624  130.4259  150.1680 H   0  0  0  0  0  0  0  0  0  0  0  0  # atno 10718 bound_to 10713
  153.7684  135.6914  153.4911 H   0  0  0  0  0  0  0  0  0  0  0  0  # atno 10763 bound_to 10752
  153.1891  135.4478  155.0125 H   0  0  0  0  0  0  0  0  0  0  0  0  # atno 10764 bound_to 10752
  154.8127  135.3385  154.7195 H   0  0  0  0  0  0  0  0  0  0  0  0  # atno 10765 bound_to 10752
  140.4324  134.6507  157.4718 H   0  0  0  0  0  0  0  0  0  0  0  0  # atno 11005 bound_to 11000
  145.3774  139.1644  143.4299 LP  0  0  0  0  0  0  0  0  0  0  0  0  # atno 17320 bound_to 7965
  146.3057  140.3851  142.8688 LP  0  0  0  0  0  0  0  0  0  0  0  0  # atno 17321 bound_to 7965
  140.4046  144.2449  150.5891 LP  0  0  0  0  0  0  0  0  0  0  0  0  # atno 17342 bound_to 10162
  140.5025  143.2314  151.8658 LP  0  0  0  0  0  0  0  0  0  0  0  0  # atno 17343 bound_to 10162
  156.9746  130.9845  151.3451 LP  0  0  0  0  0  0  0  0  0  0  0  0  # atno 17370 bound_to 10713
  157.5641  130.8266  149.8305 LP  0  0  0  0  0  0  0  0  0  0  0  0  # atno 17371 bound_to 10713
  140.0125  134.6668  155.9359 LP  0  0  0  0  0  0  0  0  0  0  0  0  # atno 17394 bound_to 11000
  141.1740  133.6539  156.4758 LP  0  0  0  0  0  0  0  0  0  0  0  0  # atno 17395 bound_to 11000

$$$$
