AV-unprocessed.smi:3006|AV-procd|sdf|11445|dock2
  -GOLD-   2272016373D 1   1.00000     0.00000
 Structure written by MMmdl.
 44 45  0  0  0  0  0  0  0  0  1 V2000
  143.7066  144.9591  156.6083 C   0  0  0  0  0  0  0  0  0  0  0  0
  144.4340  144.5853  155.3626 C   0  0  0  0  0  0  0  0  0  0  0  0
  145.3327  143.5993  155.3045 N   0  0  0  0  0  0  0  0  0  0  0  0
  145.8848  143.4481  154.0284 C   0  0  0  0  0  0  0  0  0  0  0  0
  146.9193  142.3928  153.7799 C   0  0  0  0  0  0  0  0  0  0  0  0
  147.2547  141.5983  155.0527 C   0  0  0  0  0  0  0  0  0  0  0  0
  148.5712  141.9499  155.5725 N   0  0  0  0  0  0  0  0  0  0  0  0
  149.5175  141.0723  155.9467 C   0  0  0  0  0  0  0  0  0  0  0  0
  149.3543  139.8544  155.8580 O   0  0  0  0  0  0  0  0  0  0  0  0
  150.6738  141.6369  156.3735 N   0  0  0  0  0  0  0  0  0  0  0  0
  150.9042  143.0564  156.6636 C   0  0  0  0  0  0  0  0  0  0  0  0
  151.0122  143.2392  158.1899 C   0  0  0  0  0  0  0  0  0  0  0  0
  152.1150  142.4390  158.7507 N   0  0  0  0  0  0  0  0  0  0  0  0
  152.2233  142.6193  160.2130 C   0  0  0  0  0  0  0  0  0  0  0  0
  152.2237  144.1135  160.6040 C   0  0  0  0  0  0  0  0  0  0  0  0
  153.5021  141.9673  160.7834 C   0  0  0  0  0  0  0  0  0  0  0  0
  151.9104  141.0254  158.3900 C   0  0  0  0  0  0  0  0  0  0  0  0
  151.8039  140.8491  156.8636 C   0  0  0  0  0  0  0  0  0  0  0  0
  145.3828  144.3395  153.1130 C   0  0  0  0  0  0  0  0  0  0  0  0
  144.2006  145.4043  153.8228 S   0  0  0  0  0  0  0  0  0  0  0  0
  143.3464  144.0652  157.1178 H   0  0  0  0  0  0  0  0  0  0  0  0
  142.8524  145.5937  156.3721 H   0  0  0  0  0  0  0  0  0  0  0  0
  144.3722  145.5024  157.2792 H   0  0  0  0  0  0  0  0  0  0  0  0
  146.5718  141.7087  153.0048 H   0  0  0  0  0  0  0  0  0  0  0  0
  147.8265  142.8531  153.3865 H   0  0  0  0  0  0  0  0  0  0  0  0
  146.4925  141.7612  155.8167 H   0  0  0  0  0  0  0  0  0  0  0  0
  147.2526  140.5296  154.8366 H   0  0  0  0  0  0  0  0  0  0  0  0
  148.7816  142.9342  155.6535 H   0  0  0  0  0  0  0  0  0  0  0  0
  151.8273  143.3798  156.1800 H   0  0  0  0  0  0  0  0  0  0  0  0
  150.1269  143.7154  156.2773 H   0  0  0  0  0  0  0  0  0  0  0  0
  151.1725  144.2995  158.3755 H   0  0  0  0  0  0  0  0  0  0  0  0
  150.0708  142.9662  158.6699 H   0  0  0  0  0  0  0  0  0  0  0  0
  151.3629  142.1440  160.6867 H   0  0  0  0  0  0  0  0  0  0  0  0
  152.4497  144.2406  161.6631 H   0  0  0  0  0  0  0  0  0  0  0  0
  151.2547  144.5864  160.4486 H   0  0  0  0  0  0  0  0  0  0  0  0
  152.9723  144.6725  160.0414 H   0  0  0  0  0  0  0  0  0  0  0  0
  153.6446  142.2360  161.8305 H   0  0  0  0  0  0  0  0  0  0  0  0
  154.3913  142.2887  160.2399 H   0  0  0  0  0  0  0  0  0  0  0  0
  153.4597  140.8788  160.7594 H   0  0  0  0  0  0  0  0  0  0  0  0
  152.7489  140.4175  158.7252 H   0  0  0  0  0  0  0  0  0  0  0  0
  151.0141  140.6397  158.8784 H   0  0  0  0  0  0  0  0  0  0  0  0
  151.7118  139.7899  156.6190 H   0  0  0  0  0  0  0  0  0  0  0  0
  152.7220  141.1850  156.3785 H   0  0  0  0  0  0  0  0  0  0  0  0
  145.6380  144.4353  152.0679 H   0  0  0  0  0  0  0  0  0  0  0  0
  1  2  1  0  0  0  0
  1 21  1  0  0  0  0
  1 22  1  0  0  0  0
  1 23  1  0  0  0  0
  2 20  1  0  0  0  0
  2  3  2  0  0  0  0
  3  4  1  0  0  0  0
  4  5  1  0  0  0  0
  4 19  2  0  0  0  0
  5  6  1  0  0  0  0
  5 24  1  0  0  0  0
  5 25  1  0  0  0  0
  6  7  1  0  0  0  0
  6 26  1  0  0  0  0
  6 27  1  0  0  0  0
  7  8  1  0  0  0  0
  7 28  1  0  0  0  0
  8  9  2  0  0  0  0
  8 10  1  0  0  0  0
 10 18  1  0  0  0  0
 10 11  1  0  0  0  0
 11 12  1  0  0  0  0
 11 29  1  0  0  0  0
 11 30  1  0  0  0  0
 12 13  1  0  0  0  0
 12 31  1  0  0  0  0
 12 32  1  0  0  0  0
 13 14  1  0  0  0  0
 13 17  1  0  0  0  0
 14 15  1  0  0  0  0
 14 16  1  0  0  0  0
 14 33  1  0  0  0  0
 15 34  1  0  0  0  0
 15 35  1  0  0  0  0
 15 36  1  0  0  0  0
 16 37  1  0  0  0  0
 16 38  1  0  0  0  0
 16 39  1  0  0  0  0
 17 18  1  0  0  0  0
 17 40  1  0  0  0  0
 17 41  1  0  0  0  0
 18 42  1  0  0  0  0
 18 43  1  0  0  0  0
 19 20  1  0  0  0  0
 19 44  1  0  0  0  0
M  END
> <s_m_source_file>
AV-unprocessed.smi

> <i_m_source_file_index>
3006

> <i_lp_mmshare_version>
43012

> <i_f3d_flags>
0

> <s_epik_input>
W0NIM11jMW5jKFtjSF1zMSlbQ0gyXVtDSDJdW05IXUMoPU8pTjJbQ0gyXVtDSDJdTihbQ0hdKFtDSDNdKVtDSDNdKVtDSDJdW0NIMl0y

> <s_epik_cmdline>
J2VwaWtfcHl0aG9uJywgJy1waCcsICc3LjAnLCAnLXRuJywgJzgnLCAnLW1hJywgJzIwMCcsICctbWV0YWxfYmluZGluZycsICctaW1hZScsICc8aW5maWxlLm1hZT4nLCAnLW9tYWUnLCAnPG91dGZpbGUubWFlPic=

> <r_epik_Ionization_Penalty>
0.875753

> <r_epik_Ionization_Penalty_Charging>
0

> <r_epik_Ionization_Penalty_Neutral>
0.875753

> <r_epik_State_Penalty>
0.930306

> <r_epik_Charging_Adjusted_Penalty>
0.930306

> <i_epik_Tot_Q>
0

> <i_epik_Tot_abs_Q>
0

> <r_epik_Metal_State_Penalty>
0.928801

> <b_epik_Metal_Only>
0

> <s_lp_Force_Field>
OPLS_2005

> <r_lp_Energy>
38.048

> <b_lp_Chiralities_Consistent>
1

> <s_lp_Variant>
AV-unprocessed.smi:3006-2

> <Gold.Version>
5.8.1

> <Gold.Id.Protein>
6NUR|6NUR_protein|mol2

> <Gold.PLP.Fitness>
43.2771

> <Gold.PLP.PLP>
-41.2061

> <Gold.PLP.part.hbond>
-1.0000

> <Gold.PLP.part.metal>
0.0000

> <Gold.PLP.part.buried>
-4.8205

> <Gold.PLP.part.nonpolar>
-36.2400

> <Gold.PLP.part.repulsive>
0.3024

> <Gold.PLP.ligand.clash>
0.0000

> <Gold.PLP.ligand.torsion>
0.5026

> <Gold.PLP.Chemscore.Hbond>
1.0000

> <Gold.PLP.Chemscore.CHOScore>
0.0000

> <Gold.PLP.Chemscore.Metal>
0.0000

> <Gold.Chemscore.Hbonds>
donor molecule, donor type, donor heavy atom, donor atom, acceptor molecule, acceptor atom, score
      L1  H     7    28       P1  8028  1.00

> <Gold.PLP.Chemscore.Internal.Correction>
0.0762

> <Gold.Rescore>
     Score         DG    S(hbond)    S(metal)    S(lipo)     H(rot)  DE(clash)    DE(int)     intcor
     17.04     -17.72       1.00        0.00     106.49       1.39       0.18       0.50       ----

> <Gold.Chemscore.Fitness>
17.0379

> <Gold.Chemscore.DG>
-17.7200

> <Gold.Chemscore.ZeroCoef>
-5.4800

> <Gold.Chemscore.Hbond>
0.9968

> <Gold.Chemscore.Metal>
0.0000

> <Gold.Chemscore.Lipo>
106.4898

> <Gold.Chemscore.Internal_Hbond>
0.0000

> <Gold.Chemscore.DEClash>
0.1836

> <Gold.Chemscore.DEInternal>
0.4985

> <Gold.Chemscore.Rot>
1.3861

> <Gold.Chemscore.Internal.Correction>
   9.000000E+99

> <Gold.Chemscore.Hbonds>
donor molecule, donor type, donor heavy atom, donor atom, acceptor molecule, acceptor atom, score
      L1  H     7    28       P1  8028  1.00

> <Gold.Chemscore.Hbond.Weighted>
-3.3292

> <Gold.Chemscore.Metal.Weighted>
-0.0000

> <Gold.Chemscore.Lipo.Weighted>
-12.4593

> <Gold.Chemscore.Internal_Hbond.Weighted>
0.0000

> <Gold.Chemscore.DEClash.Weighted>
0.1836

> <Gold.Chemscore.DEInternal.Weighted>
0.4985

> <Gold.Chemscore.Rot.Weighted>
3.5484

> <Gold.Chemscore.Internal.Correction.Weighted>
   9.000000E+99

> <Gold.Protein.RotatedTorsions>
[ 6907 6896 6895 6894 ] final  111.32 input  -60.11 | X-H torsion
[ 7974 7965 7964 7962 ] final -113.49 input  175.53 | X-H torsion
[ 8008 7997 7996 7995 ] final   57.79 input   59.86 | X-H torsion
[ 10167 10162 10161 10158 ] final   56.94 input  -65.29 | X-H torsion
[ 10718 10713 10712 10709 ] final -105.60 input   66.30 | X-H torsion
[ 10763 10752 10751 10750 ] final  -72.10 input  -60.55 | X-H torsion
[ 11005 11000 10999 10996 ] final -143.62 input  -57.11 | X-H torsion

> <Gold.Protein.ActiveResidues>
 VAL166  LYS551  ARG553  GLY616  TRP617  ASP618  TYR619  PRO620  LYS621  CYS622 
 ASP623  PHE694  ASN695  SER759  ASP760  ASP761  ALA762  ILE779  LEU786  VAL792 
 PHE793  MET794  SER795  GLU796  ALA797  LYS798  CYS799  TRP800  GLU811  SER814 

> <Gold.Protein.RotatedAtoms>
  152.4975  133.8674  159.7280 H   0  0  0  0  0  0  0  0  0  0  0  0  # atno 6907 bound_to 6896
  150.9169  133.6919  159.2848 H   0  0  0  0  0  0  0  0  0  0  0  0  # atno 6908 bound_to 6896
  151.4309  135.1014  159.9694 H   0  0  0  0  0  0  0  0  0  0  0  0  # atno 6909 bound_to 6896
  145.1315  140.8727  143.3755 H   0  0  0  0  0  0  0  0  0  0  0  0  # atno 7974 bound_to 7965
  155.5395  140.3484  155.4443 H   0  0  0  0  0  0  0  0  0  0  0  0  # atno 8008 bound_to 7997
  156.0661  140.1352  156.9910 H   0  0  0  0  0  0  0  0  0  0  0  0  # atno 8009 bound_to 7997
  154.4504  140.0975  156.6575 H   0  0  0  0  0  0  0  0  0  0  0  0  # atno 8010 bound_to 7997
  140.2033  144.3965  150.6519 H   0  0  0  0  0  0  0  0  0  0  0  0  # atno 10167 bound_to 10162
  156.0353  130.5572  150.7563 H   0  0  0  0  0  0  0  0  0  0  0  0  # atno 10718 bound_to 10713
  154.4411  135.5940  153.6129 H   0  0  0  0  0  0  0  0  0  0  0  0  # atno 10763 bound_to 10752
  152.9805  135.5998  154.3722 H   0  0  0  0  0  0  0  0  0  0  0  0  # atno 10764 bound_to 10752
  154.3572  135.2841  155.2319 H   0  0  0  0  0  0  0  0  0  0  0  0  # atno 10765 bound_to 10752
  140.8107  134.2748  157.4942 H   0  0  0  0  0  0  0  0  0  0  0  0  # atno 11005 bound_to 11000
  145.0631  139.3090  143.5870 LP  0  0  0  0  0  0  0  0  0  0  0  0  # atno 17320 bound_to 7965
  146.3513  140.0079  142.8670 LP  0  0  0  0  0  0  0  0  0  0  0  0  # atno 17321 bound_to 7965
  140.6375  143.2197  151.6363 LP  0  0  0  0  0  0  0  0  0  0  0  0  # atno 17342 bound_to 10162
  139.5208  144.3211  152.0910 LP  0  0  0  0  0  0  0  0  0  0  0  0  # atno 17343 bound_to 10162
  157.5094  131.0924  151.0217 LP  0  0  0  0  0  0  0  0  0  0  0  0  # atno 17370 bound_to 10713
  157.0576  130.5812  149.5380 LP  0  0  0  0  0  0  0  0  0  0  0  0  # atno 17371 bound_to 10713
  139.8714  134.9481  156.3987 LP  0  0  0  0  0  0  0  0  0  0  0  0  # atno 17394 bound_to 11000
  140.9201  133.7651  155.9896 LP  0  0  0  0  0  0  0  0  0  0  0  0  # atno 17395 bound_to 11000

$$$$
