AV-unprocessed.smi:1055|AV-procd|sdf|4628|dock1
  -GOLD-   22720 3133D 1   1.00000     0.00000
 Structure written by MMmdl.
 51 52  0  0  0  0  0  0  0  0  2 V2000
  157.8273  133.7559  166.8676 C   0  0  0  0  0  0  0  0  0  0  0  0
  157.1737  132.7498  166.2638 C   0  0  0  0  0  0  0  0  0  0  0  0
  157.4634  131.2955  166.5849 C   0  0  0  0  0  0  0  0  0  0  0  0
  156.0819  133.0037  165.2343 C   0  0  0  0  0  0  0  0  0  0  0  0
  155.8180  134.4237  164.9999 N   0  0  0  0  0  0  0  0  0  0  0  0
  154.4933  134.6339  164.4046 C   0  0  0  0  0  0  0  0  0  0  0  0
  154.2163  136.1367  164.2267 C   0  0  0  0  0  0  0  0  0  0  0  0
  155.2931  136.7992  163.3508 C   0  0  0  0  0  0  0  0  0  0  0  0
  155.1035  138.2458  163.2949 N   0  0  0  0  0  0  0  0  0  0  0  0
  154.4838  138.9037  162.3048 C   0  0  0  0  0  0  0  0  0  0  0  0
  154.0092  138.3485  161.3141 O   0  0  0  0  0  0  0  0  0  0  0  0
  154.4682  140.2282  162.5344 N   0  0  0  0  0  0  0  0  0  0  0  0
  153.8785  141.2550  161.7480 C   0  0  0  0  0  0  0  0  0  0  0  0
  153.3459  142.3758  162.4185 C   0  0  0  0  0  0  0  0  0  0  0  0
  152.7374  143.4122  161.6807 C   0  0  0  0  0  0  0  0  0  0  0  0
  152.6556  143.3185  160.2694 C   0  0  0  0  0  0  0  0  0  0  0  0
  152.0617  144.3120  159.4613 N   0  0  0  0  0  0  0  0  0  0  0  0
  151.6005  145.5564  160.0628 C   0  0  0  0  0  0  0  0  0  0  0  0
  151.8960  144.0793  158.0307 C   0  0  0  0  0  0  0  0  0  0  0  0
  153.1704  142.2162  159.6718 N   0  3  0  0  0  0  0  0  0  0  0  0
  153.7624  141.2023  160.3386 C   0  0  0  0  0  0  0  0  0  0  0  0
  156.6779  136.4729  163.9280 C   0  0  0  0  0  0  0  0  0  0  0  0
  156.8540  134.9557  164.1124 C   0  0  0  0  0  0  0  0  0  0  0  0
  158.5950  133.5647  167.6031 H   0  0  0  0  0  0  0  0  0  0  0  0
  157.6052  134.7871  166.6349 H   0  0  0  0  0  0  0  0  0  0  0  0
  156.5612  130.8022  166.9470 H   0  0  0  0  0  0  0  0  0  0  0  0
  158.2324  131.2030  167.3528 H   0  0  0  0  0  0  0  0  0  0  0  0
  157.8102  130.7675  165.6962 H   0  0  0  0  0  0  0  0  0  0  0  0
  156.3930  132.5362  164.2991 H   0  0  0  0  0  0  0  0  0  0  0  0
  155.1620  132.5056  165.5457 H   0  0  0  0  0  0  0  0  0  0  0  0
  154.4293  134.1205  163.4440 H   0  0  0  0  0  0  0  0  0  0  0  0
  153.7173  134.2120  165.0433 H   0  0  0  0  0  0  0  0  0  0  0  0
  153.2304  136.2750  163.7817 H   0  0  0  0  0  0  0  0  0  0  0  0
  154.1833  136.6163  165.2063 H   0  0  0  0  0  0  0  0  0  0  0  0
  155.2366  136.3871  162.3413 H   0  0  0  0  0  0  0  0  0  0  0  0
  155.4662  138.7802  164.0708 H   0  0  0  0  0  0  0  0  0  0  0  0
  154.9687  140.5414  163.3534 H   0  0  0  0  0  0  0  0  0  0  0  0
  153.4049  142.4480  163.4948 H   0  0  0  0  0  0  0  0  0  0  0  0
  152.3407  144.2635  162.2134 H   0  0  0  0  0  0  0  0  0  0  0  0
  150.8240  145.3582  160.8020 H   0  0  0  0  0  0  0  0  0  0  0  0
  151.1828  146.2286  159.3129 H   0  0  0  0  0  0  0  0  0  0  0  0
  152.4254  146.0757  160.5514 H   0  0  0  0  0  0  0  0  0  0  0  0
  151.2828  143.1951  157.8543 H   0  0  0  0  0  0  0  0  0  0  0  0
  152.8646  143.9312  157.5522 H   0  0  0  0  0  0  0  0  0  0  0  0
  151.4092  144.9245  157.5440 H   0  0  0  0  0  0  0  0  0  0  0  0
  154.1039  140.3904  159.7145 H   0  0  0  0  0  0  0  0  0  0  0  0
  157.4577  136.8561  163.2689 H   0  0  0  0  0  0  0  0  0  0  0  0
  156.8115  136.9717  164.8894 H   0  0  0  0  0  0  0  0  0  0  0  0
  157.8380  134.7589  164.5401 H   0  0  0  0  0  0  0  0  0  0  0  0
  156.8182  134.4497  163.1461 H   0  0  0  0  0  0  0  0  0  0  0  0
  153.1050  142.1452  158.6562 H   0  0  0  0  0  0  0  0  0  0  0  0
  1  2  2  0  0  0  0
  1 24  1  0  0  0  0
  1 25  1  0  0  0  0
  2  3  1  0  0  0  0
  2  4  1  0  0  0  0
  3 26  1  0  0  0  0
  3 27  1  0  0  0  0
  3 28  1  0  0  0  0
  4  5  1  0  0  0  0
  4 29  1  0  0  0  0
  4 30  1  0  0  0  0
  5 23  1  0  0  0  0
  5  6  1  0  0  0  0
  6  7  1  0  0  0  0
  6 31  1  0  0  0  0
  6 32  1  0  0  0  0
  7  8  1  0  0  0  0
  7 33  1  0  0  0  0
  7 34  1  0  0  0  0
  8  9  1  0  0  0  0
  8 22  1  0  0  0  0
  8 35  1  0  0  0  0
  9 10  1  0  0  0  0
  9 36  1  0  0  0  0
 10 11  2  0  0  0  0
 10 12  1  0  0  0  0
 12 13  1  0  0  0  0
 12 37  1  0  0  0  0
 13 21  1  0  0  0  0
 13 14  2  0  0  0  0
 14 15  1  0  0  0  0
 14 38  1  0  0  0  0
 15 16  2  0  0  0  0
 15 39  1  0  0  0  0
 16 17  1  0  0  0  0
 16 20  1  0  0  0  0
 17 18  1  0  0  0  0
 17 19  1  0  0  0  0
 18 40  1  0  0  0  0
 18 41  1  0  0  0  0
 18 42  1  0  0  0  0
 19 43  1  0  0  0  0
 19 44  1  0  0  0  0
 19 45  1  0  0  0  0
 20 21  2  0  0  0  0
 20 51  1  0  0  0  0
 21 46  1  0  0  0  0
 22 23  1  0  0  0  0
 22 47  1  0  0  0  0
 22 48  1  0  0  0  0
 23 49  1  0  0  0  0
 23 50  1  0  0  0  0
M  CHG  1  20   1
M  END
> <s_m_source_file>
AV-unprocessed.smi

> <i_m_source_file_index>
1055

> <i_lp_mmshare_version>
43012

> <i_f3d_flags>
0

> <s_epik_input>
W0NIMl09QyhbQ0gzXSlbQ0gyXU4xW0NIMl1bQ0gyXVtDSF0oW0NIMl1bQ0gyXTEpW05IXUMoPU8pW05IXWMyW2NIXVtjSF1jKE4oW0NIM10pW0NIM10pbltjSF0y

> <s_epik_cmdline>
J2VwaWtfcHl0aG9uJywgJy1waCcsICc3LjAnLCAnLXRuJywgJzgnLCAnLW1hJywgJzIwMCcsICctbWV0YWxfYmluZGluZycsICctaW1hZScsICc8aW5maWxlLm1hZT4nLCAnLW9tYWUnLCAnPG91dGZpbGUubWFlPic=

> <r_epik_Ionization_Penalty>
2.2313

> <r_epik_Ionization_Penalty_Charging>
0.252156

> <r_epik_Ionization_Penalty_Neutral>
1.97915

> <r_epik_State_Penalty>
2.37644

> <r_epik_Charging_Adjusted_Penalty>
2.62859

> <i_epik_Tot_Q>
1

> <i_epik_Tot_abs_Q>
1

> <r_epik_Metal_State_Penalty>
2.63815

> <b_epik_Metal_Only>
0

> <s_lp_Force_Field>
OPLS_2005

> <r_lp_Energy>
24.1414

> <b_lp_Chiralities_Consistent>
1

> <s_lp_Variant>
AV-unprocessed.smi:1055-5

> <Gold.Version>
5.8.1

> <Gold.Id.Protein>
6NUR|6NUR_protein|mol2

> <Gold.PLP.Fitness>
46.2195

> <Gold.PLP.PLP>
-47.6162

> <Gold.PLP.part.hbond>
0.0000

> <Gold.PLP.part.metal>
0.0000

> <Gold.PLP.part.buried>
-5.5864

> <Gold.PLP.part.nonpolar>
-42.7334

> <Gold.PLP.part.repulsive>
0.1637

> <Gold.PLP.ligand.clash>
0.0000

> <Gold.PLP.ligand.torsion>
0.7277

> <Gold.PLP.Chemscore.Hbond>
0.0000

> <Gold.PLP.Chemscore.CHOScore>
0.0000

> <Gold.PLP.Chemscore.Metal>
0.0000

> <Gold.PLP.Chemscore.Internal.Correction>
0.0586

> <Gold.Rescore>
     Score         DG    S(hbond)    S(metal)    S(lipo)     H(rot)  DE(clash)    DE(int)     intcor
     14.45     -16.27       0.00        0.00     121.19       1.32       0.09       1.73       ----

> <Gold.Chemscore.Fitness>
14.4502

> <Gold.Chemscore.DG>
-16.2722

> <Gold.Chemscore.ZeroCoef>
-5.4800

> <Gold.Chemscore.Hbond>
0.0000

> <Gold.Chemscore.Metal>
0.0000

> <Gold.Chemscore.Lipo>
121.1908

> <Gold.Chemscore.Internal_Hbond>
0.0000

> <Gold.Chemscore.DEClash>
0.0909

> <Gold.Chemscore.DEInternal>
1.7311

> <Gold.Chemscore.Rot>
1.3231

> <Gold.Chemscore.Internal.Correction>
   9.000000E+99

> <Gold.Chemscore.Hbond.Weighted>
-0.0000

> <Gold.Chemscore.Metal.Weighted>
-0.0000

> <Gold.Chemscore.Lipo.Weighted>
-14.1793

> <Gold.Chemscore.Internal_Hbond.Weighted>
0.0000

> <Gold.Chemscore.DEClash.Weighted>
0.0909

> <Gold.Chemscore.DEInternal.Weighted>
1.7311

> <Gold.Chemscore.Rot.Weighted>
3.3871

> <Gold.Chemscore.Internal.Correction.Weighted>
   9.000000E+99

> <Gold.Protein.RotatedTorsions>
[ 6907 6896 6895 6894 ] final  107.94 input  -60.11 | X-H torsion
[ 7974 7965 7964 7962 ] final  163.59 input  175.53 | X-H torsion
[ 8008 7997 7996 7995 ] final -109.31 input   59.86 | X-H torsion
[ 10167 10162 10161 10158 ] final  -75.00 input  -65.29 | X-H torsion
[ 10718 10713 10712 10709 ] final  -64.01 input   66.30 | X-H torsion
[ 10763 10752 10751 10750 ] final  -18.90 input  -60.55 | X-H torsion
[ 11005 11000 10999 10996 ] final -144.23 input  -57.11 | X-H torsion

> <Gold.Protein.ActiveResidues>
 VAL166  LYS551  ARG553  GLY616  TRP617  ASP618  TYR619  PRO620  LYS621  CYS622 
 ASP623  PHE694  ASN695  SER759  ASP760  ASP761  ALA762  ILE779  LEU786  VAL792 
 PHE793  MET794  SER795  GLU796  ALA797  LYS798  CYS799  TRP800  GLU811  SER814 

> <Gold.Protein.RotatedAtoms>
  152.5133  133.9160  159.7511 H   0  0  0  0  0  0  0  0  0  0  0  0  # atno 6907 bound_to 6896
  150.9543  133.6506  159.2773 H   0  0  0  0  0  0  0  0  0  0  0  0  # atno 6908 bound_to 6896
  151.3774  135.0939  159.9538 H   0  0  0  0  0  0  0  0  0  0  0  0  # atno 6909 bound_to 6896
  144.7583  139.8204  143.6342 H   0  0  0  0  0  0  0  0  0  0  0  0  # atno 7974 bound_to 7965
  154.9574  140.0399  157.2173 H   0  0  0  0  0  0  0  0  0  0  0  0  # atno 8008 bound_to 7997
  154.7921  140.2837  155.5962 H   0  0  0  0  0  0  0  0  0  0  0  0  # atno 8009 bound_to 7997
  156.2951  140.2571  156.2770 H   0  0  0  0  0  0  0  0  0  0  0  0  # atno 8010 bound_to 7997
  140.4980  143.2367  151.7799 H   0  0  0  0  0  0  0  0  0  0  0  0  # atno 10167 bound_to 10162
  156.0755  130.4228  150.1359 H   0  0  0  0  0  0  0  0  0  0  0  0  # atno 10718 bound_to 10713
  153.5965  135.7001  153.5402 H   0  0  0  0  0  0  0  0  0  0  0  0  # atno 10763 bound_to 10752
  153.3134  135.4095  155.1355 H   0  0  0  0  0  0  0  0  0  0  0  0  # atno 10764 bound_to 10752
  154.8591  135.3677  154.5499 H   0  0  0  0  0  0  0  0  0  0  0  0  # atno 10765 bound_to 10752
  140.8045  134.2817  157.4965 H   0  0  0  0  0  0  0  0  0  0  0  0  # atno 11005 bound_to 11000
  146.1618  139.4735  142.9983 LP  0  0  0  0  0  0  0  0  0  0  0  0  # atno 17320 bound_to 7965
  145.6704  141.0218  143.1660 LP  0  0  0  0  0  0  0  0  0  0  0  0  # atno 17321 bound_to 7965
  139.4865  144.4561  151.9597 LP  0  0  0  0  0  0  0  0  0  0  0  0  # atno 17342 bound_to 10162
  140.3649  144.2927  150.5928 LP  0  0  0  0  0  0  0  0  0  0  0  0  # atno 17343 bound_to 10162
  156.9401  130.9742  151.3517 LP  0  0  0  0  0  0  0  0  0  0  0  0  # atno 17370 bound_to 10713
  157.5848  130.8402  149.8574 LP  0  0  0  0  0  0  0  0  0  0  0  0  # atno 17371 bound_to 10713
  139.8719  134.9448  156.3893 LP  0  0  0  0  0  0  0  0  0  0  0  0  # atno 17394 bound_to 11000
  140.9261  133.7611  155.9966 LP  0  0  0  0  0  0  0  0  0  0  0  0  # atno 17395 bound_to 11000

$$$$
