AV-unprocessed.smi:1933|AV-procd|sdf|7817|dock4
  -GOLD-   22720 9563D 1   1.00000     0.00000
 Structure written by MMmdl.
 47 49  0  0  0  0  0  0  0  0  1 V2000
  145.0411  136.7259  153.8160 O   0  0  0  0  0  0  0  0  0  0  0  0
  146.1233  136.5557  153.2543 C   0  0  0  0  0  0  0  0  0  0  0  0
  147.2401  137.2262  153.5740 N   0  0  0  0  0  0  0  0  0  0  0  0
  147.3571  138.2406  154.6185 C   0  0  0  0  0  0  0  0  0  0  0  0
  147.7178  139.6386  154.0486 C   0  0  2  0  0  0  0  0  0  0  0  0
  149.1993  140.0435  154.3063 C   0  0  1  0  0  0  0  0  0  0  0  0
  149.5060  140.5747  155.6969 C   0  0  0  0  0  0  0  0  0  0  0  0
  151.0319  140.4530  155.7844 C   0  0  0  0  0  0  0  0  0  0  0  0
  151.4388  139.6847  154.6536 O   0  0  0  0  0  0  0  0  0  0  0  0
  150.3069  139.0064  154.1323 C   0  0  0  0  0  0  0  0  0  0  0  0
  146.7242  140.6922  154.3374 N   0  0  0  0  0  0  0  0  0  0  0  0
  147.0825  142.0379  153.8812 C   0  0  0  0  0  0  0  0  0  0  0  0
  145.9444  143.0408  154.1328 C   0  0  0  0  0  0  0  0  0  0  0  0
  145.6234  143.0542  155.5203 O   0  0  0  0  0  0  0  0  0  0  0  0
  145.2420  141.7728  156.0107 C   0  0  0  0  0  0  0  0  0  0  0  0
  146.3706  140.7590  155.7534 C   0  0  0  0  0  0  0  0  0  0  0  0
  146.3539  135.6718  152.2680 N   0  0  0  0  0  0  0  0  0  0  0  0
  145.4484  134.7420  151.6918 C   0  0  0  0  0  0  0  0  0  0  0  0
  144.1851  134.4985  152.2900 C   0  0  0  0  0  0  0  0  0  0  0  0
  143.2959  133.5923  151.6810 C   0  0  0  0  0  0  0  0  0  0  0  0
  143.6835  132.9603  150.4864 C   0  0  0  0  0  0  0  0  0  0  0  0
  144.9464  133.2723  149.9513 C   0  0  0  0  0  0  0  0  0  0  0  0
  145.8005  134.1422  150.5310 N   0  0  0  0  0  0  0  0  0  0  0  0
  148.0813  137.0138  153.0579 H   0  0  0  0  0  0  0  0  0  0  0  0
  146.3930  138.2769  155.1251 H   0  0  0  0  0  0  0  0  0  0  0  0
  148.0824  137.9365  155.3748 H   0  0  0  0  0  0  0  0  0  0  0  0
  147.6986  139.5049  152.9658 H   0  0  0  0  0  0  0  0  0  0  0  0
  149.4365  140.8597  153.6230 H   0  0  0  0  0  0  0  0  0  0  0  0
  149.1576  141.5981  155.8395 H   0  0  0  0  0  0  0  0  0  0  0  0
  149.0458  139.9533  156.4658 H   0  0  0  0  0  0  0  0  0  0  0  0
  151.5168  141.4291  155.7521 H   0  0  0  0  0  0  0  0  0  0  0  0
  151.3320  139.9554  156.7073 H   0  0  0  0  0  0  0  0  0  0  0  0
  150.1535  138.1213  154.7451 H   0  0  0  0  0  0  0  0  0  0  0  0
  150.4590  138.7016  153.0973 H   0  0  0  0  0  0  0  0  0  0  0  0
  147.9688  142.3883  154.4114 H   0  0  0  0  0  0  0  0  0  0  0  0
  147.3381  142.0497  152.8270 H   0  0  0  0  0  0  0  0  0  0  0  0
  146.2471  144.0425  153.8276 H   0  0  0  0  0  0  0  0  0  0  0  0
  145.0612  142.7793  153.5474 H   0  0  0  0  0  0  0  0  0  0  0  0
  145.0348  141.8459  157.0783 H   0  0  0  0  0  0  0  0  0  0  0  0
  144.3184  141.4518  155.5261 H   0  0  0  0  0  0  0  0  0  0  0  0
  146.0502  139.7777  156.1048 H   0  0  0  0  0  0  0  0  0  0  0  0
  147.2428  141.0346  156.3469 H   0  0  0  0  0  0  0  0  0  0  0  0
  147.3150  135.5739  151.9758 H   0  0  0  0  0  0  0  0  0  0  0  0
  143.8802  134.9998  153.1962 H   0  0  0  0  0  0  0  0  0  0  0  0
  142.3304  133.3905  152.1210 H   0  0  0  0  0  0  0  0  0  0  0  0
  143.0279  132.2601  149.9900 H   0  0  0  0  0  0  0  0  0  0  0  0
  145.2798  132.8141  149.0320 H   0  0  0  0  0  0  0  0  0  0  0  0
  1  2  2  0  0  0  0
  2  3  1  0  0  0  0
  2 17  1  0  0  0  0
  3  4  1  0  0  0  0
  3 24  1  0  0  0  0
  4  5  1  0  0  0  0
  4 25  1  0  0  0  0
  4 26  1  0  0  0  0
  5  6  1  0  0  0  0
  5 11  1  0  0  0  0
  5 27  1  0  0  0  0
  6 10  1  0  0  0  0
  6  7  1  0  0  0  0
  6 28  1  0  0  0  0
  7  8  1  0  0  0  0
  7 29  1  0  0  0  0
  7 30  1  0  0  0  0
  8  9  1  0  0  0  0
  8 31  1  0  0  0  0
  8 32  1  0  0  0  0
  9 10  1  0  0  0  0
 10 33  1  0  0  0  0
 10 34  1  0  0  0  0
 11 16  1  0  0  0  0
 11 12  1  0  0  0  0
 12 13  1  0  0  0  0
 12 35  1  0  0  0  0
 12 36  1  0  0  0  0
 13 14  1  0  0  0  0
 13 37  1  0  0  0  0
 13 38  1  0  0  0  0
 14 15  1  0  0  0  0
 15 16  1  0  0  0  0
 15 39  1  0  0  0  0
 15 40  1  0  0  0  0
 16 41  1  0  0  0  0
 16 42  1  0  0  0  0
 17 18  1  0  0  0  0
 17 43  1  0  0  0  0
 18 23  1  0  0  0  0
 18 19  2  0  0  0  0
 19 20  1  0  0  0  0
 19 44  1  0  0  0  0
 20 21  2  0  0  0  0
 20 45  1  0  0  0  0
 21 22  1  0  0  0  0
 21 46  1  0  0  0  0
 22 23  2  0  0  0  0
 22 47  1  0  0  0  0
M  END
> <s_m_source_file>
AV-unprocessed.smi

> <i_m_source_file_index>
1933

> <i_lp_mmshare_version>
43012

> <i_f3d_flags>
0

> <s_epik_input>
bjFbY0hdW2NIXVtjSF1bY0hdYzFbTkhdQyg9TylbTkhdW0NIMl1bQ0BIXShbQ0BASF0yW0NIMl1bQ0gyXU9bQ0gyXTIpTjNbQ0gyXVtDSDJdT1tDSDJdW0NIMl0z

> <s_epik_cmdline>
J2VwaWtfcHl0aG9uJywgJy1waCcsICc3LjAnLCAnLXRuJywgJzgnLCAnLW1hJywgJzIwMCcsICctbWV0YWxfYmluZGluZycsICctaW1hZScsICc8aW5maWxlLm1hZT4nLCAnLW9tYWUnLCAnPG91dGZpbGUubWFlPic=

> <r_epik_Ionization_Penalty>
0.125062

> <r_epik_Ionization_Penalty_Charging>
0

> <r_epik_Ionization_Penalty_Neutral>
0.125062

> <r_epik_State_Penalty>
0.114484

> <r_epik_Charging_Adjusted_Penalty>
0.114484

> <i_epik_Tot_Q>
0

> <i_epik_Tot_abs_Q>
0

> <r_epik_Metal_State_Penalty>
0.114484

> <b_epik_Metal_Only>
0

> <s_lp_Force_Field>
OPLS_2005

> <r_lp_Energy>
60.0985

> <b_lp_Chiralities_Consistent>
1

> <s_lp_Variant>
AV-unprocessed.smi:1933-3

> <Gold.Version>
5.8.1

> <Gold.Id.Protein>
6NUR|6NUR_protein|mol2

> <Gold.PLP.Fitness>
43.1647

> <Gold.PLP.PLP>
-35.6109

> <Gold.PLP.part.hbond>
-3.0000

> <Gold.PLP.part.metal>
0.0000

> <Gold.PLP.part.buried>
-5.2719

> <Gold.PLP.part.nonpolar>
-27.7976

> <Gold.PLP.part.repulsive>
0.9609

> <Gold.PLP.ligand.clash>
0.0000

> <Gold.PLP.ligand.torsion>
1.1387

> <Gold.PLP.Chemscore.Hbond>
3.0000

> <Gold.PLP.Chemscore.CHOScore>
0.1691

> <Gold.PLP.Chemscore.Metal>
0.0000

> <Gold.Chemscore.Hbonds>
donor molecule, donor type, donor heavy atom, donor atom, acceptor molecule, acceptor atom, score
      L1  H     3    24       P1  7948  1.00
      L1  H    17    43       P1  7948  1.00
      P1  H  7989  7998       L1     9  1.00
      L1  C    22    47       P1  7921  0.37

> <Gold.PLP.Chemscore.Internal.Correction>
0.3239

> <Gold.Rescore>
     Score         DG    S(hbond)    S(metal)    S(lipo)     H(rot)  DE(clash)    DE(int)     intcor
     15.54     -17.95       2.29        0.00      78.77       1.72       0.01       2.40       ----

> <Gold.Chemscore.Fitness>
15.5444

> <Gold.Chemscore.DG>
-17.9542

> <Gold.Chemscore.ZeroCoef>
-5.4800

> <Gold.Chemscore.Hbond>
2.2910

> <Gold.Chemscore.Metal>
0.0000

> <Gold.Chemscore.Lipo>
78.7657

> <Gold.Chemscore.Internal_Hbond>
0.0000

> <Gold.Chemscore.DEClash>
0.0072

> <Gold.Chemscore.DEInternal>
2.4026

> <Gold.Chemscore.Rot>
1.7161

> <Gold.Chemscore.Internal.Correction>
   9.000000E+99

> <Gold.Chemscore.Hbonds>
donor molecule, donor type, donor heavy atom, donor atom, acceptor molecule, acceptor atom, score
      L1  H     3    24       P1  7948  0.97
      L1  H    17    43       P1  7948  0.95
      P1  H  7989  7998       L1     9  0.10

> <Gold.Chemscore.Hbond.Weighted>
-7.6518

> <Gold.Chemscore.Metal.Weighted>
-0.0000

> <Gold.Chemscore.Lipo.Weighted>
-9.2156

> <Gold.Chemscore.Internal_Hbond.Weighted>
0.0000

> <Gold.Chemscore.DEClash.Weighted>
0.0072

> <Gold.Chemscore.DEInternal.Weighted>
2.4026

> <Gold.Chemscore.Rot.Weighted>
4.3932

> <Gold.Chemscore.Internal.Correction.Weighted>
   9.000000E+99

> <Gold.Protein.RotatedTorsions>
[ 6907 6896 6895 6894 ] final  -81.75 input  -60.11 | X-H torsion
[ 7974 7965 7964 7962 ] final  131.54 input  175.53 | X-H torsion
[ 8008 7997 7996 7995 ] final -149.93 input   59.86 | X-H torsion
[ 10167 10162 10161 10158 ] final  134.77 input  -65.29 | X-H torsion
[ 10718 10713 10712 10709 ] final  147.08 input   66.30 | X-H torsion
[ 10763 10752 10751 10750 ] final -123.80 input  -60.55 | X-H torsion
[ 11005 11000 10999 10996 ] final -161.48 input  -57.11 | X-H torsion

> <Gold.Protein.ActiveResidues>
 VAL166  LYS551  ARG553  GLY616  TRP617  ASP618  TYR619  PRO620  LYS621  CYS622 
 ASP623  PHE694  ASN695  SER759  ASP760  ASP761  ALA762  ILE779  LEU786  VAL792 
 PHE793  MET794  SER795  GLU796  ALA797  LYS798  CYS799  TRP800  GLU811  SER814 

> <Gold.Protein.RotatedAtoms>
  150.6907  134.3769  159.5016 H   0  0  0  0  0  0  0  0  0  0  0  0  # atno 6907 bound_to 6896
  152.1577  134.8935  160.0553 H   0  0  0  0  0  0  0  0  0  0  0  0  # atno 6908 bound_to 6896
  152.0008  133.3790  159.4218 H   0  0  0  0  0  0  0  0  0  0  0  0  # atno 6909 bound_to 6896
  145.0062  139.4264  143.5267 H   0  0  0  0  0  0  0  0  0  0  0  0  # atno 7974 bound_to 7965
  155.6155  140.0676  157.2693 H   0  0  0  0  0  0  0  0  0  0  0  0  # atno 8008 bound_to 7997
  154.4242  140.1794  156.1365 H   0  0  0  0  0  0  0  0  0  0  0  0  # atno 8009 bound_to 7997
  156.0051  140.3332  155.6887 H   0  0  0  0  0  0  0  0  0  0  0  0  # atno 8010 bound_to 7997
  139.5243  144.6551  151.5187 H   0  0  0  0  0  0  0  0  0  0  0  0  # atno 10167 bound_to 10162
  157.3253  131.0911  151.1207 H   0  0  0  0  0  0  0  0  0  0  0  0  # atno 10718 bound_to 10713
  154.8714  135.4085  154.3003 H   0  0  0  0  0  0  0  0  0  0  0  0  # atno 10763 bound_to 10752
  153.3864  135.7013  153.6533 H   0  0  0  0  0  0  0  0  0  0  0  0  # atno 10764 bound_to 10752
  153.5334  135.3663  155.2657 H   0  0  0  0  0  0  0  0  0  0  0  0  # atno 10765 bound_to 10752
  140.6199  134.4761  157.5222 H   0  0  0  0  0  0  0  0  0  0  0  0  # atno 11005 bound_to 11000
  146.3461  139.9480  142.8732 LP  0  0  0  0  0  0  0  0  0  0  0  0  # atno 17320 bound_to 7965
  145.2085  140.9885  143.4114 LP  0  0  0  0  0  0  0  0  0  0  0  0  # atno 17321 bound_to 7965
  140.6373  143.8959  150.6659 LP  0  0  0  0  0  0  0  0  0  0  0  0  # atno 17342 bound_to 10162
  140.2282  143.3756  152.1587 LP  0  0  0  0  0  0  0  0  0  0  0  0  # atno 17343 bound_to 10162
  157.2476  130.6599  149.5917 LP  0  0  0  0  0  0  0  0  0  0  0  0  # atno 17370 bound_to 10713
  155.9690  130.4548  150.5865 LP  0  0  0  0  0  0  0  0  0  0  0  0  # atno 17371 bound_to 10713
  139.9158  134.8250  156.1373 LP  0  0  0  0  0  0  0  0  0  0  0  0  # atno 17394 bound_to 11000
  141.0750  133.6780  156.2217 LP  0  0  0  0  0  0  0  0  0  0  0  0  # atno 17395 bound_to 11000

$$$$
