AV-unprocessed.smi:600|AV-procd|sdf|3030|dock5
  -GOLD-   2262023543D 1   1.00000     0.00000
 Structure written by MMmdl.
 33 34  0  0  0  0  0  0  0  0  1 V2000
  151.8633  145.1238  159.2657 C   0  0  0  0  0  0  0  0  0  0  0  0
  152.6844  143.9840  159.4456 O   0  0  0  0  0  0  0  0  0  0  0  0
  152.4312  143.3212  160.6733 C   0  0  0  0  0  0  0  0  0  0  0  0
  153.3271  142.0777  160.7917 C   0  0  0  0  0  0  0  0  0  0  0  0
  153.0883  141.1297  159.6975 N   0  0  0  0  0  0  0  0  0  0  0  0
  152.2275  141.6054  158.7227 N   0  0  0  0  0  0  0  0  0  0  0  0
  151.9101  140.8666  157.7097 C   0  0  0  0  0  0  0  0  0  0  0  0
  150.9697  141.3969  156.6746 C   0  0  0  0  0  0  0  0  0  0  0  0
  150.8334  142.6220  156.5821 O   0  0  0  0  0  0  0  0  0  0  0  0
  150.3329  140.4172  155.9121 N   0  0  0  0  0  0  0  0  0  0  0  0
  149.2975  140.6833  155.1731 C   0  0  0  0  0  0  0  0  0  0  0  0
  148.6481  141.8996  154.9863 N   0  0  0  0  0  0  0  0  0  0  0  0
  147.3234  141.8675  154.3941 C   0  0  0  0  0  0  0  0  0  0  0  0
  147.2756  140.6690  153.4505 C   0  0  0  0  0  0  0  0  0  0  0  0
  148.4138  139.4666  154.1607 S   0  0  0  0  0  0  0  0  0  0  0  0
  152.4624  139.5231  157.5739 C   0  0  0  0  0  0  0  0  0  0  0  0
  153.2994  139.0733  158.5341 C   0  0  0  0  0  0  0  0  0  0  0  0
  153.6624  139.8893  159.6928 C   0  0  0  0  0  0  0  0  0  0  0  0
  154.4137  139.4934  160.5834 O   0  0  0  0  0  0  0  0  0  0  0  0
  152.0919  145.5928  158.3089 H   0  0  0  0  0  0  0  0  0  0  0  0
  152.0353  145.8608  160.0512 H   0  0  0  0  0  0  0  0  0  0  0  0
  150.8068  144.8528  159.2648 H   0  0  0  0  0  0  0  0  0  0  0  0
  152.6026  143.9957  161.5140 H   0  0  0  0  0  0  0  0  0  0  0  0
  151.3839  143.0184  160.7102 H   0  0  0  0  0  0  0  0  0  0  0  0
  154.3723  142.3902  160.7641 H   0  0  0  0  0  0  0  0  0  0  0  0
  153.1960  141.6100  161.7688 H   0  0  0  0  0  0  0  0  0  0  0  0
  146.5892  141.7558  155.1925 H   0  0  0  0  0  0  0  0  0  0  0  0
  147.1078  142.7986  153.8697 H   0  0  0  0  0  0  0  0  0  0  0  0
  146.2707  140.2613  153.3401 H   0  0  0  0  0  0  0  0  0  0  0  0
  147.6430  140.9477  152.4625 H   0  0  0  0  0  0  0  0  0  0  0  0
  152.2256  138.8840  156.7363 H   0  0  0  0  0  0  0  0  0  0  0  0
  153.7150  138.0804  158.4456 H   0  0  0  0  0  0  0  0  0  0  0  0
  148.9221  142.7525  155.4533 H   0  0  0  0  0  0  0  0  0  0  0  0
  1  2  1  0  0  0  0
  1 20  1  0  0  0  0
  1 21  1  0  0  0  0
  1 22  1  0  0  0  0
  2  3  1  0  0  0  0
  3  4  1  0  0  0  0
  3 23  1  0  0  0  0
  3 24  1  0  0  0  0
  4  5  1  0  0  0  0
  4 25  1  0  0  0  0
  4 26  1  0  0  0  0
  5 18  1  0  0  0  0
  5  6  1  0  0  0  0
  6  7  2  0  0  0  0
  7  8  1  0  0  0  0
  7 16  1  0  0  0  0
  8  9  2  0  0  0  0
  8 10  1  0  0  0  0
 10 11  2  0  0  0  0
 11 15  1  0  0  0  0
 11 12  1  0  0  0  0
 12 13  1  0  0  0  0
 12 33  1  0  0  0  0
 13 14  1  0  0  0  0
 13 27  1  0  0  0  0
 13 28  1  0  0  0  0
 14 15  1  0  0  0  0
 14 29  1  0  0  0  0
 14 30  1  0  0  0  0
 16 17  2  0  0  0  0
 16 31  1  0  0  0  0
 17 18  1  0  0  0  0
 17 32  1  0  0  0  0
 18 19  2  0  0  0  0
M  END
> <s_m_source_file>
AV-unprocessed.smi

> <i_m_source_file_index>
600

> <i_lp_mmshare_version>
43012

> <i_f3d_flags>
0

> <s_epik_input>
W0NIM11PW0NIMl1bQ0gyXW4xbmMoW2NIXVtjSF1jMT1PKUMoPU8pW05IXUMyPU5bQ0gyXVtDSDJdUzI=

> <s_epik_cmdline>
J2VwaWtfcHl0aG9uJywgJy1waCcsICc3LjAnLCAnLXRuJywgJzgnLCAnLW1hJywgJzIwMCcsICctbWV0YWxfYmluZGluZycsICctaW1hZScsICc8aW5maWxlLm1hZT4nLCAnLW9tYWUnLCAnPG91dGZpbGUubWFlPic=

> <r_epik_Ionization_Penalty>
0.0115713

> <r_epik_Ionization_Penalty_Charging>
8.15052e-11

> <r_epik_Ionization_Penalty_Neutral>
0.0115713

> <r_epik_State_Penalty>
0.0066973

> <r_epik_Charging_Adjusted_Penalty>
0.0066973

> <i_epik_Tot_Q>
0

> <i_epik_Tot_abs_Q>
0

> <r_epik_Metal_State_Penalty>
-0

> <b_epik_Metal_Only>
0

> <s_epik_Chemistry_Notes>
This compound has an imine and may undergo hydrolysis.

> <s_lp_Force_Field>
OPLS_2005

> <r_lp_Energy>
40.8102

> <b_lp_Chiralities_Consistent>
1

> <s_lp_Variant>
AV-unprocessed.smi:600-1

> <Gold.Version>
5.8.1

> <Gold.Id.Protein>
6NUR|6NUR_protein|mol2

> <Gold.PLP.Fitness>
40.4643

> <Gold.PLP.PLP>
-38.0617

> <Gold.PLP.part.hbond>
-1.0000

> <Gold.PLP.part.metal>
0.0000

> <Gold.PLP.part.buried>
-5.8441

> <Gold.PLP.part.nonpolar>
-31.7358

> <Gold.PLP.part.repulsive>
0.6724

> <Gold.PLP.ligand.clash>
0.0000

> <Gold.PLP.ligand.torsion>
0.2968

> <Gold.PLP.Chemscore.Hbond>
0.9920

> <Gold.PLP.Chemscore.CHOScore>
0.0000

> <Gold.PLP.Chemscore.Metal>
0.0000

> <Gold.Chemscore.Hbonds>
donor molecule, donor type, donor heavy atom, donor atom, acceptor molecule, acceptor atom, score
      L1  H    12    33       P1  8028  1.00

> <Gold.PLP.Chemscore.Internal.Correction>
0.0202

> <Gold.Rescore>
     Score         DG    S(hbond)    S(metal)    S(lipo)     H(rot)  DE(clash)    DE(int)     intcor
     11.24     -13.30       0.94        0.00      73.64       1.54       0.22       1.84       ----

> <Gold.Chemscore.Fitness>
11.2376

> <Gold.Chemscore.DG>
-13.3010

> <Gold.Chemscore.ZeroCoef>
-5.4800

> <Gold.Chemscore.Hbond>
0.9442

> <Gold.Chemscore.Metal>
0.0000

> <Gold.Chemscore.Lipo>
73.6440

> <Gold.Chemscore.Internal_Hbond>
0.0000

> <Gold.Chemscore.DEClash>
0.2222

> <Gold.Chemscore.DEInternal>
1.8413

> <Gold.Chemscore.Rot>
1.5425

> <Gold.Chemscore.Internal.Correction>
   9.000000E+99

> <Gold.Chemscore.Hbonds>
donor molecule, donor type, donor heavy atom, donor atom, acceptor molecule, acceptor atom, score
      L1  H    12    33       P1  8028  0.94

> <Gold.Chemscore.Hbond.Weighted>
-3.1535

> <Gold.Chemscore.Metal.Weighted>
-0.0000

> <Gold.Chemscore.Lipo.Weighted>
-8.6164

> <Gold.Chemscore.Internal_Hbond.Weighted>
0.0000

> <Gold.Chemscore.DEClash.Weighted>
0.2222

> <Gold.Chemscore.DEInternal.Weighted>
1.8413

> <Gold.Chemscore.Rot.Weighted>
3.9489

> <Gold.Chemscore.Internal.Correction.Weighted>
   9.000000E+99

> <Gold.Protein.RotatedTorsions>
[ 6907 6896 6895 6894 ] final  108.35 input  -60.11 | X-H torsion
[ 7974 7965 7964 7962 ] final  120.37 input  175.53 | X-H torsion
[ 8008 7997 7996 7995 ] final  -42.54 input   59.86 | X-H torsion
[ 10167 10162 10161 10158 ] final  178.57 input  -65.29 | X-H torsion
[ 10718 10713 10712 10709 ] final -135.96 input   66.30 | X-H torsion
[ 10763 10752 10751 10750 ] final  -65.28 input  -60.55 | X-H torsion
[ 11005 11000 10999 10996 ] final   50.54 input  -57.11 | X-H torsion

> <Gold.Protein.ActiveResidues>
 VAL166  LYS551  ARG553  GLY616  TRP617  ASP618  TYR619  PRO620  LYS621  CYS622 
 ASP623  PHE694  ASN695  SER759  ASP760  ASP761  ALA762  ILE779  LEU786  VAL792 
 PHE793  MET794  SER795  GLU796  ALA797  LYS798  CYS799  TRP800  GLU811  SER814 

> <Gold.Protein.RotatedAtoms>
  152.5116  133.9102  159.7483 H   0  0  0  0  0  0  0  0  0  0  0  0  # atno 6907 bound_to 6896
  150.9497  133.6554  159.2781 H   0  0  0  0  0  0  0  0  0  0  0  0  # atno 6908 bound_to 6896
  151.3837  135.0949  159.9557 H   0  0  0  0  0  0  0  0  0  0  0  0  # atno 6909 bound_to 6896
  145.1319  139.3322  143.4660 H   0  0  0  0  0  0  0  0  0  0  0  0  # atno 7974 bound_to 7965
  154.3999  140.1471  156.3371 H   0  0  0  0  0  0  0  0  0  0  0  0  # atno 8008 bound_to 7997
  155.8390  140.3462  155.5599 H   0  0  0  0  0  0  0  0  0  0  0  0  # atno 8009 bound_to 7997
  155.8107  140.0883  157.1896 H   0  0  0  0  0  0  0  0  0  0  0  0  # atno 8010 bound_to 7997
  139.5300  144.2664  152.0665 H   0  0  0  0  0  0  0  0  0  0  0  0  # atno 10167 bound_to 10162
  156.2718  130.7270  151.1239 H   0  0  0  0  0  0  0  0  0  0  0  0  # atno 10718 bound_to 10713
  154.3427  135.6153  153.5604 H   0  0  0  0  0  0  0  0  0  0  0  0  # atno 10763 bound_to 10752
  152.9803  135.5773  154.4834 H   0  0  0  0  0  0  0  0  0  0  0  0  # atno 10764 bound_to 10752
  154.4541  135.2854  155.1737 H   0  0  0  0  0  0  0  0  0  0  0  0  # atno 10765 bound_to 10752
  140.1009  134.5083  155.8764 H   0  0  0  0  0  0  0  0  0  0  0  0  # atno 11005 bound_to 11000
  146.3513  140.1322  142.8597 LP  0  0  0  0  0  0  0  0  0  0  0  0  # atno 17320 bound_to 7965
  145.0626  140.9098  143.4930 LP  0  0  0  0  0  0  0  0  0  0  0  0  # atno 17321 bound_to 7965
  140.2126  144.4548  150.6379 LP  0  0  0  0  0  0  0  0  0  0  0  0  # atno 17342 bound_to 10162
  140.6471  143.2216  151.6162 LP  0  0  0  0  0  0  0  0  0  0  0  0  # atno 17343 bound_to 10162
  157.7286  131.0630  150.5811 LP  0  0  0  0  0  0  0  0  0  0  0  0  # atno 17370 bound_to 10713
  156.5908  130.4329  149.5937 LP  0  0  0  0  0  0  0  0  0  0  0  0  # atno 17371 bound_to 10713
  141.2105  133.6696  156.6515 LP  0  0  0  0  0  0  0  0  0  0  0  0  # atno 17394 bound_to 11000
  140.3222  134.7998  157.4261 LP  0  0  0  0  0  0  0  0  0  0  0  0  # atno 17395 bound_to 11000

$$$$
