#       Name:                AV-unprocessed.smi:2845
#       Creating user name   scv26
#       Creation time:       Fri Mar 27 15:39:28 2020


#       File generated by GOLD software.
#

@<TRIPOS>MOLECULE
AV-unprocessed.smi:2845
    47    49     1
SMALL
NO_CHARGES


@<TRIPOS>ATOM
      1 ****        -4.1591   3.7847  -1.9743 C.3            1 S1                 0.0000
      2 ****        -3.4724   2.7275  -1.1277 C.ar           1 S1                 0.0000
      3 ****        -3.3054   2.9572   0.2566 C.ar           1 S1                 0.0000
      4 ****        -2.6704   2.0001   1.0782 C.ar           1 S1                 0.0000
      5 ****        -2.4030   2.0178   2.4365 N.2            1 S1                 0.0000
      6 ****        -1.7950   0.8472   2.6047 C.2            1 S1                 0.0000
      7 ****        -1.6368   0.0717   1.5151 N.pl3          1 S1                 0.0000
      8 ****        -1.0061  -1.2352   1.4586 C.3            1 S1                 0.0000
      9 ****         0.5278  -1.1453   1.3505 C.3            1 S1                 0.0000
     10 ****         0.8833  -0.4470   0.1714 O.3            1 S1                 0.0000
     11 ****         1.1867  -2.5377   1.3512 C.3            1 S1                 0.0000
     12 ****         2.6366  -2.4643   1.3444 N.pl3          1 S1                 0.0000
     13 ****         3.4999  -2.2947   2.3502 C.2            1 S1                 0.0000
     14 ****         4.7708  -2.2646   1.9710 N.2            1 S1                 0.0000
     15 ****         4.5961  -2.4375   0.6289 C.2            1 S1                 0.0000
     16 ****         6.0126  -2.4784  -0.5138 S.o            1 S1                 0.0000
     17 ****         5.7549  -0.7691  -1.1868 C.3            1 S1                 0.0000
     18 ****         5.6309  -3.4595  -1.6243 O.2            1 S1                 0.0000
     19 ****         3.3437  -2.5620   0.1937 N.2            1 S1                 0.0000
     20 ****        -2.2041   0.7967   0.4724 C.ar           1 S1                 0.0000
     21 ****        -2.3640   0.5571  -0.9038 C.ar           1 S1                 0.0000
     22 ****        -3.0003   1.5239  -1.7102 C.ar           1 S1                 0.0000
     23 ****        -3.1666   1.2562  -3.1957 C.3            1 S1                 0.0000
     24 ****        -4.4595   4.6433  -1.3731 H              1 S1                 0.0000
     25 ****        -5.0540   3.3763  -2.4443 H              1 S1                 0.0000
     26 ****        -3.4888   4.1424  -2.7561 H              1 S1                 0.0000
     27 ****        -3.6639   3.8743   0.7006 H              1 S1                 0.0000
     28 ****        -1.4424   0.5345   3.5767 H              1 S1                 0.0000
     29 ****        -1.2877  -1.7867   2.3566 H              1 S1                 0.0000
     30 ****        -1.4184  -1.7877   0.6133 H              1 S1                 0.0000
     31 ****         0.9079  -0.5755   2.1996 H              1 S1                 0.0000
     32 ****         1.8262  -0.4135   0.1140 H              1 S1                 0.0000
     33 ****         0.8838  -3.0945   2.2388 H              1 S1                 0.0000
     34 ****         0.8557  -3.1205   0.4899 H              1 S1                 0.0000
     35 ****         3.1913  -2.1862   3.3797 H              1 S1                 0.0000
     36 ****         5.2687  -0.1270  -0.4519 H              1 S1                 0.0000
     37 ****         5.1324  -0.8061  -2.0810 H              1 S1                 0.0000
     38 ****         6.7137  -0.3232  -1.4509 H              1 S1                 0.0000
     39 ****        -1.9960  -0.3622  -1.3350 H              1 S1                 0.0000
     40 ****        -2.7645   0.2809  -3.4715 H              1 S1                 0.0000
     41 ****        -2.6423   2.0121  -3.7807 H              1 S1                 0.0000
     42 ****        -4.2211   1.2729  -3.4720 H              1 S1                 0.0000
     43 ****        -2.6120   2.7244   3.1126 LP             1 S1                 0.0000
     44 ****         0.5145   0.4819   0.2057 LP             1 S1                 0.0000
     45 ****         0.5138  -0.9230  -0.6266 LP             1 S1                 0.0000
     46 ****         5.6065  -2.1496   2.5080 LP             1 S1                 0.0000
     47 ****         3.0116  -2.6935  -0.7403 LP             1 S1                 0.0000
@<TRIPOS>BOND
    1    1    2 1     
    2    1   24 1     
    3    1   25 1     
    4    1   26 1     
    5    2   22 ar    
    6    2    3 ar    
    7    3    4 ar    
    8    3   27 1     
    9    4   20 ar    
   10    4    5 1     
   11    5    6 2     
   12    6    7 1     
   13    6   28 1     
   14    7    8 1     
   15    7   20 1     
   16    8    9 1     
   17    8   29 1     
   18    8   30 1     
   19    9   10 1     
   20    9   11 1     
   21    9   31 1     
   22   10   32 1     
   23   11   12 1     
   24   11   33 1     
   25   11   34 1     
   26   12   19 1     
   27   12   13 1     
   28   13   14 2     
   29   13   35 1     
   30   14   15 1     
   31   15   16 1     
   32   15   19 2     
   33   16   17 1     
   34   16   18 2     
   35   17   36 1     
   36   17   37 1     
   37   17   38 1     
   38   20   21 ar    
   39   21   22 ar    
   40   21   39 1     
   41   22   23 1     
   42   23   40 1     
   43   23   41 1     
   44   23   42 1     
   45    5   43 1     
   46   10   44 1     
   47   10   45 1     
   48   14   46 1     
   49   19   47 1     
@<TRIPOS>SUBSTRUCTURE
      1 S1             1
@<TRIPOS>SET
LONE_PAIRS      STATIC     ATOMS    <user>   **** ""
6 43 44 45 46 18 47
DONOR_HYDROGENS      STATIC     ATOMS    <user>   **** ""
1 32
ATOM$BLUE        STATIC     ATOMS    COLORGROUP SYSTEM
6 43 44 45 46 18 47
ATOM$RED        STATIC     ATOMS    COLORGROUP SYSTEM
1 32
