AV-unprocessed.smi:3141|AV-procd|sdf|11967|dock4
  -GOLD-   2272017363D 1   1.00000     0.00000
 Structure written by MMmdl.
 35 37  0  0  0  0  0  0  0  0  1 V2000
  146.3665  132.4805  152.8773 O   0  0  0  0  0  0  0  0  0  0  0  0
  147.0376  133.4560  152.5393 C   0  0  0  0  0  0  0  0  0  0  0  0
  148.1051  133.9059  153.2113 N   0  0  0  0  0  0  0  0  0  0  0  0
  148.6421  133.3204  154.3964 C   0  0  0  0  0  0  0  0  0  0  0  0
  149.9720  133.8394  154.8983 C   0  0  0  0  0  0  0  0  0  0  0  0
  149.8941  132.4818  154.2567 C   0  0  0  0  0  0  0  0  0  0  0  0
  146.8031  134.1851  151.4386 N   0  0  0  0  0  0  0  0  0  0  0  0
  145.7474  133.9256  150.4570 C   0  0  1  0  0  0  0  0  0  0  0  0
  145.8138  132.4559  149.9882 C   0  0  0  0  0  0  0  0  0  0  0  0
  144.4764  131.8050  150.3676 C   0  0  0  0  0  0  0  0  0  0  0  0
  143.8968  132.6918  151.4667 C   0  0  0  0  0  0  0  0  0  0  0  0
  144.3225  134.0985  151.0362 C   0  0  1  0  0  0  0  0  0  0  0  0
  144.1748  135.1307  152.0577 N   0  0  0  0  0  0  0  0  0  0  0  0
  144.4055  136.4997  151.9499 C   0  0  0  0  0  0  0  0  0  0  0  0
  144.0830  137.0527  153.1681 C   0  0  0  0  0  0  0  0  0  0  0  0
  143.6400  136.0561  154.0329 N   0  0  0  0  0  0  0  0  0  0  0  0
  143.7152  134.9501  153.3043 C   0  0  0  0  0  0  0  0  0  0  0  0
  148.5886  134.7135  152.8468 H   0  0  0  0  0  0  0  0  0  0  0  0
  147.9352  132.9975  155.1594 H   0  0  0  0  0  0  0  0  0  0  0  0
  150.4548  134.6348  154.3337 H   0  0  0  0  0  0  0  0  0  0  0  0
  150.1205  133.8776  155.9757 H   0  0  0  0  0  0  0  0  0  0  0  0
  149.9907  131.6136  154.9053 H   0  0  0  0  0  0  0  0  0  0  0  0
  150.3244  132.3700  153.2632 H   0  0  0  0  0  0  0  0  0  0  0  0
  147.4149  134.9652  151.2485 H   0  0  0  0  0  0  0  0  0  0  0  0
  145.8738  134.5867  149.5976 H   0  0  0  0  0  0  0  0  0  0  0  0
  145.9867  132.3873  148.9137 H   0  0  0  0  0  0  0  0  0  0  0  0
  146.6335  131.9233  150.4734 H   0  0  0  0  0  0  0  0  0  0  0  0
  143.8088  131.8142  149.5047 H   0  0  0  0  0  0  0  0  0  0  0  0
  144.5901  130.7680  150.6846 H   0  0  0  0  0  0  0  0  0  0  0  0
  142.8154  132.5897  151.5623 H   0  0  0  0  0  0  0  0  0  0  0  0
  144.3485  132.4157  152.4195 H   0  0  0  0  0  0  0  0  0  0  0  0
  143.6695  134.3825  150.2085 H   0  0  0  0  0  0  0  0  0  0  0  0
  144.7638  136.9637  151.0437 H   0  0  0  0  0  0  0  0  0  0  0  0
  144.1263  138.0849  153.4829 H   0  0  0  0  0  0  0  0  0  0  0  0
  143.4219  133.9829  153.6854 H   0  0  0  0  0  0  0  0  0  0  0  0
  1  2  2  0  0  0  0
  2  3  1  0  0  0  0
  2  7  1  0  0  0  0
  3  4  1  0  0  0  0
  3 18  1  0  0  0  0
  4  6  1  0  0  0  0
  4  5  1  0  0  0  0
  4 19  1  0  0  0  0
  5  6  1  0  0  0  0
  5 20  1  0  0  0  0
  5 21  1  0  0  0  0
  6 22  1  0  0  0  0
  6 23  1  0  0  0  0
  7  8  1  0  0  0  0
  7 24  1  0  0  0  0
  8 12  1  0  0  0  0
  8  9  1  0  0  0  0
  8 25  1  0  0  0  0
  9 10  1  0  0  0  0
  9 26  1  0  0  0  0
  9 27  1  0  0  0  0
 10 11  1  0  0  0  0
 10 28  1  0  0  0  0
 10 29  1  0  0  0  0
 11 12  1  0  0  0  0
 11 30  1  0  0  0  0
 11 31  1  0  0  0  0
 12 13  1  0  0  0  0
 12 32  1  0  0  0  0
 13 17  1  0  0  0  0
 13 14  1  0  0  0  0
 14 15  2  0  0  0  0
 14 33  1  0  0  0  0
 15 16  1  0  0  0  0
 15 34  1  0  0  0  0
 16 17  2  0  0  0  0
 17 35  1  0  0  0  0
M  END
> <s_m_source_file>
AV-unprocessed.smi

> <i_m_source_file_index>
3141

> <i_lp_mmshare_version>
43012

> <i_f3d_flags>
0

> <s_epik_input>
W0NIMl0xW0NIMl1bQ0hdMVtOSF1DKD1PKVtOSF1bQ0BASF0yW0NIMl1bQ0gyXVtDSDJdW0NASF0ybjNbY0hdW2NIXW5bY0hdMw==

> <s_epik_cmdline>
J2VwaWtfcHl0aG9uJywgJy1waCcsICc3LjAnLCAnLXRuJywgJzgnLCAnLW1hJywgJzIwMCcsICctbWV0YWxfYmluZGluZycsICctaW1hZScsICc8aW5maWxlLm1hZT4nLCAnLW9tYWUnLCAnPG91dGZpbGUubWFlPic=

> <r_lp_tautomer_probability>
1

> <r_epik_Ionization_Penalty>
0.728419

> <r_epik_Ionization_Penalty_Charging>
0.728357

> <r_epik_Ionization_Penalty_Neutral>
6.27871e-05

> <r_epik_State_Penalty>
0.753408

> <r_epik_Charging_Adjusted_Penalty>
1.48176

> <i_epik_Tot_Q>
0

> <i_epik_Tot_abs_Q>
0

> <r_epik_Metal_State_Penalty>
0.332413

> <b_epik_Metal_Only>
0

> <s_lp_Force_Field>
OPLS_2005

> <r_lp_Energy>
36.0261

> <b_lp_Chiralities_Consistent>
1

> <s_lp_Variant>
AV-unprocessed.smi:3141-6

> <Gold.Version>
5.8.1

> <Gold.Id.Protein>
6NUR|6NUR_protein|mol2

> <Gold.PLP.Fitness>
43.9517

> <Gold.PLP.PLP>
-29.8046

> <Gold.PLP.part.hbond>
-2.0000

> <Gold.PLP.part.metal>
0.0000

> <Gold.PLP.part.buried>
-1.5067

> <Gold.PLP.part.nonpolar>
-25.6378

> <Gold.PLP.part.repulsive>
0.2343

> <Gold.PLP.ligand.clash>
0.0000

> <Gold.PLP.ligand.torsion>
0.2142

> <Gold.PLP.Chemscore.Hbond>
2.0000

> <Gold.PLP.Chemscore.CHOScore>
2.8370

> <Gold.PLP.Chemscore.Metal>
0.0000

> <Gold.Chemscore.Hbonds>
donor molecule, donor type, donor heavy atom, donor atom, acceptor molecule, acceptor atom, score
      L1  H     3    18       P1  7948  0.95
      L1  H     7    24       P1  7948  1.00
      L1  C    14    33       P1 10171  1.00
      L1  C    15    34       P1 10175  0.80
      L1  C    17    35       P1 10957  0.86

> <Gold.PLP.Chemscore.Internal.Correction>
0.0645

> <Gold.Rescore>
     Score         DG    S(hbond)    S(metal)    S(lipo)     H(rot)  DE(clash)    DE(int)     intcor
     11.75     -14.23       1.76        0.00      58.82       1.57       0.00       2.48       ----

> <Gold.Chemscore.Fitness>
11.7495

> <Gold.Chemscore.DG>
-14.2294

> <Gold.Chemscore.ZeroCoef>
-5.4800

> <Gold.Chemscore.Hbond>
1.7630

> <Gold.Chemscore.Metal>
0.0000

> <Gold.Chemscore.Lipo>
58.8169

> <Gold.Chemscore.Internal_Hbond>
0.0000

> <Gold.Chemscore.DEClash>
0.0029

> <Gold.Chemscore.DEInternal>
2.4771

> <Gold.Chemscore.Rot>
1.5705

> <Gold.Chemscore.Internal.Correction>
   9.000000E+99

> <Gold.Chemscore.Hbonds>
donor molecule, donor type, donor heavy atom, donor atom, acceptor molecule, acceptor atom, score
      L1  H     3    18       P1  7948  0.21
      L1  H     7    24       P1  7948  0.35

> <Gold.Chemscore.Hbond.Weighted>
-5.8885

> <Gold.Chemscore.Metal.Weighted>
-0.0000

> <Gold.Chemscore.Lipo.Weighted>
-6.8816

> <Gold.Chemscore.Internal_Hbond.Weighted>
0.0000

> <Gold.Chemscore.DEClash.Weighted>
0.0029

> <Gold.Chemscore.DEInternal.Weighted>
2.4771

> <Gold.Chemscore.Rot.Weighted>
4.0206

> <Gold.Chemscore.Internal.Correction.Weighted>
   9.000000E+99

> <Gold.Protein.RotatedTorsions>
[ 6907 6896 6895 6894 ] final   49.02 input  -60.11 | X-H torsion
[ 7974 7965 7964 7962 ] final   50.88 input  175.53 | X-H torsion
[ 8008 7997 7996 7995 ] final -154.87 input   59.86 | X-H torsion
[ 10167 10162 10161 10158 ] final  -36.75 input  -65.29 | X-H torsion
[ 10718 10713 10712 10709 ] final -142.59 input   66.30 | X-H torsion
[ 10763 10752 10751 10750 ] final  107.89 input  -60.55 | X-H torsion
[ 11005 11000 10999 10996 ] final -127.78 input  -57.11 | X-H torsion

> <Gold.Protein.ActiveResidues>
 VAL166  LYS551  ARG553  GLY616  TRP617  ASP618  TYR619  PRO620  LYS621  CYS622 
 ASP623  PHE694  ASN695  SER759  ASP760  ASP761  ALA762  ILE779  LEU786  VAL792 
 PHE793  MET794  SER795  GLU796  ALA797  LYS798  CYS799  TRP800  GLU811  SER814 

> <Gold.Protein.RotatedAtoms>
  152.2860  134.7775  160.0386 H   0  0  0  0  0  0  0  0  0  0  0  0  # atno 6907 bound_to 6896
  151.8337  133.3407  159.3629 H   0  0  0  0  0  0  0  0  0  0  0  0  # atno 6908 bound_to 6896
  150.7210  134.5387  159.5780 H   0  0  0  0  0  0  0  0  0  0  0  0  # atno 6909 bound_to 6896
  145.9968  139.4396  143.0040 H   0  0  0  0  0  0  0  0  0  0  0  0  # atno 7974 bound_to 7965
  155.6930  140.0757  157.2440 H   0  0  0  0  0  0  0  0  0  0  0  0  # atno 8008 bound_to 7997
  154.4085  140.1661  156.2160 H   0  0  0  0  0  0  0  0  0  0  0  0  # atno 8009 bound_to 7997
  155.9435  140.3382  155.6350 H   0  0  0  0  0  0  0  0  0  0  0  0  # atno 8010 bound_to 7997
  140.7135  143.3388  151.2404 H   0  0  0  0  0  0  0  0  0  0  0  0  # atno 10167 bound_to 10162
  156.3477  130.7671  151.1819 H   0  0  0  0  0  0  0  0  0  0  0  0  # atno 10718 bound_to 10713
  153.4131  135.3829  155.2063 H   0  0  0  0  0  0  0  0  0  0  0  0  # atno 10763 bound_to 10752
  154.8739  135.3799  154.4477 H   0  0  0  0  0  0  0  0  0  0  0  0  # atno 10764 bound_to 10752
  153.4987  135.7088  153.5906 H   0  0  0  0  0  0  0  0  0  0  0  0  # atno 10765 bound_to 10752
  140.9571  134.0987  157.4005 H   0  0  0  0  0  0  0  0  0  0  0  0  # atno 11005 bound_to 11000
  145.7548  140.9958  143.1231 LP  0  0  0  0  0  0  0  0  0  0  0  0  # atno 17320 bound_to 7965
  144.6906  139.9258  143.7470 LP  0  0  0  0  0  0  0  0  0  0  0  0  # atno 17321 bound_to 7965
  139.6890  143.9725  152.2849 LP  0  0  0  0  0  0  0  0  0  0  0  0  # atno 17342 bound_to 10162
  139.9380  144.6700  150.8295 LP  0  0  0  0  0  0  0  0  0  0  0  0  # atno 17343 bound_to 10162
  157.7456  131.0436  150.4753 LP  0  0  0  0  0  0  0  0  0  0  0  0  # atno 17370 bound_to 10713
  156.4943  130.4102  149.6388 LP  0  0  0  0  0  0  0  0  0  0  0  0  # atno 17371 bound_to 10713
  139.8866  135.0082  156.6507 LP  0  0  0  0  0  0  0  0  0  0  0  0  # atno 17394 bound_to 11000
  140.7520  133.8889  155.8354 LP  0  0  0  0  0  0  0  0  0  0  0  0  # atno 17395 bound_to 11000

$$$$
