AV-unprocessed.smi:260|AV-procd|sdf|1977|dock8
  -GOLD-   2262021143D 1   1.00000     0.00000
 Structure written by MMmdl.
 53 56  0  0  0  0  0  0  0  0  1 V2000
  146.0567  130.1449  151.7656 C   0  0  0  0  0  0  0  0  0  0  0  0
  145.2287  131.2431  151.2913 N   0  0  0  0  0  0  0  0  0  0  0  0
  145.5776  132.5384  151.3499 C   0  0  0  0  0  0  0  0  0  0  0  0
  146.6575  132.8980  151.8224 O   0  0  0  0  0  0  0  0  0  0  0  0
  144.5746  133.5922  150.8025 C   0  0  1  0  0  0  0  0  0  0  0  0
  144.2994  133.4081  149.2917 C   0  0  0  0  0  0  0  0  0  0  0  0
  143.2690  133.5561  151.6235 C   0  0  0  0  0  0  0  0  0  0  0  0
  143.5309  134.4572  152.8327 C   0  0  0  0  0  0  0  0  0  0  0  0
  144.5151  135.4213  152.3730 N   0  0  0  0  0  0  0  0  0  0  0  0
  145.1054  136.3347  153.1873 C   0  0  0  0  0  0  0  0  0  0  0  0
  144.9952  136.1621  154.5314 N   0  0  0  0  0  0  0  0  0  0  0  0
  145.5546  137.0301  155.3782 C   0  0  0  0  0  0  0  0  0  0  0  0
  146.2635  138.1248  155.1016 N   0  0  0  0  0  0  0  0  0  0  0  0
  146.3872  138.3045  153.7560 C   0  0  0  0  0  0  0  0  0  0  0  0
  145.8480  137.4674  152.7360 C   0  0  0  0  0  0  0  0  0  0  0  0
  146.1901  137.9807  151.4884 N   0  0  0  0  0  0  0  0  0  0  0  0
  146.8814  139.0544  151.7547 C   0  0  0  0  0  0  0  0  0  0  0  0
  147.0455  139.3248  153.0925 N   0  0  0  0  0  0  0  0  0  0  0  0
  147.7613  140.4510  153.6659 C   0  0  0  0  0  0  0  0  0  0  0  0
  149.0746  140.0241  154.3496 C   0  0  1  0  0  0  0  0  0  0  0  0
  150.0280  139.6861  153.3603 O   0  0  0  0  0  0  0  0  0  0  0  0
  149.6553  141.1382  155.2396 C   0  0  2  0  0  0  0  0  0  0  0  0
  151.0950  140.9003  155.6992 C   0  0  0  0  0  0  0  0  0  0  0  0
  151.1975  141.6945  156.9924 C   0  0  0  0  0  0  0  0  0  0  0  0
  149.7427  141.9965  157.3609 C   0  0  0  0  0  0  0  0  0  0  0  0
  148.9647  141.2006  156.4782 O   0  0  0  0  0  0  0  0  0  0  0  0
  145.0864  135.0226  151.0902 C   0  0  0  0  0  0  0  0  0  0  0  0
  145.5446  129.1964  151.6033 H   0  0  0  0  0  0  0  0  0  0  0  0
  146.2600  130.2445  152.8326 H   0  0  0  0  0  0  0  0  0  0  0  0
  147.0066  130.1157  151.2304 H   0  0  0  0  0  0  0  0  0  0  0  0
  144.3311  131.0069  150.8934 H   0  0  0  0  0  0  0  0  0  0  0  0
  143.6347  134.1861  148.9146 H   0  0  0  0  0  0  0  0  0  0  0  0
  143.8185  132.4518  149.0821 H   0  0  0  0  0  0  0  0  0  0  0  0
  145.2188  133.4613  148.7070 H   0  0  0  0  0  0  0  0  0  0  0  0
  142.4487  133.9739  151.0384 H   0  0  0  0  0  0  0  0  0  0  0  0
  142.9698  132.5498  151.9208 H   0  0  0  0  0  0  0  0  0  0  0  0
  142.6161  134.9451  153.1702 H   0  0  0  0  0  0  0  0  0  0  0  0
  143.9427  133.8800  153.6614 H   0  0  0  0  0  0  0  0  0  0  0  0
  145.4141  136.8165  156.4275 H   0  0  0  0  0  0  0  0  0  0  0  0
  147.2899  139.6842  150.9777 H   0  0  0  0  0  0  0  0  0  0  0  0
  147.9567  141.1822  152.8805 H   0  0  0  0  0  0  0  0  0  0  0  0
  147.1017  140.9379  154.3851 H   0  0  0  0  0  0  0  0  0  0  0  0
  148.8920  139.1366  154.9570 H   0  0  0  0  0  0  0  0  0  0  0  0
  149.6265  139.7857  152.5103 H   0  0  0  0  0  0  0  0  0  0  0  0
  149.5774  142.1071  154.7420 H   0  0  0  0  0  0  0  0  0  0  0  0
  151.2544  139.8417  155.9093 H   0  0  0  0  0  0  0  0  0  0  0  0
  151.8291  141.2083  154.9542 H   0  0  0  0  0  0  0  0  0  0  0  0
  151.6983  141.1117  157.7662 H   0  0  0  0  0  0  0  0  0  0  0  0
  151.7586  142.6190  156.8518 H   0  0  0  0  0  0  0  0  0  0  0  0
  149.5165  141.7645  158.4019 H   0  0  0  0  0  0  0  0  0  0  0  0
  149.5145  143.0496  157.1896 H   0  0  0  0  0  0  0  0  0  0  0  0
  146.1771  135.0593  151.1013 H   0  0  0  0  0  0  0  0  0  0  0  0
  144.7462  135.7260  150.3296 H   0  0  0  0  0  0  0  0  0  0  0  0
  1  2  1  0  0  0  0
  1 28  1  0  0  0  0
  1 29  1  0  0  0  0
  1 30  1  0  0  0  0
  2  3  1  0  0  0  0
  2 31  1  0  0  0  0
  3  4  2  0  0  0  0
  3  5  1  0  0  0  0
  5 27  1  0  0  0  0
  5  6  1  0  0  0  0
  5  7  1  0  0  0  0
  6 32  1  0  0  0  0
  6 33  1  0  0  0  0
  6 34  1  0  0  0  0
  7  8  1  0  0  0  0
  7 35  1  0  0  0  0
  7 36  1  0  0  0  0
  8  9  1  0  0  0  0
  8 37  1  0  0  0  0
  8 38  1  0  0  0  0
  9 10  1  0  0  0  0
  9 27  1  0  0  0  0
 10 15  1  0  0  0  0
 10 11  2  0  0  0  0
 11 12  1  0  0  0  0
 12 13  2  0  0  0  0
 12 39  1  0  0  0  0
 13 14  1  0  0  0  0
 14 18  1  0  0  0  0
 14 15  2  0  0  0  0
 15 16  1  0  0  0  0
 16 17  2  0  0  0  0
 17 18  1  0  0  0  0
 17 40  1  0  0  0  0
 18 19  1  0  0  0  0
 19 20  1  0  0  0  0
 19 41  1  0  0  0  0
 19 42  1  0  0  0  0
 20 21  1  0  0  0  0
 20 22  1  0  0  0  0
 20 43  1  0  0  0  0
 21 44  1  0  0  0  0
 22 26  1  0  0  0  0
 22 23  1  0  0  0  0
 22 45  1  0  0  0  0
 23 24  1  0  0  0  0
 23 46  1  0  0  0  0
 23 47  1  0  0  0  0
 24 25  1  0  0  0  0
 24 48  1  0  0  0  0
 24 49  1  0  0  0  0
 25 26  1  0  0  0  0
 25 50  1  0  0  0  0
 25 51  1  0  0  0  0
 27 52  1  0  0  0  0
 27 53  1  0  0  0  0
M  END
> <s_m_source_file>
AV-unprocessed.smi

> <i_m_source_file_index>
260

> <i_lp_mmshare_version>
43012

> <i_f3d_flags>
0

> <s_epik_input>
W0NIM11bTkhdQyg9TylbQ0BAXTEoW0NIM10pW0NIMl1bQ0gyXU4oW0NIMl0xKWMobltjSF1uMiljKGMyMyluW2NIXW4zW0NIMl1bQ0BIXShbT0hdKVtDQEBIXTRbQ0gyXVtDSDJdW0NIMl1PNA==

> <s_epik_cmdline>
J2VwaWtfcHl0aG9uJywgJy1waCcsICc3LjAnLCAnLXRuJywgJzgnLCAnLW1hJywgJzIwMCcsICctbWV0YWxfYmluZGluZycsICctaW1hZScsICc8aW5maWxlLm1hZT4nLCAnLW9tYWUnLCAnPG91dGZpbGUubWFlPic=

> <r_lp_tautomer_probability>
1

> <r_epik_Ionization_Penalty>
0.00115068

> <r_epik_Ionization_Penalty_Charging>
0

> <r_epik_Ionization_Penalty_Neutral>
0.00115068

> <r_epik_State_Penalty>
0.000668876

> <r_epik_Charging_Adjusted_Penalty>
0.000668876

> <i_epik_Tot_Q>
0

> <i_epik_Tot_abs_Q>
0

> <r_epik_Metal_State_Penalty>
-0

> <b_epik_Metal_Only>
0

> <s_lp_Force_Field>
OPLS_2005

> <r_lp_Energy>
48.4888

> <b_lp_Chiralities_Consistent>
1

> <s_lp_Variant>
AV-unprocessed.smi:260-3

> <Gold.Version>
5.8.1

> <Gold.Id.Protein>
6NUR|6NUR_protein|mol2

> <Gold.PLP.Fitness>
46.8238

> <Gold.PLP.PLP>
-40.4970

> <Gold.PLP.part.hbond>
-1.6661

> <Gold.PLP.part.metal>
0.0000

> <Gold.PLP.part.buried>
-1.6571

> <Gold.PLP.part.nonpolar>
-38.6908

> <Gold.PLP.part.repulsive>
1.6450

> <Gold.PLP.ligand.clash>
0.0000

> <Gold.PLP.ligand.torsion>
0.7709

> <Gold.PLP.Chemscore.Hbond>
1.7613

> <Gold.PLP.Chemscore.CHOScore>
0.7948

> <Gold.PLP.Chemscore.Metal>
0.0000

> <Gold.Chemscore.Hbonds>
donor molecule, donor type, donor heavy atom, donor atom, acceptor molecule, acceptor atom, score
      L1  H    21    44       P1  7957  0.60
      P1  H  7989  7998       L1    21  0.67
      L1  C    17    40       P1  7957  0.70

> <Gold.PLP.Chemscore.Internal.Correction>
0.2005

> <Gold.Rescore>
     Score         DG    S(hbond)    S(metal)    S(lipo)     H(rot)  DE(clash)    DE(int)     intcor
     10.16     -13.02       1.18        0.00      85.99       2.53       2.01       0.84       ----

> <Gold.Chemscore.Fitness>
10.1644

> <Gold.Chemscore.DG>
-13.0156

> <Gold.Chemscore.ZeroCoef>
-5.4800

> <Gold.Chemscore.Hbond>
1.1799

> <Gold.Chemscore.Metal>
0.0000

> <Gold.Chemscore.Lipo>
85.9927

> <Gold.Chemscore.Internal_Hbond>
0.0000

> <Gold.Chemscore.DEClash>
2.0147

> <Gold.Chemscore.DEInternal>
0.8364

> <Gold.Chemscore.Rot>
2.5259

> <Gold.Chemscore.Internal.Correction>
   9.000000E+99

> <Gold.Chemscore.Hbonds>
donor molecule, donor type, donor heavy atom, donor atom, acceptor molecule, acceptor atom, score
      L1  H    21    44       P1  7957  0.59
      P1  H  7989  7998       L1    21  0.36

> <Gold.Chemscore.Hbond.Weighted>
-3.9408

> <Gold.Chemscore.Metal.Weighted>
-0.0000

> <Gold.Chemscore.Lipo.Weighted>
-10.0611

> <Gold.Chemscore.Internal_Hbond.Weighted>
0.0000

> <Gold.Chemscore.DEClash.Weighted>
2.0147

> <Gold.Chemscore.DEInternal.Weighted>
0.8364

> <Gold.Chemscore.Rot.Weighted>
6.4663

> <Gold.Chemscore.Internal.Correction.Weighted>
   9.000000E+99

> <Gold.Protein.RotatedTorsions>
[ 6907 6896 6895 6894 ] final   62.32 input  -60.11 | X-H torsion
[ 7974 7965 7964 7962 ] final   70.46 input  175.53 | X-H torsion
[ 8008 7997 7996 7995 ] final  144.23 input   59.86 | X-H torsion
[ 10167 10162 10161 10158 ] final  153.41 input  -65.29 | X-H torsion
[ 10718 10713 10712 10709 ] final  -87.62 input   66.30 | X-H torsion
[ 10763 10752 10751 10750 ] final  144.96 input  -60.55 | X-H torsion
[ 11005 11000 10999 10996 ] final   62.57 input  -57.11 | X-H torsion

> <Gold.Protein.ActiveResidues>
 VAL166  LYS551  ARG553  GLY616  TRP617  ASP618  TYR619  PRO620  LYS621  CYS622 
 ASP623  PHE694  ASN695  SER759  ASP760  ASP761  ALA762  ILE779  LEU786  VAL792 
 PHE793  MET794  SER795  GLU796  ALA797  LYS798  CYS799  TRP800  GLU811  SER814 

> <Gold.Protein.RotatedAtoms>
  152.4163  134.6036  160.0006 H   0  0  0  0  0  0  0  0  0  0  0  0  # atno 6907 bound_to 6896
  151.6199  133.3334  159.3093 H   0  0  0  0  0  0  0  0  0  0  0  0  # atno 6908 bound_to 6896
  150.8051  134.7210  159.6703 H   0  0  0  0  0  0  0  0  0  0  0  0  # atno 6909 bound_to 6896
  145.7779  139.2874  143.1283 H   0  0  0  0  0  0  0  0  0  0  0  0  # atno 7974 bound_to 7965
  156.2913  140.2241  156.5019 H   0  0  0  0  0  0  0  0  0  0  0  0  # atno 8008 bound_to 7997
  154.7682  140.0468  157.1051 H   0  0  0  0  0  0  0  0  0  0  0  0  # atno 8009 bound_to 7997
  154.9906  140.3089  155.4911 H   0  0  0  0  0  0  0  0  0  0  0  0  # atno 8010 bound_to 7997
  139.4827  144.5276  151.7776 H   0  0  0  0  0  0  0  0  0  0  0  0  # atno 10167 bound_to 10162
  155.9985  130.4806  150.4895 H   0  0  0  0  0  0  0  0  0  0  0  0  # atno 10718 bound_to 10713
  153.9974  135.2926  155.3406 H   0  0  0  0  0  0  0  0  0  0  0  0  # atno 10763 bound_to 10752
  154.7179  135.5122  153.8769 H   0  0  0  0  0  0  0  0  0  0  0  0  # atno 10764 bound_to 10752
  153.0781  135.6670  154.0220 H   0  0  0  0  0  0  0  0  0  0  0  0  # atno 10765 bound_to 10752
  140.0083  134.6335  155.9820 H   0  0  0  0  0  0  0  0  0  0  0  0  # atno 11005 bound_to 11000
  146.0104  140.8441  142.9974 LP  0  0  0  0  0  0  0  0  0  0  0  0  # atno 17320 bound_to 7965
  144.6801  140.2481  143.7335 LP  0  0  0  0  0  0  0  0  0  0  0  0  # atno 17321 bound_to 7965
  140.4797  144.1467  150.5930 LP  0  0  0  0  0  0  0  0  0  0  0  0  # atno 17342 bound_to 10162
  140.4291  143.2576  151.9619 LP  0  0  0  0  0  0  0  0  0  0  0  0  # atno 17343 bound_to 10162
  157.2892  131.0623  151.2145 LP  0  0  0  0  0  0  0  0  0  0  0  0  # atno 17370 bound_to 10713
  157.3164  130.6915  149.6244 LP  0  0  0  0  0  0  0  0  0  0  0  0  # atno 17371 bound_to 10713
  141.1693  133.6537  156.4593 LP  0  0  0  0  0  0  0  0  0  0  0  0  # atno 17394 bound_to 11000
  140.4600  134.6850  157.5081 LP  0  0  0  0  0  0  0  0  0  0  0  0  # atno 17395 bound_to 11000

$$$$
