AV-unprocessed.smi:2499|AV-procd|sdf|9836|dock8
  -GOLD-   2272013463D 1   1.00000     0.00000
 Structure written by MMmdl.
 27 28  0  0  0  0  0  0  0  0  1 V2000
  150.8569  141.0074  157.7547 C   0  0  0  0  0  0  0  0  0  0  0  0
  150.9625  142.3016  156.9365 C   0  0  1  0  0  0  0  0  0  0  0  0
  149.8971  142.3099  155.9386 N   0  0  0  0  0  0  0  0  0  0  0  0
  149.6884  141.3702  155.0037 C   0  0  0  0  0  0  0  0  0  0  0  0
  150.4031  140.3665  154.9191 O   0  0  0  0  0  0  0  0  0  0  0  0
  148.5842  141.6990  154.2330 N   0  0  0  0  0  0  0  0  0  0  0  0
  147.9392  140.7528  153.6239 C   0  0  0  0  0  0  0  0  0  0  0  0
  146.8344  140.8766  152.7966 N   0  0  0  0  0  0  0  0  0  0  0  0
  146.4722  139.6251  152.3807 C   0  0  0  0  0  0  0  0  0  0  0  0
  147.3121  138.7488  152.9241 C   0  0  0  0  0  0  0  0  0  0  0  0
  148.2234  139.4079  153.6928 O   0  0  0  0  0  0  0  0  0  0  0  0
  150.9480  143.5192  157.8459 C   0  0  0  0  0  0  0  0  0  0  0  0
  152.0573  144.5440  157.8089 C   0  0  0  0  0  0  0  0  0  0  0  0
  151.9085  143.6340  159.0062 C   0  0  0  0  0  0  0  0  0  0  0  0
  151.6682  140.9332  158.4793 H   0  0  0  0  0  0  0  0  0  0  0  0
  150.9122  140.1287  157.1110 H   0  0  0  0  0  0  0  0  0  0  0  0
  149.9157  140.9601  158.3038 H   0  0  0  0  0  0  0  0  0  0  0  0
  151.9236  142.2774  156.4192 H   0  0  0  0  0  0  0  0  0  0  0  0
  149.2675  143.0993  155.9563 H   0  0  0  0  0  0  0  0  0  0  0  0
  146.3496  141.7189  152.5224 H   0  0  0  0  0  0  0  0  0  0  0  0
  145.6271  139.4915  151.7214 H   0  0  0  0  0  0  0  0  0  0  0  0
  147.3908  137.6734  152.8650 H   0  0  0  0  0  0  0  0  0  0  0  0
  149.9486  143.9094  158.0298 H   0  0  0  0  0  0  0  0  0  0  0  0
  152.8990  144.3611  157.1439 H   0  0  0  0  0  0  0  0  0  0  0  0
  151.7779  145.5886  157.9302 H   0  0  0  0  0  0  0  0  0  0  0  0
  151.5314  144.0720  159.9281 H   0  0  0  0  0  0  0  0  0  0  0  0
  152.6498  142.8474  159.1320 H   0  0  0  0  0  0  0  0  0  0  0  0
  1  2  1  0  0  0  0
  1 15  1  0  0  0  0
  1 16  1  0  0  0  0
  1 17  1  0  0  0  0
  2  3  1  0  0  0  0
  2 12  1  0  0  0  0
  2 18  1  0  0  0  0
  3 19  1  0  0  0  0
  3  4  1  0  0  0  0
  4  6  1  0  0  0  0
  4  5  2  0  0  0  0
  6  7  2  0  0  0  0
  7 11  1  0  0  0  0
  7  8  1  0  0  0  0
  8 20  1  0  0  0  0
  8  9  1  0  0  0  0
  9 21  1  0  0  0  0
  9 10  2  0  0  0  0
 10 22  1  0  0  0  0
 10 11  1  0  0  0  0
 12 14  1  0  0  0  0
 12 13  1  0  0  0  0
 12 23  1  0  0  0  0
 13 14  1  0  0  0  0
 13 24  1  0  0  0  0
 13 25  1  0  0  0  0
 14 26  1  0  0  0  0
 14 27  1  0  0  0  0
M  END
> <s_m_source_file>
AV-unprocessed.smi

> <i_m_source_file_index>
2499

> <i_lp_mmshare_version>
43012

> <i_f3d_flags>
0

> <s_epik_input>
W0NIMl0xW0NIMl1bQ0hdMVtDQEhdKFtDSDNdKVtOSF1DKD1PKVtOSF1jMm5bY0hdW2NIXW8y

> <s_epik_cmdline>
J2VwaWtfcHl0aG9uJywgJy1waCcsICc3LjAnLCAnLXRuJywgJzgnLCAnLW1hJywgJzIwMCcsICctbWV0YWxfYmluZGluZycsICctaW1hZScsICc8aW5maWxlLm1hZT4nLCAnLW9tYWUnLCAnPG91dGZpbGUubWFlPic=

> <r_lp_tautomer_probability>
0.107061

> <r_epik_Ionization_Penalty>
1.51515

> <r_epik_Ionization_Penalty_Charging>
1.51478

> <r_epik_Ionization_Penalty_Neutral>
0.000369309

> <r_epik_State_Penalty>
2.62718

> <r_epik_Charging_Adjusted_Penalty>
4.14196

> <i_epik_Tot_Q>
0

> <i_epik_Tot_abs_Q>
0

> <r_epik_Metal_State_Penalty>
3.5378

> <b_epik_Metal_Only>
0

> <s_lp_Force_Field>
OPLS_2005

> <r_lp_Energy>
35.9469

> <b_lp_Chiralities_Consistent>
1

> <s_lp_Variant>
AV-unprocessed.smi:2499-6

> <Gold.Version>
5.8.1

> <Gold.Id.Protein>
6NUR|6NUR_protein|mol2

> <Gold.PLP.Fitness>
38.5573

> <Gold.PLP.PLP>
-26.3535

> <Gold.PLP.part.hbond>
-3.4383

> <Gold.PLP.part.metal>
0.0000

> <Gold.PLP.part.buried>
1.7425

> <Gold.PLP.part.nonpolar>
-25.4800

> <Gold.PLP.part.repulsive>
1.4884

> <Gold.PLP.ligand.clash>
0.0000

> <Gold.PLP.ligand.torsion>
0.8769

> <Gold.PLP.Chemscore.Hbond>
2.0744

> <Gold.PLP.Chemscore.CHOScore>
2.2245

> <Gold.PLP.Chemscore.Metal>
0.0000

> <Gold.Chemscore.Hbonds>
donor molecule, donor type, donor heavy atom, donor atom, acceptor molecule, acceptor atom, score
      L1  H     3    19       P1  8028  1.00
      P1  H  7989  7998       L1     5  1.00
      P1  H  8011  8017       L1     6  0.06
      L1  C     9    21       P1 10171  0.52
      L1  C     9    21       P1 10175  0.70
      L1  C    10    22       P1  7948  1.00

> <Gold.PLP.Chemscore.Internal.Correction>
1.0608

> <Gold.Rescore>
     Score         DG    S(hbond)    S(metal)    S(lipo)     H(rot)  DE(clash)    DE(int)     intcor
     11.61     -14.77       1.35        0.00      69.20       1.29       0.63       2.53       ----

> <Gold.Chemscore.Fitness>
11.6051

> <Gold.Chemscore.DG>
-14.7659

> <Gold.Chemscore.ZeroCoef>
-5.4800

> <Gold.Chemscore.Hbond>
1.3459

> <Gold.Chemscore.Metal>
0.0000

> <Gold.Chemscore.Lipo>
69.2025

> <Gold.Chemscore.Internal_Hbond>
0.0000

> <Gold.Chemscore.DEClash>
0.6295

> <Gold.Chemscore.DEInternal>
2.5312

> <Gold.Chemscore.Rot>
1.2915

> <Gold.Chemscore.Internal.Correction>
   9.000000E+99

> <Gold.Chemscore.Hbonds>
donor molecule, donor type, donor heavy atom, donor atom, acceptor molecule, acceptor atom, score
      L1  H     3    19       P1  8028  0.97
      P1  H  7989  7998       L1     5  0.29

> <Gold.Chemscore.Hbond.Weighted>
-4.4954

> <Gold.Chemscore.Metal.Weighted>
-0.0000

> <Gold.Chemscore.Lipo.Weighted>
-8.0967

> <Gold.Chemscore.Internal_Hbond.Weighted>
0.0000

> <Gold.Chemscore.DEClash.Weighted>
0.6295

> <Gold.Chemscore.DEInternal.Weighted>
2.5312

> <Gold.Chemscore.Rot.Weighted>
3.3062

> <Gold.Chemscore.Internal.Correction.Weighted>
   9.000000E+99

> <Gold.Protein.RotatedTorsions>
[ 6907 6896 6895 6894 ] final  -47.30 input  -60.11 | X-H torsion
[ 7974 7965 7964 7962 ] final  101.63 input  175.53 | X-H torsion
[ 8008 7997 7996 7995 ] final   43.65 input   59.86 | X-H torsion
[ 10167 10162 10161 10158 ] final -162.80 input  -65.29 | X-H torsion
[ 10718 10713 10712 10709 ] final   33.12 input   66.30 | X-H torsion
[ 10763 10752 10751 10750 ] final  135.78 input  -60.55 | X-H torsion
[ 11005 11000 10999 10996 ] final   75.75 input  -57.11 | X-H torsion

> <Gold.Protein.ActiveResidues>
 VAL166  LYS551  ARG553  GLY616  TRP617  ASP618  TYR619  PRO620  LYS621  CYS622 
 ASP623  PHE694  ASN695  SER759  ASP760  ASP761  ALA762  ILE779  LEU786  VAL792 
 PHE793  MET794  SER795  GLU796  ALA797  LYS798  CYS799  TRP800  GLU811  SER814 

> <Gold.Protein.RotatedAtoms>
  150.9022  134.8435  159.7367 H   0  0  0  0  0  0  0  0  0  0  0  0  # atno 6907 bound_to 6896
  152.4898  134.4485  159.9577 H   0  0  0  0  0  0  0  0  0  0  0  0  # atno 6908 bound_to 6896
  151.4536  133.3572  159.2834 H   0  0  0  0  0  0  0  0  0  0  0  0  # atno 6909 bound_to 6896
  145.3698  139.2400  143.3461 H   0  0  0  0  0  0  0  0  0  0  0  0  # atno 7974 bound_to 7965
  155.3062  140.3388  155.4245 H   0  0  0  0  0  0  0  0  0  0  0  0  # atno 8008 bound_to 7997
  156.1978  140.1721  156.8001 H   0  0  0  0  0  0  0  0  0  0  0  0  # atno 8009 bound_to 7997
  154.5520  140.0704  156.8667 H   0  0  0  0  0  0  0  0  0  0  0  0  # atno 8010 bound_to 7997
  139.6366  144.0339  152.2059 H   0  0  0  0  0  0  0  0  0  0  0  0  # atno 10167 bound_to 10162
  157.2938  130.7316  149.6626 H   0  0  0  0  0  0  0  0  0  0  0  0  # atno 10718 bound_to 10713
  153.8456  135.3086  155.3429 H   0  0  0  0  0  0  0  0  0  0  0  0  # atno 10763 bound_to 10752
  154.7913  135.4781  154.0063 H   0  0  0  0  0  0  0  0  0  0  0  0  # atno 10764 bound_to 10752
  153.1549  135.6850  153.8920 H   0  0  0  0  0  0  0  0  0  0  0  0  # atno 10765 bound_to 10752
  139.9329  134.7544  156.1310 H   0  0  0  0  0  0  0  0  0  0  0  0  # atno 11005 bound_to 11000
  146.2890  140.4347  142.8747 LP  0  0  0  0  0  0  0  0  0  0  0  0  # atno 17320 bound_to 7965
  144.8584  140.7104  143.6123 LP  0  0  0  0  0  0  0  0  0  0  0  0  # atno 17321 bound_to 7965
  140.0017  144.6288  150.7724 LP  0  0  0  0  0  0  0  0  0  0  0  0  # atno 17342 bound_to 10162
  140.7468  143.2897  151.3365 LP  0  0  0  0  0  0  0  0  0  0  0  0  # atno 17343 bound_to 10162
  155.9668  130.4300  150.4860 LP  0  0  0  0  0  0  0  0  0  0  0  0  # atno 17370 bound_to 10713
  157.2827  131.0610  151.2186 LP  0  0  0  0  0  0  0  0  0  0  0  0  # atno 17371 bound_to 10713
  141.0928  133.6707  156.2578 LP  0  0  0  0  0  0  0  0  0  0  0  0  # atno 17394 bound_to 11000
  140.6153  134.5417  157.5539 LP  0  0  0  0  0  0  0  0  0  0  0  0  # atno 17395 bound_to 11000

$$$$
