AV-unprocessed.smi:2357|AV-procd|sdf|9401|dock3
  -GOLD-   2272013 33D 1   1.00000     0.00000
 Structure written by MMmdl.
 37 38  0  0  0  0  0  0  0  0  1 V2000
  152.3649  144.2218  160.0604 C   0  0  0  0  0  0  0  0  0  0  0  0
  152.1161  143.1582  159.0070 C   0  0  0  0  0  0  0  0  0  0  0  0
  151.1912  143.4134  157.9220 C   0  0  0  0  0  0  0  0  0  0  0  0
  150.9893  142.4657  156.9943 C   0  0  0  0  0  0  0  0  0  0  0  0
  151.6479  141.2246  157.0440 N   0  0  0  0  0  0  0  0  0  0  0  0
  151.3668  140.2671  155.9620 C   0  0  0  0  0  0  0  0  0  0  0  0
  150.7906  138.9513  156.4990 C   0  0  0  0  0  0  0  0  0  0  0  0
  150.7575  138.7386  157.7111 O   0  0  0  0  0  0  0  0  0  0  0  0
  150.3433  138.0806  155.5824 N   0  0  0  0  0  0  0  0  0  0  0  0
  149.6647  136.8224  155.8762 C   0  0  0  0  0  0  0  0  0  0  0  0
  150.4378  135.5902  155.3596 C   0  0  2  0  0  0  0  0  0  0  0  0
  149.6295  134.2932  155.2324 C   0  0  0  0  0  0  0  0  0  0  0  0
  150.7084  133.2443  155.3777 C   0  0  0  0  0  0  0  0  0  0  0  0
  151.6069  133.8744  156.4362 C   0  0  0  0  0  0  0  0  0  0  0  0
  151.5467  135.2777  156.2012 O   0  0  0  0  0  0  0  0  0  0  0  0
  152.5285  140.9117  158.0424 C   0  0  0  0  0  0  0  0  0  0  0  0
  153.0983  139.8192  158.0845 O   0  0  0  0  0  0  0  0  0  0  0  0
  152.7476  141.9606  159.0506 C   0  0  0  0  0  0  0  0  0  0  0  0
  153.6778  141.6377  160.0844 C   0  0  0  0  0  0  0  0  0  0  0  0
  154.4436  141.3917  160.9169 N   0  0  0  0  0  0  0  0  0  0  0  0
  151.7881  145.1238  159.8544 H   0  0  0  0  0  0  0  0  0  0  0  0
  153.4202  144.4944  160.0855 H   0  0  0  0  0  0  0  0  0  0  0  0
  152.0791  143.8551  161.0467 H   0  0  0  0  0  0  0  0  0  0  0  0
  150.6713  144.3578  157.8525 H   0  0  0  0  0  0  0  0  0  0  0  0
  150.3204  142.6004  156.1567 H   0  0  0  0  0  0  0  0  0  0  0  0
  150.6841  140.7124  155.2355 H   0  0  0  0  0  0  0  0  0  0  0  0
  152.2728  140.0367  155.4002 H   0  0  0  0  0  0  0  0  0  0  0  0
  150.4238  138.3357  154.6087 H   0  0  0  0  0  0  0  0  0  0  0  0
  149.5605  136.7528  156.9593 H   0  0  0  0  0  0  0  0  0  0  0  0
  148.6509  136.8319  155.4725 H   0  0  0  0  0  0  0  0  0  0  0  0
  150.8591  135.8283  154.3819 H   0  0  0  0  0  0  0  0  0  0  0  0
  148.9101  134.1807  156.0440 H   0  0  0  0  0  0  0  0  0  0  0  0
  149.0886  134.2216  154.2884 H   0  0  0  0  0  0  0  0  0  0  0  0
  150.3223  132.2680  155.6724 H   0  0  0  0  0  0  0  0  0  0  0  0
  151.2528  133.1310  154.4391 H   0  0  0  0  0  0  0  0  0  0  0  0
  151.2179  133.6731  157.4348 H   0  0  0  0  0  0  0  0  0  0  0  0
  152.6313  133.5045  156.3913 H   0  0  0  0  0  0  0  0  0  0  0  0
  1  2  1  0  0  0  0
  1 21  1  0  0  0  0
  1 22  1  0  0  0  0
  1 23  1  0  0  0  0
  2 18  2  0  0  0  0
  2  3  1  0  0  0  0
  3  4  2  0  0  0  0
  3 24  1  0  0  0  0
  4  5  1  0  0  0  0
  4 25  1  0  0  0  0
  5  6  1  0  0  0  0
  5 16  1  0  0  0  0
  6  7  1  0  0  0  0
  6 26  1  0  0  0  0
  6 27  1  0  0  0  0
  7  8  2  0  0  0  0
  7  9  1  0  0  0  0
  9 10  1  0  0  0  0
  9 28  1  0  0  0  0
 10 11  1  0  0  0  0
 10 29  1  0  0  0  0
 10 30  1  0  0  0  0
 11 15  1  0  0  0  0
 11 12  1  0  0  0  0
 11 31  1  0  0  0  0
 12 13  1  0  0  0  0
 12 32  1  0  0  0  0
 12 33  1  0  0  0  0
 13 14  1  0  0  0  0
 13 34  1  0  0  0  0
 13 35  1  0  0  0  0
 14 15  1  0  0  0  0
 14 36  1  0  0  0  0
 14 37  1  0  0  0  0
 16 17  2  0  0  0  0
 16 18  1  0  0  0  0
 18 19  1  0  0  0  0
 19 20  3  0  0  0  0
M  END
> <s_m_source_file>
AV-unprocessed.smi

> <i_m_source_file_index>
2357

> <i_lp_mmshare_version>
43012

> <i_f3d_flags>
0

> <s_epik_input>
W0NIM11jMVtjSF1bY0hdbihjKD1PKWMxQyNOKVtDSDJdQyg9TylbTkhdW0NIMl1bQ0BASF0yW0NIMl1bQ0gyXVtDSDJdTzI=

> <s_epik_cmdline>
J2VwaWtfcHl0aG9uJywgJy1waCcsICc3LjAnLCAnLXRuJywgJzgnLCAnLW1hJywgJzIwMCcsICctbWV0YWxfYmluZGluZycsICctaW1hZScsICc8aW5maWxlLm1hZT4nLCAnLW9tYWUnLCAnPG91dGZpbGUubWFlPic=

> <r_lp_tautomer_probability>
1

> <r_epik_Ionization_Penalty>
2.71597e-08

> <r_epik_Ionization_Penalty_Charging>
3.00645e-10

> <r_epik_Ionization_Penalty_Neutral>
2.6859e-08

> <r_epik_State_Penalty>
-0

> <r_epik_Charging_Adjusted_Penalty>
3.00645e-10

> <i_epik_Tot_Q>
0

> <i_epik_Tot_abs_Q>
0

> <r_epik_Metal_State_Penalty>
-0

> <b_epik_Metal_Only>
0

> <s_lp_Force_Field>
OPLS_2005

> <r_lp_Energy>
27.3681

> <b_lp_Chiralities_Consistent>
1

> <s_lp_Variant>
AV-unprocessed.smi:2357-1

> <Gold.Version>
5.8.1

> <Gold.Id.Protein>
6NUR|6NUR_protein|mol2

> <Gold.PLP.Fitness>
42.0908

> <Gold.PLP.PLP>
-34.3115

> <Gold.PLP.part.hbond>
-2.5800

> <Gold.PLP.part.metal>
0.0000

> <Gold.PLP.part.buried>
-4.6681

> <Gold.PLP.part.nonpolar>
-25.3002

> <Gold.PLP.part.repulsive>
0.0320

> <Gold.PLP.ligand.clash>
0.0000

> <Gold.PLP.ligand.torsion>
0.2121

> <Gold.PLP.Chemscore.Hbond>
2.0000

> <Gold.PLP.Chemscore.CHOScore>
0.7331

> <Gold.PLP.Chemscore.Metal>
0.0000

> <Gold.Chemscore.Hbonds>
donor molecule, donor type, donor heavy atom, donor atom, acceptor molecule, acceptor atom, score
      P1  H  7997  8010       L1    17  1.00
      P1  H 10752 10765       L1    15  0.95
      L1  C     4    25       P1  8028  0.75

> <Gold.PLP.Chemscore.Internal.Correction>
0.0041

> <Gold.Rescore>
     Score         DG    S(hbond)    S(metal)    S(lipo)     H(rot)  DE(clash)    DE(int)     intcor
     11.24     -13.98       1.13        0.00      78.94       1.76       0.01       2.72       ----

> <Gold.Chemscore.Fitness>
11.2431

> <Gold.Chemscore.DG>
-13.9763

> <Gold.Chemscore.ZeroCoef>
-5.4800

> <Gold.Chemscore.Hbond>
1.1259

> <Gold.Chemscore.Metal>
0.0000

> <Gold.Chemscore.Lipo>
78.9367

> <Gold.Chemscore.Internal_Hbond>
0.0000

> <Gold.Chemscore.DEClash>
0.0145

> <Gold.Chemscore.DEInternal>
2.7186

> <Gold.Chemscore.Rot>
1.7577

> <Gold.Chemscore.Internal.Correction>
   9.000000E+99

> <Gold.Chemscore.Hbonds>
donor molecule, donor type, donor heavy atom, donor atom, acceptor molecule, acceptor atom, score
      P1  H  7997  8010       L1    17  0.34
      P1  H 10752 10765       L1    15  0.10

> <Gold.Chemscore.Hbond.Weighted>
-3.7605

> <Gold.Chemscore.Metal.Weighted>
-0.0000

> <Gold.Chemscore.Lipo.Weighted>
-9.2356

> <Gold.Chemscore.Internal_Hbond.Weighted>
0.0000

> <Gold.Chemscore.DEClash.Weighted>
0.0145

> <Gold.Chemscore.DEInternal.Weighted>
2.7186

> <Gold.Chemscore.Rot.Weighted>
4.4998

> <Gold.Chemscore.Internal.Correction.Weighted>
   9.000000E+99

> <Gold.Protein.RotatedTorsions>
[ 6907 6896 6895 6894 ] final   15.33 input  -60.11 | X-H torsion
[ 7974 7965 7964 7962 ] final  -72.10 input  175.53 | X-H torsion
[ 8008 7997 7996 7995 ] final   44.58 input   59.86 | X-H torsion
[ 10167 10162 10161 10158 ] final  -43.34 input  -65.29 | X-H torsion
[ 10718 10713 10712 10709 ] final   21.18 input   66.30 | X-H torsion
[ 10763 10752 10751 10750 ] final -151.47 input  -60.55 | X-H torsion
[ 11005 11000 10999 10996 ] final -117.75 input  -57.11 | X-H torsion

> <Gold.Protein.ActiveResidues>
 VAL166  LYS551  ARG553  GLY616  TRP617  ASP618  TYR619  PRO620  LYS621  CYS622 
 ASP623  PHE694  ASN695  SER759  ASP760  ASP761  ALA762  ILE779  LEU786  VAL792 
 PHE793  MET794  SER795  GLU796  ALA797  LYS798  CYS799  TRP800  GLU811  SER814 

> <Gold.Protein.RotatedAtoms>
  151.8164  135.0665  160.0419 H   0  0  0  0  0  0  0  0  0  0  0  0  # atno 6907 bound_to 6896
  152.2983  133.5625  159.5610 H   0  0  0  0  0  0  0  0  0  0  0  0  # atno 6908 bound_to 6896
  150.7261  134.0245  159.3754 H   0  0  0  0  0  0  0  0  0  0  0  0  # atno 6909 bound_to 6896
  145.6695  140.9226  143.0890 H   0  0  0  0  0  0  0  0  0  0  0  0  # atno 7974 bound_to 7965
  155.3217  140.3397  155.4241 H   0  0  0  0  0  0  0  0  0  0  0  0  # atno 8008 bound_to 7997
  156.1906  140.1696  156.8137 H   0  0  0  0  0  0  0  0  0  0  0  0  # atno 8009 bound_to 7997
  154.5437  140.0719  156.8537 H   0  0  0  0  0  0  0  0  0  0  0  0  # atno 8010 bound_to 7997
  140.6937  143.2988  151.3338 H   0  0  0  0  0  0  0  0  0  0  0  0  # atno 10167 bound_to 10162
  157.1349  130.6607  149.5963 H   0  0  0  0  0  0  0  0  0  0  0  0  # atno 10718 bound_to 10713
  154.8055  135.3259  154.7441 H   0  0  0  0  0  0  0  0  0  0  0  0  # atno 10763 bound_to 10752
  153.8100  135.6896  153.4846 H   0  0  0  0  0  0  0  0  0  0  0  0  # atno 10764 bound_to 10752
  153.1798  135.4591  154.9958 H   0  0  0  0  0  0  0  0  0  0  0  0  # atno 10765 bound_to 10752
  141.0333  133.9948  157.3110 H   0  0  0  0  0  0  0  0  0  0  0  0  # atno 11005 bound_to 11000
  144.7061  139.8554  143.7429 LP  0  0  0  0  0  0  0  0  0  0  0  0  # atno 17320 bound_to 7965
  146.1057  139.4056  143.0319 LP  0  0  0  0  0  0  0  0  0  0  0  0  # atno 17321 bound_to 7965
  139.6368  144.0615  152.2522 LP  0  0  0  0  0  0  0  0  0  0  0  0  # atno 17342 bound_to 10162
  140.0108  144.6225  150.7649 LP  0  0  0  0  0  0  0  0  0  0  0  0  # atno 17343 bound_to 10162
  155.9800  130.4798  150.6749 LP  0  0  0  0  0  0  0  0  0  0  0  0  # atno 17370 bound_to 10713
  157.4360  131.0855  151.0992 LP  0  0  0  0  0  0  0  0  0  0  0  0  # atno 17371 bound_to 10713
  139.9223  135.0201  156.8108 LP  0  0  0  0  0  0  0  0  0  0  0  0  # atno 17394 bound_to 11000
  140.6368  133.9855  155.7688 LP  0  0  0  0  0  0  0  0  0  0  0  0  # atno 17395 bound_to 11000

$$$$
