#       Name:                AV-unprocessed.smi:278
#       Creating user name   scv26
#       Creation time:       Thu Mar 26 21:37:25 2020


#       File generated by GOLD software.
#

@<TRIPOS>MOLECULE
AV-unprocessed.smi:278
    57    61     1
SMALL
NO_CHARGES


@<TRIPOS>ATOM
      1 ****        -4.8562   5.1955   0.4435 O.2            1 S1                 0.0000
      2 ****        -4.1310   4.2623  -0.4316 S.o2           1 S1                 0.0000
      3 ****        -4.4326   2.8225  -0.4088 O.2            1 S1                 0.0000
      4 ****        -4.2323   4.8670  -2.1609 C.3            1 S1                 0.0000
      5 ****        -2.8816   5.5281  -2.4651 C.3            1 S1                 0.0000
      6 ****        -1.7859   4.8486  -1.6235 C.3            1 S1                 0.0000
      7 ****        -1.3692   3.4680  -2.1416 C.3            1 S1                 0.0000
      8 ****        -0.9494   2.7294  -0.9592 N.pl3          1 S1                 0.0000
      9 ****        -0.6197   1.4130  -1.0284 C.ar           1 S1                 0.0000
     10 ****        -0.5516   0.8220  -2.2512 N.ar           1 S1                 0.0000
     11 ****        -0.2263  -0.4685  -2.3660 C.ar           1 S1                 0.0000
     12 ****         0.0728  -1.3416  -1.4037 N.ar           1 S1                 0.0000
     13 ****         0.0189  -0.7569  -0.1734 C.ar           1 S1                 0.0000
     14 ****        -0.3151   0.6005   0.1046 C.ar           1 S1                 0.0000
     15 ****        -0.2507   0.8233   1.4766 N.2            1 S1                 0.0000
     16 ****         0.0920  -0.3315   1.9776 C.2            1 S1                 0.0000
     17 ****         0.2792  -1.3351   1.0565 N.pl3          1 S1                 0.0000
     18 ****         0.6725  -2.7053   1.3361 C.3            1 S1                 0.0000
     19 ****         2.1772  -2.8338   1.6459 C.3            1 S1                 0.0000
     20 ****         2.9272  -2.3469   0.5489 O.3            1 S1                 0.0000
     21 ****         2.5794  -4.2877   1.9687 C.3            1 S1                 0.0000
     22 ****         2.6317  -5.2779   0.8004 C.3            1 S1                 0.0000
     23 ****         3.5821  -6.3209   1.3439 C.3            1 S1                 0.0000
     24 ****         4.5911  -5.4599   2.1004 C.3            1 S1                 0.0000
     25 ****         3.8606  -4.3382   2.5905 O.3            1 S1                 0.0000
     26 ****        -1.5621   3.2910   0.2370 C.3            1 S1                 0.0000
     27 ****        -2.3211   4.5442  -0.2229 C.3            1 S1                 0.0000
     28 ****        -0.9001   5.4817  -1.5536 H              1 S1                 0.0000
     29 ****        -2.1871   5.3843   0.4591 H              1 S1                 0.0000
     30 ****        -4.3966   4.0056  -2.8084 H              1 S1                 0.0000
     31 ****        -5.0750   5.5496  -2.2724 H              1 S1                 0.0000
     32 ****        -2.6516   5.5051  -3.5308 H              1 S1                 0.0000
     33 ****        -2.9362   6.5786  -2.1772 H              1 S1                 0.0000
     34 ****        -2.2082   2.9511  -2.6095 H              1 S1                 0.0000
     35 ****        -0.5643   3.5440  -2.8736 H              1 S1                 0.0000
     36 ****        -0.2002  -0.8565  -3.3737 H              1 S1                 0.0000
     37 ****         0.2257  -0.4823   3.0389 H              1 S1                 0.0000
     38 ****         0.0816  -3.0608   2.1811 H              1 S1                 0.0000
     39 ****         0.4022  -3.3298   0.4836 H              1 S1                 0.0000
     40 ****         2.4063  -2.2098   2.5107 H              1 S1                 0.0000
     41 ****         3.8454  -2.4122   0.7635 H              1 S1                 0.0000
     42 ****         1.8855  -4.6817   2.7132 H              1 S1                 0.0000
     43 ****         1.6529  -5.6836   0.5429 H              1 S1                 0.0000
     44 ****         3.0601  -4.8278  -0.0955 H              1 S1                 0.0000
     45 ****         3.0578  -6.9820   2.0352 H              1 S1                 0.0000
     46 ****         4.0407  -6.9320   0.5660 H              1 S1                 0.0000
     47 ****         5.0793  -6.0028   2.9100 H              1 S1                 0.0000
     48 ****         5.3641  -5.0980   1.4215 H              1 S1                 0.0000
     49 ****        -2.2150   2.5798   0.7429 H              1 S1                 0.0000
     50 ****        -0.7694   3.5679   0.9325 H              1 S1                 0.0000
     51 ****        -0.7468   1.3585  -3.0722 LP             1 S1                 0.0000
     52 ****         0.3064  -2.3007  -1.5637 LP             1 S1                 0.0000
     53 ****        -0.4272   1.6763   1.9678 LP             1 S1                 0.0000
     54 ****         2.6883  -1.3918   0.3735 LP             1 S1                 0.0000
     55 ****         2.7306  -2.8944  -0.2645 LP             1 S1                 0.0000
     56 ****         3.7462  -4.4232   3.5803 LP             1 S1                 0.0000
     57 ****         4.3632  -3.4987   2.3840 LP             1 S1                 0.0000
@<TRIPOS>BOND
    1    1    2 2     
    2    2   27 1     
    3    2    3 2     
    4    2    4 1     
    5    4    5 1     
    6    4   30 1     
    7    4   31 1     
    8    5    6 1     
    9    5   32 1     
   10    5   33 1     
   11    6   28 1     
   12    6   27 1     
   13    6    7 1     
   14    7    8 1     
   15    7   34 1     
   16    7   35 1     
   17    8    9 1     
   18    8   26 1     
   19    9   14 ar    
   20    9   10 ar    
   21   10   11 ar    
   22   11   12 ar    
   23   11   36 1     
   24   12   13 ar    
   25   13   17 1     
   26   13   14 ar    
   27   14   15 1     
   28   15   16 2     
   29   16   17 1     
   30   16   37 1     
   31   17   18 1     
   32   18   19 1     
   33   18   38 1     
   34   18   39 1     
   35   19   20 1     
   36   19   21 1     
   37   19   40 1     
   38   20   41 1     
   39   21   25 1     
   40   21   22 1     
   41   21   42 1     
   42   22   23 1     
   43   22   43 1     
   44   22   44 1     
   45   23   24 1     
   46   23   45 1     
   47   23   46 1     
   48   24   25 1     
   49   24   47 1     
   50   24   48 1     
   51   26   27 1     
   52   26   49 1     
   53   26   50 1     
   54   27   29 1     
   55   10   51 1     
   56   12   52 1     
   57   15   53 1     
   58   20   54 1     
   59   20   55 1     
   60   25   56 1     
   61   25   57 1     
@<TRIPOS>SUBSTRUCTURE
      1 S1             1
@<TRIPOS>SET
LONE_PAIRS      STATIC     ATOMS    <user>   **** ""
9 1 3 51 52 53 54 55 56 57
DONOR_HYDROGENS      STATIC     ATOMS    <user>   **** ""
1 41
ATOM$BLUE        STATIC     ATOMS    COLORGROUP SYSTEM
9 1 3 51 52 53 54 55 56 57
ATOM$RED        STATIC     ATOMS    COLORGROUP SYSTEM
1 41
