AV-unprocessed.smi:3095|AV-procd|sdf|11793|dock4
  -GOLD-   2272017173D 1   1.00000     0.00000
 Structure written by MMmdl.
 25 26  0  0  0  0  0  0  0  0  2 V2000
  153.1536  143.0691  162.7247 C   0  0  0  0  0  0  0  0  0  0  0  0
  153.1536  142.2592  161.4663 C   0  0  0  0  0  0  0  0  0  0  0  0
  154.1417  141.4123  161.0309 C   0  0  0  0  0  0  0  0  0  0  0  0
  153.7332  140.6650  159.5113 S   0  0  0  0  0  0  0  0  0  0  0  0
  152.2165  141.5579  159.5125 C   0  0  0  0  0  0  0  0  0  0  0  0
  151.1906  141.4129  158.4339 C   0  0  1  0  0  0  0  0  0  0  0  0
  150.7457  142.7700  157.8567 C   0  0  0  0  0  0  0  0  0  0  0  0
  149.7969  142.5569  156.7463 N   0  3  0  0  0  0  0  0  0  0  0  0
  150.3622  141.6658  155.7137 C   0  0  0  0  0  0  0  0  0  0  0  0
  150.8355  140.3471  156.3510 C   0  0  0  0  0  0  0  0  0  0  0  0
  151.7638  140.6215  157.3954 O   0  0  0  0  0  0  0  0  0  0  0  0
  152.0600  142.3231  160.5979 N   0  0  0  0  0  0  0  0  0  0  0  0
  154.0534  142.8904  163.3141 H   0  0  0  0  0  0  0  0  0  0  0  0
  152.2961  142.8244  163.3517 H   0  0  0  0  0  0  0  0  0  0  0  0
  153.1107  144.1362  162.5062 H   0  0  0  0  0  0  0  0  0  0  0  0
  155.0811  141.1817  161.5119 H   0  0  0  0  0  0  0  0  0  0  0  0
  150.3325  140.8856  158.8547 H   0  0  0  0  0  0  0  0  0  0  0  0
  150.2695  143.3793  158.6253 H   0  0  0  0  0  0  0  0  0  0  0  0
  151.6069  143.3297  157.4882 H   0  0  0  0  0  0  0  0  0  0  0  0
  148.9582  142.1320  157.1156 H   0  0  0  0  0  0  0  0  0  0  0  0
  149.6088  141.4744  154.9492 H   0  0  0  0  0  0  0  0  0  0  0  0
  151.1976  142.1686  155.2246 H   0  0  0  0  0  0  0  0  0  0  0  0
  149.9903  139.7785  156.7426 H   0  0  0  0  0  0  0  0  0  0  0  0
  151.3207  139.7209  155.6022 H   0  0  0  0  0  0  0  0  0  0  0  0
  149.5596  143.4464  156.3305 H   0  0  0  0  0  0  0  0  0  0  0  0
  1  2  1  0  0  0  0
  1 13  1  0  0  0  0
  1 14  1  0  0  0  0
  1 15  1  0  0  0  0
  2 12  1  0  0  0  0
  2  3  2  0  0  0  0
  3  4  1  0  0  0  0
  3 16  1  0  0  0  0
  4  5  1  0  0  0  0
  5  6  1  0  0  0  0
  5 12  2  0  0  0  0
  6 11  1  0  0  0  0
  6  7  1  0  0  0  0
  6 17  1  0  0  0  0
  7  8  1  0  0  0  0
  7 18  1  0  0  0  0
  7 19  1  0  0  0  0
  8  9  1  0  0  0  0
  8 20  1  0  0  0  0
  8 25  1  0  0  0  0
  9 10  1  0  0  0  0
  9 21  1  0  0  0  0
  9 22  1  0  0  0  0
 10 11  1  0  0  0  0
 10 23  1  0  0  0  0
 10 24  1  0  0  0  0
M  CHG  1   8   1
M  END
> <s_m_source_file>
AV-unprocessed.smi

> <i_m_source_file_index>
3095

> <i_lp_mmshare_version>
43012

> <i_f3d_flags>
0

> <s_epik_input>
W0NIM11jMVtjSF1zYyhuMSlbQ0BASF0yW0NIMl1bTkhdW0NIMl1bQ0gyXU8y

> <s_epik_cmdline>
J2VwaWtfcHl0aG9uJywgJy1waCcsICc3LjAnLCAnLXRuJywgJzgnLCAnLW1hJywgJzIwMCcsICctbWV0YWxfYmluZGluZycsICctaW1hZScsICc8aW5maWxlLm1hZT4nLCAnLW9tYWUnLCAnPG91dGZpbGUubWFlPic=

> <r_epik_Ionization_Penalty>
0.125709

> <r_epik_Ionization_Penalty_Charging>
0.125708

> <r_epik_Ionization_Penalty_Neutral>
7.00244e-07

> <r_epik_State_Penalty>
0.0155371

> <r_epik_Charging_Adjusted_Penalty>
0.141245

> <i_epik_Tot_Q>
1

> <i_epik_Tot_abs_Q>
1

> <r_epik_Metal_State_Penalty>
0.0155948

> <b_epik_Metal_Only>
0

> <s_lp_Force_Field>
OPLS_2005

> <r_lp_Energy>
6.74863

> <b_lp_Chiralities_Consistent>
1

> <s_lp_Variant>
AV-unprocessed.smi:3095-2

> <Gold.Version>
5.8.1

> <Gold.Id.Protein>
6NUR|6NUR_protein|mol2

> <Gold.PLP.Fitness>
34.0357

> <Gold.PLP.PLP>
-28.2284

> <Gold.PLP.part.hbond>
-1.5128

> <Gold.PLP.part.metal>
0.0000

> <Gold.PLP.part.buried>
-4.1044

> <Gold.PLP.part.nonpolar>
-21.8669

> <Gold.PLP.part.repulsive>
0.0631

> <Gold.PLP.ligand.clash>
0.0000

> <Gold.PLP.ligand.torsion>
0.1014

> <Gold.PLP.Chemscore.Hbond>
2.0000

> <Gold.PLP.Chemscore.CHOScore>
0.0000

> <Gold.PLP.Chemscore.Metal>
0.0000

> <Gold.Chemscore.Hbonds>
donor molecule, donor type, donor heavy atom, donor atom, acceptor molecule, acceptor atom, score
      L1  H     8    25       P1  8028  2.00

> <Gold.PLP.Chemscore.Internal.Correction>
0.0100

> <Gold.Rescore>
     Score         DG    S(hbond)    S(metal)    S(lipo)     H(rot)  DE(clash)    DE(int)     intcor
     15.17     -15.34       0.99        0.00      77.89       1.00       0.07       0.11       ----

> <Gold.Chemscore.Fitness>
15.1652

> <Gold.Chemscore.DG>
-15.3448

> <Gold.Chemscore.ZeroCoef>
-5.4800

> <Gold.Chemscore.Hbond>
0.9916

> <Gold.Chemscore.Metal>
0.0000

> <Gold.Chemscore.Lipo>
77.8880

> <Gold.Chemscore.Internal_Hbond>
0.0000

> <Gold.Chemscore.DEClash>
0.0703

> <Gold.Chemscore.DEInternal>
0.1093

> <Gold.Chemscore.Rot>
1.0000

> <Gold.Chemscore.Internal.Correction>
   9.000000E+99

> <Gold.Chemscore.Hbonds>
donor molecule, donor type, donor heavy atom, donor atom, acceptor molecule, acceptor atom, score
      L1  H     8    25       P1  8028  0.98

> <Gold.Chemscore.Hbond.Weighted>
-3.3119

> <Gold.Chemscore.Metal.Weighted>
-0.0000

> <Gold.Chemscore.Lipo.Weighted>
-9.1129

> <Gold.Chemscore.Internal_Hbond.Weighted>
0.0000

> <Gold.Chemscore.DEClash.Weighted>
0.0703

> <Gold.Chemscore.DEInternal.Weighted>
0.1093

> <Gold.Chemscore.Rot.Weighted>
2.5600

> <Gold.Chemscore.Internal.Correction.Weighted>
   9.000000E+99

> <Gold.Protein.RotatedTorsions>
[ 6907 6896 6895 6894 ] final  104.71 input  -60.11 | X-H torsion
[ 7974 7965 7964 7962 ] final   51.69 input  175.53 | X-H torsion
[ 8008 7997 7996 7995 ] final  172.51 input   59.86 | X-H torsion
[ 10167 10162 10161 10158 ] final   14.12 input  -65.29 | X-H torsion
[ 10718 10713 10712 10709 ] final -121.03 input   66.30 | X-H torsion
[ 10763 10752 10751 10750 ] final -133.41 input  -60.55 | X-H torsion
[ 11005 11000 10999 10996 ] final   40.76 input  -57.11 | X-H torsion

> <Gold.Protein.ActiveResidues>
 VAL166  LYS551  ARG553  GLY616  TRP617  ASP618  TYR619  PRO620  LYS621  CYS622 
 ASP623  PHE694  ASN695  SER759  ASP760  ASP761  ALA762  ILE779  LEU786  VAL792 
 PHE793  MET794  SER795  GLU796  ALA797  LYS798  CYS799  TRP800  GLU811  SER814 

> <Gold.Protein.RotatedAtoms>
  152.5255  133.9637  159.7728 H   0  0  0  0  0  0  0  0  0  0  0  0  # atno 6907 bound_to 6896
  150.9922  133.6130  159.2713 H   0  0  0  0  0  0  0  0  0  0  0  0  # atno 6908 bound_to 6896
  151.3269  135.0838  159.9378 H   0  0  0  0  0  0  0  0  0  0  0  0  # atno 6909 bound_to 6896
  145.9889  139.4318  143.0086 H   0  0  0  0  0  0  0  0  0  0  0  0  # atno 7974 bound_to 7965
  156.1167  140.1484  156.9262 H   0  0  0  0  0  0  0  0  0  0  0  0  # atno 8008 bound_to 7997
  154.4806  140.0880  156.7410 H   0  0  0  0  0  0  0  0  0  0  0  0  # atno 8009 bound_to 7997
  155.4500  140.3434  155.4302 H   0  0  0  0  0  0  0  0  0  0  0  0  # atno 8010 bound_to 7997
  140.5957  143.8707  150.6915 H   0  0  0  0  0  0  0  0  0  0  0  0  # atno 10167 bound_to 10162
  156.1304  130.6391  150.9612 H   0  0  0  0  0  0  0  0  0  0  0  0  # atno 10718 bound_to 10713
  154.8733  135.3767  154.4568 H   0  0  0  0  0  0  0  0  0  0  0  0  # atno 10763 bound_to 10752
  153.5240  135.7028  153.5722 H   0  0  0  0  0  0  0  0  0  0  0  0  # atno 10764 bound_to 10752
  153.3956  135.3961  155.1919 H   0  0  0  0  0  0  0  0  0  0  0  0  # atno 10765 bound_to 10752
  140.1900  134.3998  155.8152 H   0  0  0  0  0  0  0  0  0  0  0  0  # atno 11005 bound_to 11000
  145.7660  140.9916  143.1175 LP  0  0  0  0  0  0  0  0  0  0  0  0  # atno 17320 bound_to 7965
  144.6883  139.9389  143.7474 LP  0  0  0  0  0  0  0  0  0  0  0  0  # atno 17321 bound_to 7965
  140.2241  143.3786  152.1619 LP  0  0  0  0  0  0  0  0  0  0  0  0  # atno 17342 bound_to 10162
  139.5256  144.7098  151.5241 LP  0  0  0  0  0  0  0  0  0  0  0  0  # atno 17343 bound_to 10162
  157.6483  131.0901  150.8106 LP  0  0  0  0  0  0  0  0  0  0  0  0  # atno 17370 bound_to 10713
  156.8192  130.4978  149.5345 LP  0  0  0  0  0  0  0  0  0  0  0  0  # atno 17371 bound_to 10713
  141.2226  133.7042  156.8079 LP  0  0  0  0  0  0  0  0  0  0  0  0  # atno 17394 bound_to 11000
  140.2170  134.8785  157.3337 LP  0  0  0  0  0  0  0  0  0  0  0  0  # atno 17395 bound_to 11000

$$$$
