AV-unprocessed.smi:37|AV-procd|sdf|320|dock7
  -GOLD-   2262016143D 1   1.00000     0.00000
 Structure written by MMmdl.
 43 44  0  0  0  0  0  0  0  0  2 V2000
  147.6513  145.8504  161.0066 C   0  0  0  0  0  0  0  0  0  0  0  0
  146.4568  144.9128  160.7761 C   0  0  0  0  0  0  0  0  0  0  0  0
  146.8017  143.6724  159.9492 C   0  0  0  0  0  0  0  0  0  0  0  0
  146.0216  142.7279  159.8145 O   0  0  0  0  0  0  0  0  0  0  0  0
  148.0268  143.7566  159.4146 O   0  0  0  0  0  0  0  0  0  0  0  0
  148.4323  142.8328  158.4176 C   0  0  0  0  0  0  0  0  0  0  0  0
  149.9120  143.0397  158.0496 C   0  0  1  0  0  0  0  0  0  0  0  0
  150.7363  142.8351  159.1946 O   0  0  0  0  0  0  0  0  0  0  0  0
  151.9872  142.4366  158.7310 C   0  0  1  0  0  0  0  0  0  0  0  0
  152.8441  141.9474  159.8870 N   0  0  0  0  0  0  0  0  0  0  0  0
  153.5834  140.7777  159.7965 C   0  0  0  0  0  0  0  0  0  0  0  0
  154.3818  140.3670  160.8026 C   0  0  0  0  0  0  0  0  0  0  0  0
  155.0799  139.2248  160.6796 F   0  0  0  0  0  0  0  0  0  0  0  0
  154.4953  141.1782  162.0114 C   0  0  0  0  0  0  0  0  0  0  0  0
  155.1964  140.7823  162.9415 O   0  0  0  0  0  0  0  0  0  0  0  0
  153.8161  142.3601  162.0480 N   0  5  0  0  0  0  0  0  0  0  0  0
  153.0240  142.7895  161.0218 C   0  0  0  0  0  0  0  0  0  0  0  0
  152.4655  143.8864  161.0286 O   0  0  0  0  0  0  0  0  0  0  0  0
  151.6165  141.3844  157.6756 C   0  0  1  0  0  0  0  0  0  0  0  0
  150.8606  139.7217  158.5044 Br  0  0  0  0  0  0  0  0  0  0  0  0
  150.5068  142.1387  156.9438 C   0  0  1  0  0  0  0  0  0  0  0  0
  149.5598  141.2845  156.3094 O   0  0  0  0  0  0  0  0  0  0  0  0
  149.9191  140.5344  155.2538 C   0  0  0  0  0  0  0  0  0  0  0  0
  151.0664  140.1713  154.9880 O   0  0  0  0  0  0  0  0  0  0  0  0
  148.7161  140.1547  154.3885 C   0  0  0  0  0  0  0  0  0  0  0  0
  147.9715  141.3655  153.8058 C   0  0  0  0  0  0  0  0  0  0  0  0
  147.3540  146.7088  161.6088 H   0  0  0  0  0  0  0  0  0  0  0  0
  148.0471  146.2304  160.0640 H   0  0  0  0  0  0  0  0  0  0  0  0
  148.4597  145.3424  161.5340 H   0  0  0  0  0  0  0  0  0  0  0  0
  146.0570  144.5858  161.7365 H   0  0  0  0  0  0  0  0  0  0  0  0
  145.6563  145.4535  160.2708 H   0  0  0  0  0  0  0  0  0  0  0  0
  148.2834  141.8121  158.7728 H   0  0  0  0  0  0  0  0  0  0  0  0
  147.8075  142.9617  157.5332 H   0  0  0  0  0  0  0  0  0  0  0  0
  150.0390  144.0776  157.7391 H   0  0  0  0  0  0  0  0  0  0  0  0
  152.5373  143.2834  158.3151 H   0  0  0  0  0  0  0  0  0  0  0  0
  153.5433  140.1731  158.9044 H   0  0  0  0  0  0  0  0  0  0  0  0
  152.4617  141.1216  157.0392 H   0  0  0  0  0  0  0  0  0  0  0  0
  150.9592  142.7993  156.2019 H   0  0  0  0  0  0  0  0  0  0  0  0
  149.0638  139.5131  153.5783 H   0  0  0  0  0  0  0  0  0  0  0  0
  148.0316  139.5581  154.9916 H   0  0  0  0  0  0  0  0  0  0  0  0
  147.1353  141.0407  153.1867 H   0  0  0  0  0  0  0  0  0  0  0  0
  148.6271  141.9728  153.1802 H   0  0  0  0  0  0  0  0  0  0  0  0
  147.5694  142.0026  154.5944 H   0  0  0  0  0  0  0  0  0  0  0  0
  1  2  1  0  0  0  0
  1 27  1  0  0  0  0
  1 28  1  0  0  0  0
  1 29  1  0  0  0  0
  2  3  1  0  0  0  0
  2 30  1  0  0  0  0
  2 31  1  0  0  0  0
  3  4  2  0  0  0  0
  3  5  1  0  0  0  0
  5  6  1  0  0  0  0
  6  7  1  0  0  0  0
  6 32  1  0  0  0  0
  6 33  1  0  0  0  0
  7 21  1  0  0  0  0
  7  8  1  0  0  0  0
  7 34  1  0  0  0  0
  8  9  1  0  0  0  0
  9 10  1  0  0  0  0
  9 19  1  0  0  0  0
  9 35  1  0  0  0  0
 10 17  1  0  0  0  0
 10 11  1  0  0  0  0
 11 12  2  0  0  0  0
 11 36  1  0  0  0  0
 12 13  1  0  0  0  0
 12 14  1  0  0  0  0
 14 15  2  0  0  0  0
 14 16  1  0  0  0  0
 16 17  1  0  0  0  0
 17 18  2  0  0  0  0
 19 20  1  0  0  0  0
 19 21  1  0  0  0  0
 19 37  1  0  0  0  0
 21 22  1  0  0  0  0
 21 38  1  0  0  0  0
 22 23  1  0  0  0  0
 23 24  2  0  0  0  0
 23 25  1  0  0  0  0
 25 26  1  0  0  0  0
 25 39  1  0  0  0  0
 25 40  1  0  0  0  0
 26 41  1  0  0  0  0
 26 42  1  0  0  0  0
 26 43  1  0  0  0  0
M  CHG  1  16  -1
M  END
> <s_m_source_file>
AV-unprocessed.smi

> <i_m_source_file_index>
37

> <i_lp_mmshare_version>
43012

> <i_f3d_flags>
0

> <s_epik_input>
W0NIM11bQ0gyXUMoPU8pT1tDSDJdW0NAQEhdMU9bQ0BASF0objJbY0hdYyhGKWMoPU8pW25IXWMyPU8pW0NAQEhdKEJyKVtDQEhdMU9DKD1PKVtDSDJdW0NIM10=

> <s_epik_cmdline>
J2VwaWtfcHl0aG9uJywgJy1waCcsICc3LjAnLCAnLXRuJywgJzgnLCAnLW1hJywgJzIwMCcsICctbWV0YWxfYmluZGluZycsICctaW1hZScsICc8aW5maWxlLm1hZT4nLCAnLW9tYWUnLCAnPG91dGZpbGUubWFlPic=

> <r_epik_Ionization_Penalty>
1.08158

> <r_epik_Ionization_Penalty_Charging>
9.05154e-09

> <r_epik_Ionization_Penalty_Neutral>
1.08158

> <r_epik_State_Penalty>
1.13706

> <r_epik_Charging_Adjusted_Penalty>
1.13706

> <i_epik_Tot_Q>
-1

> <i_epik_Tot_abs_Q>
1

> <r_epik_Metal_State_Penalty>
0.00343535

> <b_epik_Metal_Only>
0

> <s_epik_Chemistry_Notes>
This compound has an ester and may undergo hydrolysis at high or low pH. This compound contains an acetal/aminal-like group ( X-CH(R)-Y where X, Y are N, S, or O) that may be acid/base labile, releasing an aldehyde.

> <s_lp_Force_Field>
OPLS_2005

> <r_lp_Energy>
41.8028

> <b_lp_Chiralities_Consistent>
1

> <s_lp_Variant>
AV-unprocessed.smi:37-18

> <Gold.Version>
5.8.1

> <Gold.Id.Protein>
6NUR|6NUR_protein|mol2

> <Gold.PLP.Fitness>
53.0782

> <Gold.PLP.PLP>
-48.6402

> <Gold.PLP.part.hbond>
-4.8571

> <Gold.PLP.part.metal>
0.0000

> <Gold.PLP.part.buried>
-7.6228

> <Gold.PLP.part.nonpolar>
-37.7116

> <Gold.PLP.part.repulsive>
0.4036

> <Gold.PLP.ligand.clash>
0.0000

> <Gold.PLP.ligand.torsion>
0.8882

> <Gold.PLP.Chemscore.Hbond>
2.0000

> <Gold.PLP.Chemscore.CHOScore>
0.0000

> <Gold.PLP.Chemscore.Metal>
0.0000

> <Gold.Chemscore.Hbonds>
donor molecule, donor type, donor heavy atom, donor atom, acceptor molecule, acceptor atom, score
      P1  H  6934  6946       L1     4  0.44
      P1  H  7989  7998       L1    24  1.00

> <Gold.PLP.Chemscore.Internal.Correction>
0.2145

> <Gold.Rescore>
     Score         DG    S(hbond)    S(metal)    S(lipo)     H(rot)  DE(clash)    DE(int)     intcor
      8.38     -11.19       1.96        0.00      64.36       3.27       0.03       2.78       ----

> <Gold.Chemscore.Fitness>
8.3790

> <Gold.Chemscore.DG>
-11.1895

> <Gold.Chemscore.ZeroCoef>
-5.4800

> <Gold.Chemscore.Hbond>
1.9588

> <Gold.Chemscore.Metal>
0.0000

> <Gold.Chemscore.Lipo>
64.3645

> <Gold.Chemscore.Internal_Hbond>
0.0000

> <Gold.Chemscore.DEClash>
0.0308

> <Gold.Chemscore.DEInternal>
2.7798

> <Gold.Chemscore.Rot>
3.2669

> <Gold.Chemscore.Internal.Correction>
   9.000000E+99

> <Gold.Chemscore.Hbonds>
donor molecule, donor type, donor heavy atom, donor atom, acceptor molecule, acceptor atom, score
      P1  H  6934  6946       L1     4  0.32
      P1  H  7989  7998       L1    24  0.82

> <Gold.Chemscore.Hbond.Weighted>
-6.5423

> <Gold.Chemscore.Metal.Weighted>
-0.0000

> <Gold.Chemscore.Lipo.Weighted>
-7.5306

> <Gold.Chemscore.Internal_Hbond.Weighted>
0.0000

> <Gold.Chemscore.DEClash.Weighted>
0.0308

> <Gold.Chemscore.DEInternal.Weighted>
2.7798

> <Gold.Chemscore.Rot.Weighted>
8.3634

> <Gold.Chemscore.Internal.Correction.Weighted>
   9.000000E+99

> <Gold.Protein.RotatedTorsions>
[ 6907 6896 6895 6894 ] final  -96.44 input  -60.11 | X-H torsion
[ 7974 7965 7964 7962 ] final  -67.46 input  175.53 | X-H torsion
[ 8008 7997 7996 7995 ] final   56.94 input   59.86 | X-H torsion
[ 10167 10162 10161 10158 ] final -167.35 input  -65.29 | X-H torsion
[ 10718 10713 10712 10709 ] final  -54.23 input   66.30 | X-H torsion
[ 10763 10752 10751 10750 ] final  -30.85 input  -60.55 | X-H torsion
[ 11005 11000 10999 10996 ] final  -77.95 input  -57.11 | X-H torsion

> <Gold.Protein.ActiveResidues>
 VAL166  LYS551  ARG553  GLY616  TRP617  ASP618  TYR619  PRO620  LYS621  CYS622 
 ASP623  PHE694  ASN695  SER759  ASP760  ASP761  ALA762  ILE779  LEU786  VAL792 
 PHE793  MET794  SER795  GLU796  ALA797  LYS798  CYS799  TRP800  GLU811  SER814 

> <Gold.Protein.RotatedAtoms>
  150.6989  134.1503  159.4137 H   0  0  0  0  0  0  0  0  0  0  0  0  # atno 6907 bound_to 6896
  151.9486  135.0177  160.0550 H   0  0  0  0  0  0  0  0  0  0  0  0  # atno 6908 bound_to 6896
  152.2031  133.4820  159.5106 H   0  0  0  0  0  0  0  0  0  0  0  0  # atno 6909 bound_to 6896
  145.7289  140.9006  143.0591 H   0  0  0  0  0  0  0  0  0  0  0  0  # atno 7974 bound_to 7965
  155.5256  140.3481  155.4415 H   0  0  0  0  0  0  0  0  0  0  0  0  # atno 8008 bound_to 7997
  156.0754  140.1373  156.9805 H   0  0  0  0  0  0  0  0  0  0  0  0  # atno 8009 bound_to 7997
  154.4550  140.0957  156.6707 H   0  0  0  0  0  0  0  0  0  0  0  0  # atno 8010 bound_to 7997
  139.6055  144.0921  152.1788 H   0  0  0  0  0  0  0  0  0  0  0  0  # atno 10167 bound_to 10162
  156.1468  130.4152  150.0010 H   0  0  0  0  0  0  0  0  0  0  0  0  # atno 10718 bound_to 10713
  153.7877  135.6900  153.4877 H   0  0  0  0  0  0  0  0  0  0  0  0  # atno 10763 bound_to 10752
  153.1769  135.4521  154.9976 H   0  0  0  0  0  0  0  0  0  0  0  0  # atno 10764 bound_to 10752
  154.8056  135.3356  154.7376 H   0  0  0  0  0  0  0  0  0  0  0  0  # atno 10765 bound_to 10752
  141.1663  133.7043  156.7898 H   0  0  0  0  0  0  0  0  0  0  0  0  # atno 11005 bound_to 11000
  144.6898  139.9303  143.7471 LP  0  0  0  0  0  0  0  0  0  0  0  0  # atno 17320 bound_to 7965
  146.0556  139.3554  143.0612 LP  0  0  0  0  0  0  0  0  0  0  0  0  # atno 17321 bound_to 7965
  140.0528  144.5919  150.7323 LP  0  0  0  0  0  0  0  0  0  0  0  0  # atno 17342 bound_to 10162
  140.7282  143.2659  151.4047 LP  0  0  0  0  0  0  0  0  0  0  0  0  # atno 17343 bound_to 10162
  156.7879  130.9245  151.3646 LP  0  0  0  0  0  0  0  0  0  0  0  0  # atno 17370 bound_to 10713
  157.6624  130.8977  149.9858 LP  0  0  0  0  0  0  0  0  0  0  0  0  # atno 17371 bound_to 10713
  140.2334  134.8668  157.3500 LP  0  0  0  0  0  0  0  0  0  0  0  0  # atno 17394 bound_to 11000
  140.1868  134.4421  155.7739 LP  0  0  0  0  0  0  0  0  0  0  0  0  # atno 17395 bound_to 11000

$$$$
