#       Name:                AV-unprocessed.smi:2575
#       Creating user name   scv26
#       Creation time:       Fri Mar 27 14:13:50 2020


#       File generated by GOLD software.
#

@<TRIPOS>MOLECULE
AV-unprocessed.smi:2575
    37    38     1
SMALL
NO_CHARGES


@<TRIPOS>ATOM
      1 ****        -4.6745   1.0887  -0.1905 C.3            1 S1                 0.0000
      2 ****        -4.1181  -0.2708  -0.6195 C.3            1 S1                 0.0000
      3 ****        -2.7058  -0.2458  -0.5006 O.3            1 S1                 0.0000
      4 ****        -2.0987  -1.4691  -0.8875 C.3            1 S1                 0.0000
      5 ****        -0.5735  -1.3874  -0.7112 C.3            1 S1                 0.0000
      6 ****        -0.0181  -0.6514  -1.7838 O.3            1 S1                 0.0000
      7 ****        -0.1393  -0.8133   0.6522 C.3            1 S1                 0.0000
      8 ****         1.3015  -0.8357   0.8304 N.pl3          1 S1                 0.0000
      9 ****         1.9087  -1.9927   1.2184 N.2            1 S1                 0.0000
     10 ****         3.1874  -1.7802   1.3128 N.2            1 S1                 0.0000
     11 ****         3.4276  -0.4573   0.9807 C.ar           1 S1                 0.0000
     12 ****         4.6205   0.2969   0.9190 C.ar           1 S1                 0.0000
     13 ****         4.5865   1.6573   0.5411 C.ar           1 S1                 0.0000
     14 ****         6.0664   2.5470   0.4794 Cl             1 S1                 0.0000
     15 ****         3.3558   2.2788   0.2186 C.ar           1 S1                 0.0000
     16 ****         3.2973   3.9412  -0.2485 Cl             1 S1                 0.0000
     17 ****         2.1579   1.5387   0.2766 C.ar           1 S1                 0.0000
     18 ****         2.2136   0.1871   0.6574 C.ar           1 S1                 0.0000
     19 ****        -5.7616   1.1075  -0.2707 H              1 S1                 0.0000
     20 ****        -4.2787   1.8884  -0.8171 H              1 S1                 0.0000
     21 ****        -4.4109   1.3109   0.8438 H              1 S1                 0.0000
     22 ****        -4.5354  -1.0586   0.0094 H              1 S1                 0.0000
     23 ****        -4.4059  -0.4818  -1.6504 H              1 S1                 0.0000
     24 ****        -2.4875  -2.2687  -0.2549 H              1 S1                 0.0000
     25 ****        -2.3552  -1.7227  -1.9177 H              1 S1                 0.0000
     26 ****        -0.1782  -2.3997  -0.8045 H              1 S1                 0.0000
     27 ****         0.9237  -0.6711  -1.7063 H              1 S1                 0.0000
     28 ****        -0.4826   0.2158   0.7643 H              1 S1                 0.0000
     29 ****        -0.5970  -1.3823   1.4629 H              1 S1                 0.0000
     30 ****         5.5626  -0.1716   1.1629 H              1 S1                 0.0000
     31 ****         1.2124   2.0006   0.0324 H              1 S1                 0.0000
     32 ****        -2.4689  -0.0591   0.4529 LP             1 S1                 0.0000
     33 ****        -2.3493   0.4856  -1.0819 LP             1 S1                 0.0000
     34 ****        -0.3398   0.2947  -1.7457 LP             1 S1                 0.0000
     35 ****        -0.2935  -1.0623  -2.6529 LP             1 S1                 0.0000
     36 ****         1.4469  -2.8608   1.4003 LP             1 S1                 0.0000
     37 ****         3.8770  -2.4538   1.5787 LP             1 S1                 0.0000
@<TRIPOS>BOND
    1    1    2 1     
    2    1   19 1     
    3    1   20 1     
    4    1   21 1     
    5    2    3 1     
    6    2   22 1     
    7    2   23 1     
    8    3    4 1     
    9    4    5 1     
   10    4   24 1     
   11    4   25 1     
   12    5    6 1     
   13    5    7 1     
   14    5   26 1     
   15    6   27 1     
   16    7    8 1     
   17    7   28 1     
   18    7   29 1     
   19    8   18 1     
   20    8    9 1     
   21    9   10 2     
   22   10   11 1     
   23   11   18 ar    
   24   11   12 ar    
   25   12   13 ar    
   26   12   30 1     
   27   13   14 1     
   28   13   15 ar    
   29   15   16 1     
   30   15   17 ar    
   31   17   18 ar    
   32   17   31 1     
   33    3   32 1     
   34    3   33 1     
   35    6   34 1     
   36    6   35 1     
   37    9   36 1     
   38   10   37 1     
@<TRIPOS>SUBSTRUCTURE
      1 S1             1
@<TRIPOS>SET
LONE_PAIRS      STATIC     ATOMS    <user>   **** ""
6 32 33 34 35 36 37
DONOR_HYDROGENS      STATIC     ATOMS    <user>   **** ""
1 27
ATOM$BLUE        STATIC     ATOMS    COLORGROUP SYSTEM
6 32 33 34 35 36 37
ATOM$RED        STATIC     ATOMS    COLORGROUP SYSTEM
1 27
