AV-unprocessed.smi:152|AV-procd|sdf|1248|dock3
  -GOLD-   2262018473D 1   1.00000     0.00000
 Structure written by MMmdl.
 58 61  0  0  0  0  0  0  0  0  2 V2000
  148.7333  142.6996  158.5337 C   0  0  0  0  0  0  0  0  0  0  0  0
  147.4833  142.3378  157.7185 C   0  0  0  0  0  0  0  0  0  0  0  0
  147.7319  142.3775  156.2558 N   0  3  2  0  0  0  0  0  0  0  0  0
  146.5326  142.1631  155.4162 C   0  0  0  0  0  0  0  0  0  0  0  0
  147.0285  141.5781  154.0863 C   0  0  0  0  0  0  0  0  0  0  0  0
  148.5534  141.5697  154.1995 C   0  0  0  0  0  0  0  0  0  0  0  0
  148.8182  141.5280  155.7086 C   0  0  2  0  0  0  0  0  0  0  0  0
  148.8050  140.0771  156.2630 C   0  0  0  0  0  0  0  0  0  0  0  0
  150.1395  139.5702  156.5815 N   0  0  0  0  0  0  0  0  0  0  0  0
  151.0245  139.3120  155.4545 C   0  0  0  0  0  0  0  0  0  0  0  0
  150.2386  138.6144  157.5365 C   0  0  0  0  0  0  0  0  0  0  0  0
  151.4507  138.2973  158.0643 N   0  0  0  0  0  0  0  0  0  0  0  0
  151.5440  137.3571  159.0096 C   0  0  0  0  0  0  0  0  0  0  0  0
  150.5714  136.6268  159.5591 N   0  0  0  0  0  0  0  0  0  0  0  0
  149.3535  136.9459  159.0342 C   0  0  0  0  0  0  0  0  0  0  0  0
  149.1014  137.9187  158.0272 C   0  0  0  0  0  0  0  0  0  0  0  0
  147.7456  137.9585  157.7296 N   0  0  0  0  0  0  0  0  0  0  0  0
  147.2236  137.0592  158.5181 C   0  0  0  0  0  0  0  0  0  0  0  0
  148.1151  136.4112  159.3443 N   0  0  0  0  0  0  0  0  0  0  0  0
  147.8062  135.3718  160.3144 C   0  0  0  0  0  0  0  0  0  0  0  0
  147.4492  135.9047  161.7295 C   0  0  0  0  0  0  0  0  0  0  0  0
  148.5671  136.6288  162.2079 O   0  0  0  0  0  0  0  0  0  0  0  0
  146.2333  136.8554  161.7631 C   0  0  0  0  0  0  0  0  0  0  0  0
  144.9204  136.0878  161.5334 C   0  0  0  0  0  0  0  0  0  0  0  0
  144.7815  135.0663  162.5155 O   0  0  0  0  0  0  0  0  0  0  0  0
  145.8173  134.0903  162.4628 C   0  0  0  0  0  0  0  0  0  0  0  0
  147.1842  134.7526  162.7184 C   0  0  0  0  0  0  0  0  0  0  0  0
  148.5027  142.7291  159.5986 H   0  0  0  0  0  0  0  0  0  0  0  0
  149.1184  143.6798  158.2511 H   0  0  0  0  0  0  0  0  0  0  0  0
  149.5333  141.9726  158.3941 H   0  0  0  0  0  0  0  0  0  0  0  0
  147.0902  141.3672  158.0214 H   0  0  0  0  0  0  0  0  0  0  0  0
  146.7017  143.0634  157.9466 H   0  0  0  0  0  0  0  0  0  0  0  0
  145.8451  141.4647  155.8960 H   0  0  0  0  0  0  0  0  0  0  0  0
  146.0049  143.1069  155.2746 H   0  0  0  0  0  0  0  0  0  0  0  0
  146.6563  140.5595  153.9682 H   0  0  0  0  0  0  0  0  0  0  0  0
  146.6881  142.1551  153.2257 H   0  0  0  0  0  0  0  0  0  0  0  0
  149.0143  140.7504  153.6468 H   0  0  0  0  0  0  0  0  0  0  0  0
  148.9501  142.4994  153.7892 H   0  0  0  0  0  0  0  0  0  0  0  0
  149.7733  142.0039  155.9319 H   0  0  0  0  0  0  0  0  0  0  0  0
  148.1947  140.0069  157.1631 H   0  0  0  0  0  0  0  0  0  0  0  0
  148.3428  139.4098  155.5348 H   0  0  0  0  0  0  0  0  0  0  0  0
  152.0425  139.1014  155.7841 H   0  0  0  0  0  0  0  0  0  0  0  0
  151.0631  140.1798  154.7960 H   0  0  0  0  0  0  0  0  0  0  0  0
  150.6681  138.4599  154.8746 H   0  0  0  0  0  0  0  0  0  0  0  0
  152.5399  137.1625  159.3793 H   0  0  0  0  0  0  0  0  0  0  0  0
  146.1644  136.8463  158.5232 H   0  0  0  0  0  0  0  0  0  0  0  0
  146.9901  134.7761  159.9071 H   0  0  0  0  0  0  0  0  0  0  0  0
  148.6620  134.6980  160.3735 H   0  0  0  0  0  0  0  0  0  0  0  0
  149.2219  136.0133  162.5002 H   0  0  0  0  0  0  0  0  0  0  0  0
  146.1759  137.3381  162.7400 H   0  0  0  0  0  0  0  0  0  0  0  0
  146.3361  137.6651  161.0415 H   0  0  0  0  0  0  0  0  0  0  0  0
  144.0731  136.7685  161.6152 H   0  0  0  0  0  0  0  0  0  0  0  0
  144.8810  135.6558  160.5328 H   0  0  0  0  0  0  0  0  0  0  0  0
  145.6229  133.3359  163.2251 H   0  0  0  0  0  0  0  0  0  0  0  0
  145.7966  133.5742  161.5026 H   0  0  0  0  0  0  0  0  0  0  0  0
  147.9802  134.0087  162.6664 H   0  0  0  0  0  0  0  0  0  0  0  0
  147.1915  135.1364  163.7401 H   0  0  0  0  0  0  0  0  0  0  0  0
  148.0212  143.3232  156.0506 H   0  0  0  0  0  0  0  0  0  0  0  0
  1  2  1  0  0  0  0
  1 28  1  0  0  0  0
  1 29  1  0  0  0  0
  1 30  1  0  0  0  0
  2  3  1  0  0  0  0
  2 31  1  0  0  0  0
  2 32  1  0  0  0  0
  3  7  1  0  0  0  0
  3  4  1  0  0  0  0
  3 58  1  0  0  0  0
  4  5  1  0  0  0  0
  4 33  1  0  0  0  0
  4 34  1  0  0  0  0
  5  6  1  0  0  0  0
  5 35  1  0  0  0  0
  5 36  1  0  0  0  0
  6  7  1  0  0  0  0
  6 37  1  0  0  0  0
  6 38  1  0  0  0  0
  7  8  1  0  0  0  0
  7 39  1  0  0  0  0
  8  9  1  0  0  0  0
  8 40  1  0  0  0  0
  8 41  1  0  0  0  0
  9 10  1  0  0  0  0
  9 11  1  0  0  0  0
 10 42  1  0  0  0  0
 10 43  1  0  0  0  0
 10 44  1  0  0  0  0
 11 16  1  0  0  0  0
 11 12  2  0  0  0  0
 12 13  1  0  0  0  0
 13 14  2  0  0  0  0
 13 45  1  0  0  0  0
 14 15  1  0  0  0  0
 15 19  1  0  0  0  0
 15 16  2  0  0  0  0
 16 17  1  0  0  0  0
 17 18  2  0  0  0  0
 18 19  1  0  0  0  0
 18 46  1  0  0  0  0
 19 20  1  0  0  0  0
 20 21  1  0  0  0  0
 20 47  1  0  0  0  0
 20 48  1  0  0  0  0
 21 27  1  0  0  0  0
 21 22  1  0  0  0  0
 21 23  1  0  0  0  0
 22 49  1  0  0  0  0
 23 24  1  0  0  0  0
 23 50  1  0  0  0  0
 23 51  1  0  0  0  0
 24 25  1  0  0  0  0
 24 52  1  0  0  0  0
 24 53  1  0  0  0  0
 25 26  1  0  0  0  0
 26 27  1  0  0  0  0
 26 54  1  0  0  0  0
 26 55  1  0  0  0  0
 27 56  1  0  0  0  0
 27 57  1  0  0  0  0
M  CHG  1   3   1
M  END
> <s_m_source_file>
AV-unprocessed.smi

> <i_m_source_file_index>
152

> <i_lp_mmshare_version>
43012

> <i_f3d_flags>
0

> <s_epik_input>
W0NIM11bQ0gyXU4xW0NIMl1bQ0gyXVtDSDJdW0NASF0xW0NIMl1OKFtDSDNdKWMobltjSF1uMiljKGMyMyluW2NIXW4zW0NIMl1DNChbT0hdKVtDSDJdW0NIMl1PW0NIMl1bQ0gyXTQ=

> <s_epik_cmdline>
J2VwaWtfcHl0aG9uJywgJy1waCcsICc3LjAnLCAnLXRuJywgJzgnLCAnLW1hJywgJzIwMCcsICctbWV0YWxfYmluZGluZycsICctaW1hZScsICc8aW5maWxlLm1hZT4nLCAnLW9tYWUnLCAnPG91dGZpbGUubWFlPic=

> <r_lp_tautomer_probability>
1

> <r_epik_Ionization_Penalty>
0.00152183

> <r_epik_Ionization_Penalty_Charging>
0.00112577

> <r_epik_Ionization_Penalty_Neutral>
0.000396066

> <r_epik_State_Penalty>
-0

> <r_epik_Charging_Adjusted_Penalty>
0.00112577

> <i_epik_Tot_Q>
1

> <i_epik_Tot_abs_Q>
1

> <r_epik_Metal_State_Penalty>
-0

> <b_epik_Metal_Only>
0

> <s_lp_Force_Field>
OPLS_2005

> <r_lp_Energy>
47.1196

> <b_lp_Chiralities_Consistent>
1

> <s_lp_Variant>
AV-unprocessed.smi:152-3

> <Gold.Version>
5.8.1

> <Gold.Id.Protein>
6NUR|6NUR_protein|mol2

> <Gold.PLP.Fitness>
51.4662

> <Gold.PLP.PLP>
-41.2541

> <Gold.PLP.part.hbond>
-3.1961

> <Gold.PLP.part.metal>
0.0000

> <Gold.PLP.part.buried>
-5.5881

> <Gold.PLP.part.nonpolar>
-33.9994

> <Gold.PLP.part.repulsive>
0.0492

> <Gold.PLP.ligand.clash>
0.0000

> <Gold.PLP.ligand.torsion>
1.3719

> <Gold.PLP.Chemscore.Hbond>
4.0000

> <Gold.PLP.Chemscore.CHOScore>
0.0000

> <Gold.PLP.Chemscore.Metal>
0.0000

> <Gold.Chemscore.Hbonds>
donor molecule, donor type, donor heavy atom, donor atom, acceptor molecule, acceptor atom, score
      L1  H     3    58       P1  8028  2.00
      P1  H  6896  6907       L1    14  1.00
      P1  H  6931  6943       L1    22  1.00

> <Gold.PLP.Chemscore.Internal.Correction>
0.9560

> <Gold.Rescore>
     Score         DG    S(hbond)    S(metal)    S(lipo)     H(rot)  DE(clash)    DE(int)     intcor
     14.31     -17.28       2.64        0.00      85.45       2.73       0.11       2.86       ----

> <Gold.Chemscore.Fitness>
14.3107

> <Gold.Chemscore.DG>
-17.2807

> <Gold.Chemscore.ZeroCoef>
-5.4800

> <Gold.Chemscore.Hbond>
2.6361

> <Gold.Chemscore.Metal>
0.0000

> <Gold.Chemscore.Lipo>
85.4466

> <Gold.Chemscore.Internal_Hbond>
0.0000

> <Gold.Chemscore.DEClash>
0.1116

> <Gold.Chemscore.DEInternal>
2.8584

> <Gold.Chemscore.Rot>
2.7348

> <Gold.Chemscore.Internal.Correction>
   9.000000E+99

> <Gold.Chemscore.Hbonds>
donor molecule, donor type, donor heavy atom, donor atom, acceptor molecule, acceptor atom, score
      L1  H     3    58       P1  8028  0.35
      P1  H  6896  6907       L1    14  0.65
      P1  H  6931  6943       L1    22  0.96

> <Gold.Chemscore.Hbond.Weighted>
-8.8045

> <Gold.Chemscore.Metal.Weighted>
-0.0000

> <Gold.Chemscore.Lipo.Weighted>
-9.9973

> <Gold.Chemscore.Internal_Hbond.Weighted>
0.0000

> <Gold.Chemscore.DEClash.Weighted>
0.1116

> <Gold.Chemscore.DEInternal.Weighted>
2.8584

> <Gold.Chemscore.Rot.Weighted>
7.0010

> <Gold.Chemscore.Internal.Correction.Weighted>
   9.000000E+99

> <Gold.Protein.RotatedTorsions>
[ 6907 6896 6895 6894 ] final  -22.70 input  -60.11 | X-H torsion
[ 7974 7965 7964 7962 ] final   73.90 input  175.53 | X-H torsion
[ 8008 7997 7996 7995 ] final -176.54 input   59.86 | X-H torsion
[ 10167 10162 10161 10158 ] final   48.53 input  -65.29 | X-H torsion
[ 10718 10713 10712 10709 ] final -141.18 input   66.30 | X-H torsion
[ 10763 10752 10751 10750 ] final  -83.53 input  -60.55 | X-H torsion
[ 11005 11000 10999 10996 ] final  163.74 input  -57.11 | X-H torsion

> <Gold.Protein.ActiveResidues>
 VAL166  LYS551  ARG553  GLY616  TRP617  ASP618  TYR619  PRO620  LYS621  CYS622 
 ASP623  PHE694  ASN695  SER759  ASP760  ASP761  ALA762  ILE779  LEU786  VAL792 
 PHE793  MET794  SER795  GLU796  ALA797  LYS798  CYS799  TRP800  GLU811  SER814 

> <Gold.Protein.RotatedAtoms>
  151.2148  135.0495  159.8925 H   0  0  0  0  0  0  0  0  0  0  0  0  # atno 6907 bound_to 6896
  152.5421  134.0705  159.8202 H   0  0  0  0  0  0  0  0  0  0  0  0  # atno 6908 bound_to 6896
  151.0863  133.5302  159.2649 H   0  0  0  0  0  0  0  0  0  0  0  0  # atno 6909 bound_to 6896
  145.7350  139.2698  143.1519 H   0  0  0  0  0  0  0  0  0  0  0  0  # atno 7974 bound_to 7965
  155.9961  140.1211  157.0592 H   0  0  0  0  0  0  0  0  0  0  0  0  # atno 8008 bound_to 7997
  154.4227  140.1116  156.5701 H   0  0  0  0  0  0  0  0  0  0  0  0  # atno 8009 bound_to 7997
  155.6276  140.3472  155.4674 H   0  0  0  0  0  0  0  0  0  0  0  0  # atno 8010 bound_to 7997
  140.2923  144.3031  150.6237 H   0  0  0  0  0  0  0  0  0  0  0  0  # atno 10167 bound_to 10162
  156.3310  130.7586  151.1704 H   0  0  0  0  0  0  0  0  0  0  0  0  # atno 10718 bound_to 10713
  154.5888  135.5553  153.7258 H   0  0  0  0  0  0  0  0  0  0  0  0  # atno 10763 bound_to 10752
  153.0109  135.6338  154.1878 H   0  0  0  0  0  0  0  0  0  0  0  0  # atno 10764 bound_to 10752
  154.1819  135.2886  155.3029 H   0  0  0  0  0  0  0  0  0  0  0  0  # atno 10765 bound_to 10752
  140.2388  134.8067  157.3390 H   0  0  0  0  0  0  0  0  0  0  0  0  # atno 11005 bound_to 11000
  146.0502  140.8077  142.9785 LP  0  0  0  0  0  0  0  0  0  0  0  0  # atno 17320 bound_to 7965
  144.6884  140.3041  143.7258 LP  0  0  0  0  0  0  0  0  0  0  0  0  # atno 17321 bound_to 7965
  140.5721  143.2180  151.7580 LP  0  0  0  0  0  0  0  0  0  0  0  0  # atno 17342 bound_to 10162
  139.4935  144.4201  151.9987 LP  0  0  0  0  0  0  0  0  0  0  0  0  # atno 17343 bound_to 10162
  157.7430  131.0481  150.4979 LP  0  0  0  0  0  0  0  0  0  0  0  0  # atno 17370 bound_to 10713
  156.5145  130.4147  149.6283 LP  0  0  0  0  0  0  0  0  0  0  0  0  # atno 17371 bound_to 10713
  140.1674  134.4651  155.7854 LP  0  0  0  0  0  0  0  0  0  0  0  0  # atno 17394 bound_to 11000
  141.2212  133.6927  156.7649 LP  0  0  0  0  0  0  0  0  0  0  0  0  # atno 17395 bound_to 11000

$$$$
