AV-unprocessed.smi:1278|AV-procd|sdf|5353|dock10
  -GOLD-   22720 4493D 1   1.00000     0.00000
 Structure written by MMmdl.
 38 39  0  0  0  0  0  0  0  0  3 V2000
  152.8177  144.6251  158.0153 C   0  0  0  0  0  0  0  0  0  0  0  0
  151.7021  143.9536  158.8357 C   0  0  2  0  0  0  0  0  0  0  0  0
  152.0706  143.7880  160.3215 C   0  0  0  0  0  0  0  0  0  0  0  0
  153.0957  142.6624  160.5183 C   0  0  0  0  0  0  0  0  0  0  0  0
  152.6104  141.3547  159.8734 C   0  0  0  0  0  0  0  0  0  0  0  0
  152.3007  141.5483  158.4336 N   0  3  1  0  0  0  0  0  0  0  0  0
  151.9686  140.2705  157.7564 C   0  0  0  0  0  0  0  0  0  0  0  0
  152.8286  139.0984  158.2654 C   0  0  0  0  0  0  0  0  0  0  0  0
  152.7729  137.9643  157.3512 N   0  0  0  0  0  0  0  0  0  0  0  0
  152.0600  136.8445  157.5387 C   0  0  0  0  0  0  0  0  0  0  0  0
  151.3740  136.7165  158.5556 O   0  0  0  0  0  0  0  0  0  0  0  0
  152.1902  135.9436  156.5396 N   0  5  0  0  0  0  0  0  0  0  0  0
  151.2338  135.0227  156.3370 C   0  0  0  0  0  0  0  0  0  0  0  0
  151.1432  133.8963  157.0531 N   0  0  0  0  0  0  0  0  0  0  0  0
  150.0716  133.0842  156.6775 C   0  0  0  0  0  0  0  0  0  0  0  0
  149.3237  133.6091  155.6571 C   0  0  0  0  0  0  0  0  0  0  0  0
  149.9469  135.1479  155.1348 S   0  0  0  0  0  0  0  0  0  0  0  0
  151.2676  142.6012  158.2328 C   0  0  0  0  0  0  0  0  0  0  0  0
  153.7200  144.0149  157.9772 H   0  0  0  0  0  0  0  0  0  0  0  0
  153.0887  145.5916  158.4412 H   0  0  0  0  0  0  0  0  0  0  0  0
  152.4961  144.7997  156.9880 H   0  0  0  0  0  0  0  0  0  0  0  0
  150.8422  144.6232  158.7885 H   0  0  0  0  0  0  0  0  0  0  0  0
  152.4513  144.7246  160.7306 H   0  0  0  0  0  0  0  0  0  0  0  0
  151.1700  143.5503  160.8894 H   0  0  0  0  0  0  0  0  0  0  0  0
  154.0549  142.9513  160.0878 H   0  0  0  0  0  0  0  0  0  0  0  0
  153.2742  142.5064  161.5825 H   0  0  0  0  0  0  0  0  0  0  0  0
  153.3852  140.5953  159.9867 H   0  0  0  0  0  0  0  0  0  0  0  0
  151.7240  140.9831  160.3902 H   0  0  0  0  0  0  0  0  0  0  0  0
  150.9228  140.0226  157.9436 H   0  0  0  0  0  0  0  0  0  0  0  0
  152.0646  140.3947  156.6766 H   0  0  0  0  0  0  0  0  0  0  0  0
  153.8691  139.3912  158.4069 H   0  0  0  0  0  0  0  0  0  0  0  0
  152.4653  138.7660  159.2379 H   0  0  0  0  0  0  0  0  0  0  0  0
  153.3160  138.0305  156.5026 H   0  0  0  0  0  0  0  0  0  0  0  0
  149.9154  132.1478  157.1924 H   0  0  0  0  0  0  0  0  0  0  0  0
  148.4491  133.1888  155.1843 H   0  0  0  0  0  0  0  0  0  0  0  0
  150.3353  142.2753  158.6969 H   0  0  0  0  0  0  0  0  0  0  0  0
  151.0516  142.7334  157.1733 H   0  0  0  0  0  0  0  0  0  0  0  0
  153.1515  141.8834  158.0049 H   0  0  0  0  0  0  0  0  0  0  0  0
  1  2  1  0  0  0  0
  1 19  1  0  0  0  0
  1 20  1  0  0  0  0
  1 21  1  0  0  0  0
  2 18  1  0  0  0  0
  2  3  1  0  0  0  0
  2 22  1  0  0  0  0
  3  4  1  0  0  0  0
  3 23  1  0  0  0  0
  3 24  1  0  0  0  0
  4  5  1  0  0  0  0
  4 25  1  0  0  0  0
  4 26  1  0  0  0  0
  5  6  1  0  0  0  0
  5 27  1  0  0  0  0
  5 28  1  0  0  0  0
  6  7  1  0  0  0  0
  6 18  1  0  0  0  0
  6 38  1  0  0  0  0
  7  8  1  0  0  0  0
  7 29  1  0  0  0  0
  7 30  1  0  0  0  0
  8  9  1  0  0  0  0
  8 31  1  0  0  0  0
  8 32  1  0  0  0  0
  9 10  1  0  0  0  0
  9 33  1  0  0  0  0
 10 11  2  0  0  0  0
 10 12  1  0  0  0  0
 12 13  1  0  0  0  0
 13 17  1  0  0  0  0
 13 14  2  0  0  0  0
 14 15  1  0  0  0  0
 15 16  2  0  0  0  0
 15 34  1  0  0  0  0
 16 17  1  0  0  0  0
 16 35  1  0  0  0  0
 18 36  1  0  0  0  0
 18 37  1  0  0  0  0
M  CHG  1   6   1
M  CHG  1  12  -1
M  END
> <s_m_source_file>
AV-unprocessed.smi

> <i_m_source_file_index>
1278

> <i_lp_mmshare_version>
43012

> <i_f3d_flags>
0

> <s_epik_input>
W0NIM11bQ0BASF0xW0NIMl1bQ0gyXVtDSDJdTihbQ0gyXTEpW0NIMl1bQ0gyXVtOSF1DKD1PKVtOSF1jMm5bY0hdW2NIXXMy

> <s_epik_cmdline>
J2VwaWtfcHl0aG9uJywgJy1waCcsICc3LjAnLCAnLXRuJywgJzgnLCAnLW1hJywgJzIwMCcsICctbWV0YWxfYmluZGluZycsICctaW1hZScsICc8aW5maWxlLm1hZT4nLCAnLW9tYWUnLCAnPG91dGZpbGUubWFlPic=

> <r_lp_tautomer_probability>
0.999

> <r_epik_Ionization_Penalty>
6.22019

> <r_epik_Ionization_Penalty_Charging>
5.38911

> <r_epik_Ionization_Penalty_Neutral>
0.831074

> <r_epik_State_Penalty>
5.38904

> <r_epik_Charging_Adjusted_Penalty>
10.7782

> <i_epik_Tot_Q>
0

> <i_epik_Tot_abs_Q>
2

> <r_epik_Metal_State_Penalty>
1.41502

> <b_epik_Metal_Only>
1

> <s_lp_Force_Field>
OPLS_2005

> <r_lp_Energy>
8.40837

> <b_lp_Chiralities_Consistent>
1

> <s_lp_Variant>
AV-unprocessed.smi:1278-7

> <Gold.Version>
5.8.1

> <Gold.Id.Protein>
6NUR|6NUR_protein|mol2

> <Gold.PLP.Fitness>
41.1191

> <Gold.PLP.PLP>
-33.6463

> <Gold.PLP.part.hbond>
-3.0000

> <Gold.PLP.part.metal>
0.0000

> <Gold.PLP.part.buried>
-4.7724

> <Gold.PLP.part.nonpolar>
-27.1684

> <Gold.PLP.part.repulsive>
0.2067

> <Gold.PLP.ligand.clash>
0.0000

> <Gold.PLP.ligand.torsion>
1.1963

> <Gold.PLP.Chemscore.Hbond>
3.2779

> <Gold.PLP.Chemscore.CHOScore>
0.0000

> <Gold.PLP.Chemscore.Metal>
0.0000

> <Gold.Chemscore.Hbonds>
donor molecule, donor type, donor heavy atom, donor atom, acceptor molecule, acceptor atom, score
      P1  H  6896  6908       L1    14  0.30
      P1  H  6896  6909       L1    11  0.70
      P1  H 10752 10765       L1    12  1.70

> <Gold.PLP.Chemscore.Internal.Correction>
0.0318

> <Gold.Rescore>
     Score         DG    S(hbond)    S(metal)    S(lipo)     H(rot)  DE(clash)    DE(int)     intcor
     16.96     -18.32       1.91        0.00      89.64       1.57       0.17       1.19       ----

> <Gold.Chemscore.Fitness>
16.9589

> <Gold.Chemscore.DG>
-18.3182

> <Gold.Chemscore.ZeroCoef>
-5.4800

> <Gold.Chemscore.Hbond>
1.9052

> <Gold.Chemscore.Metal>
0.0000

> <Gold.Chemscore.Lipo>
89.6389

> <Gold.Chemscore.Internal_Hbond>
0.0000

> <Gold.Chemscore.DEClash>
0.1736

> <Gold.Chemscore.DEInternal>
1.1856

> <Gold.Chemscore.Rot>
1.5676

> <Gold.Chemscore.Internal.Correction>
   9.000000E+99

> <Gold.Chemscore.Hbonds>
donor molecule, donor type, donor heavy atom, donor atom, acceptor molecule, acceptor atom, score
      P1  H  6896  6908       L1    14  0.06
      P1  H  6896  6909       L1    11  0.68
      P1  H 10752 10765       L1    12  0.15

> <Gold.Chemscore.Hbond.Weighted>
-6.3634

> <Gold.Chemscore.Metal.Weighted>
-0.0000

> <Gold.Chemscore.Lipo.Weighted>
-10.4878

> <Gold.Chemscore.Internal_Hbond.Weighted>
0.0000

> <Gold.Chemscore.DEClash.Weighted>
0.1736

> <Gold.Chemscore.DEInternal.Weighted>
1.1856

> <Gold.Chemscore.Rot.Weighted>
4.0130

> <Gold.Chemscore.Internal.Correction.Weighted>
   9.000000E+99

> <Gold.Protein.RotatedTorsions>
[ 6907 6896 6895 6894 ] final  102.74 input  -60.11 | X-H torsion
[ 7974 7965 7964 7962 ] final  -17.48 input  175.53 | X-H torsion
[ 8008 7997 7996 7995 ] final  -63.88 input   59.86 | X-H torsion
[ 10167 10162 10161 10158 ] final   17.48 input  -65.29 | X-H torsion
[ 10718 10713 10712 10709 ] final  -67.50 input   66.30 | X-H torsion
[ 10763 10752 10751 10750 ] final -138.17 input  -60.55 | X-H torsion
[ 11005 11000 10999 10996 ] final  120.93 input  -57.11 | X-H torsion

> <Gold.Protein.ActiveResidues>
 VAL166  LYS551  ARG553  GLY616  TRP617  ASP618  TYR619  PRO620  LYS621  CYS622 
 ASP623  PHE694  ASN695  SER759  ASP760  ASP761  ALA762  ILE779  LEU786  VAL792 
 PHE793  MET794  SER795  GLU796  ALA797  LYS798  CYS799  TRP800  GLU811  SER814 

> <Gold.Protein.RotatedAtoms>
  152.5315  133.9930  159.7859 H   0  0  0  0  0  0  0  0  0  0  0  0  # atno 6907 bound_to 6896
  151.0163  133.5910  159.2683 H   0  0  0  0  0  0  0  0  0  0  0  0  # atno 6908 bound_to 6896
  151.2966  135.0764  159.9277 H   0  0  0  0  0  0  0  0  0  0  0  0  # atno 6909 bound_to 6896
  146.1939  140.3784  142.8448 H   0  0  0  0  0  0  0  0  0  0  0  0  # atno 7974 bound_to 7965
  154.4579  140.0965  156.6811 H   0  0  0  0  0  0  0  0  0  0  0  0  # atno 8008 bound_to 7997
  155.5081  140.3475  155.4365 H   0  0  0  0  0  0  0  0  0  0  0  0  # atno 8009 bound_to 7997
  156.0814  140.1374  156.9696 H   0  0  0  0  0  0  0  0  0  0  0  0  # atno 8010 bound_to 7997
  140.5723  143.9138  150.6722 H   0  0  0  0  0  0  0  0  0  0  0  0  # atno 10167 bound_to 10162
  156.0554  130.4279  150.1864 H   0  0  0  0  0  0  0  0  0  0  0  0  # atno 10718 bound_to 10713
  154.8643  135.3620  154.5342 H   0  0  0  0  0  0  0  0  0  0  0  0  # atno 10763 bound_to 10752
  153.5966  135.7014  153.5406 H   0  0  0  0  0  0  0  0  0  0  0  0  # atno 10764 bound_to 10752
  153.3327  135.4120  155.1470 H   0  0  0  0  0  0  0  0  0  0  0  0  # atno 10765 bound_to 10752
  139.9205  134.9637  156.7882 H   0  0  0  0  0  0  0  0  0  0  0  0  # atno 11005 bound_to 11000
  144.8541  140.7044  143.6149 LP  0  0  0  0  0  0  0  0  0  0  0  0  # atno 17320 bound_to 7965
  145.3706  139.1659  143.4334 LP  0  0  0  0  0  0  0  0  0  0  0  0  # atno 17321 bound_to 7965
  140.2617  143.3519  152.1317 LP  0  0  0  0  0  0  0  0  0  0  0  0  # atno 17342 bound_to 10162
  139.5124  144.6916  151.5745 LP  0  0  0  0  0  0  0  0  0  0  0  0  # atno 17343 bound_to 10162
  156.9941  130.9902  151.3407 LP  0  0  0  0  0  0  0  0  0  0  0  0  # atno 17370 bound_to 10713
  157.5519  130.8188  149.8156 LP  0  0  0  0  0  0  0  0  0  0  0  0  # atno 17371 bound_to 10713
  140.6489  133.9750  155.7745 LP  0  0  0  0  0  0  0  0  0  0  0  0  # atno 17394 bound_to 11000
  141.0721  134.0189  157.3510 LP  0  0  0  0  0  0  0  0  0  0  0  0  # atno 17395 bound_to 11000

$$$$
