AV-unprocessed.smi:34|AV-procd|sdf|234|dock6
  -GOLD-   2262015573D 1   1.00000     0.00000
 Structure written by MMmdl.
 54 58  0  0  0  0  0  0  0  0  2 V2000
  150.4777  141.7576  156.0414 O   0  0  0  0  0  0  0  0  0  0  0  0
  150.8413  141.1891  157.0734 C   0  0  0  0  0  0  0  0  0  0  0  0
  150.6223  139.8995  157.4353 N   0  5  0  0  0  0  0  0  0  0  0  0
  150.8929  138.9097  156.5710 C   0  0  0  0  0  0  0  0  0  0  0  0
  151.5110  139.1758  155.3914 N   0  0  0  0  0  0  0  0  0  0  0  0
  151.7772  138.1874  154.5287 C   0  0  0  0  0  0  0  0  0  0  0  0
  151.5213  136.8801  154.6426 N   0  0  0  0  0  0  0  0  0  0  0  0
  150.9116  136.6011  155.8310 C   0  0  0  0  0  0  0  0  0  0  0  0
  150.5712  137.5505  156.8368 C   0  0  0  0  0  0  0  0  0  0  0  0
  149.9622  136.9249  157.9152 N   0  0  0  0  0  0  0  0  0  0  0  0
  149.9555  135.6527  157.5208 C   0  0  0  0  0  0  0  0  0  0  0  0
  150.4877  135.3760  156.3115 N   0  0  0  0  0  0  0  0  0  0  0  0
  150.6115  134.0611  155.6049 C   0  0  1  0  0  0  0  0  0  0  0  0
  150.0651  133.0651  156.4214 O   0  0  0  0  0  0  0  0  0  0  0  0
  148.8046  132.6563  155.9013 C   0  0  2  0  0  0  0  0  0  0  0  0
  148.4574  131.2490  156.3962 C   0  0  0  0  0  0  0  0  0  0  0  0
  148.0018  130.4729  155.3004 O   0  0  0  0  0  0  0  0  0  0  0  0
  148.8682  129.7076  154.6092 C   0  0  0  0  0  0  0  0  0  0  0  0
  150.0484  129.5531  154.9301 O   0  0  0  0  0  0  0  0  0  0  0  0
  148.2493  129.0648  153.4140 C   0  0  0  0  0  0  0  0  0  0  0  0
  146.9508  129.4558  153.0118 C   0  0  0  0  0  0  0  0  0  0  0  0
  146.3400  128.8666  151.8878 C   0  0  0  0  0  0  0  0  0  0  0  0
  147.0203  127.8792  151.1521 C   0  0  0  0  0  0  0  0  0  0  0  0
  148.3128  127.4817  151.5413 C   0  0  0  0  0  0  0  0  0  0  0  0
  148.9256  128.0701  152.6651 C   0  0  0  0  0  0  0  0  0  0  0  0
  149.0618  132.7325  154.4007 C   0  0  1  0  0  0  0  0  0  0  0  0
  147.9545  132.6912  153.6575 F   0  0  0  0  0  0  0  0  0  0  0  0
  149.8364  134.0335  154.2654 C   0  0  1  0  0  0  0  0  0  0  0  0
  148.9604  135.1353  154.0856 O   0  0  0  0  0  0  0  0  0  0  0  0
  151.6851  141.9497  158.0608 C   0  0  0  0  0  0  0  0  0  0  0  0
  151.7406  143.3608  157.9944 C   0  0  0  0  0  0  0  0  0  0  0  0
  152.5005  144.0927  158.9276 C   0  0  0  0  0  0  0  0  0  0  0  0
  153.2057  143.4214  159.9440 C   0  0  0  0  0  0  0  0  0  0  0  0
  153.1479  142.0177  160.0285 C   0  0  0  0  0  0  0  0  0  0  0  0
  152.3885  141.2852  159.0953 C   0  0  0  0  0  0  0  0  0  0  0  0
  152.2662  138.4884  153.6141 H   0  0  0  0  0  0  0  0  0  0  0  0
  149.5359  134.8805  158.1486 H   0  0  0  0  0  0  0  0  0  0  0  0
  151.6851  133.9037  155.4948 H   0  0  0  0  0  0  0  0  0  0  0  0
  148.0314  133.3725  156.1852 H   0  0  0  0  0  0  0  0  0  0  0  0
  149.3425  130.7727  156.8200 H   0  0  0  0  0  0  0  0  0  0  0  0
  147.7007  131.2986  157.1806 H   0  0  0  0  0  0  0  0  0  0  0  0
  146.4084  130.2121  153.5610 H   0  0  0  0  0  0  0  0  0  0  0  0
  145.3480  129.1735  151.5905 H   0  0  0  0  0  0  0  0  0  0  0  0
  146.5516  127.4274  150.2904 H   0  0  0  0  0  0  0  0  0  0  0  0
  148.8359  126.7241  150.9768 H   0  0  0  0  0  0  0  0  0  0  0  0
  149.9187  127.7425  152.9361 H   0  0  0  0  0  0  0  0  0  0  0  0
  149.6888  131.8962  154.0875 H   0  0  0  0  0  0  0  0  0  0  0  0
  150.5385  134.0013  153.4317 H   0  0  0  0  0  0  0  0  0  0  0  0
  149.1758  135.5602  153.2693 H   0  0  0  0  0  0  0  0  0  0  0  0
  151.2014  143.8912  157.2227 H   0  0  0  0  0  0  0  0  0  0  0  0
  152.5392  145.1700  158.8643 H   0  0  0  0  0  0  0  0  0  0  0  0
  153.7869  143.9826  160.6607 H   0  0  0  0  0  0  0  0  0  0  0  0
  153.6821  141.5010  160.8120 H   0  0  0  0  0  0  0  0  0  0  0  0
  152.3477  140.2092  159.1849 H   0  0  0  0  0  0  0  0  0  0  0  0
  1  2  2  0  0  0  0
  2  3  1  0  0  0  0
  2 30  1  0  0  0  0
  3  4  1  0  0  0  0
  4  9  1  0  0  0  0
  4  5  2  0  0  0  0
  5  6  1  0  0  0  0
  6  7  2  0  0  0  0
  6 36  1  0  0  0  0
  7  8  1  0  0  0  0
  8 12  1  0  0  0  0
  8  9  2  0  0  0  0
  9 10  1  0  0  0  0
 10 11  2  0  0  0  0
 11 12  1  0  0  0  0
 11 37  1  0  0  0  0
 12 13  1  0  0  0  0
 13 28  1  0  0  0  0
 13 14  1  0  0  0  0
 13 38  1  0  0  0  0
 14 15  1  0  0  0  0
 15 16  1  0  0  0  0
 15 26  1  0  0  0  0
 15 39  1  0  0  0  0
 16 17  1  0  0  0  0
 16 40  1  0  0  0  0
 16 41  1  0  0  0  0
 17 18  1  0  0  0  0
 18 19  2  0  0  0  0
 18 20  1  0  0  0  0
 20 25  1  0  0  0  0
 20 21  2  0  0  0  0
 21 22  1  0  0  0  0
 21 42  1  0  0  0  0
 22 23  2  0  0  0  0
 22 43  1  0  0  0  0
 23 24  1  0  0  0  0
 23 44  1  0  0  0  0
 24 25  2  0  0  0  0
 24 45  1  0  0  0  0
 25 46  1  0  0  0  0
 26 27  1  0  0  0  0
 26 28  1  0  0  0  0
 26 47  1  0  0  0  0
 28 29  1  0  0  0  0
 28 48  1  0  0  0  0
 29 49  1  0  0  0  0
 30 35  1  0  0  0  0
 30 31  2  0  0  0  0
 31 32  1  0  0  0  0
 31 50  1  0  0  0  0
 32 33  2  0  0  0  0
 32 51  1  0  0  0  0
 33 34  1  0  0  0  0
 33 52  1  0  0  0  0
 34 35  2  0  0  0  0
 34 53  1  0  0  0  0
 35 54  1  0  0  0  0
M  CHG  1   3  -1
M  END
> <s_m_source_file>
AV-unprocessed.smi

> <i_m_source_file_index>
34

> <i_lp_mmshare_version>
43012

> <i_f3d_flags>
0

> <s_epik_input>
W2NIXTFbY0hdW2NIXVtjSF1bY0hdYzFDKD1PKVtOSF1jKG5bY0hdbjIpYyhjMjMpbltjSF1uM1tDQEBIXTRPW0NASF0oW0NAQEhdKEYpW0NASF00W09IXSlbQ0gyXU9DKD1PKWM1W2NIXVtjSF1bY0hdW2NIXVtjSF01

> <s_epik_cmdline>
J2VwaWtfcHl0aG9uJywgJy1waCcsICc3LjAnLCAnLXRuJywgJzgnLCAnLW1hJywgJzIwMCcsICctbWV0YWxfYmluZGluZycsICctaW1hZScsICc8aW5maWxlLm1hZT4nLCAnLW9tYWUnLCAnPG91dGZpbGUubWFlPic=

> <r_lp_tautomer_probability>
1

> <r_epik_Ionization_Penalty>
4.33227

> <r_epik_Ionization_Penalty_Charging>
3.41027

> <r_epik_Ionization_Penalty_Neutral>
0.922001

> <r_epik_State_Penalty>
3.41358

> <r_epik_Charging_Adjusted_Penalty>
6.82385

> <i_epik_Tot_Q>
-1

> <i_epik_Tot_abs_Q>
1

> <r_epik_Metal_State_Penalty>
0.496292

> <b_epik_Metal_Only>
1

> <s_epik_Chemistry_Notes>
This compound has an ester and may undergo hydrolysis at high or low pH. This compound contains an acetal/aminal-like group ( X-CH(R)-Y where X, Y are N, S, or O) that may be acid/base labile, releasing an aldehyde.

> <s_lp_Force_Field>
OPLS_2005

> <r_lp_Energy>
50.8657

> <b_lp_Chiralities_Consistent>
1

> <s_lp_Variant>
AV-unprocessed.smi:34-20

> <Gold.Version>
5.8.1

> <Gold.Id.Protein>
6NUR|6NUR_protein|mol2

> <Gold.PLP.Fitness>
61.1480

> <Gold.PLP.PLP>
-57.6604

> <Gold.PLP.part.hbond>
-1.6016

> <Gold.PLP.part.metal>
0.0000

> <Gold.PLP.part.buried>
-9.1826

> <Gold.PLP.part.nonpolar>
-49.1322

> <Gold.PLP.part.repulsive>
0.2872

> <Gold.PLP.ligand.clash>
0.0000

> <Gold.PLP.ligand.torsion>
1.4607

> <Gold.PLP.Chemscore.Hbond>
1.9913

> <Gold.PLP.Chemscore.CHOScore>
0.0000

> <Gold.PLP.Chemscore.Metal>
0.0000

> <Gold.Chemscore.Hbonds>
donor molecule, donor type, donor heavy atom, donor atom, acceptor molecule, acceptor atom, score
      L1  H    29    49       P1  7948  1.00
      P1  H 10752 10763       L1     7  1.00

> <Gold.PLP.Chemscore.Internal.Correction>
0.4353

> <Gold.Rescore>
     Score         DG    S(hbond)    S(metal)    S(lipo)     H(rot)  DE(clash)    DE(int)     intcor
     13.84     -19.16       1.51        0.00     132.88       2.69       0.03       5.30       ----

> <Gold.Chemscore.Fitness>
13.8398

> <Gold.Chemscore.DG>
-19.1620

> <Gold.Chemscore.ZeroCoef>
-5.4800

> <Gold.Chemscore.Hbond>
1.5069

> <Gold.Chemscore.Metal>
0.0000

> <Gold.Chemscore.Lipo>
132.8759

> <Gold.Chemscore.Internal_Hbond>
0.0000

> <Gold.Chemscore.DEClash>
0.0270

> <Gold.Chemscore.DEInternal>
5.2952

> <Gold.Chemscore.Rot>
2.6944

> <Gold.Chemscore.Internal.Correction>
   9.000000E+99

> <Gold.Chemscore.Hbonds>
donor molecule, donor type, donor heavy atom, donor atom, acceptor molecule, acceptor atom, score
      L1  H    29    49       P1  7948  0.42
      P1  H 10752 10763       L1     7  0.44

> <Gold.Chemscore.Hbond.Weighted>
-5.0331

> <Gold.Chemscore.Metal.Weighted>
-0.0000

> <Gold.Chemscore.Lipo.Weighted>
-15.5465

> <Gold.Chemscore.Internal_Hbond.Weighted>
0.0000

> <Gold.Chemscore.DEClash.Weighted>
0.0270

> <Gold.Chemscore.DEInternal.Weighted>
5.2952

> <Gold.Chemscore.Rot.Weighted>
6.8975

> <Gold.Chemscore.Internal.Correction.Weighted>
   9.000000E+99

> <Gold.Protein.RotatedTorsions>
[ 6907 6896 6895 6894 ] final  137.69 input  -60.11 | X-H torsion
[ 7974 7965 7964 7962 ] final  136.43 input  175.53 | X-H torsion
[ 8008 7997 7996 7995 ] final   30.78 input   59.86 | X-H torsion
[ 10167 10162 10161 10158 ] final  -36.04 input  -65.29 | X-H torsion
[ 10718 10713 10712 10709 ] final -146.23 input   66.30 | X-H torsion
[ 10763 10752 10751 10750 ] final   56.73 input  -60.55 | X-H torsion
[ 11005 11000 10999 10996 ] final   84.53 input  -57.11 | X-H torsion

> <Gold.Protein.ActiveResidues>
 VAL166  LYS551  ARG553  GLY616  TRP617  ASP618  TYR619  PRO620  LYS621  CYS622 
 ASP623  PHE694  ASN695  SER759  ASP760  ASP761  ALA762  ILE779  LEU786  VAL792 
 PHE793  MET794  SER795  GLU796  ALA797  LYS798  CYS799  TRP800  GLU811  SER814 

> <Gold.Protein.RotatedAtoms>
  152.2752  133.5419  159.5463 H   0  0  0  0  0  0  0  0  0  0  0  0  # atno 6907 bound_to 6896
  150.7174  134.0642  159.3851 H   0  0  0  0  0  0  0  0  0  0  0  0  # atno 6908 bound_to 6896
  151.8555  135.0543  160.0514 H   0  0  0  0  0  0  0  0  0  0  0  0  # atno 6909 bound_to 6896
  144.9565  139.4758  143.5500 H   0  0  0  0  0  0  0  0  0  0  0  0  # atno 7974 bound_to 7965
  155.0959  140.3225  155.4560 H   0  0  0  0  0  0  0  0  0  0  0  0  # atno 8008 bound_to 7997
  156.2730  140.2069  156.6033 H   0  0  0  0  0  0  0  0  0  0  0  0  # atno 8009 bound_to 7997
  154.6866  140.0520  157.0308 H   0  0  0  0  0  0  0  0  0  0  0  0  # atno 8010 bound_to 7997
  140.7151  143.3436  151.2305 H   0  0  0  0  0  0  0  0  0  0  0  0  # atno 10167 bound_to 10162
  156.3924  130.7892  151.2095 H   0  0  0  0  0  0  0  0  0  0  0  0  # atno 10718 bound_to 10713
  152.9837  135.5666  154.5276 H   0  0  0  0  0  0  0  0  0  0  0  0  # atno 10763 bound_to 10752
  154.4753  135.2786  155.1614 H   0  0  0  0  0  0  0  0  0  0  0  0  # atno 10764 bound_to 10752
  154.3145  135.6281  153.5533 H   0  0  0  0  0  0  0  0  0  0  0  0  # atno 10765 bound_to 10752
  139.8998  134.8223  156.2457 H   0  0  0  0  0  0  0  0  0  0  0  0  # atno 11005 bound_to 11000
  146.3339  139.8686  142.8844 LP  0  0  0  0  0  0  0  0  0  0  0  0  # atno 17320 bound_to 7965
  145.2764  141.0125  143.3742 LP  0  0  0  0  0  0  0  0  0  0  0  0  # atno 17321 bound_to 7965
  139.6949  143.9629  152.2878 LP  0  0  0  0  0  0  0  0  0  0  0  0  # atno 17342 bound_to 10162
  139.9303  144.6745  150.8370 LP  0  0  0  0  0  0  0  0  0  0  0  0  # atno 17343 bound_to 10162
  157.7500  131.0312  150.4169 LP  0  0  0  0  0  0  0  0  0  0  0  0  # atno 17370 bound_to 10713
  156.4433  130.3996  149.6683 LP  0  0  0  0  0  0  0  0  0  0  0  0  # atno 17371 bound_to 10713
  141.0256  133.7017  156.1342 LP  0  0  0  0  0  0  0  0  0  0  0  0  # atno 17394 bound_to 11000
  140.7171  134.4399  157.5577 LP  0  0  0  0  0  0  0  0  0  0  0  0  # atno 17395 bound_to 11000

$$$$
