AV-unprocessed.smi:72|AV-procd|sdf|686|dock3
  -GOLD-   2262017 03D 1   1.00000     0.00000
 Structure written by MMmdl.
 29 30  0  0  0  0  0  0  0  0  1 V2000
  151.9749  134.7904  157.1849 N   0  0  0  0  0  0  0  0  0  0  0  0
  151.8072  136.0262  156.8761 C   0  0  0  0  0  0  0  0  0  0  0  0
  150.7769  136.5284  156.0668 N   0  0  0  0  0  0  0  0  0  0  0  0
  150.7369  137.8042  155.8340 C   0  0  0  0  0  0  0  0  0  0  0  0
  151.7248  138.7232  156.3787 N   0  0  0  0  0  0  0  0  0  0  0  0
  151.6517  140.2064  156.0822 C   0  0  1  0  0  0  0  0  0  0  0  0
  150.7198  140.4073  155.0650 O   0  0  0  0  0  0  0  0  0  0  0  0
  150.0361  141.6299  155.2969 C   0  0  1  0  0  0  0  0  0  0  0  0
  148.6886  141.6236  154.5593 C   0  0  0  0  0  0  0  0  0  0  0  0
  148.8824  141.2985  153.1993 O   0  0  0  0  0  0  0  0  0  0  0  0
  149.8990  141.6541  156.8225 C   0  0  2  0  0  0  0  0  0  0  0  0
  149.7542  142.9811  157.2864 O   0  0  0  0  0  0  0  0  0  0  0  0
  151.2200  141.0599  157.2968 C   0  0  1  0  0  0  0  0  0  0  0  0
  151.0421  140.3337  158.4997 O   0  0  0  0  0  0  0  0  0  0  0  0
  152.7586  138.2353  157.2142 C   0  0  0  0  0  0  0  0  0  0  0  0
  153.5984  138.9726  157.7296 O   0  0  0  0  0  0  0  0  0  0  0  0
  152.7572  136.9006  157.4203 N   0  0  0  0  0  0  0  0  0  0  0  0
  152.6285  140.5006  155.6958 H   0  0  0  0  0  0  0  0  0  0  0  0
  150.6665  142.4587  154.9673 H   0  0  0  0  0  0  0  0  0  0  0  0
  149.0557  141.0370  157.1377 H   0  0  0  0  0  0  0  0  0  0  0  0
  151.9748  141.8343  157.4417 H   0  0  0  0  0  0  0  0  0  0  0  0
  152.7854  134.6891  157.7788 H   0  0  0  0  0  0  0  0  0  0  0  0
  149.9624  138.2707  155.2234 H   0  0  0  0  0  0  0  0  0  0  0  0
  147.9856  140.9297  155.0211 H   0  0  0  0  0  0  0  0  0  0  0  0
  148.2366  142.6152  154.5963 H   0  0  0  0  0  0  0  0  0  0  0  0
  149.3394  140.4729  153.1495 H   0  0  0  0  0  0  0  0  0  0  0  0
  149.1985  143.4484  156.6815 H   0  0  0  0  0  0  0  0  0  0  0  0
  151.6278  140.6878  159.1513 H   0  0  0  0  0  0  0  0  0  0  0  0
  153.4825  136.5165  158.0079 H   0  0  0  0  0  0  0  0  0  0  0  0
  1  2  2  0  0  0  0
  1 22  1  0  0  0  0
  2 17  1  0  0  0  0
  2  3  1  0  0  0  0
  3  4  2  0  0  0  0
  4  5  1  0  0  0  0
  4 23  1  0  0  0  0
  5  6  1  0  0  0  0
  5 15  1  0  0  0  0
  6 18  1  0  0  0  0
  6 13  1  0  0  0  0
  6  7  1  0  0  0  0
  7  8  1  0  0  0  0
  8 19  1  0  0  0  0
  8  9  1  0  0  0  0
  8 11  1  0  0  0  0
  9 10  1  0  0  0  0
  9 24  1  0  0  0  0
  9 25  1  0  0  0  0
 10 26  1  0  0  0  0
 11 20  1  0  0  0  0
 11 12  1  0  0  0  0
 11 13  1  0  0  0  0
 12 27  1  0  0  0  0
 13 21  1  0  0  0  0
 13 14  1  0  0  0  0
 14 28  1  0  0  0  0
 15 16  2  0  0  0  0
 15 17  1  0  0  0  0
 17 29  1  0  0  0  0
M  END
> <s_m_source_file>
AV-unprocessed.smi

> <i_m_source_file_index>
72

> <i_lp_mmshare_version>
43012

> <i_f3d_flags>
0

> <s_epik_input>
W05IMl1jMW5bY0hdbihjKD1PKW4xKVtDQEBIXTJPW0NASF0oW0NIMl1bT0hdKVtDQEBIXShbT0hdKVtDQEhdMltPSF0=

> <s_epik_cmdline>
J2VwaWtfcHl0aG9uJywgJy1waCcsICc3LjAnLCAnLXRuJywgJzgnLCAnLW1hJywgJzIwMCcsICctbWV0YWxfYmluZGluZycsICctaW1hZScsICc8aW5maWxlLm1hZT4nLCAnLW9tYWUnLCAnPG91dGZpbGUubWFlPic=

> <r_lp_tautomer_probability>
7.17554e-07

> <r_epik_Ionization_Penalty>
0.0066451

> <r_epik_Ionization_Penalty_Charging>
0.00663793

> <r_epik_Ionization_Penalty_Neutral>
7.17052e-06

> <r_epik_State_Penalty>
0.419231

> <r_epik_Charging_Adjusted_Penalty>
0.425868

> <i_epik_Tot_Q>
0

> <i_epik_Tot_abs_Q>
0

> <r_epik_Metal_State_Penalty>
1.44144

> <b_epik_Metal_Only>
0

> <s_epik_Chemistry_Notes>
This compound contains an acetal/aminal-like group ( X-CH(R)-Y where X, Y are N, S, or O) that may be acid/base labile, releasing an aldehyde.

> <s_lp_Force_Field>
OPLS_2005

> <r_lp_Energy>
42.1084

> <b_lp_Chiralities_Consistent>
1

> <s_lp_Variant>
AV-unprocessed.smi:72-24

> <Gold.Version>
5.8.1

> <Gold.Id.Protein>
6NUR|6NUR_protein|mol2

> <Gold.PLP.Fitness>
34.9517

> <Gold.PLP.PLP>
-22.8945

> <Gold.PLP.part.hbond>
-6.7899

> <Gold.PLP.part.metal>
0.0000

> <Gold.PLP.part.buried>
-1.8319

> <Gold.PLP.part.nonpolar>
-13.9531

> <Gold.PLP.part.repulsive>
0.2624

> <Gold.PLP.ligand.clash>
0.0000

> <Gold.PLP.ligand.torsion>
0.2830

> <Gold.PLP.Chemscore.Hbond>
4.1636

> <Gold.PLP.Chemscore.CHOScore>
0.0000

> <Gold.PLP.Chemscore.Metal>
0.0000

> <Gold.Chemscore.Hbonds>
donor molecule, donor type, donor heavy atom, donor atom, acceptor molecule, acceptor atom, score
      L1  H    10    26       P1  7957  0.14
      L1  H    12    27       P1  8028  1.00
      P1  H  7989  7998       L1     7  0.95
      P1  H  7997  8008       L1    16  1.00
      P1  H  8011  8017       L1    10  1.00

> <Gold.PLP.Chemscore.Internal.Correction>
0.1324

> <Gold.Rescore>
     Score         DG    S(hbond)    S(metal)    S(lipo)     H(rot)  DE(clash)    DE(int)     intcor
      7.69      -8.29       3.01        0.00      26.94       4.06       0.04       0.56       ----

> <Gold.Chemscore.Fitness>
7.6898

> <Gold.Chemscore.DG>
-8.2940

> <Gold.Chemscore.ZeroCoef>
-5.4800

> <Gold.Chemscore.Hbond>
3.0107

> <Gold.Chemscore.Metal>
0.0000

> <Gold.Chemscore.Lipo>
26.9393

> <Gold.Chemscore.Internal_Hbond>
0.0000

> <Gold.Chemscore.DEClash>
0.0402

> <Gold.Chemscore.DEInternal>
0.5639

> <Gold.Chemscore.Rot>
4.0600

> <Gold.Chemscore.Internal.Correction>
   9.000000E+99

> <Gold.Chemscore.Hbonds>
donor molecule, donor type, donor heavy atom, donor atom, acceptor molecule, acceptor atom, score
      L1  H    10    26       P1  7957  0.14
      L1  H    12    27       P1  8028  0.93
      P1  H  7989  7998       L1     7  0.15
      P1  H  7997  8008       L1    16  0.95
      P1  H  8011  8017       L1    10  0.52

> <Gold.Chemscore.Hbond.Weighted>
-10.0557

> <Gold.Chemscore.Metal.Weighted>
-0.0000

> <Gold.Chemscore.Lipo.Weighted>
-3.1519

> <Gold.Chemscore.Internal_Hbond.Weighted>
0.0000

> <Gold.Chemscore.DEClash.Weighted>
0.0402

> <Gold.Chemscore.DEInternal.Weighted>
0.5639

> <Gold.Chemscore.Rot.Weighted>
10.3936

> <Gold.Chemscore.Internal.Correction.Weighted>
   9.000000E+99

> <Gold.Protein.RotatedTorsions>
[ 6907 6896 6895 6894 ] final  -54.81 input  -60.11 | X-H torsion
[ 7974 7965 7964 7962 ] final  173.42 input  175.53 | X-H torsion
[ 8008 7997 7996 7995 ] final  -67.50 input   59.86 | X-H torsion
[ 10167 10162 10161 10158 ] final  110.83 input  -65.29 | X-H torsion
[ 10718 10713 10712 10709 ] final -157.20 input   66.30 | X-H torsion
[ 10763 10752 10751 10750 ] final   43.56 input  -60.55 | X-H torsion
[ 11005 11000 10999 10996 ] final -137.57 input  -57.11 | X-H torsion

> <Gold.Protein.ActiveResidues>
 VAL166  LYS551  ARG553  GLY616  TRP617  ASP618  TYR619  PRO620  LYS621  CYS622 
 ASP623  PHE694  ASN695  SER759  ASP760  ASP761  ALA762  ILE779  LEU786  VAL792 
 PHE793  MET794  SER795  GLU796  ALA797  LYS798  CYS799  TRP800  GLU811  SER814 

> <Gold.Protein.RotatedAtoms>
  150.8305  134.7556  159.6849 H   0  0  0  0  0  0  0  0  0  0  0  0  # atno 6907 bound_to 6896
  152.4410  134.5587  159.9897 H   0  0  0  0  0  0  0  0  0  0  0  0  # atno 6908 bound_to 6896
  151.5749  133.3347  159.3032 H   0  0  0  0  0  0  0  0  0  0  0  0  # atno 6909 bound_to 6896
  144.7244  139.9645  143.6435 H   0  0  0  0  0  0  0  0  0  0  0  0  # atno 7974 bound_to 7965
  154.4804  140.0891  156.7363 H   0  0  0  0  0  0  0  0  0  0  0  0  # atno 8008 bound_to 7997
  155.4486  140.3456  155.4280 H   0  0  0  0  0  0  0  0  0  0  0  0  # atno 8009 bound_to 7997
  156.1182  140.1466  156.9231 H   0  0  0  0  0  0  0  0  0  0  0  0  # atno 8010 bound_to 7997
  139.6658  144.7127  151.1780 H   0  0  0  0  0  0  0  0  0  0  0  0  # atno 10167 bound_to 10162
  156.5369  130.8546  151.2735 H   0  0  0  0  0  0  0  0  0  0  0  0  # atno 10718 bound_to 10713
  152.9858  135.6098  154.3131 H   0  0  0  0  0  0  0  0  0  0  0  0  # atno 10763 bound_to 10752
  154.2845  135.2776  155.2684 H   0  0  0  0  0  0  0  0  0  0  0  0  # atno 10764 bound_to 10752
  154.5008  135.5867  153.6586 H   0  0  0  0  0  0  0  0  0  0  0  0  # atno 10765 bound_to 10752
  140.8699  134.2064  157.4657 H   0  0  0  0  0  0  0  0  0  0  0  0  # atno 11005 bound_to 11000
  146.0611  139.3605  143.0580 LP  0  0  0  0  0  0  0  0  0  0  0  0  # atno 17320 bound_to 7965
  145.8091  140.9734  143.0958 LP  0  0  0  0  0  0  0  0  0  0  0  0  # atno 17321 bound_to 7965
  140.7598  143.5922  150.8784 LP  0  0  0  0  0  0  0  0  0  0  0  0  # atno 17342 bound_to 10162
  139.9583  143.6192  152.3009 LP  0  0  0  0  0  0  0  0  0  0  0  0  # atno 17343 bound_to 10162
  157.7412  130.9865  150.2429 LP  0  0  0  0  0  0  0  0  0  0  0  0  # atno 17370 bound_to 10713
  156.3007  130.3758  149.7753 LP  0  0  0  0  0  0  0  0  0  0  0  0  # atno 17371 bound_to 10713
  139.8711  134.9769  156.4939 LP  0  0  0  0  0  0  0  0  0  0  0  0  # atno 17394 bound_to 11000
  140.8586  133.8077  155.9241 LP  0  0  0  0  0  0  0  0  0  0  0  0  # atno 17395 bound_to 11000

$$$$
