AV-unprocessed.smi:2404|AV-procd|sdf|9511|dock8
  -GOLD-   2272013143D 1   1.00000     0.00000
 Structure written by MMmdl.
 42 42  0  0  0  0  0  0  0  0  2 V2000
  150.7489  136.4119  154.7779 C   0  0  0  0  0  0  0  0  0  0  0  0
  150.4600  137.1503  156.0984 C   0  0  0  0  0  0  0  0  0  0  0  0
  151.4454  138.2962  156.4799 C   0  0  0  0  0  0  0  0  0  0  0  0
  151.5694  139.3479  155.3277 C   0  0  0  0  0  0  0  0  0  0  0  0
  150.2546  139.9756  154.8336 C   0  0  0  0  0  0  0  0  0  0  0  0
  150.9231  138.9686  157.7879 C   0  0  0  0  0  0  0  0  0  0  0  0
  151.6029  140.2248  158.0987 N   0  0  0  0  0  0  0  0  0  0  0  0
  151.0423  141.4435  158.1243 C   0  0  0  0  0  0  0  0  0  0  0  0
  149.8308  141.6428  158.0389 O   0  0  0  0  0  0  0  0  0  0  0  0
  152.0065  142.6270  158.2279 C   0  0  0  0  0  0  0  0  0  0  0  0
  152.0739  143.1227  159.5953 N   0  0  0  0  0  0  0  0  0  0  0  0
  152.6316  142.3457  160.5495 N   0  0  0  0  0  0  0  0  0  0  0  0
  152.5974  143.0803  161.6486 C   0  0  0  0  0  0  0  0  0  0  0  0
  153.1731  142.5312  162.9200 C   0  0  0  0  0  0  0  0  0  0  0  0
  151.9911  144.3490  161.4306 C   0  0  0  0  0  0  0  0  0  0  0  0
  151.6702  144.3456  160.1025 C   0  0  0  0  0  0  0  0  0  0  0  0
  151.0291  145.4020  159.2638 C   0  0  0  0  0  0  0  0  0  0  0  0
  152.8459  137.6809  156.7760 C   0  0  0  0  0  0  0  0  0  0  0  0
  153.0138  136.4506  156.6156 O   0  0  0  0  0  0  0  0  0  0  0  0
  153.7464  138.4667  157.1473 O   0  5  0  0  0  0  0  0  0  0  0  0
  150.0189  135.6181  154.6196 H   0  0  0  0  0  0  0  0  0  0  0  0
  151.7357  135.9484  154.7765 H   0  0  0  0  0  0  0  0  0  0  0  0
  150.6887  137.0806  153.9199 H   0  0  0  0  0  0  0  0  0  0  0  0
  149.4436  137.5417  156.0589 H   0  0  0  0  0  0  0  0  0  0  0  0
  150.4347  136.4094  156.8990 H   0  0  0  0  0  0  0  0  0  0  0  0
  152.2270  140.1605  155.6375 H   0  0  0  0  0  0  0  0  0  0  0  0
  152.0659  138.8990  154.4665 H   0  0  0  0  0  0  0  0  0  0  0  0
  150.4571  140.7031  154.0475 H   0  0  0  0  0  0  0  0  0  0  0  0
  149.7283  140.5021  155.6285 H   0  0  0  0  0  0  0  0  0  0  0  0
  149.5803  139.2294  154.4151 H   0  0  0  0  0  0  0  0  0  0  0  0
  149.8421  139.1047  157.7483 H   0  0  0  0  0  0  0  0  0  0  0  0
  151.0892  138.3047  158.6374 H   0  0  0  0  0  0  0  0  0  0  0  0
  152.6090  140.1755  158.1813 H   0  0  0  0  0  0  0  0  0  0  0  0
  153.0064  142.3311  157.9085 H   0  0  0  0  0  0  0  0  0  0  0  0
  151.6793  143.4268  157.5618 H   0  0  0  0  0  0  0  0  0  0  0  0
  153.0502  143.2343  163.7439 H   0  0  0  0  0  0  0  0  0  0  0  0
  154.2397  142.3323  162.8109 H   0  0  0  0  0  0  0  0  0  0  0  0
  152.6848  141.5985  163.2030 H   0  0  0  0  0  0  0  0  0  0  0  0
  151.8305  145.1473  162.1395 H   0  0  0  0  0  0  0  0  0  0  0  0
  150.7179  146.2487  159.8760 H   0  0  0  0  0  0  0  0  0  0  0  0
  150.1468  145.0145  158.7544 H   0  0  0  0  0  0  0  0  0  0  0  0
  151.7227  145.7725  158.5086 H   0  0  0  0  0  0  0  0  0  0  0  0
  1  2  1  0  0  0  0
  1 21  1  0  0  0  0
  1 22  1  0  0  0  0
  1 23  1  0  0  0  0
  2  3  1  0  0  0  0
  2 24  1  0  0  0  0
  2 25  1  0  0  0  0
  3  4  1  0  0  0  0
  3  6  1  0  0  0  0
  3 18  1  0  0  0  0
  4  5  1  0  0  0  0
  4 26  1  0  0  0  0
  4 27  1  0  0  0  0
  5 28  1  0  0  0  0
  5 29  1  0  0  0  0
  5 30  1  0  0  0  0
  6  7  1  0  0  0  0
  6 31  1  0  0  0  0
  6 32  1  0  0  0  0
  7  8  1  0  0  0  0
  7 33  1  0  0  0  0
  8  9  2  0  0  0  0
  8 10  1  0  0  0  0
 10 11  1  0  0  0  0
 10 34  1  0  0  0  0
 10 35  1  0  0  0  0
 11 16  1  0  0  0  0
 11 12  1  0  0  0  0
 12 13  2  0  0  0  0
 13 14  1  0  0  0  0
 13 15  1  0  0  0  0
 14 36  1  0  0  0  0
 14 37  1  0  0  0  0
 14 38  1  0  0  0  0
 15 16  2  0  0  0  0
 15 39  1  0  0  0  0
 16 17  1  0  0  0  0
 17 40  1  0  0  0  0
 17 41  1  0  0  0  0
 17 42  1  0  0  0  0
 18 19  2  0  0  0  0
 18 20  1  0  0  0  0
M  CHG  1  20  -1
M  END
> <s_m_source_file>
AV-unprocessed.smi

> <i_m_source_file_index>
2404

> <i_lp_mmshare_version>
43012

> <i_f3d_flags>
0

> <s_epik_input>
W0NIM11bQ0gyXUMoW0NIMl1bQ0gzXSkoQyg9TylbT0hdKVtDSDJdW05IXUMoPU8pW0NIMl1uMW5jKFtDSDNdKVtjSF1jMVtDSDNd

> <s_epik_cmdline>
J2VwaWtfcHl0aG9uJywgJy1waCcsICc3LjAnLCAnLXRuJywgJzgnLCAnLW1hJywgJzIwMCcsICctbWV0YWxfYmluZGluZycsICctaW1hZScsICc8aW5maWxlLm1hZT4nLCAnLW9tYWUnLCAnPG91dGZpbGUubWFlPic=

> <r_lp_tautomer_probability>
1

> <r_epik_Ionization_Penalty>
0.00271888

> <r_epik_Ionization_Penalty_Charging>
0.00235221

> <r_epik_Ionization_Penalty_Neutral>
0.000366676

> <r_epik_State_Penalty>
-0

> <r_epik_Charging_Adjusted_Penalty>
0.00235221

> <i_epik_Tot_Q>
-1

> <i_epik_Tot_abs_Q>
1

> <r_epik_Metal_State_Penalty>
-0

> <b_epik_Metal_Only>
0

> <s_lp_Force_Field>
OPLS_2005

> <r_lp_Energy>
2.14996

> <b_lp_Chiralities_Consistent>
1

> <s_lp_Variant>
AV-unprocessed.smi:2404-1

> <Gold.Version>
5.8.1

> <Gold.Id.Protein>
6NUR|6NUR_protein|mol2

> <Gold.PLP.Fitness>
50.0512

> <Gold.PLP.PLP>
-40.1081

> <Gold.PLP.part.hbond>
-2.0000

> <Gold.PLP.part.metal>
0.0000

> <Gold.PLP.part.buried>
-6.5555

> <Gold.PLP.part.nonpolar>
-32.8464

> <Gold.PLP.part.repulsive>
0.1440

> <Gold.PLP.ligand.clash>
0.0000

> <Gold.PLP.ligand.torsion>
0.5268

> <Gold.PLP.Chemscore.Hbond>
3.6320

> <Gold.PLP.Chemscore.CHOScore>
0.0000

> <Gold.PLP.Chemscore.Metal>
0.0000

> <Gold.Chemscore.Hbonds>
donor molecule, donor type, donor heavy atom, donor atom, acceptor molecule, acceptor atom, score
      P1  H  7997  8009       L1    20  1.73
      P1  H 10752 10765       L1    19  2.00

> <Gold.PLP.Chemscore.Internal.Correction>
0.1006

> <Gold.Rescore>
     Score         DG    S(hbond)    S(metal)    S(lipo)     H(rot)  DE(clash)    DE(int)     intcor
     15.39     -16.87       1.78        0.00      99.47       2.42       0.01       1.47       ----

> <Gold.Chemscore.Fitness>
15.3943

> <Gold.Chemscore.DG>
-16.8740

> <Gold.Chemscore.ZeroCoef>
-5.4800

> <Gold.Chemscore.Hbond>
1.7789

> <Gold.Chemscore.Metal>
0.0000

> <Gold.Chemscore.Lipo>
99.4651

> <Gold.Chemscore.Internal_Hbond>
0.0000

> <Gold.Chemscore.DEClash>
0.0128

> <Gold.Chemscore.DEInternal>
1.4670

> <Gold.Chemscore.Rot>
2.4159

> <Gold.Chemscore.Internal.Correction>
   9.000000E+99

> <Gold.Chemscore.Hbonds>
donor molecule, donor type, donor heavy atom, donor atom, acceptor molecule, acceptor atom, score
      P1  H  7997  8009       L1    20  0.85
      P1  H 10752 10765       L1    19  0.97

> <Gold.Chemscore.Hbond.Weighted>
-5.9414

> <Gold.Chemscore.Metal.Weighted>
-0.0000

> <Gold.Chemscore.Lipo.Weighted>
-11.6374

> <Gold.Chemscore.Internal_Hbond.Weighted>
0.0000

> <Gold.Chemscore.DEClash.Weighted>
0.0128

> <Gold.Chemscore.DEInternal.Weighted>
1.4670

> <Gold.Chemscore.Rot.Weighted>
6.1848

> <Gold.Chemscore.Internal.Correction.Weighted>
   9.000000E+99

> <Gold.Protein.RotatedTorsions>
[ 6907 6896 6895 6894 ] final  -55.63 input  -60.11 | X-H torsion
[ 7974 7965 7964 7962 ] final  152.39 input  175.53 | X-H torsion
[ 8008 7997 7996 7995 ] final  170.99 input   59.86 | X-H torsion
[ 10167 10162 10161 10158 ] final    9.91 input  -65.29 | X-H torsion
[ 10718 10713 10712 10709 ] final  158.75 input   66.30 | X-H torsion
[ 10763 10752 10751 10750 ] final -135.70 input  -60.55 | X-H torsion
[ 11005 11000 10999 10996 ] final  119.27 input  -57.11 | X-H torsion

> <Gold.Protein.ActiveResidues>
 VAL166  LYS551  ARG553  GLY616  TRP617  ASP618  TYR619  PRO620  LYS621  CYS622 
 ASP623  PHE694  ASN695  SER759  ASP760  ASP761  ALA762  ILE779  LEU786  VAL792 
 PHE793  MET794  SER795  GLU796  ALA797  LYS798  CYS799  TRP800  GLU811  SER814 

> <Gold.Protein.RotatedAtoms>
  150.8235  134.7455  159.6792 H   0  0  0  0  0  0  0  0  0  0  0  0  # atno 6907 bound_to 6896
  152.4348  134.5704  159.9929 H   0  0  0  0  0  0  0  0  0  0  0  0  # atno 6908 bound_to 6896
  151.5882  133.3332  159.3058 H   0  0  0  0  0  0  0  0  0  0  0  0  # atno 6909 bound_to 6896
  144.8226  139.6662  143.6094 H   0  0  0  0  0  0  0  0  0  0  0  0  # atno 7974 bound_to 7965
  156.1314  140.1523  156.9060 H   0  0  0  0  0  0  0  0  0  0  0  0  # atno 8008 bound_to 7997
  154.4912  140.0851  156.7638 H   0  0  0  0  0  0  0  0  0  0  0  0  # atno 8009 bound_to 7997
  155.4249  140.3424  155.4277 H   0  0  0  0  0  0  0  0  0  0  0  0  # atno 8010 bound_to 7997
  140.6226  143.8171  150.7194 H   0  0  0  0  0  0  0  0  0  0  0  0  # atno 10167 bound_to 10162
  157.1736  131.0616  151.2169 H   0  0  0  0  0  0  0  0  0  0  0  0  # atno 10718 bound_to 10713
  154.8698  135.3695  154.4941 H   0  0  0  0  0  0  0  0  0  0  0  0  # atno 10763 bound_to 10752
  153.5586  135.7023  153.5563 H   0  0  0  0  0  0  0  0  0  0  0  0  # atno 10764 bound_to 10752
  153.3649  135.4037  155.1709 H   0  0  0  0  0  0  0  0  0  0  0  0  # atno 10765 bound_to 10752
  139.9140  134.9627  156.7630 H   0  0  0  0  0  0  0  0  0  0  0  0  # atno 11005 bound_to 11000
  146.2531  139.6243  142.9413 LP  0  0  0  0  0  0  0  0  0  0  0  0  # atno 17320 bound_to 7965
  145.5072  141.0436  143.2508 LP  0  0  0  0  0  0  0  0  0  0  0  0  # atno 17321 bound_to 7965
  140.1764  143.4151  152.1964 LP  0  0  0  0  0  0  0  0  0  0  0  0  # atno 17342 bound_to 10162
  139.5452  144.7292  151.4606 LP  0  0  0  0  0  0  0  0  0  0  0  0  # atno 17343 bound_to 10162
  157.4019  130.7338  149.6774 LP  0  0  0  0  0  0  0  0  0  0  0  0  # atno 17370 bound_to 10713
  155.9734  130.4118  150.4001 LP  0  0  0  0  0  0  0  0  0  0  0  0  # atno 17371 bound_to 10713
  140.6682  133.9583  155.7842 LP  0  0  0  0  0  0  0  0  0  0  0  0  # atno 17394 bound_to 11000
  141.0596  134.0366  157.3676 LP  0  0  0  0  0  0  0  0  0  0  0  0  # atno 17395 bound_to 11000

$$$$
