AV-unprocessed.smi:269|AV-procd|sdf|2044|dock3
  -GOLD-   2262021263D 1   1.00000     0.00000
 Structure written by MMmdl.
 61 64  0  0  0  0  0  0  0  0  3 V2000
  146.7843  133.5826  150.0680 C   0  0  0  0  0  0  0  0  0  0  0  0
  145.6572  133.3996  151.0895 C   0  0  0  0  0  0  0  0  0  0  0  0
  145.7889  134.3921  152.1517 N   0  5  0  0  0  0  0  0  0  0  0  0
  146.9013  134.5243  152.9229 C   0  0  0  0  0  0  0  0  0  0  0  0
  147.9657  133.8970  152.9164 O   0  0  0  0  0  0  0  0  0  0  0  0
  146.7475  135.6762  153.9224 C   0  0  0  0  0  0  0  0  0  0  0  0
  147.8875  136.6176  153.7961 N   0  3  0  0  0  0  0  0  0  0  0  0
  149.0820  136.1628  154.5525 C   0  0  0  0  0  0  0  0  0  0  0  0
  150.2759  137.1088  154.3310 C   0  0  0  0  0  0  0  0  0  0  0  0
  149.9112  138.4881  154.6436 N   0  0  0  0  0  0  0  0  0  0  0  0
  150.1145  138.8933  155.9262 C   0  0  0  0  0  0  0  0  0  0  0  0
  150.2254  137.9683  156.9169 N   0  0  0  0  0  0  0  0  0  0  0  0
  150.4351  138.3477  158.1800 C   0  0  0  0  0  0  0  0  0  0  0  0
  150.5571  139.5819  158.6689 N   0  0  0  0  0  0  0  0  0  0  0  0
  150.4298  140.5194  157.6876 C   0  0  0  0  0  0  0  0  0  0  0  0
  150.2144  140.2642  156.3030 C   0  0  0  0  0  0  0  0  0  0  0  0
  150.1376  141.4673  155.6116 N   0  0  0  0  0  0  0  0  0  0  0  0
  150.3111  142.3775  156.5302 C   0  0  0  0  0  0  0  0  0  0  0  0
  150.4740  141.8982  157.8111 N   0  0  0  0  0  0  0  0  0  0  0  0
  150.6835  142.6858  159.0197 C   0  0  0  0  0  0  0  0  0  0  0  0
  151.9451  143.6078  159.0020 C   0  0  0  0  0  0  0  0  0  0  0  0
  151.7877  144.7465  157.9591 C   0  0  0  0  0  0  0  0  0  0  0  0
  150.5671  145.4446  158.1079 O   0  0  0  0  0  0  0  0  0  0  0  0
  152.1972  144.2662  160.3822 C   0  0  0  0  0  0  0  0  0  0  0  0
  152.6788  143.2616  161.4451 C   0  0  0  0  0  0  0  0  0  0  0  0
  153.8589  142.6104  160.9944 O   0  0  0  0  0  0  0  0  0  0  0  0
  153.6490  141.8525  159.8104 C   0  0  0  0  0  0  0  0  0  0  0  0
  153.2103  142.7795  158.6619 C   0  0  0  0  0  0  0  0  0  0  0  0
  148.7322  138.9668  153.9215 C   0  0  0  0  0  0  0  0  0  0  0  0
  147.5281  138.0251  154.1184 C   0  0  0  0  0  0  0  0  0  0  0  0
  146.7037  132.8449  149.2695 H   0  0  0  0  0  0  0  0  0  0  0  0
  147.7640  133.4621  150.5314 H   0  0  0  0  0  0  0  0  0  0  0  0
  146.7471  134.5713  149.6094 H   0  0  0  0  0  0  0  0  0  0  0  0
  144.7002  133.4811  150.5734 H   0  0  0  0  0  0  0  0  0  0  0  0
  145.7004  132.3835  151.4833 H   0  0  0  0  0  0  0  0  0  0  0  0
  145.7998  136.2091  153.8170 H   0  0  0  0  0  0  0  0  0  0  0  0
  146.7416  135.2311  154.9183 H   0  0  0  0  0  0  0  0  0  0  0  0
  148.8387  136.1094  155.6149 H   0  0  0  0  0  0  0  0  0  0  0  0
  149.3574  135.1556  154.2374 H   0  0  0  0  0  0  0  0  0  0  0  0
  151.1262  136.7649  154.9178 H   0  0  0  0  0  0  0  0  0  0  0  0
  150.5902  137.0671  153.2875 H   0  0  0  0  0  0  0  0  0  0  0  0
  150.5158  137.5485  158.9022 H   0  0  0  0  0  0  0  0  0  0  0  0
  150.3157  143.4317  156.2953 H   0  0  0  0  0  0  0  0  0  0  0  0
  149.7779  143.2649  159.1954 H   0  0  0  0  0  0  0  0  0  0  0  0
  150.7419  141.9911  159.8584 H   0  0  0  0  0  0  0  0  0  0  0  0
  152.6111  145.4576  158.0239 H   0  0  0  0  0  0  0  0  0  0  0  0
  151.8170  144.3447  156.9457 H   0  0  0  0  0  0  0  0  0  0  0  0
  149.9507  145.1127  157.4735 H   0  0  0  0  0  0  0  0  0  0  0  0
  152.9671  145.0325  160.2816 H   0  0  0  0  0  0  0  0  0  0  0  0
  151.3101  144.7917  160.7345 H   0  0  0  0  0  0  0  0  0  0  0  0
  152.9035  143.7856  162.3741 H   0  0  0  0  0  0  0  0  0  0  0  0
  151.9135  142.5230  161.6825 H   0  0  0  0  0  0  0  0  0  0  0  0
  154.5833  141.3560  159.5479 H   0  0  0  0  0  0  0  0  0  0  0  0
  152.9191  141.0631  159.9914 H   0  0  0  0  0  0  0  0  0  0  0  0
  153.0518  142.1909  157.7577 H   0  0  0  0  0  0  0  0  0  0  0  0
  154.0384  143.4541  158.4397 H   0  0  0  0  0  0  0  0  0  0  0  0
  148.4776  139.9862  154.2142 H   0  0  0  0  0  0  0  0  0  0  0  0
  148.9855  139.0147  152.8620 H   0  0  0  0  0  0  0  0  0  0  0  0
  146.7057  138.3622  153.4871 H   0  0  0  0  0  0  0  0  0  0  0  0
  147.1713  138.0756  155.1477 H   0  0  0  0  0  0  0  0  0  0  0  0
  148.1497  136.6021  152.8209 H   0  0  0  0  0  0  0  0  0  0  0  0
  1  2  1  0  0  0  0
  1 31  1  0  0  0  0
  1 32  1  0  0  0  0
  1 33  1  0  0  0  0
  2  3  1  0  0  0  0
  2 34  1  0  0  0  0
  2 35  1  0  0  0  0
  3  4  1  0  0  0  0
  4  5  2  0  0  0  0
  4  6  1  0  0  0  0
  6  7  1  0  0  0  0
  6 36  1  0  0  0  0
  6 37  1  0  0  0  0
  7 30  1  0  0  0  0
  7  8  1  0  0  0  0
  7 61  1  0  0  0  0
  8  9  1  0  0  0  0
  8 38  1  0  0  0  0
  8 39  1  0  0  0  0
  9 10  1  0  0  0  0
  9 40  1  0  0  0  0
  9 41  1  0  0  0  0
 10 11  1  0  0  0  0
 10 29  1  0  0  0  0
 11 16  1  0  0  0  0
 11 12  2  0  0  0  0
 12 13  1  0  0  0  0
 13 14  2  0  0  0  0
 13 42  1  0  0  0  0
 14 15  1  0  0  0  0
 15 19  1  0  0  0  0
 15 16  2  0  0  0  0
 16 17  1  0  0  0  0
 17 18  2  0  0  0  0
 18 19  1  0  0  0  0
 18 43  1  0  0  0  0
 19 20  1  0  0  0  0
 20 21  1  0  0  0  0
 20 44  1  0  0  0  0
 20 45  1  0  0  0  0
 21 28  1  0  0  0  0
 21 22  1  0  0  0  0
 21 24  1  0  0  0  0
 22 23  1  0  0  0  0
 22 46  1  0  0  0  0
 22 47  1  0  0  0  0
 23 48  1  0  0  0  0
 24 25  1  0  0  0  0
 24 49  1  0  0  0  0
 24 50  1  0  0  0  0
 25 26  1  0  0  0  0
 25 51  1  0  0  0  0
 25 52  1  0  0  0  0
 26 27  1  0  0  0  0
 27 28  1  0  0  0  0
 27 53  1  0  0  0  0
 27 54  1  0  0  0  0
 28 55  1  0  0  0  0
 28 56  1  0  0  0  0
 29 30  1  0  0  0  0
 29 57  1  0  0  0  0
 29 58  1  0  0  0  0
 30 59  1  0  0  0  0
 30 60  1  0  0  0  0
M  CHG  1   3  -1
M  CHG  1   7   1
M  END
> <s_m_source_file>
AV-unprocessed.smi

> <i_m_source_file_index>
269

> <i_lp_mmshare_version>
43012

> <i_f3d_flags>
0

> <s_epik_input>
W0NIM11bQ0gyXVtOSF1DKD1PKVtDSDJdTjFbQ0gyXVtDSDJdTihbQ0gyXVtDSDJdMSljKG5bY0hdbjIpYyhjMjMpbltjSF1uM1tDSDJdQzQoW0NIMl1bT0hdKVtDSDJdW0NIMl1PW0NIMl1bQ0gyXTQ=

> <s_epik_cmdline>
J2VwaWtfcHl0aG9uJywgJy1waCcsICc3LjAnLCAnLXRuJywgJzgnLCAnLW1hJywgJzIwMCcsICctbWV0YWxfYmluZGluZycsICctaW1hZScsICc8aW5maWxlLm1hZT4nLCAnLW9tYWUnLCAnPG91dGZpbGUubWFlPic=

> <r_lp_tautomer_probability>
1

> <r_epik_Ionization_Penalty>
6.2463

> <r_epik_Ionization_Penalty_Charging>
6.24626

> <r_epik_Ionization_Penalty_Neutral>
4.36947e-05

> <r_epik_State_Penalty>
6.38251

> <r_epik_Charging_Adjusted_Penalty>
12.6288

> <i_epik_Tot_Q>
0

> <i_epik_Tot_abs_Q>
2

> <r_epik_Metal_State_Penalty>
2.3175

> <b_epik_Metal_Only>
1

> <s_lp_Force_Field>
OPLS_2005

> <r_lp_Energy>
38.3131

> <b_lp_Chiralities_Consistent>
1

> <s_lp_Variant>
AV-unprocessed.smi:269-3

> <Gold.Version>
5.8.1

> <Gold.Id.Protein>
6NUR|6NUR_protein|mol2

> <Gold.PLP.Fitness>
50.7116

> <Gold.PLP.PLP>
-40.1264

> <Gold.PLP.part.hbond>
-4.3552

> <Gold.PLP.part.metal>
0.0000

> <Gold.PLP.part.buried>
0.1589

> <Gold.PLP.part.nonpolar>
-37.0880

> <Gold.PLP.part.repulsive>
0.4109

> <Gold.PLP.ligand.clash>
0.0000

> <Gold.PLP.ligand.torsion>
0.7596

> <Gold.PLP.Chemscore.Hbond>
2.9913

> <Gold.PLP.Chemscore.CHOScore>
0.8271

> <Gold.PLP.Chemscore.Metal>
0.0000

> <Gold.Chemscore.Hbonds>
donor molecule, donor type, donor heavy atom, donor atom, acceptor molecule, acceptor atom, score
      L1  H     7    61       P1  7948  0.88
      L1  H    23    48       P1  8028  0.30
      L1  C    18    43       P1  8028  0.97

> <Gold.PLP.Chemscore.Internal.Correction>
0.6494

> <Gold.Rescore>
     Score         DG    S(hbond)    S(metal)    S(lipo)     H(rot)  DE(clash)    DE(int)     intcor
     12.38     -15.76       1.57        0.00     114.79       3.28       2.49       0.89       ----

> <Gold.Chemscore.Fitness>
12.3756

> <Gold.Chemscore.DG>
-15.7645

> <Gold.Chemscore.ZeroCoef>
-5.4800

> <Gold.Chemscore.Hbond>
1.5733

> <Gold.Chemscore.Metal>
0.0000

> <Gold.Chemscore.Lipo>
114.7903

> <Gold.Chemscore.Internal_Hbond>
0.0000

> <Gold.Chemscore.DEClash>
2.4943

> <Gold.Chemscore.DEInternal>
0.8946

> <Gold.Chemscore.Rot>
3.2816

> <Gold.Chemscore.Internal.Correction>
   9.000000E+99

> <Gold.Chemscore.Hbonds>
donor molecule, donor type, donor heavy atom, donor atom, acceptor molecule, acceptor atom, score
      L1  H     7    61       P1  7948  0.42
      L1  H    23    48       P1  8028  0.01

> <Gold.Chemscore.Hbond.Weighted>
-5.2550

> <Gold.Chemscore.Metal.Weighted>
-0.0000

> <Gold.Chemscore.Lipo.Weighted>
-13.4305

> <Gold.Chemscore.Internal_Hbond.Weighted>
0.0000

> <Gold.Chemscore.DEClash.Weighted>
2.4943

> <Gold.Chemscore.DEInternal.Weighted>
0.8946

> <Gold.Chemscore.Rot.Weighted>
8.4009

> <Gold.Chemscore.Internal.Correction.Weighted>
   9.000000E+99

> <Gold.Protein.RotatedTorsions>
[ 6907 6896 6895 6894 ] final  115.60 input  -60.11 | X-H torsion
[ 7974 7965 7964 7962 ] final  118.71 input  175.53 | X-H torsion
[ 8008 7997 7996 7995 ] final  127.04 input   59.86 | X-H torsion
[ 10167 10162 10161 10158 ] final  169.49 input  -65.29 | X-H torsion
[ 10718 10713 10712 10709 ] final  110.79 input   66.30 | X-H torsion
[ 10763 10752 10751 10750 ] final  127.37 input  -60.55 | X-H torsion
[ 11005 11000 10999 10996 ] final  119.94 input  -57.11 | X-H torsion

> <Gold.Protein.ActiveResidues>
 VAL166  LYS551  ARG553  GLY616  TRP617  ASP618  TYR619  PRO620  LYS621  CYS622 
 ASP623  PHE694  ASN695  SER759  ASP760  ASP761  ALA762  ILE779  LEU786  VAL792 
 PHE793  MET794  SER795  GLU796  ALA797  LYS798  CYS799  TRP800  GLU811  SER814 

> <Gold.Protein.RotatedAtoms>
  152.4731  133.8075  159.6985 H   0  0  0  0  0  0  0  0  0  0  0  0  # atno 6907 bound_to 6896
  150.8731  133.7467  159.2961 H   0  0  0  0  0  0  0  0  0  0  0  0  # atno 6908 bound_to 6896
  151.4995  135.1064  159.9877 H   0  0  0  0  0  0  0  0  0  0  0  0  # atno 6909 bound_to 6896
  145.1519  139.3205  143.4562 H   0  0  0  0  0  0  0  0  0  0  0  0  # atno 7974 bound_to 7965
  156.2880  140.2678  156.2208 H   0  0  0  0  0  0  0  0  0  0  0  0  # atno 8008 bound_to 7997
  155.0169  140.0387  157.2440 H   0  0  0  0  0  0  0  0  0  0  0  0  # atno 8009 bound_to 7997
  154.7469  140.2735  155.6330 H   0  0  0  0  0  0  0  0  0  0  0  0  # atno 8010 bound_to 7997
  139.4994  144.3700  151.9734 H   0  0  0  0  0  0  0  0  0  0  0  0  # atno 10167 bound_to 10162
  157.6477  131.0939  150.6653 H   0  0  0  0  0  0  0  0  0  0  0  0  # atno 10718 bound_to 10713
  153.7083  135.3272  155.3240 H   0  0  0  0  0  0  0  0  0  0  0  0  # atno 10763 bound_to 10752
  154.8392  135.4471  154.1340 H   0  0  0  0  0  0  0  0  0  0  0  0  # atno 10764 bound_to 10752
  153.2426  135.6972  153.7845 H   0  0  0  0  0  0  0  0  0  0  0  0  # atno 10765 bound_to 10752
  139.9166  134.9632  156.7732 H   0  0  0  0  0  0  0  0  0  0  0  0  # atno 11005 bound_to 11000
  146.3493  140.1596  142.8591 LP  0  0  0  0  0  0  0  0  0  0  0  0  # atno 17320 bound_to 7965
  145.0422  140.8954  143.5046 LP  0  0  0  0  0  0  0  0  0  0  0  0  # atno 17321 bound_to 7965
  140.3136  144.3509  150.6027 LP  0  0  0  0  0  0  0  0  0  0  0  0  # atno 17342 bound_to 10162
  140.5779  143.2175  151.7482 LP  0  0  0  0  0  0  0  0  0  0  0  0  # atno 17343 bound_to 10162
  156.6968  130.4611  149.5584 LP  0  0  0  0  0  0  0  0  0  0  0  0  # atno 17370 bound_to 10713
  156.1823  130.6507  151.0966 LP  0  0  0  0  0  0  0  0  0  0  0  0  # atno 17371 bound_to 10713
  140.6604  133.9650  155.7802 LP  0  0  0  0  0  0  0  0  0  0  0  0  # atno 17394 bound_to 11000
  141.0647  134.0294  157.3610 LP  0  0  0  0  0  0  0  0  0  0  0  0  # atno 17395 bound_to 11000

$$$$
