AV-unprocessed.smi:691|AV-procd|sdf|3366|dock1
  -GOLD-   22720 0343D 1   1.00000     0.00000
 Structure written by MMmdl.
 37 38  0  0  0  0  0  0  0  0  1 V2000
  144.6752  132.9108  152.2642 C   0  0  0  0  0  0  0  0  0  0  0  0
  145.7095  134.0057  151.9108 C   0  0  1  0  0  0  0  0  0  0  0  0
  147.1389  133.4518  152.1482 C   0  0  0  0  0  0  0  0  0  0  0  0
  147.2929  132.1526  151.6128 O   0  0  0  0  0  0  0  0  0  0  0  0
  145.5189  134.4205  150.4409 C   0  0  0  0  0  0  0  0  0  0  0  0
  144.3606  135.4246  150.4253 C   0  0  0  0  0  0  0  0  0  0  0  0
  144.2715  136.0007  151.8451 C   0  0  0  0  0  0  0  0  0  0  0  0
  145.3803  135.3208  152.6674 C   0  0  2  0  0  0  0  0  0  0  0  0
  146.5320  136.2226  152.7551 N   0  0  0  0  0  0  0  0  0  0  0  0
  146.5443  137.4335  153.3307 C   0  0  0  0  0  0  0  0  0  0  0  0
  145.5599  137.9499  153.8584 O   0  0  0  0  0  0  0  0  0  0  0  0
  147.7697  137.9821  153.2680 N   0  0  0  0  0  0  0  0  0  0  0  0
  148.2078  139.2347  153.7769 C   0  0  0  0  0  0  0  0  0  0  0  0
  147.4097  140.4037  153.8194 C   0  0  0  0  0  0  0  0  0  0  0  0
  147.9678  141.5890  154.3359 C   0  0  0  0  0  0  0  0  0  0  0  0
  149.3028  141.5652  154.7834 C   0  0  0  0  0  0  0  0  0  0  0  0
  150.0796  140.4626  154.7351 N   0  0  0  0  0  0  0  0  0  0  0  0
  149.5379  139.3303  154.2383 C   0  0  0  0  0  0  0  0  0  0  0  0
  144.8566  131.9980  151.6961 H   0  0  0  0  0  0  0  0  0  0  0  0
  143.6534  133.2259  152.0527 H   0  0  0  0  0  0  0  0  0  0  0  0
  144.7162  132.6502  153.3220 H   0  0  0  0  0  0  0  0  0  0  0  0
  147.8784  134.1053  151.6843 H   0  0  0  0  0  0  0  0  0  0  0  0
  147.3855  133.4195  153.2099 H   0  0  0  0  0  0  0  0  0  0  0  0
  148.1513  132.0863  151.2230 H   0  0  0  0  0  0  0  0  0  0  0  0
  146.4181  134.9199  150.0777 H   0  0  0  0  0  0  0  0  0  0  0  0
  145.3393  133.5716  149.7800 H   0  0  0  0  0  0  0  0  0  0  0  0
  144.5234  136.2038  149.6800 H   0  0  0  0  0  0  0  0  0  0  0  0
  143.4268  134.9221  150.1704 H   0  0  0  0  0  0  0  0  0  0  0  0
  144.3547  137.0888  151.8488 H   0  0  0  0  0  0  0  0  0  0  0  0
  143.2963  135.7609  152.2710 H   0  0  0  0  0  0  0  0  0  0  0  0
  145.0101  135.0950  153.6688 H   0  0  0  0  0  0  0  0  0  0  0  0
  147.3941  135.8864  152.3520 H   0  0  0  0  0  0  0  0  0  0  0  0
  148.4927  137.4039  152.8654 H   0  0  0  0  0  0  0  0  0  0  0  0
  146.3936  140.4207  153.4572 H   0  0  0  0  0  0  0  0  0  0  0  0
  147.3862  142.4978  154.3837 H   0  0  0  0  0  0  0  0  0  0  0  0
  149.7608  142.4569  155.1849 H   0  0  0  0  0  0  0  0  0  0  0  0
  150.1892  138.4688  154.2138 H   0  0  0  0  0  0  0  0  0  0  0  0
  1  2  1  0  0  0  0
  1 19  1  0  0  0  0
  1 20  1  0  0  0  0
  1 21  1  0  0  0  0
  2  8  1  0  0  0  0
  2  3  1  0  0  0  0
  2  5  1  0  0  0  0
  3  4  1  0  0  0  0
  3 22  1  0  0  0  0
  3 23  1  0  0  0  0
  4 24  1  0  0  0  0
  5  6  1  0  0  0  0
  5 25  1  0  0  0  0
  5 26  1  0  0  0  0
  6  7  1  0  0  0  0
  6 27  1  0  0  0  0
  6 28  1  0  0  0  0
  7  8  1  0  0  0  0
  7 29  1  0  0  0  0
  7 30  1  0  0  0  0
  8  9  1  0  0  0  0
  8 31  1  0  0  0  0
  9 10  1  0  0  0  0
  9 32  1  0  0  0  0
 10 11  2  0  0  0  0
 10 12  1  0  0  0  0
 12 13  1  0  0  0  0
 12 33  1  0  0  0  0
 13 18  1  0  0  0  0
 13 14  2  0  0  0  0
 14 15  1  0  0  0  0
 14 34  1  0  0  0  0
 15 16  2  0  0  0  0
 15 35  1  0  0  0  0
 16 17  1  0  0  0  0
 16 36  1  0  0  0  0
 17 18  2  0  0  0  0
 18 37  1  0  0  0  0
M  END
> <s_m_source_file>
AV-unprocessed.smi

> <i_m_source_file_index>
691

> <i_lp_mmshare_version>
43012

> <i_f3d_flags>
0

> <s_epik_input>
W09IXVtDSDJdW0NAXTEoW0NIM10pW0NIMl1bQ0gyXVtDSDJdW0NASF0xW05IXUMoPU8pW05IXWMyW2NIXVtjSF1bY0hdbltjSF0y

> <s_epik_cmdline>
J2VwaWtfcHl0aG9uJywgJy1waCcsICc3LjAnLCAnLXRuJywgJzgnLCAnLW1hJywgJzIwMCcsICctbWV0YWxfYmluZGluZycsICctaW1hZScsICc8aW5maWxlLm1hZT4nLCAnLW9tYWUnLCAnPG91dGZpbGUubWFlPic=

> <r_epik_Ionization_Penalty>
0.00496828

> <r_epik_Ionization_Penalty_Charging>
0

> <r_epik_Ionization_Penalty_Neutral>
0.00496828

> <r_epik_State_Penalty>
0.00358054

> <r_epik_Charging_Adjusted_Penalty>
0.00358054

> <i_epik_Tot_Q>
0

> <i_epik_Tot_abs_Q>
0

> <r_epik_Metal_State_Penalty>
-0

> <b_epik_Metal_Only>
0

> <s_lp_Force_Field>
OPLS_2005

> <r_lp_Energy>
29.635

> <b_lp_Chiralities_Consistent>
1

> <s_lp_Variant>
AV-unprocessed.smi:691-3

> <Gold.Version>
5.8.1

> <Gold.Id.Protein>
6NUR|6NUR_protein|mol2

> <Gold.PLP.Fitness>
41.6200

> <Gold.PLP.PLP>
-28.4519

> <Gold.PLP.part.hbond>
-4.0000

> <Gold.PLP.part.metal>
0.0000

> <Gold.PLP.part.buried>
1.5951

> <Gold.PLP.part.nonpolar>
-25.7090

> <Gold.PLP.part.repulsive>
0.3101

> <Gold.PLP.ligand.clash>
0.0000

> <Gold.PLP.ligand.torsion>
0.3617

> <Gold.PLP.Chemscore.Hbond>
3.6240

> <Gold.PLP.Chemscore.CHOScore>
1.0000

> <Gold.PLP.Chemscore.Metal>
0.0000

> <Gold.Chemscore.Hbonds>
donor molecule, donor type, donor heavy atom, donor atom, acceptor molecule, acceptor atom, score
      L1  H     4    24       P1 10747  0.70
      L1  H     9    32       P1  7948  0.98
      L1  H    12    33       P1  7948  1.00
      P1  H  7989  7998       L1    17  0.94
      L1  C    16    36       P1  8028  1.00

> <Gold.PLP.Chemscore.Internal.Correction>
0.0196

> <Gold.Rescore>
     Score         DG    S(hbond)    S(metal)    S(lipo)     H(rot)  DE(clash)    DE(int)     intcor
     17.67     -18.96       2.98        0.00      69.29       1.78       0.30       0.99       ----

> <Gold.Chemscore.Fitness>
17.6690

> <Gold.Chemscore.DG>
-18.9587

> <Gold.Chemscore.ZeroCoef>
-5.4800

> <Gold.Chemscore.Hbond>
2.9757

> <Gold.Chemscore.Metal>
0.0000

> <Gold.Chemscore.Lipo>
69.2866

> <Gold.Chemscore.Internal_Hbond>
0.0000

> <Gold.Chemscore.DEClash>
0.3035

> <Gold.Chemscore.DEInternal>
0.9862

> <Gold.Chemscore.Rot>
1.7838

> <Gold.Chemscore.Internal.Correction>
   9.000000E+99

> <Gold.Chemscore.Hbonds>
donor molecule, donor type, donor heavy atom, donor atom, acceptor molecule, acceptor atom, score
      L1  H     4    24       P1 10747  0.70
      L1  H     9    32       P1  7948  0.93
      L1  H    12    33       P1  7948  0.94
      P1  H  7989  7998       L1    17  0.26

> <Gold.Chemscore.Hbond.Weighted>
-9.9387

> <Gold.Chemscore.Metal.Weighted>
-0.0000

> <Gold.Chemscore.Lipo.Weighted>
-8.1065

> <Gold.Chemscore.Internal_Hbond.Weighted>
0.0000

> <Gold.Chemscore.DEClash.Weighted>
0.3035

> <Gold.Chemscore.DEInternal.Weighted>
0.9862

> <Gold.Chemscore.Rot.Weighted>
4.5666

> <Gold.Chemscore.Internal.Correction.Weighted>
   9.000000E+99

> <Gold.Protein.RotatedTorsions>
[ 6907 6896 6895 6894 ] final   78.16 input  -60.11 | X-H torsion
[ 7974 7965 7964 7962 ] final  -54.78 input  175.53 | X-H torsion
[ 8008 7997 7996 7995 ] final -170.27 input   59.86 | X-H torsion
[ 10167 10162 10161 10158 ] final  166.72 input  -65.29 | X-H torsion
[ 10718 10713 10712 10709 ] final -152.11 input   66.30 | X-H torsion
[ 10763 10752 10751 10750 ] final  169.86 input  -60.55 | X-H torsion
[ 11005 11000 10999 10996 ] final  -11.14 input  -57.11 | X-H torsion

> <Gold.Protein.ActiveResidues>
 VAL166  LYS551  ARG553  GLY616  TRP617  ASP618  TYR619  PRO620  LYS621  CYS622 
 ASP623  PHE694  ASN695  SER759  ASP760  ASP761  ALA762  ILE779  LEU786  VAL792 
 PHE793  MET794  SER795  GLU796  ALA797  LYS798  CYS799  TRP800  GLU811  SER814 

> <Gold.Protein.RotatedAtoms>
  152.5148  134.3706  159.9316 H   0  0  0  0  0  0  0  0  0  0  0  0  # atno 6907 bound_to 6896
  151.3660  133.3866  159.2702 H   0  0  0  0  0  0  0  0  0  0  0  0  # atno 6908 bound_to 6896
  150.9614  134.9021  159.7791 H   0  0  0  0  0  0  0  0  0  0  0  0  # atno 6909 bound_to 6896
  145.8817  140.8139  142.9836 H   0  0  0  0  0  0  0  0  0  0  0  0  # atno 7974 bound_to 7965
  155.9161  140.1066  157.1243 H   0  0  0  0  0  0  0  0  0  0  0  0  # atno 8008 bound_to 7997
  154.4047  140.1265  156.4684 H   0  0  0  0  0  0  0  0  0  0  0  0  # atno 8009 bound_to 7997
  155.7252  140.3469  155.5036 H   0  0  0  0  0  0  0  0  0  0  0  0  # atno 8010 bound_to 7997
  139.4930  144.3998  151.9423 H   0  0  0  0  0  0  0  0  0  0  0  0  # atno 10167 bound_to 10162
  156.4681  130.8245  151.2475 H   0  0  0  0  0  0  0  0  0  0  0  0  # atno 10718 bound_to 10713
  154.3893  135.2754  155.2164 H   0  0  0  0  0  0  0  0  0  0  0  0  # atno 10763 bound_to 10752
  154.4237  135.5994  153.6029 H   0  0  0  0  0  0  0  0  0  0  0  0  # atno 10764 bound_to 10752
  152.9832  135.5979  154.4146 H   0  0  0  0  0  0  0  0  0  0  0  0  # atno 10765 bound_to 10752
  140.7522  133.8583  155.9054 H   0  0  0  0  0  0  0  0  0  0  0  0  # atno 11005 bound_to 11000
  144.6727  140.1394  143.7438 LP  0  0  0  0  0  0  0  0  0  0  0  0  # atno 17320 bound_to 7965
  145.9015  139.2433  143.1490 LP  0  0  0  0  0  0  0  0  0  0  0  0  # atno 17321 bound_to 7965
  140.3437  144.3173  150.5962 LP  0  0  0  0  0  0  0  0  0  0  0  0  # atno 17342 bound_to 10162
  140.5544  143.2201  151.7872 LP  0  0  0  0  0  0  0  0  0  0  0  0  # atno 17343 bound_to 10162
  157.7493  131.0085  150.3231 LP  0  0  0  0  0  0  0  0  0  0  0  0  # atno 17370 bound_to 10713
  156.3647  130.3853  149.7223 LP  0  0  0  0  0  0  0  0  0  0  0  0  # atno 17371 bound_to 10713
  140.9740  134.1493  157.4552 LP  0  0  0  0  0  0  0  0  0  0  0  0  # atno 17394 bound_to 11000
  139.8785  134.9988  156.5921 LP  0  0  0  0  0  0  0  0  0  0  0  0  # atno 17395 bound_to 11000

$$$$
