AV-unprocessed.smi:1163|AV-procd|sdf|4922|dock3
  -GOLD-   22720 3503D 1   1.00000     0.00000
 Structure written by MMmdl.
 40 41  0  0  0  0  0  0  0  0  2 V2000
  153.6810  141.7707  161.0613 C   0  0  0  0  0  0  0  0  0  0  0  0
  153.1125  142.9022  160.4113 O   0  0  0  0  0  0  0  0  0  0  0  0
  152.2410  142.6862  159.3635 C   0  0  0  0  0  0  0  0  0  0  0  0
  151.6689  143.8023  158.7211 C   0  0  0  0  0  0  0  0  0  0  0  0
  150.7821  143.5909  157.6482 C   0  0  0  0  0  0  0  0  0  0  0  0
  150.5000  142.2639  157.2455 C   0  0  0  0  0  0  0  0  0  0  0  0
  149.6116  141.9213  156.1910 N   0  0  0  0  0  0  0  0  0  0  0  0
  149.5667  140.7839  155.4766 C   0  0  0  0  0  0  0  0  0  0  0  0
  150.3067  139.8132  155.6338 O   0  0  0  0  0  0  0  0  0  0  0  0
  148.5837  140.8184  154.5659 N   0  0  0  0  0  0  0  0  0  0  0  0
  148.2671  139.7331  153.6432 C   0  0  2  0  0  0  0  0  0  0  0  0
  147.2791  140.1311  152.5477 C   0  0  0  0  0  0  0  0  0  0  0  0
  146.5421  138.8260  152.1996 C   0  0  0  0  0  0  0  0  0  0  0  0
  146.9453  137.8179  153.2107 N   0  3  2  0  0  0  0  0  0  0  0  0
  145.8843  136.8689  153.6267 C   0  0  0  0  0  0  0  0  0  0  0  0
  145.7724  135.6531  152.6902 C   0  0  0  0  0  0  0  0  0  0  0  0
  144.6111  135.0391  152.9116 F   0  0  0  0  0  0  0  0  0  0  0  0
  145.8162  136.0240  151.4111 F   0  0  0  0  0  0  0  0  0  0  0  0
  146.7633  134.7952  152.9333 F   0  0  0  0  0  0  0  0  0  0  0  0
  147.5544  138.5653  154.3248 C   0  0  0  0  0  0  0  0  0  0  0  0
  151.1104  141.2162  157.9655 C   0  0  0  0  0  0  0  0  0  0  0  0
  151.9631  141.4118  158.9931 N   0  0  0  0  0  0  0  0  0  0  0  0
  154.3415  142.1077  161.8602 H   0  0  0  0  0  0  0  0  0  0  0  0
  154.2767  141.1717  160.3708 H   0  0  0  0  0  0  0  0  0  0  0  0
  152.9130  141.1399  161.5114 H   0  0  0  0  0  0  0  0  0  0  0  0
  151.9036  144.8045  159.0477 H   0  0  0  0  0  0  0  0  0  0  0  0
  150.3289  144.4446  157.1686 H   0  0  0  0  0  0  0  0  0  0  0  0
  148.8852  142.5965  156.0020 H   0  0  0  0  0  0  0  0  0  0  0  0
  148.0190  141.6532  154.5038 H   0  0  0  0  0  0  0  0  0  0  0  0
  149.1844  139.3719  153.1734 H   0  0  0  0  0  0  0  0  0  0  0  0
  146.5628  140.8617  152.9270 H   0  0  0  0  0  0  0  0  0  0  0  0
  147.7763  140.5732  151.6836 H   0  0  0  0  0  0  0  0  0  0  0  0
  145.4641  138.9943  152.2091 H   0  0  0  0  0  0  0  0  0  0  0  0
  146.8137  138.4682  151.2059 H   0  0  0  0  0  0  0  0  0  0  0  0
  146.1262  136.5095  154.6280 H   0  0  0  0  0  0  0  0  0  0  0  0
  144.9266  137.3850  153.7069 H   0  0  0  0  0  0  0  0  0  0  0  0
  148.2334  137.9361  154.9017 H   0  0  0  0  0  0  0  0  0  0  0  0
  146.7742  138.9312  154.9955 H   0  0  0  0  0  0  0  0  0  0  0  0
  150.9153  140.1858  157.7058 H   0  0  0  0  0  0  0  0  0  0  0  0
  147.6919  137.2758  152.7992 H   0  0  0  0  0  0  0  0  0  0  0  0
  1  2  1  0  0  0  0
  1 23  1  0  0  0  0
  1 24  1  0  0  0  0
  1 25  1  0  0  0  0
  2  3  1  0  0  0  0
  3 22  1  0  0  0  0
  3  4  2  0  0  0  0
  4  5  1  0  0  0  0
  4 26  1  0  0  0  0
  5  6  2  0  0  0  0
  5 27  1  0  0  0  0
  6  7  1  0  0  0  0
  6 21  1  0  0  0  0
  7  8  1  0  0  0  0
  7 28  1  0  0  0  0
  8  9  2  0  0  0  0
  8 10  1  0  0  0  0
 10 11  1  0  0  0  0
 10 29  1  0  0  0  0
 11 20  1  0  0  0  0
 11 12  1  0  0  0  0
 11 30  1  0  0  0  0
 12 13  1  0  0  0  0
 12 31  1  0  0  0  0
 12 32  1  0  0  0  0
 13 14  1  0  0  0  0
 13 33  1  0  0  0  0
 13 34  1  0  0  0  0
 14 15  1  0  0  0  0
 14 20  1  0  0  0  0
 14 40  1  0  0  0  0
 15 16  1  0  0  0  0
 15 35  1  0  0  0  0
 15 36  1  0  0  0  0
 16 17  1  0  0  0  0
 16 18  1  0  0  0  0
 16 19  1  0  0  0  0
 20 37  1  0  0  0  0
 20 38  1  0  0  0  0
 21 22  2  0  0  0  0
 21 39  1  0  0  0  0
M  CHG  1  14   1
M  END
> <s_m_source_file>
AV-unprocessed.smi

> <i_m_source_file_index>
1163

> <i_lp_mmshare_version>
43012

> <i_f3d_flags>
0

> <s_epik_input>
W0NIM11PYzFbY0hdW2NIXWMoW2NIXW4xKVtOSF1DKD1PKVtOSF1bQ0BASF0yW0NIMl1bQ0gyXU4oW0NIMl0yKVtDSDJdQyhGKShGKUY=

> <s_epik_cmdline>
J2VwaWtfcHl0aG9uJywgJy1waCcsICc3LjAnLCAnLXRuJywgJzgnLCAnLW1hJywgJzIwMCcsICctbWV0YWxfYmluZGluZycsICctaW1hZScsICc8aW5maWxlLm1hZT4nLCAnLW9tYWUnLCAnPG91dGZpbGUubWFlPic=

> <r_lp_tautomer_probability>
1

> <r_epik_Ionization_Penalty>
1.12054

> <r_epik_Ionization_Penalty_Charging>
1.12047

> <r_epik_Ionization_Penalty_Neutral>
7.20346e-05

> <r_epik_State_Penalty>
1.17927

> <r_epik_Charging_Adjusted_Penalty>
2.29974

> <i_epik_Tot_Q>
1

> <i_epik_Tot_abs_Q>
1

> <r_epik_Metal_State_Penalty>
1.17928

> <b_epik_Metal_Only>
0

> <s_lp_Force_Field>
OPLS_2005

> <r_lp_Energy>
30.0061

> <b_lp_Chiralities_Consistent>
1

> <s_lp_Variant>
AV-unprocessed.smi:1163-3

> <Gold.Version>
5.8.1

> <Gold.Id.Protein>
6NUR|6NUR_protein|mol2

> <Gold.PLP.Fitness>
42.1512

> <Gold.PLP.PLP>
-34.1763

> <Gold.PLP.part.hbond>
-2.0000

> <Gold.PLP.part.metal>
0.0000

> <Gold.PLP.part.buried>
5.2674

> <Gold.PLP.part.nonpolar>
-37.6349

> <Gold.PLP.part.repulsive>
0.3411

> <Gold.PLP.ligand.clash>
0.0000

> <Gold.PLP.ligand.torsion>
0.7619

> <Gold.PLP.Chemscore.Hbond>
2.9920

> <Gold.PLP.Chemscore.CHOScore>
0.0000

> <Gold.PLP.Chemscore.Metal>
0.0000

> <Gold.Chemscore.Hbonds>
donor molecule, donor type, donor heavy atom, donor atom, acceptor molecule, acceptor atom, score
      L1  H     7    28       P1  8028  0.49
      L1  H    14    40       P1  7948  2.00

> <Gold.PLP.Chemscore.Internal.Correction>
0.5228

> <Gold.Rescore>
     Score         DG    S(hbond)    S(metal)    S(lipo)     H(rot)  DE(clash)    DE(int)     intcor
     12.06     -17.84       1.92        0.00      87.69       1.68       3.86       1.92       ----

> <Gold.Chemscore.Fitness>
12.0572

> <Gold.Chemscore.DG>
-17.8421

> <Gold.Chemscore.ZeroCoef>
-5.4800

> <Gold.Chemscore.Hbond>
1.9155

> <Gold.Chemscore.Metal>
0.0000

> <Gold.Chemscore.Lipo>
87.6880

> <Gold.Chemscore.Internal_Hbond>
0.0000

> <Gold.Chemscore.DEClash>
3.8626

> <Gold.Chemscore.DEInternal>
1.9222

> <Gold.Chemscore.Rot>
1.6778

> <Gold.Chemscore.Internal.Correction>
   9.000000E+99

> <Gold.Chemscore.Hbonds>
donor molecule, donor type, donor heavy atom, donor atom, acceptor molecule, acceptor atom, score
      L1  H     7    28       P1  8028  0.48
      L1  H    14    40       P1  7948  1.00

> <Gold.Chemscore.Hbond.Weighted>
-6.3977

> <Gold.Chemscore.Metal.Weighted>
-0.0000

> <Gold.Chemscore.Lipo.Weighted>
-10.2595

> <Gold.Chemscore.Internal_Hbond.Weighted>
0.0000

> <Gold.Chemscore.DEClash.Weighted>
3.8626

> <Gold.Chemscore.DEInternal.Weighted>
1.9222

> <Gold.Chemscore.Rot.Weighted>
4.2951

> <Gold.Chemscore.Internal.Correction.Weighted>
   9.000000E+99

> <Gold.Protein.RotatedTorsions>
[ 6907 6896 6895 6894 ] final  -39.04 input  -60.11 | X-H torsion
[ 7974 7965 7964 7962 ] final   37.73 input  175.53 | X-H torsion
[ 8008 7997 7996 7995 ] final -171.48 input   59.86 | X-H torsion
[ 10167 10162 10161 10158 ] final  -12.76 input  -65.29 | X-H torsion
[ 10718 10713 10712 10709 ] final  -22.65 input   66.30 | X-H torsion
[ 10763 10752 10751 10750 ] final   -7.29 input  -60.55 | X-H torsion
[ 11005 11000 10999 10996 ] final  -20.87 input  -57.11 | X-H torsion

> <Gold.Protein.ActiveResidues>
 VAL166  LYS551  ARG553  GLY616  TRP617  ASP618  TYR619  PRO620  LYS621  CYS622 
 ASP623  PHE694  ASN695  SER759  ASP760  ASP761  ALA762  ILE779  LEU786  VAL792 
 PHE793  MET794  SER795  GLU796  ALA797  LYS798  CYS799  TRP800  GLU811  SER814 

> <Gold.Protein.RotatedAtoms>
  150.9951  134.9277  159.7921 H   0  0  0  0  0  0  0  0  0  0  0  0  # atno 6907 bound_to 6896
  152.5262  134.3229  159.9165 H   0  0  0  0  0  0  0  0  0  0  0  0  # atno 6908 bound_to 6896
  151.3235  133.3989  159.2691 H   0  0  0  0  0  0  0  0  0  0  0  0  # atno 6909 bound_to 6896
  146.1115  139.5858  142.9349 H   0  0  0  0  0  0  0  0  0  0  0  0  # atno 7974 bound_to 7965
  155.9321  140.1093  157.1123 H   0  0  0  0  0  0  0  0  0  0  0  0  # atno 8008 bound_to 7997
  154.4073  140.1235  156.4882 H   0  0  0  0  0  0  0  0  0  0  0  0  # atno 8009 bound_to 7997
  155.7066  140.3471  155.4958 H   0  0  0  0  0  0  0  0  0  0  0  0  # atno 8010 bound_to 7997
  140.7168  143.5497  150.9314 H   0  0  0  0  0  0  0  0  0  0  0  0  # atno 10167 bound_to 10162
  156.5016  130.4589  149.6697 H   0  0  0  0  0  0  0  0  0  0  0  0  # atno 10718 bound_to 10713
  153.4243  135.7010  153.6273 H   0  0  0  0  0  0  0  0  0  0  0  0  # atno 10763 bound_to 10752
  153.4714  135.3714  155.2393 H   0  0  0  0  0  0  0  0  0  0  0  0  # atno 10764 bound_to 10752
  154.8723  135.4044  154.3617 H   0  0  0  0  0  0  0  0  0  0  0  0  # atno 10765 bound_to 10752
  140.8506  133.7859  155.9962 H   0  0  0  0  0  0  0  0  0  0  0  0  # atno 11005 bound_to 11000
  145.5653  141.0400  143.2203 LP  0  0  0  0  0  0  0  0  0  0  0  0  # atno 17320 bound_to 7965
  144.7516  139.7180  143.7271 LP  0  0  0  0  0  0  0  0  0  0  0  0  # atno 17321 bound_to 7965
  139.9222  143.6593  152.3094 LP  0  0  0  0  0  0  0  0  0  0  0  0  # atno 17342 bound_to 10162
  139.7014  144.7634  151.1267 LP  0  0  0  0  0  0  0  0  0  0  0  0  # atno 17343 bound_to 10162
  156.3327  130.7340  151.2272 LP  0  0  0  0  0  0  0  0  0  0  0  0  # atno 17370 bound_to 10713
  157.7462  131.0425  150.4700 LP  0  0  0  0  0  0  0  0  0  0  0  0  # atno 17371 bound_to 10713
  140.8794  134.2630  157.5152 LP  0  0  0  0  0  0  0  0  0  0  0  0  # atno 17394 bound_to 11000
  139.8704  134.9607  156.4373 LP  0  0  0  0  0  0  0  0  0  0  0  0  # atno 17395 bound_to 11000

$$$$
