AV-unprocessed.smi:3146|AV-procd|sdf|11985|dock6
  -GOLD-   2272017393D 1   1.00000     0.00000
 Structure written by MMmdl.
 35 36  0  0  0  0  0  0  0  0  2 V2000
  152.8689  141.3676  158.9451 O   0  0  0  0  0  0  0  0  0  0  0  0
  152.4316  142.5159  158.8538 C   0  0  0  0  0  0  0  0  0  0  0  0
  151.9689  143.0468  157.4894 C   0  0  0  0  0  0  0  0  0  0  0  0
  150.5242  142.8366  157.2646 N   0  3  0  0  0  0  0  0  0  0  0  0
  150.1801  141.4972  156.7466 C   0  0  0  0  0  0  0  0  0  0  0  0
  151.4347  140.6984  156.3579 C   0  0  0  0  0  0  0  0  0  0  0  0
  151.1203  139.5473  155.5309 N   0  0  0  0  0  0  0  0  0  0  0  0
  151.4743  138.2288  155.7270 C   0  0  0  0  0  0  0  0  0  0  0  0
  150.9472  137.5092  154.6931 C   0  0  0  0  0  0  0  0  0  0  0  0
  150.2806  138.4878  153.9038 C   0  0  0  0  0  0  0  0  0  0  0  0
  150.3843  139.7066  154.4093 N   0  0  0  0  0  0  0  0  0  0  0  0
  152.3395  143.3358  159.9210 N   0  0  0  0  0  0  0  0  0  0  0  0
  152.7336  143.0032  161.2898 C   0  0  0  0  0  0  0  0  0  0  0  0
  152.6543  144.3143  162.0728 C   0  0  0  0  0  0  0  0  0  0  0  0
  151.6431  145.1508  161.3009 C   0  0  0  0  0  0  0  0  0  0  0  0
  151.8132  144.6977  159.8508 C   0  0  0  0  0  0  0  0  0  0  0  0
  152.1867  144.1138  157.4274 H   0  0  0  0  0  0  0  0  0  0  0  0
  152.5266  142.5453  156.6973 H   0  0  0  0  0  0  0  0  0  0  0  0
  150.0414  142.9744  158.1415 H   0  0  0  0  0  0  0  0  0  0  0  0
  149.6278  140.9567  157.5161 H   0  0  0  0  0  0  0  0  0  0  0  0
  149.5165  141.5941  155.8863 H   0  0  0  0  0  0  0  0  0  0  0  0
  152.1517  141.3319  155.8332 H   0  0  0  0  0  0  0  0  0  0  0  0
  151.9364  140.3408  157.2578 H   0  0  0  0  0  0  0  0  0  0  0  0
  152.0644  137.9151  156.5757 H   0  0  0  0  0  0  0  0  0  0  0  0
  151.0270  136.4453  154.5247 H   0  0  0  0  0  0  0  0  0  0  0  0
  149.7276  138.3495  152.9863 H   0  0  0  0  0  0  0  0  0  0  0  0
  152.0309  142.2746  161.6966 H   0  0  0  0  0  0  0  0  0  0  0  0
  153.7368  142.5780  161.3426 H   0  0  0  0  0  0  0  0  0  0  0  0
  152.3743  144.1677  163.1165 H   0  0  0  0  0  0  0  0  0  0  0  0
  153.6257  144.8104  162.0547 H   0  0  0  0  0  0  0  0  0  0  0  0
  150.6351  144.9119  161.6428 H   0  0  0  0  0  0  0  0  0  0  0  0
  151.7941  146.2229  161.4300 H   0  0  0  0  0  0  0  0  0  0  0  0
  152.5357  145.3309  159.3340 H   0  0  0  0  0  0  0  0  0  0  0  0
  150.8686  144.7470  159.3070 H   0  0  0  0  0  0  0  0  0  0  0  0
  150.1967  143.5329  156.6101 H   0  0  0  0  0  0  0  0  0  0  0  0
  1  2  2  0  0  0  0
  2  3  1  0  0  0  0
  2 12  1  0  0  0  0
  3  4  1  0  0  0  0
  3 17  1  0  0  0  0
  3 18  1  0  0  0  0
  4  5  1  0  0  0  0
  4 19  1  0  0  0  0
  4 35  1  0  0  0  0
  5  6  1  0  0  0  0
  5 20  1  0  0  0  0
  5 21  1  0  0  0  0
  6  7  1  0  0  0  0
  6 22  1  0  0  0  0
  6 23  1  0  0  0  0
  7 11  1  0  0  0  0
  7  8  1  0  0  0  0
  8  9  2  0  0  0  0
  8 24  1  0  0  0  0
  9 10  1  0  0  0  0
  9 25  1  0  0  0  0
 10 11  2  0  0  0  0
 10 26  1  0  0  0  0
 12 16  1  0  0  0  0
 12 13  1  0  0  0  0
 13 14  1  0  0  0  0
 13 27  1  0  0  0  0
 13 28  1  0  0  0  0
 14 15  1  0  0  0  0
 14 29  1  0  0  0  0
 14 30  1  0  0  0  0
 15 16  1  0  0  0  0
 15 31  1  0  0  0  0
 15 32  1  0  0  0  0
 16 33  1  0  0  0  0
 16 34  1  0  0  0  0
M  CHG  1   4   1
M  END
> <s_m_source_file>
AV-unprocessed.smi

> <i_m_source_file_index>
3146

> <i_lp_mmshare_version>
43012

> <i_f3d_flags>
0

> <s_epik_input>
W0NIMl0xW0NIMl1bQ0gyXVtDSDJdTjFDKD1PKVtDSDJdW05IXVtDSDJdW0NIMl1uMltjSF1bY0hdW2NIXW4y

> <s_epik_cmdline>
J2VwaWtfcHl0aG9uJywgJy1waCcsICc3LjAnLCAnLXRuJywgJzgnLCAnLW1hJywgJzIwMCcsICctbWV0YWxfYmluZGluZycsICctaW1hZScsICc8aW5maWxlLm1hZT4nLCAnLW9tYWUnLCAnPG91dGZpbGUubWFlPic=

> <r_lp_tautomer_probability>
1

> <r_epik_Ionization_Penalty>
0.203171

> <r_epik_Ionization_Penalty_Charging>
0.203168

> <r_epik_Ionization_Penalty_Neutral>
2.33614e-06

> <r_epik_State_Penalty>
0.193072

> <r_epik_Charging_Adjusted_Penalty>
0.39624

> <i_epik_Tot_Q>
1

> <i_epik_Tot_abs_Q>
1

> <r_epik_Metal_State_Penalty>
0.193553

> <b_epik_Metal_Only>
0

> <s_lp_Force_Field>
OPLS_2005

> <r_lp_Energy>
25.7734

> <b_lp_Chiralities_Consistent>
1

> <s_lp_Variant>
AV-unprocessed.smi:3146-1

> <Gold.Version>
5.8.1

> <Gold.Id.Protein>
6NUR|6NUR_protein|mol2

> <Gold.PLP.Fitness>
42.7001

> <Gold.PLP.PLP>
-32.9671

> <Gold.PLP.part.hbond>
-2.0000

> <Gold.PLP.part.metal>
0.0000

> <Gold.PLP.part.buried>
-0.1986

> <Gold.PLP.part.nonpolar>
-30.6209

> <Gold.PLP.part.repulsive>
0.1508

> <Gold.PLP.ligand.clash>
3.1861

> <Gold.PLP.ligand.torsion>
0.9590

> <Gold.PLP.Chemscore.Hbond>
3.0000

> <Gold.PLP.Chemscore.CHOScore>
1.9374

> <Gold.PLP.Chemscore.Metal>
0.0000

> <Gold.Chemscore.Hbonds>
donor molecule, donor type, donor heavy atom, donor atom, acceptor molecule, acceptor atom, score
      L1  H     4    35       P1  8028  2.00
      P1  H  7989  7998       L1    11  0.85
      L1  C    10    26       P1  7948  1.00
      L1  C    10    26       P1  7957  0.89

> <Gold.PLP.Chemscore.Internal.Correction>
0.0249

> <Gold.Rescore>
     Score         DG    S(hbond)    S(metal)    S(lipo)     H(rot)  DE(clash)    DE(int)     intcor
     12.08     -17.75       1.89        0.00      92.46       1.90       3.74       1.94       ----

> <Gold.Chemscore.Fitness>
12.0777

> <Gold.Chemscore.DG>
-17.7530

> <Gold.Chemscore.ZeroCoef>
-5.4800

> <Gold.Chemscore.Hbond>
1.8898

> <Gold.Chemscore.Metal>
0.0000

> <Gold.Chemscore.Lipo>
92.4636

> <Gold.Chemscore.Internal_Hbond>
0.0000

> <Gold.Chemscore.DEClash>
3.7357

> <Gold.Chemscore.DEInternal>
1.9397

> <Gold.Chemscore.Rot>
1.8974

> <Gold.Chemscore.Internal.Correction>
   9.000000E+99

> <Gold.Chemscore.Hbonds>
donor molecule, donor type, donor heavy atom, donor atom, acceptor molecule, acceptor atom, score
      L1  H     4    35       P1  8028  0.95
      P1  H  7989  7998       L1    11  0.13

> <Gold.Chemscore.Hbond.Weighted>
-6.3120

> <Gold.Chemscore.Metal.Weighted>
-0.0000

> <Gold.Chemscore.Lipo.Weighted>
-10.8182

> <Gold.Chemscore.Internal_Hbond.Weighted>
0.0000

> <Gold.Chemscore.DEClash.Weighted>
3.7357

> <Gold.Chemscore.DEInternal.Weighted>
1.9397

> <Gold.Chemscore.Rot.Weighted>
4.8572

> <Gold.Chemscore.Internal.Correction.Weighted>
   9.000000E+99

> <Gold.Protein.RotatedTorsions>
[ 6907 6896 6895 6894 ] final   52.80 input  -60.11 | X-H torsion
[ 7974 7965 7964 7962 ] final   69.37 input  175.53 | X-H torsion
[ 8008 7997 7996 7995 ] final   10.00 input   59.86 | X-H torsion
[ 10167 10162 10161 10158 ] final -170.13 input  -65.29 | X-H torsion
[ 10718 10713 10712 10709 ] final  -59.50 input   66.30 | X-H torsion
[ 10763 10752 10751 10750 ] final -173.31 input  -60.55 | X-H torsion
[ 11005 11000 10999 10996 ] final  125.69 input  -57.11 | X-H torsion

> <Gold.Protein.ActiveResidues>
 VAL166  LYS551  ARG553  GLY616  TRP617  ASP618  TYR619  PRO620  LYS621  CYS622 
 ASP623  PHE694  ASN695  SER759  ASP760  ASP761  ALA762  ILE779  LEU786  VAL792 
 PHE793  MET794  SER795  GLU796  ALA797  LYS798  CYS799  TRP800  GLU811  SER814 

> <Gold.Protein.RotatedAtoms>
  152.3271  134.7307  160.0298 H   0  0  0  0  0  0  0  0  0  0  0  0  # atno 6907 bound_to 6896
  151.7735  133.3338  159.3459 H   0  0  0  0  0  0  0  0  0  0  0  0  # atno 6908 bound_to 6896
  150.7402  134.5928  159.6040 H   0  0  0  0  0  0  0  0  0  0  0  0  # atno 6909 bound_to 6896
  145.7912  139.2935  143.1209 H   0  0  0  0  0  0  0  0  0  0  0  0  # atno 7974 bound_to 7965
  154.7875  140.2830  155.6016 H   0  0  0  0  0  0  0  0  0  0  0  0  # atno 8008 bound_to 7997
  156.2959  140.2611  156.2644 H   0  0  0  0  0  0  0  0  0  0  0  0  # atno 8009 bound_to 7997
  154.9710  140.0376  157.2224 H   0  0  0  0  0  0  0  0  0  0  0  0  # atno 8010 bound_to 7997
  139.5880  144.1276  152.1599 H   0  0  0  0  0  0  0  0  0  0  0  0  # atno 10167 bound_to 10162
  156.1057  130.4181  150.0724 H   0  0  0  0  0  0  0  0  0  0  0  0  # atno 10718 bound_to 10713
  154.6093  135.2863  155.0450 H   0  0  0  0  0  0  0  0  0  0  0  0  # atno 10763 bound_to 10752
  154.1685  135.6476  153.5007 H   0  0  0  0  0  0  0  0  0  0  0  0  # atno 10764 bound_to 10752
  153.0188  135.5395  154.6841 H   0  0  0  0  0  0  0  0  0  0  0  0  # atno 10765 bound_to 10752
  139.9419  134.9634  156.8596 H   0  0  0  0  0  0  0  0  0  0  0  0  # atno 11005 bound_to 11000
  145.9975  140.8550  143.0035 LP  0  0  0  0  0  0  0  0  0  0  0  0  # atno 17320 bound_to 7965
  144.6781  140.2304  143.7356 LP  0  0  0  0  0  0  0  0  0  0  0  0  # atno 17321 bound_to 7965
  140.0844  144.5674  150.7099 LP  0  0  0  0  0  0  0  0  0  0  0  0  # atno 17342 bound_to 10162
  140.7148  143.2535  151.4468 LP  0  0  0  0  0  0  0  0  0  0  0  0  # atno 17343 bound_to 10162
  156.8701  130.9521  151.3610 LP  0  0  0  0  0  0  0  0  0  0  0  0  # atno 17370 bound_to 10713
  157.6233  130.8672  149.9146 LP  0  0  0  0  0  0  0  0  0  0  0  0  # atno 17371 bound_to 10713
  140.5930  134.0243  155.7507 LP  0  0  0  0  0  0  0  0  0  0  0  0  # atno 17394 bound_to 11000
  141.1056  133.9698  157.3002 LP  0  0  0  0  0  0  0  0  0  0  0  0  # atno 17395 bound_to 11000

$$$$
