AV-unprocessed.smi:1417|AV-procd|sdf|5769|dock8
  -GOLD-   22720 5413D 1   1.00000     0.00000
 Structure written by MMmdl.
 39 40  0  0  0  0  0  0  0  0  3 V2000
  152.4693  142.2955  159.2632 C   0  0  0  0  0  0  0  0  0  0  0  0
  152.0060  141.6532  158.0005 C   0  0  0  0  0  0  0  0  0  0  0  0
  151.0551  141.9953  157.0814 C   0  0  0  0  0  0  0  0  0  0  0  0
  151.1261  140.9399  156.1319 C   0  0  0  0  0  0  0  0  0  0  0  0
  150.3821  140.8298  155.0205 N   0  5  0  0  0  0  0  0  0  0  0  0
  149.2280  140.1251  155.0417 C   0  0  0  0  0  0  0  0  0  0  0  0
  148.6759  139.6538  156.0387 O   0  0  0  0  0  0  0  0  0  0  0  0
  148.6790  139.9561  153.8303 N   0  0  0  0  0  0  0  0  0  0  0  0
  147.4407  139.2383  153.5449 C   0  0  2  0  0  0  0  0  0  0  0  0
  147.4164  137.8836  154.2750 C   0  0  0  0  0  0  0  0  0  0  0  0
  146.1641  137.0757  153.9012 C   0  0  0  0  0  0  0  0  0  0  0  0
  146.0700  136.8826  152.4294 N   0  3  1  0  0  0  0  0  0  0  0  0
  144.9461  135.9977  152.0300 C   0  0  0  0  0  0  0  0  0  0  0  0
  145.1895  135.2928  150.6919 C   0  0  0  0  0  0  0  0  0  0  0  0
  145.1976  136.0593  149.5992 N   0  0  0  0  0  0  0  0  0  0  0  0
  145.3830  134.0794  150.6432 O   0  0  0  0  0  0  0  0  0  0  0  0
  146.0537  138.1803  151.7074 C   0  0  0  0  0  0  0  0  0  0  0  0
  147.3064  139.0100  152.0315 C   0  0  0  0  0  0  0  0  0  0  0  0
  152.0512  140.0454  156.4380 N   0  0  0  0  0  0  0  0  0  0  0  0
  152.6156  140.4922  157.6389 O   0  0  0  0  0  0  0  0  0  0  0  0
  152.7881  143.3214  159.0795 H   0  0  0  0  0  0  0  0  0  0  0  0
  153.3100  141.7527  159.6958 H   0  0  0  0  0  0  0  0  0  0  0  0
  151.6664  142.3175  160.0001 H   0  0  0  0  0  0  0  0  0  0  0  0
  150.4083  142.8599  157.0886 H   0  0  0  0  0  0  0  0  0  0  0  0
  149.1668  140.3598  153.0439 H   0  0  0  0  0  0  0  0  0  0  0  0
  146.5914  139.8399  153.8751 H   0  0  0  0  0  0  0  0  0  0  0  0
  148.3083  137.3087  154.0211 H   0  0  0  0  0  0  0  0  0  0  0  0
  147.4447  138.0361  155.3546 H   0  0  0  0  0  0  0  0  0  0  0  0
  146.2004  136.1099  154.4059 H   0  0  0  0  0  0  0  0  0  0  0  0
  145.2692  137.5856  154.2614 H   0  0  0  0  0  0  0  0  0  0  0  0
  144.7442  135.2703  152.8182 H   0  0  0  0  0  0  0  0  0  0  0  0
  144.0374  136.5890  151.9095 H   0  0  0  0  0  0  0  0  0  0  0  0
  145.3518  135.6474  148.6901 H   0  0  0  0  0  0  0  0  0  0  0  0
  145.0472  137.0547  149.6847 H   0  0  0  0  0  0  0  0  0  0  0  0
  146.0122  138.0036  150.6320 H   0  0  0  0  0  0  0  0  0  0  0  0
  145.1533  138.7362  151.9741 H   0  0  0  0  0  0  0  0  0  0  0  0
  147.2595  139.9675  151.5111 H   0  0  0  0  0  0  0  0  0  0  0  0
  148.1905  138.4948  151.6523 H   0  0  0  0  0  0  0  0  0  0  0  0
  146.9151  136.4094  152.1414 H   0  0  0  0  0  0  0  0  0  0  0  0
  1  2  1  0  0  0  0
  1 21  1  0  0  0  0
  1 22  1  0  0  0  0
  1 23  1  0  0  0  0
  2 20  1  0  0  0  0
  2  3  2  0  0  0  0
  3  4  1  0  0  0  0
  3 24  1  0  0  0  0
  4  5  1  0  0  0  0
  4 19  2  0  0  0  0
  5  6  1  0  0  0  0
  6  7  2  0  0  0  0
  6  8  1  0  0  0  0
  8  9  1  0  0  0  0
  8 25  1  0  0  0  0
  9 18  1  0  0  0  0
  9 10  1  0  0  0  0
  9 26  1  0  0  0  0
 10 11  1  0  0  0  0
 10 27  1  0  0  0  0
 10 28  1  0  0  0  0
 11 12  1  0  0  0  0
 11 29  1  0  0  0  0
 11 30  1  0  0  0  0
 12 13  1  0  0  0  0
 12 17  1  0  0  0  0
 12 39  1  0  0  0  0
 13 14  1  0  0  0  0
 13 31  1  0  0  0  0
 13 32  1  0  0  0  0
 14 15  1  0  0  0  0
 14 16  2  0  0  0  0
 15 33  1  0  0  0  0
 15 34  1  0  0  0  0
 17 18  1  0  0  0  0
 17 35  1  0  0  0  0
 17 36  1  0  0  0  0
 18 37  1  0  0  0  0
 18 38  1  0  0  0  0
 19 20  1  0  0  0  0
M  CHG  1   5  -1
M  CHG  1  12   1
M  END
> <s_m_source_file>
AV-unprocessed.smi

> <i_m_source_file_index>
1417

> <i_lp_mmshare_version>
43012

> <i_f3d_flags>
0

> <s_epik_input>
W0NIM11jMVtjSF1jKG5vMSlbTkhdQyg9TylbTkhdW0NIXTJbQ0gyXVtDSDJdTihbQ0gyXVtDSDJdMilbQ0gyXUMoPU8pW05IMl0=

> <s_epik_cmdline>
J2VwaWtfcHl0aG9uJywgJy1waCcsICc3LjAnLCAnLXRuJywgJzgnLCAnLW1hJywgJzIwMCcsICctbWV0YWxfYmluZGluZycsICctaW1hZScsICc8aW5maWxlLm1hZT4nLCAnLW9tYWUnLCAnPG91dGZpbGUubWFlPic=

> <r_epik_Ionization_Penalty>
7.07562

> <r_epik_Ionization_Penalty_Charging>
7.07548

> <r_epik_Ionization_Penalty_Neutral>
0.00013758

> <r_epik_State_Penalty>
7.16607

> <r_epik_Charging_Adjusted_Penalty>
14.2416

> <i_epik_Tot_Q>
0

> <i_epik_Tot_abs_Q>
2

> <r_epik_Metal_State_Penalty>
3.11438

> <b_epik_Metal_Only>
1

> <s_lp_Force_Field>
OPLS_2005

> <r_lp_Energy>
-1.46184

> <b_lp_Chiralities_Consistent>
1

> <s_lp_Variant>
AV-unprocessed.smi:1417-5

> <Gold.Version>
5.8.1

> <Gold.Id.Protein>
6NUR|6NUR_protein|mol2

> <Gold.PLP.Fitness>
45.3951

> <Gold.PLP.PLP>
-28.2993

> <Gold.PLP.part.hbond>
-6.6012

> <Gold.PLP.part.metal>
0.0000

> <Gold.PLP.part.buried>
1.9864

> <Gold.PLP.part.nonpolar>
-23.9916

> <Gold.PLP.part.repulsive>
0.5311

> <Gold.PLP.ligand.clash>
0.0000

> <Gold.PLP.ligand.torsion>
1.2103

> <Gold.PLP.Chemscore.Hbond>
6.4912

> <Gold.PLP.Chemscore.CHOScore>
0.0000

> <Gold.PLP.Chemscore.Metal>
0.0000

> <Gold.Chemscore.Hbonds>
donor molecule, donor type, donor heavy atom, donor atom, acceptor molecule, acceptor atom, score
      L1  H     8    25       P1  7957  0.85
      L1  H    12    39       P1  7948  1.92
      L1  H    15    33       P1  7921  1.00
      L1  H    15    34       P1 10171  1.00
      P1  H  7989  7998       L1     5  0.82
      P1  H  7997  8009       L1    20  0.32

> <Gold.PLP.Chemscore.Internal.Correction>
0.0428

> <Gold.Rescore>
     Score         DG    S(hbond)    S(metal)    S(lipo)     H(rot)  DE(clash)    DE(int)     intcor
     18.95     -22.95       4.56        0.00      63.36       2.02       1.71       2.29       ----

> <Gold.Chemscore.Fitness>
18.9514

> <Gold.Chemscore.DG>
-22.9500

> <Gold.Chemscore.ZeroCoef>
-5.4800

> <Gold.Chemscore.Hbond>
4.5610

> <Gold.Chemscore.Metal>
0.0000

> <Gold.Chemscore.Lipo>
63.3602

> <Gold.Chemscore.Internal_Hbond>
0.0000

> <Gold.Chemscore.DEClash>
1.7086

> <Gold.Chemscore.DEInternal>
2.2901

> <Gold.Chemscore.Rot>
2.0222

> <Gold.Chemscore.Internal.Correction>
   9.000000E+99

> <Gold.Chemscore.Hbonds>
donor molecule, donor type, donor heavy atom, donor atom, acceptor molecule, acceptor atom, score
      L1  H     8    25       P1  7957  0.84
      L1  H    12    39       P1  7948  0.90
      L1  H    15    33       P1  7921  0.93
      L1  H    15    34       P1 10171  0.95
      P1  H  7989  7998       L1     5  0.47
      P1  H  7997  8009       L1    20  0.04

> <Gold.Chemscore.Hbond.Weighted>
-15.2338

> <Gold.Chemscore.Metal.Weighted>
-0.0000

> <Gold.Chemscore.Lipo.Weighted>
-7.4131

> <Gold.Chemscore.Internal_Hbond.Weighted>
0.0000

> <Gold.Chemscore.DEClash.Weighted>
1.7086

> <Gold.Chemscore.DEInternal.Weighted>
2.2901

> <Gold.Chemscore.Rot.Weighted>
5.1769

> <Gold.Chemscore.Internal.Correction.Weighted>
   9.000000E+99

> <Gold.Protein.RotatedTorsions>
[ 6907 6896 6895 6894 ] final  -34.53 input  -60.11 | X-H torsion
[ 7974 7965 7964 7962 ] final  -47.39 input  175.53 | X-H torsion
[ 8008 7997 7996 7995 ] final  148.30 input   59.86 | X-H torsion
[ 10167 10162 10161 10158 ] final -174.47 input  -65.29 | X-H torsion
[ 10718 10713 10712 10709 ] final  -50.89 input   66.30 | X-H torsion
[ 10763 10752 10751 10750 ] final -127.54 input  -60.55 | X-H torsion
[ 11005 11000 10999 10996 ] final   42.08 input  -57.11 | X-H torsion

> <Gold.Protein.ActiveResidues>
 VAL166  LYS551  ARG553  GLY616  TRP617  ASP618  TYR619  PRO620  LYS621  CYS622 
 ASP623  PHE694  ASN695  SER759  ASP760  ASP761  ALA762  ILE779  LEU786  VAL792 
 PHE793  MET794  SER795  GLU796  ALA797  LYS798  CYS799  TRP800  GLU811  SER814 

> <Gold.Protein.RotatedAtoms>
  151.0514  134.9675  159.8213 H   0  0  0  0  0  0  0  0  0  0  0  0  # atno 6907 bound_to 6896
  152.5381  134.2532  159.8917 H   0  0  0  0  0  0  0  0  0  0  0  0  # atno 6908 bound_to 6896
  151.2548  133.4289  159.2647 H   0  0  0  0  0  0  0  0  0  0  0  0  # atno 6909 bound_to 6896
  145.9621  140.7469  142.9452 H   0  0  0  0  0  0  0  0  0  0  0  0  # atno 7974 bound_to 7965
  156.2796  140.2132  156.5676 H   0  0  0  0  0  0  0  0  0  0  0  0  # atno 8008 bound_to 7997
  154.7162  140.0507  157.0619 H   0  0  0  0  0  0  0  0  0  0  0  0  # atno 8009 bound_to 7997
  155.0540  140.3159  155.4685 H   0  0  0  0  0  0  0  0  0  0  0  0  # atno 8010 bound_to 7997
  139.5632  144.1819  152.1271 H   0  0  0  0  0  0  0  0  0  0  0  0  # atno 10167 bound_to 10162
  156.1759  130.4150  149.9578 H   0  0  0  0  0  0  0  0  0  0  0  0  # atno 10718 bound_to 10713
  154.8753  135.3958  154.3610 H   0  0  0  0  0  0  0  0  0  0  0  0  # atno 10763 bound_to 10752
  153.4383  135.7026  153.6191 H   0  0  0  0  0  0  0  0  0  0  0  0  # atno 10764 bound_to 10752
  153.4783  135.3775  155.2397 H   0  0  0  0  0  0  0  0  0  0  0  0  # atno 10765 bound_to 10752
  140.1773  134.4147  155.8221 H   0  0  0  0  0  0  0  0  0  0  0  0  # atno 11005 bound_to 11000
  144.6817  140.2608  143.7319 LP  0  0  0  0  0  0  0  0  0  0  0  0  # atno 17320 bound_to 7965
  145.8025  139.1970  143.2040 LP  0  0  0  0  0  0  0  0  0  0  0  0  # atno 17321 bound_to 7965
  140.1337  144.5265  150.6787 LP  0  0  0  0  0  0  0  0  0  0  0  0  # atno 17342 bound_to 10162
  140.6913  143.2378  151.5122 LP  0  0  0  0  0  0  0  0  0  0  0  0  # atno 17343 bound_to 10162
  156.7363  130.9062  151.3629 LP  0  0  0  0  0  0  0  0  0  0  0  0  # atno 17370 bound_to 10713
  157.6835  130.9163  150.0327 LP  0  0  0  0  0  0  0  0  0  0  0  0  # atno 17371 bound_to 10713
  141.2221  133.6984  156.7869 LP  0  0  0  0  0  0  0  0  0  0  0  0  # atno 17394 bound_to 11000
  140.2308  134.8687  157.3474 LP  0  0  0  0  0  0  0  0  0  0  0  0  # atno 17395 bound_to 11000

$$$$
