AV-unprocessed.smi:275|AV-procd|sdf|2066|dock2
  -GOLD-   2262021313D 1   1.00000     0.00000
 Structure written by MMmdl.
 65 69  0  0  0  0  0  0  0  0  1 V2000
  153.5071  141.6166  161.6110 C   0  0  0  0  0  0  0  0  0  0  0  0
  153.4112  140.7091  160.3719 C   0  0  0  0  0  0  0  0  0  0  0  0
  154.7443  140.7673  159.6073 C   0  0  0  0  0  0  0  0  0  0  0  0
  152.2307  141.0883  159.4611 C   0  0  2  0  0  0  0  0  0  0  0  0
  152.5454  141.0307  158.0357 N   0  0  0  0  0  0  0  0  0  0  0  0
  152.2540  139.8006  157.3854 C   0  0  0  0  0  0  0  0  0  0  0  0
  152.8829  139.4373  156.2341 N   0  0  0  0  0  0  0  0  0  0  0  0
  152.5917  138.2816  155.6297 C   0  0  0  0  0  0  0  0  0  0  0  0
  151.7114  137.3485  155.9949 N   0  0  0  0  0  0  0  0  0  0  0  0
  151.0738  137.7037  157.1459 C   0  0  0  0  0  0  0  0  0  0  0  0
  151.2860  138.8944  157.8953 C   0  0  0  0  0  0  0  0  0  0  0  0
  150.4529  138.9105  159.0071 N   0  0  0  0  0  0  0  0  0  0  0  0
  149.7836  137.7933  158.9192 C   0  0  0  0  0  0  0  0  0  0  0  0
  150.0907  137.0113  157.8286 N   0  0  0  0  0  0  0  0  0  0  0  0
  149.5034  135.7305  157.4793 C   0  0  0  0  0  0  0  0  0  0  0  0
  149.3584  135.5249  155.9510 C   0  0  2  0  0  0  0  0  0  0  0  0
  148.2215  136.3796  155.3393 C   0  0  0  0  0  0  0  0  0  0  0  0
  148.7086  137.2479  154.3367 O   0  0  0  0  0  0  0  0  0  0  0  0
  149.2332  134.0235  155.5900 C   0  0  1  0  0  0  0  0  0  0  0  0
  149.1253  133.7277  154.1042 C   0  0  0  0  0  0  0  0  0  0  0  0
  149.4994  132.2506  154.0372 C   0  0  0  0  0  0  0  0  0  0  0  0
  150.4142  132.0328  155.1054 O   0  0  0  0  0  0  0  0  0  0  0  0
  150.4607  133.1791  155.9482 C   0  0  0  0  0  0  0  0  0  0  0  0
  151.5928  142.0961  157.7606 C   0  0  0  0  0  0  0  0  0  0  0  0
  151.8154  142.5590  159.2093 C   0  0  0  0  0  0  0  0  0  0  0  0
  150.5624  143.0273  159.9667 C   0  0  0  0  0  0  0  0  0  0  0  0
  150.0442  144.3901  159.4779 C   0  0  0  0  0  0  0  0  0  0  0  0
  151.1280  145.4695  159.5935 C   0  0  0  0  0  0  0  0  0  0  0  0
  152.4184  145.0361  158.8863 C   0  0  0  0  0  0  0  0  0  0  0  0
  152.8888  143.6581  159.3837 C   0  0  0  0  0  0  0  0  0  0  0  0
  153.5871  142.6669  161.3284 H   0  0  0  0  0  0  0  0  0  0  0  0
  154.3805  141.3667  162.2141 H   0  0  0  0  0  0  0  0  0  0  0  0
  152.6370  141.5100  162.2567 H   0  0  0  0  0  0  0  0  0  0  0  0
  153.2818  139.6851  160.7244 H   0  0  0  0  0  0  0  0  0  0  0  0
  154.9427  141.7758  159.2428 H   0  0  0  0  0  0  0  0  0  0  0  0
  154.7543  140.1022  158.7461 H   0  0  0  0  0  0  0  0  0  0  0  0
  155.5775  140.4768  160.2479 H   0  0  0  0  0  0  0  0  0  0  0  0
  151.3421  140.4961  159.6893 H   0  0  0  0  0  0  0  0  0  0  0  0
  153.1415  138.0766  154.7230 H   0  0  0  0  0  0  0  0  0  0  0  0
  149.0368  137.5107  159.6470 H   0  0  0  0  0  0  0  0  0  0  0  0
  150.1306  134.9526  157.9153 H   0  0  0  0  0  0  0  0  0  0  0  0
  148.5306  135.6513  157.9663 H   0  0  0  0  0  0  0  0  0  0  0  0
  150.2828  135.8838  155.4961 H   0  0  0  0  0  0  0  0  0  0  0  0
  147.4461  135.7473  154.9066 H   0  0  0  0  0  0  0  0  0  0  0  0
  147.7248  136.9732  156.1063 H   0  0  0  0  0  0  0  0  0  0  0  0
  149.0719  136.7257  153.6379 H   0  0  0  0  0  0  0  0  0  0  0  0
  148.3636  133.5969  156.0921 H   0  0  0  0  0  0  0  0  0  0  0  0
  148.1332  133.9227  153.6961 H   0  0  0  0  0  0  0  0  0  0  0  0
  149.8487  134.3211  153.5429 H   0  0  0  0  0  0  0  0  0  0  0  0
  148.6201  131.6269  154.2020 H   0  0  0  0  0  0  0  0  0  0  0  0
  149.9349  131.9751  153.0764 H   0  0  0  0  0  0  0  0  0  0  0  0
  151.3816  133.7232  155.7340 H   0  0  0  0  0  0  0  0  0  0  0  0
  150.4771  132.8893  156.9990 H   0  0  0  0  0  0  0  0  0  0  0  0
  151.9339  142.7960  156.9977 H   0  0  0  0  0  0  0  0  0  0  0  0
  150.5745  141.7527  157.5707 H   0  0  0  0  0  0  0  0  0  0  0  0
  149.7639  142.2915  159.8666 H   0  0  0  0  0  0  0  0  0  0  0  0
  150.7731  143.0867  161.0351 H   0  0  0  0  0  0  0  0  0  0  0  0
  149.7199  144.3070  158.4397 H   0  0  0  0  0  0  0  0  0  0  0  0
  149.1653  144.6832  160.0527 H   0  0  0  0  0  0  0  0  0  0  0  0
  150.7681  146.4101  159.1754 H   0  0  0  0  0  0  0  0  0  0  0  0
  151.3388  145.6593  160.6468 H   0  0  0  0  0  0  0  0  0  0  0  0
  152.2512  145.0031  157.8094 H   0  0  0  0  0  0  0  0  0  0  0  0
  153.1994  145.7784  159.0527 H   0  0  0  0  0  0  0  0  0  0  0  0
  153.1759  143.7516  160.4300 H   0  0  0  0  0  0  0  0  0  0  0  0
  153.8029  143.3888  158.8531 H   0  0  0  0  0  0  0  0  0  0  0  0
  1  2  1  0  0  0  0
  1 31  1  0  0  0  0
  1 32  1  0  0  0  0
  1 33  1  0  0  0  0
  2  3  1  0  0  0  0
  2  4  1  0  0  0  0
  2 34  1  0  0  0  0
  3 35  1  0  0  0  0
  3 36  1  0  0  0  0
  3 37  1  0  0  0  0
  4 25  1  0  0  0  0
  4  5  1  0  0  0  0
  4 38  1  0  0  0  0
  5  6  1  0  0  0  0
  5 24  1  0  0  0  0
  6 11  1  0  0  0  0
  6  7  2  0  0  0  0
  7  8  1  0  0  0  0
  8  9  2  0  0  0  0
  8 39  1  0  0  0  0
  9 10  1  0  0  0  0
 10 14  1  0  0  0  0
 10 11  2  0  0  0  0
 11 12  1  0  0  0  0
 12 13  2  0  0  0  0
 13 14  1  0  0  0  0
 13 40  1  0  0  0  0
 14 15  1  0  0  0  0
 15 16  1  0  0  0  0
 15 41  1  0  0  0  0
 15 42  1  0  0  0  0
 16 17  1  0  0  0  0
 16 19  1  0  0  0  0
 16 43  1  0  0  0  0
 17 18  1  0  0  0  0
 17 44  1  0  0  0  0
 17 45  1  0  0  0  0
 18 46  1  0  0  0  0
 19 23  1  0  0  0  0
 19 20  1  0  0  0  0
 19 47  1  0  0  0  0
 20 21  1  0  0  0  0
 20 48  1  0  0  0  0
 20 49  1  0  0  0  0
 21 22  1  0  0  0  0
 21 50  1  0  0  0  0
 21 51  1  0  0  0  0
 22 23  1  0  0  0  0
 23 52  1  0  0  0  0
 23 53  1  0  0  0  0
 24 25  1  0  0  0  0
 24 54  1  0  0  0  0
 24 55  1  0  0  0  0
 25 30  1  0  0  0  0
 25 26  1  0  0  0  0
 26 27  1  0  0  0  0
 26 56  1  0  0  0  0
 26 57  1  0  0  0  0
 27 28  1  0  0  0  0
 27 58  1  0  0  0  0
 27 59  1  0  0  0  0
 28 29  1  0  0  0  0
 28 60  1  0  0  0  0
 28 61  1  0  0  0  0
 29 30  1  0  0  0  0
 29 62  1  0  0  0  0
 29 63  1  0  0  0  0
 30 64  1  0  0  0  0
 30 65  1  0  0  0  0
M  END
> <s_m_source_file>
AV-unprocessed.smi

> <i_m_source_file_index>
275

> <i_lp_mmshare_version>
43012

> <i_f3d_flags>
0

> <s_epik_input>
W0NIMl0xW0NIMl1bQ0gyXVtDSDJdW0NIMl1DMTJbQ0BIXShbQ0hdKFtDSDNdKVtDSDNdKU4oW0NIMl0yKWMobltjSF1uMyljKGMzNCluW2NIXW40W0NIMl1bQ0BIXShbQ0gyXVtPSF0pW0NAQEhdNVtDSDJdW0NIMl1PW0NIMl01

> <s_epik_cmdline>
J2VwaWtfcHl0aG9uJywgJy1waCcsICc3LjAnLCAnLXRuJywgJzgnLCAnLW1hJywgJzIwMCcsICctbWV0YWxfYmluZGluZycsICctaW1hZScsICc8aW5maWxlLm1hZT4nLCAnLW9tYWUnLCAnPG91dGZpbGUubWFlPic=

> <r_lp_tautomer_probability>
1

> <r_epik_Ionization_Penalty>
0.00375122

> <r_epik_Ionization_Penalty_Charging>
0

> <r_epik_Ionization_Penalty_Neutral>
0.00375122

> <r_epik_State_Penalty>
0.00260593

> <r_epik_Charging_Adjusted_Penalty>
0.00260593

> <i_epik_Tot_Q>
0

> <i_epik_Tot_abs_Q>
0

> <r_epik_Metal_State_Penalty>
-0

> <b_epik_Metal_Only>
0

> <s_lp_Force_Field>
OPLS_2005

> <r_lp_Energy>
62.8916

> <b_lp_Chiralities_Consistent>
1

> <s_lp_Variant>
AV-unprocessed.smi:275-5

> <Gold.Version>
5.8.1

> <Gold.Id.Protein>
6NUR|6NUR_protein|mol2

> <Gold.PLP.Fitness>
46.3439

> <Gold.PLP.PLP>
-45.3033

> <Gold.PLP.part.hbond>
-3.1208

> <Gold.PLP.part.metal>
0.0000

> <Gold.PLP.part.buried>
-0.9703

> <Gold.PLP.part.nonpolar>
-40.5268

> <Gold.PLP.part.repulsive>
0.0109

> <Gold.PLP.ligand.clash>
0.0000

> <Gold.PLP.ligand.torsion>
2.7160

> <Gold.PLP.Chemscore.Hbond>
1.9440

> <Gold.PLP.Chemscore.CHOScore>
0.0000

> <Gold.PLP.Chemscore.Metal>
0.0000

> <Gold.Chemscore.Hbonds>
donor molecule, donor type, donor heavy atom, donor atom, acceptor molecule, acceptor atom, score
      L1  H    18    46       P1  7948  0.96
      P1  H  7997  8010       L1     7  0.95

> <Gold.PLP.Chemscore.Internal.Correction>
0.6407

> <Gold.Rescore>
     Score         DG    S(hbond)    S(metal)    S(lipo)     H(rot)  DE(clash)    DE(int)     intcor
     13.17     -20.51       1.64        0.00     137.05       2.54       1.61       5.73       ----

> <Gold.Chemscore.Fitness>
13.1664

> <Gold.Chemscore.DG>
-20.5067

> <Gold.Chemscore.ZeroCoef>
-5.4800

> <Gold.Chemscore.Hbond>
1.6434

> <Gold.Chemscore.Metal>
0.0000

> <Gold.Chemscore.Lipo>
137.0453

> <Gold.Chemscore.Internal_Hbond>
0.0000

> <Gold.Chemscore.DEClash>
1.6127

> <Gold.Chemscore.DEInternal>
5.7276

> <Gold.Chemscore.Rot>
2.5377

> <Gold.Chemscore.Internal.Correction>
   9.000000E+99

> <Gold.Chemscore.Hbonds>
donor molecule, donor type, donor heavy atom, donor atom, acceptor molecule, acceptor atom, score
      L1  H    18    46       P1  7948  0.92
      P1  H  7997  8010       L1     7  0.21

> <Gold.Chemscore.Hbond.Weighted>
-5.4889

> <Gold.Chemscore.Metal.Weighted>
-0.0000

> <Gold.Chemscore.Lipo.Weighted>
-16.0343

> <Gold.Chemscore.Internal_Hbond.Weighted>
0.0000

> <Gold.Chemscore.DEClash.Weighted>
1.6127

> <Gold.Chemscore.DEInternal.Weighted>
5.7276

> <Gold.Chemscore.Rot.Weighted>
6.4966

> <Gold.Chemscore.Internal.Correction.Weighted>
   9.000000E+99

> <Gold.Protein.RotatedTorsions>
[ 6907 6896 6895 6894 ] final  -77.84 input  -60.11 | X-H torsion
[ 7974 7965 7964 7962 ] final   43.49 input  175.53 | X-H torsion
[ 8008 7997 7996 7995 ] final   65.62 input   59.86 | X-H torsion
[ 10167 10162 10161 10158 ] final  138.43 input  -65.29 | X-H torsion
[ 10718 10713 10712 10709 ] final   53.50 input   66.30 | X-H torsion
[ 10763 10752 10751 10750 ] final -166.36 input  -60.55 | X-H torsion
[ 11005 11000 10999 10996 ] final  -84.83 input  -57.11 | X-H torsion

> <Gold.Protein.ActiveResidues>
 VAL166  LYS551  ARG553  GLY616  TRP617  ASP618  TYR619  PRO620  LYS621  CYS622 
 ASP623  PHE694  ASN695  SER759  ASP760  ASP761  ALA762  ILE779  LEU786  VAL792 
 PHE793  MET794  SER795  GLU796  ALA797  LYS798  CYS799  TRP800  GLU811  SER814 

> <Gold.Protein.RotatedAtoms>
  150.6988  134.4362  159.5271 H   0  0  0  0  0  0  0  0  0  0  0  0  # atno 6907 bound_to 6896
  152.2080  134.8524  160.0509 H   0  0  0  0  0  0  0  0  0  0  0  0  # atno 6908 bound_to 6896
  151.9420  133.3606  159.4005 H   0  0  0  0  0  0  0  0  0  0  0  0  # atno 6909 bound_to 6896
  146.0650  139.5180  142.9634 H   0  0  0  0  0  0  0  0  0  0  0  0  # atno 7974 bound_to 7965
  155.6646  140.3497  155.4795 H   0  0  0  0  0  0  0  0  0  0  0  0  # atno 8008 bound_to 7997
  155.9740  140.1161  157.0810 H   0  0  0  0  0  0  0  0  0  0  0  0  # atno 8009 bound_to 7997
  154.4173  140.1151  156.5331 H   0  0  0  0  0  0  0  0  0  0  0  0  # atno 8010 bound_to 7997
  139.5111  144.6354  151.5711 H   0  0  0  0  0  0  0  0  0  0  0  0  # atno 10167 bound_to 10162
  157.5172  130.8541  149.8511 H   0  0  0  0  0  0  0  0  0  0  0  0  # atno 10718 bound_to 10713
  154.6841  135.2959  154.9573 H   0  0  0  0  0  0  0  0  0  0  0  0  # atno 10763 bound_to 10752
  154.0558  135.6638  153.4809 H   0  0  0  0  0  0  0  0  0  0  0  0  # atno 10764 bound_to 10752
  153.0567  135.5140  154.7898 H   0  0  0  0  0  0  0  0  0  0  0  0  # atno 10765 bound_to 10752
  141.1647  133.7367  156.8925 H   0  0  0  0  0  0  0  0  0  0  0  0  # atno 11005 bound_to 11000
  145.6492  141.0267  143.1769 LP  0  0  0  0  0  0  0  0  0  0  0  0  # atno 17320 bound_to 7965
  144.7197  139.8072  143.7386 LP  0  0  0  0  0  0  0  0  0  0  0  0  # atno 17321 bound_to 7965
  140.6101  143.9452  150.6447 LP  0  0  0  0  0  0  0  0  0  0  0  0  # atno 17342 bound_to 10162
  140.2692  143.3468  152.1253 LP  0  0  0  0  0  0  0  0  0  0  0  0  # atno 17343 bound_to 10162
  156.0329  130.3759  150.1639 LP  0  0  0  0  0  0  0  0  0  0  0  0  # atno 17370 bound_to 10713
  156.9828  130.9869  151.3433 LP  0  0  0  0  0  0  0  0  0  0  0  0  # atno 17371 bound_to 10713
  140.1638  134.9147  157.2748 LP  0  0  0  0  0  0  0  0  0  0  0  0  # atno 17394 bound_to 11000
  140.2580  134.3604  155.7417 LP  0  0  0  0  0  0  0  0  0  0  0  0  # atno 17395 bound_to 11000

$$$$
