AV-unprocessed.smi:2021|AV-procd|sdf|8178|dock9
  -GOLD-   2272010433D 1   1.00000     0.00000
 Structure written by MMmdl.
 42 43  0  0  0  0  0  0  0  0  2 V2000
  143.4601  132.5761  150.8166 C   0  0  0  0  0  0  0  0  0  0  0  0
  144.8046  132.6613  151.5586 C   0  0  0  0  0  0  0  0  0  0  0  0
  145.2044  134.1284  151.7775 C   0  0  0  0  0  0  0  0  0  0  0  0
  145.9221  131.9026  150.8113 C   0  0  0  0  0  0  0  0  0  0  0  0
  146.9038  131.2609  151.7228 N   0  3  2  0  0  0  0  0  0  0  0  0
  146.4207  129.9911  152.3193 C   0  0  0  0  0  0  0  0  0  0  0  0
  147.5022  129.3789  153.2237 C   0  0  0  0  0  0  0  0  0  0  0  0
  147.8746  130.3214  154.2197 O   0  0  0  0  0  0  0  0  0  0  0  0
  148.4422  131.5035  153.6643 C   0  0  2  0  0  0  0  0  0  0  0  0
  148.9060  132.4235  154.8078 C   0  0  0  0  0  0  0  0  0  0  0  0
  149.3565  133.7204  154.3127 N   0  0  0  0  0  0  0  0  0  0  0  0
  150.3101  134.4719  154.8821 C   0  0  0  0  0  0  0  0  0  0  0  0
  150.9166  134.1388  155.9005 O   0  0  0  0  0  0  0  0  0  0  0  0
  150.5066  135.6121  154.1973 N   0  0  0  0  0  0  0  0  0  0  0  0
  151.4215  136.6611  154.4798 C   0  0  0  0  0  0  0  0  0  0  0  0
  152.5647  136.4887  155.1618 N   0  0  0  0  0  0  0  0  0  0  0  0
  153.2720  137.6761  155.2989 N   0  0  0  0  0  0  0  0  0  0  0  0
  152.6358  138.6957  154.7155 C   0  0  0  0  0  0  0  0  0  0  0  0
  151.1111  138.3047  153.9390 S   0  0  0  0  0  0  0  0  0  0  0  0
  147.3767  132.1835  152.7824 C   0  0  0  0  0  0  0  0  0  0  0  0
  143.5347  132.9955  149.8128 H   0  0  0  0  0  0  0  0  0  0  0  0
  142.6825  133.1251  151.3483 H   0  0  0  0  0  0  0  0  0  0  0  0
  143.1203  131.5445  150.7225 H   0  0  0  0  0  0  0  0  0  0  0  0
  144.6711  132.2220  152.5468 H   0  0  0  0  0  0  0  0  0  0  0  0
  145.3535  134.6455  150.8289 H   0  0  0  0  0  0  0  0  0  0  0  0
  146.1319  134.2028  152.3459 H   0  0  0  0  0  0  0  0  0  0  0  0
  144.4367  134.6678  152.3330 H   0  0  0  0  0  0  0  0  0  0  0  0
  145.4554  131.1387  150.1873 H   0  0  0  0  0  0  0  0  0  0  0  0
  146.4502  132.5695  150.1277 H   0  0  0  0  0  0  0  0  0  0  0  0
  145.5159  130.1787  152.8993 H   0  0  0  0  0  0  0  0  0  0  0  0
  146.1587  129.2761  151.5403 H   0  0  0  0  0  0  0  0  0  0  0  0
  147.1213  128.4819  153.7119 H   0  0  0  0  0  0  0  0  0  0  0  0
  148.3756  129.0789  152.6425 H   0  0  0  0  0  0  0  0  0  0  0  0
  149.3066  131.2389  153.0521 H   0  0  0  0  0  0  0  0  0  0  0  0
  148.0749  132.6067  155.4891 H   0  0  0  0  0  0  0  0  0  0  0  0
  149.6856  131.9406  155.3998 H   0  0  0  0  0  0  0  0  0  0  0  0
  148.9087  134.0705  153.4783 H   0  0  0  0  0  0  0  0  0  0  0  0
  149.9318  135.7498  153.3792 H   0  0  0  0  0  0  0  0  0  0  0  0
  153.0678  139.6850  154.7421 H   0  0  0  0  0  0  0  0  0  0  0  0
  147.7983  133.0799  152.3254 H   0  0  0  0  0  0  0  0  0  0  0  0
  146.5290  132.5024  153.3917 H   0  0  0  0  0  0  0  0  0  0  0  0
  147.7135  131.0364  151.1620 H   0  0  0  0  0  0  0  0  0  0  0  0
  1  2  1  0  0  0  0
  1 21  1  0  0  0  0
  1 22  1  0  0  0  0
  1 23  1  0  0  0  0
  2  3  1  0  0  0  0
  2  4  1  0  0  0  0
  2 24  1  0  0  0  0
  3 25  1  0  0  0  0
  3 26  1  0  0  0  0
  3 27  1  0  0  0  0
  4  5  1  0  0  0  0
  4 28  1  0  0  0  0
  4 29  1  0  0  0  0
  5 20  1  0  0  0  0
  5  6  1  0  0  0  0
  5 42  1  0  0  0  0
  6  7  1  0  0  0  0
  6 30  1  0  0  0  0
  6 31  1  0  0  0  0
  7  8  1  0  0  0  0
  7 32  1  0  0  0  0
  7 33  1  0  0  0  0
  8  9  1  0  0  0  0
  9 10  1  0  0  0  0
  9 20  1  0  0  0  0
  9 34  1  0  0  0  0
 10 11  1  0  0  0  0
 10 35  1  0  0  0  0
 10 36  1  0  0  0  0
 11 12  1  0  0  0  0
 11 37  1  0  0  0  0
 12 13  2  0  0  0  0
 12 14  1  0  0  0  0
 14 15  1  0  0  0  0
 14 38  1  0  0  0  0
 15 19  1  0  0  0  0
 15 16  2  0  0  0  0
 16 17  1  0  0  0  0
 17 18  2  0  0  0  0
 18 19  1  0  0  0  0
 18 39  1  0  0  0  0
 20 40  1  0  0  0  0
 20 41  1  0  0  0  0
M  CHG  1   5   1
M  END
> <s_m_source_file>
AV-unprocessed.smi

> <i_m_source_file_index>
2021

> <i_lp_mmshare_version>
43012

> <i_f3d_flags>
0

> <s_epik_input>
W0NIM11bQ0hdKFtDSDNdKVtDSDJdTjFbQ0gyXVtDSDJdT1tDQEhdKFtDSDJdMSlbQ0gyXVtOSF1DKD1PKVtOSF1jMm5uW2NIXXMy

> <s_epik_cmdline>
J2VwaWtfcHl0aG9uJywgJy1waCcsICc3LjAnLCAnLXRuJywgJzgnLCAnLW1hJywgJzIwMCcsICctbWV0YWxfYmluZGluZycsICctaW1hZScsICc8aW5maWxlLm1hZT4nLCAnLW9tYWUnLCAnPG91dGZpbGUubWFlPic=

> <r_lp_tautomer_probability>
1

> <r_epik_Ionization_Penalty>
0.102019

> <r_epik_Ionization_Penalty_Charging>
0.098413

> <r_epik_Ionization_Penalty_Neutral>
0.00360555

> <r_epik_State_Penalty>
0.0884988

> <r_epik_Charging_Adjusted_Penalty>
0.186912

> <i_epik_Tot_Q>
1

> <i_epik_Tot_abs_Q>
1

> <r_epik_Metal_State_Penalty>
0.454709

> <b_epik_Metal_Only>
0

> <s_lp_Force_Field>
OPLS_2005

> <r_lp_Energy>
16.3226

> <b_lp_Chiralities_Consistent>
1

> <s_lp_Variant>
AV-unprocessed.smi:2021-4

> <Gold.Version>
5.8.1

> <Gold.Id.Protein>
6NUR|6NUR_protein|mol2

> <Gold.PLP.Fitness>
42.9542

> <Gold.PLP.PLP>
-35.7291

> <Gold.PLP.part.hbond>
-4.2922

> <Gold.PLP.part.metal>
0.0000

> <Gold.PLP.part.buried>
-5.6349

> <Gold.PLP.part.nonpolar>
-27.4609

> <Gold.PLP.part.repulsive>
0.2088

> <Gold.PLP.ligand.clash>
0.0000

> <Gold.PLP.ligand.torsion>
0.9005

> <Gold.PLP.Chemscore.Hbond>
3.0000

> <Gold.PLP.Chemscore.CHOScore>
0.0000

> <Gold.PLP.Chemscore.Metal>
0.0000

> <Gold.Chemscore.Hbonds>
donor molecule, donor type, donor heavy atom, donor atom, acceptor molecule, acceptor atom, score
      L1  H     5    42       P1 10747  1.00
      L1  H    14    38       P1  7948  0.40

> <Gold.PLP.Chemscore.Internal.Correction>
0.0261

> <Gold.Rescore>
     Score         DG    S(hbond)    S(metal)    S(lipo)     H(rot)  DE(clash)    DE(int)     intcor
     16.36     -18.35       2.71        0.00      73.92       1.88       0.02       1.97       ----

> <Gold.Chemscore.Fitness>
16.3642

> <Gold.Chemscore.DG>
-18.3547

> <Gold.Chemscore.ZeroCoef>
-5.4800

> <Gold.Chemscore.Hbond>
2.7072

> <Gold.Chemscore.Metal>
0.0000

> <Gold.Chemscore.Lipo>
73.9204

> <Gold.Chemscore.Internal_Hbond>
0.0000

> <Gold.Chemscore.DEClash>
0.0178

> <Gold.Chemscore.DEInternal>
1.9727

> <Gold.Chemscore.Rot>
1.8812

> <Gold.Chemscore.Internal.Correction>
   9.000000E+99

> <Gold.Chemscore.Hbonds>
donor molecule, donor type, donor heavy atom, donor atom, acceptor molecule, acceptor atom, score
      L1  H     5    42       P1 10747  0.95
      L1  H    14    38       P1  7948  0.01
      P1  H 10752 10763       L1    16  0.02

> <Gold.Chemscore.Hbond.Weighted>
-9.0419

> <Gold.Chemscore.Metal.Weighted>
-0.0000

> <Gold.Chemscore.Lipo.Weighted>
-8.6487

> <Gold.Chemscore.Internal_Hbond.Weighted>
0.0000

> <Gold.Chemscore.DEClash.Weighted>
0.0178

> <Gold.Chemscore.DEInternal.Weighted>
1.9727

> <Gold.Chemscore.Rot.Weighted>
4.8159

> <Gold.Chemscore.Internal.Correction.Weighted>
   9.000000E+99

> <Gold.Protein.RotatedTorsions>
[ 6907 6896 6895 6894 ] final  173.19 input  -60.11 | X-H torsion
[ 7974 7965 7964 7962 ] final   82.14 input  175.53 | X-H torsion
[ 8008 7997 7996 7995 ] final  179.41 input   59.86 | X-H torsion
[ 10167 10162 10161 10158 ] final  162.18 input  -65.29 | X-H torsion
[ 10718 10713 10712 10709 ] final  126.56 input   66.30 | X-H torsion
[ 10763 10752 10751 10750 ] final   73.11 input  -60.55 | X-H torsion
[ 11005 11000 10999 10996 ] final  175.47 input  -57.11 | X-H torsion

> <Gold.Protein.ActiveResidues>
 VAL166  LYS551  ARG553  GLY616  TRP617  ASP618  TYR619  PRO620  LYS621  CYS622 
 ASP623  PHE694  ASN695  SER759  ASP760  ASP761  ALA762  ILE779  LEU786  VAL792 
 PHE793  MET794  SER795  GLU796  ALA797  LYS798  CYS799  TRP800  GLU811  SER814 

> <Gold.Protein.RotatedAtoms>
  151.7722  133.3342  159.3447 H   0  0  0  0  0  0  0  0  0  0  0  0  # atno 6907 bound_to 6896
  150.7457  134.6008  159.6045 H   0  0  0  0  0  0  0  0  0  0  0  0  # atno 6908 bound_to 6896
  152.3333  134.7232  160.0335 H   0  0  0  0  0  0  0  0  0  0  0  0  # atno 6909 bound_to 6896
  145.6289  139.2401  143.2096 H   0  0  0  0  0  0  0  0  0  0  0  0  # atno 7974 bound_to 7965
  156.0437  140.1309  157.0127 H   0  0  0  0  0  0  0  0  0  0  0  0  # atno 8008 bound_to 7997
  154.4403  140.1025  156.6345 H   0  0  0  0  0  0  0  0  0  0  0  0  # atno 8009 bound_to 7997
  155.5628  140.3465  155.4497 H   0  0  0  0  0  0  0  0  0  0  0  0  # atno 8010 bound_to 7997
  139.4857  144.4463  151.8888 H   0  0  0  0  0  0  0  0  0  0  0  0  # atno 10167 bound_to 10162
  157.5408  131.1097  150.8861 H   0  0  0  0  0  0  0  0  0  0  0  0  # atno 10718 bound_to 10713
  153.0500  135.5075  154.7844 H   0  0  0  0  0  0  0  0  0  0  0  0  # atno 10763 bound_to 10752
  154.6713  135.2953  154.9740 H   0  0  0  0  0  0  0  0  0  0  0  0  # atno 10764 bound_to 10752
  154.0557  135.6698  153.4858 H   0  0  0  0  0  0  0  0  0  0  0  0  # atno 10765 bound_to 10752
  140.3625  134.7100  157.4340 H   0  0  0  0  0  0  0  0  0  0  0  0  # atno 11005 bound_to 11000
  146.1372  140.7107  142.9384 LP  0  0  0  0  0  0  0  0  0  0  0  0  # atno 17320 bound_to 7965
  144.7201  140.4345  143.7014 LP  0  0  0  0  0  0  0  0  0  0  0  0  # atno 17321 bound_to 7965
  140.3917  144.2607  150.5899 LP  0  0  0  0  0  0  0  0  0  0  0  0  # atno 17342 bound_to 10162
  140.5140  143.2283  151.8492 LP  0  0  0  0  0  0  0  0  0  0  0  0  # atno 17343 bound_to 10162
  156.9414  130.5386  149.5280 LP  0  0  0  0  0  0  0  0  0  0  0  0  # atno 17370 bound_to 10713
  156.0495  130.5567  150.8958 LP  0  0  0  0  0  0  0  0  0  0  0  0  # atno 17371 bound_to 10713
  140.0615  134.5989  155.8743 LP  0  0  0  0  0  0  0  0  0  0  0  0  # atno 17394 bound_to 11000
  141.1980  133.6599  156.5768 LP  0  0  0  0  0  0  0  0  0  0  0  0  # atno 17395 bound_to 11000

$$$$
