AV-unprocessed.smi:72|AV-procd|sdf|707|dock5
  -GOLD-   2262017 23D 1   1.00000     0.00000
 Structure written by MMmdl.
 30 31  0  0  0  0  0  0  0  0  2 V2000
  144.1813  139.4975  155.1371 N   0  0  0  0  0  0  0  0  0  0  0  0
  145.5471  139.6838  155.0873 C   0  0  0  0  0  0  0  0  0  0  0  0
  146.0761  140.2579  153.9452 N   0  3  0  0  0  0  0  0  0  0  0  0
  147.3768  140.5048  153.7415 C   0  0  0  0  0  0  0  0  0  0  0  0
  148.2440  140.1877  154.6784 N   0  0  0  0  0  0  0  0  0  0  0  0
  149.7092  140.4561  154.4608 C   0  0  2  0  0  0  0  0  0  0  0  0
  150.3909  139.2623  154.6847 O   0  0  0  0  0  0  0  0  0  0  0  0
  151.6453  139.5656  155.2803 C   0  0  2  0  0  0  0  0  0  0  0  0
  152.2952  138.3132  155.8949 C   0  0  0  0  0  0  0  0  0  0  0  0
  153.3781  138.6840  156.7209 O   0  0  0  0  0  0  0  0  0  0  0  0
  151.3133  140.7245  156.2326 C   0  0  2  0  0  0  0  0  0  0  0  0
  150.8099  140.2439  157.4680 O   0  0  0  0  0  0  0  0  0  0  0  0
  150.2705  141.5111  155.4374 C   0  0  2  0  0  0  0  0  0  0  0  0
  149.3082  142.1589  156.2541 O   0  0  0  0  0  0  0  0  0  0  0  0
  147.7984  139.5916  155.8862 C   0  0  0  0  0  0  0  0  0  0  0  0
  148.5981  139.2767  156.7663 O   0  0  0  0  0  0  0  0  0  0  0  0
  146.4177  139.3767  156.0091 N   0  0  0  0  0  0  0  0  0  0  0  0
  149.8490  140.7373  153.4166 H   0  0  0  0  0  0  0  0  0  0  0  0
  152.2904  139.9416  154.4834 H   0  0  0  0  0  0  0  0  0  0  0  0
  152.1944  141.3310  156.4449 H   0  0  0  0  0  0  0  0  0  0  0  0
  150.7747  142.2683  154.8351 H   0  0  0  0  0  0  0  0  0  0  0  0
  143.7085  139.0867  155.9299 H   0  0  0  0  0  0  0  0  0  0  0  0
  143.5487  139.7505  154.3917 H   0  0  0  0  0  0  0  0  0  0  0  0
  147.7036  140.9601  152.8157 H   0  0  0  0  0  0  0  0  0  0  0  0
  151.5793  137.7223  156.4665 H   0  0  0  0  0  0  0  0  0  0  0  0
  152.6764  137.6675  155.1034 H   0  0  0  0  0  0  0  0  0  0  0  0
  153.2677  138.2745  157.5657 H   0  0  0  0  0  0  0  0  0  0  0  0
  149.9426  140.5936  157.5967 H   0  0  0  0  0  0  0  0  0  0  0  0
  149.2431  143.0618  155.9802 H   0  0  0  0  0  0  0  0  0  0  0  0
  145.4289  140.5083  153.2113 H   0  0  0  0  0  0  0  0  0  0  0  0
  1  2  1  0  0  0  0
  1 22  1  0  0  0  0
  1 23  1  0  0  0  0
  2 17  2  0  0  0  0
  2  3  1  0  0  0  0
  3  4  2  0  0  0  0
  3 30  1  0  0  0  0
  4  5  1  0  0  0  0
  4 24  1  0  0  0  0
  5  6  1  0  0  0  0
  5 15  1  0  0  0  0
  6 18  1  0  0  0  0
  6 13  1  0  0  0  0
  6  7  1  0  0  0  0
  7  8  1  0  0  0  0
  8 19  1  0  0  0  0
  8  9  1  0  0  0  0
  8 11  1  0  0  0  0
  9 10  1  0  0  0  0
  9 25  1  0  0  0  0
  9 26  1  0  0  0  0
 10 27  1  0  0  0  0
 11 20  1  0  0  0  0
 11 12  1  0  0  0  0
 11 13  1  0  0  0  0
 12 28  1  0  0  0  0
 13 21  1  0  0  0  0
 13 14  1  0  0  0  0
 14 29  1  0  0  0  0
 15 16  2  0  0  0  0
 15 17  1  0  0  0  0
M  CHG  1   3   1
M  END
> <s_m_source_file>
AV-unprocessed.smi

> <i_m_source_file_index>
72

> <i_lp_mmshare_version>
43012

> <i_f3d_flags>
0

> <s_epik_input>
W05IMl1jMW5bY0hdbihjKD1PKW4xKVtDQEBIXTJPW0NASF0oW0NIMl1bT0hdKVtDQEBIXShbT0hdKVtDQEhdMltPSF0=

> <s_epik_cmdline>
J2VwaWtfcHl0aG9uJywgJy1waCcsICc3LjAnLCAnLXRuJywgJzgnLCAnLW1hJywgJzIwMCcsICctbWV0YWxfYmluZGluZycsICctaW1hZScsICc8aW5maWxlLm1hZT4nLCAnLW9tYWUnLCAnPG91dGZpbGUubWFlPic=

> <r_lp_tautomer_probability>
4.77166e-05

> <r_epik_Ionization_Penalty>
0.104979

> <r_epik_Ionization_Penalty_Charging>
0.0999619

> <r_epik_Ionization_Penalty_Neutral>
0.00501745

> <r_epik_State_Penalty>
2.51541

> <r_epik_Charging_Adjusted_Penalty>
2.61537

> <i_epik_Tot_Q>
1

> <i_epik_Tot_abs_Q>
1

> <r_epik_Metal_State_Penalty>
3.53763

> <b_epik_Metal_Only>
0

> <s_epik_Chemistry_Notes>
This compound contains an acetal/aminal-like group ( X-CH(R)-Y where X, Y are N, S, or O) that may be acid/base labile, releasing an aldehyde.

> <s_lp_Force_Field>
OPLS_2005

> <r_lp_Energy>
39.1051

> <b_lp_Chiralities_Consistent>
1

> <s_lp_Variant>
AV-unprocessed.smi:72-45

> <Gold.Version>
5.8.1

> <Gold.Id.Protein>
6NUR|6NUR_protein|mol2

> <Gold.PLP.Fitness>
38.1313

> <Gold.PLP.PLP>
-20.9760

> <Gold.PLP.part.hbond>
-3.9876

> <Gold.PLP.part.metal>
0.0000

> <Gold.PLP.part.buried>
0.1624

> <Gold.PLP.part.nonpolar>
-15.9406

> <Gold.PLP.part.repulsive>
0.1374

> <Gold.PLP.ligand.clash>
0.0000

> <Gold.PLP.ligand.torsion>
0.1444

> <Gold.PLP.Chemscore.Hbond>
4.7680

> <Gold.PLP.Chemscore.CHOScore>
0.9946

> <Gold.PLP.Chemscore.Metal>
0.0000

> <Gold.Chemscore.Hbonds>
donor molecule, donor type, donor heavy atom, donor atom, acceptor molecule, acceptor atom, score
      L1  H     1    23       P1 10175  0.78
      L1  H     3    30       P1 10175  2.00
      L1  H    14    29       P1  8028  1.00
      P1  H  7997  8010       L1    10  0.98
      L1  C     4    24       P1  7957  0.62

> <Gold.PLP.Chemscore.Internal.Correction>
0.1563

> <Gold.Rescore>
     Score         DG    S(hbond)    S(metal)    S(lipo)     H(rot)  DE(clash)    DE(int)     intcor
      6.85     -10.44       3.64        0.00      27.60       4.08       0.01       3.58       ----

> <Gold.Chemscore.Fitness>
6.8513

> <Gold.Chemscore.DG>
-10.4376

> <Gold.Chemscore.ZeroCoef>
-5.4800

> <Gold.Chemscore.Hbond>
3.6433

> <Gold.Chemscore.Metal>
0.0000

> <Gold.Chemscore.Lipo>
27.6025

> <Gold.Chemscore.Internal_Hbond>
0.0000

> <Gold.Chemscore.DEClash>
0.0063

> <Gold.Chemscore.DEInternal>
3.5800

> <Gold.Chemscore.Rot>
4.0783

> <Gold.Chemscore.Internal.Correction>
   9.000000E+99

> <Gold.Chemscore.Hbonds>
donor molecule, donor type, donor heavy atom, donor atom, acceptor molecule, acceptor atom, score
      L1  H     1    23       P1 10175  0.73
      L1  H     3    30       P1 10175  0.88
      L1  H    14    29       P1  8028  1.00
      P1  H  7997  8010       L1    10  0.92

> <Gold.Chemscore.Hbond.Weighted>
-12.1685

> <Gold.Chemscore.Metal.Weighted>
-0.0000

> <Gold.Chemscore.Lipo.Weighted>
-3.2295

> <Gold.Chemscore.Internal_Hbond.Weighted>
0.0000

> <Gold.Chemscore.DEClash.Weighted>
0.0063

> <Gold.Chemscore.DEInternal.Weighted>
3.5800

> <Gold.Chemscore.Rot.Weighted>
10.4404

> <Gold.Chemscore.Internal.Correction.Weighted>
   9.000000E+99

> <Gold.Protein.RotatedTorsions>
[ 6907 6896 6895 6894 ] final  168.68 input  -60.11 | X-H torsion
[ 7974 7965 7964 7962 ] final  145.00 input  175.53 | X-H torsion
[ 8008 7997 7996 7995 ] final   69.11 input   59.86 | X-H torsion
[ 10167 10162 10161 10158 ] final  -77.31 input  -65.29 | X-H torsion
[ 10718 10713 10712 10709 ] final  -55.42 input   66.30 | X-H torsion
[ 10763 10752 10751 10750 ] final -107.54 input  -60.55 | X-H torsion
[ 11005 11000 10999 10996 ] final  -78.50 input  -57.11 | X-H torsion

> <Gold.Protein.ActiveResidues>
 VAL166  LYS551  ARG553  GLY616  TRP617  ASP618  TYR619  PRO620  LYS621  CYS622 
 ASP623  PHE694  ASN695  SER759  ASP760  ASP761  ALA762  ILE779  LEU786  VAL792 
 PHE793  MET794  SER795  GLU796  ALA797  LYS798  CYS799  TRP800  GLU811  SER814 

> <Gold.Protein.RotatedAtoms>
  151.8438  133.3428  159.3651 H   0  0  0  0  0  0  0  0  0  0  0  0  # atno 6907 bound_to 6896
  150.7227  134.5365  159.5735 H   0  0  0  0  0  0  0  0  0  0  0  0  # atno 6908 bound_to 6896
  152.2844  134.7793  160.0441 H   0  0  0  0  0  0  0  0  0  0  0  0  # atno 6909 bound_to 6896
  144.8789  139.5730  143.5852 H   0  0  0  0  0  0  0  0  0  0  0  0  # atno 7974 bound_to 7965
  155.7186  140.3493  155.5005 H   0  0  0  0  0  0  0  0  0  0  0  0  # atno 8008 bound_to 7997
  155.9291  140.1081  157.1168 H   0  0  0  0  0  0  0  0  0  0  0  0  # atno 8009 bound_to 7997
  154.4082  140.1235  156.4765 H   0  0  0  0  0  0  0  0  0  0  0  0  # atno 8010 bound_to 7997
  140.4781  143.2409  151.8100 H   0  0  0  0  0  0  0  0  0  0  0  0  # atno 10167 bound_to 10162
  156.1370  130.4156  150.0169 H   0  0  0  0  0  0  0  0  0  0  0  0  # atno 10718 bound_to 10713
  154.8081  135.4671  154.0445 H   0  0  0  0  0  0  0  0  0  0  0  0  # atno 10763 bound_to 10752
  153.1897  135.6853  153.8375 H   0  0  0  0  0  0  0  0  0  0  0  0  # atno 10764 bound_to 10752
  153.7897  135.3245  155.3354 H   0  0  0  0  0  0  0  0  0  0  0  0  # atno 10765 bound_to 10752
  141.1665  133.7066  156.7981 H   0  0  0  0  0  0  0  0  0  0  0  0  # atno 11005 bound_to 11000
  146.2981  139.7341  142.9111 LP  0  0  0  0  0  0  0  0  0  0  0  0  # atno 17320 bound_to 7965
  145.3991  141.0383  143.3080 LP  0  0  0  0  0  0  0  0  0  0  0  0  # atno 17321 bound_to 7965
  139.4829  144.4807  151.9310 LP  0  0  0  0  0  0  0  0  0  0  0  0  # atno 17342 bound_to 10162
  140.3892  144.2637  150.5901 LP  0  0  0  0  0  0  0  0  0  0  0  0  # atno 17343 bound_to 10162
  156.8065  130.9309  151.3645 LP  0  0  0  0  0  0  0  0  0  0  0  0  # atno 17370 bound_to 10713
  157.6541  130.8909  149.9693 LP  0  0  0  0  0  0  0  0  0  0  0  0  # atno 17371 bound_to 10713
  140.2276  134.8710  157.3443 LP  0  0  0  0  0  0  0  0  0  0  0  0  # atno 17394 bound_to 11000
  140.1923  134.4356  155.7709 LP  0  0  0  0  0  0  0  0  0  0  0  0  # atno 17395 bound_to 11000

$$$$
