AV-unprocessed.smi:1064|AV-procd|sdf|4664|dock9
  -GOLD-   22720 3173D 1   1.00000     0.00000
 Structure written by MMmdl.
 35 36  0  0  0  0  0  0  0  0  1 V2000
  150.1659  143.3616  159.2992 O   0  0  0  0  0  0  0  0  0  0  0  0
  151.2720  142.8349  159.1673 C   0  0  0  0  0  0  0  0  0  0  0  0
  151.4978  141.8667  158.2629 N   0  0  0  0  0  0  0  0  0  0  0  0
  150.4928  141.3028  157.3699 C   0  0  0  0  0  0  0  0  0  0  0  0
  150.9157  141.4296  155.8976 C   0  0  0  0  0  0  0  0  0  0  0  0
  150.7173  140.1579  155.1338 C   0  0  0  0  0  0  0  0  0  0  0  0
  151.7054  139.3205  154.8339 N   0  0  0  0  0  0  0  0  0  0  0  0
  151.1009  138.3066  154.0997 C   0  0  0  0  0  0  0  0  0  0  0  0
  149.7592  138.5729  153.9744 C   0  0  0  0  0  0  0  0  0  0  0  0
  149.5221  139.7653  154.6491 N   0  0  0  0  0  0  0  0  0  0  0  0
  148.2443  140.4498  154.7656 C   0  0  0  0  0  0  0  0  0  0  0  0
  148.3320  141.6693  154.2357 F   0  0  0  0  0  0  0  0  0  0  0  0
  147.2848  139.7611  154.1465 F   0  0  0  0  0  0  0  0  0  0  0  0
  152.3598  143.2010  159.8918 N   0  0  0  0  0  0  0  0  0  0  0  0
  153.6728  142.5354  159.8693 C   0  0  0  0  0  0  0  0  0  0  0  0
  153.7425  141.5219  161.0239 C   0  0  0  0  0  0  0  0  0  0  0  0
  153.6043  142.3589  162.6343 S   0  0  0  0  0  0  0  0  0  0  0  0
  152.1277  143.3781  162.3266 C   0  0  0  0  0  0  0  0  0  0  0  0
  152.2559  144.1532  161.0039 C   0  0  0  0  0  0  0  0  0  0  0  0
  152.4324  141.4910  158.1946 H   0  0  0  0  0  0  0  0  0  0  0  0
  150.3083  140.2592  157.6296 H   0  0  0  0  0  0  0  0  0  0  0  0
  149.5539  141.8323  157.5339 H   0  0  0  0  0  0  0  0  0  0  0  0
  150.3321  142.2148  155.4150 H   0  0  0  0  0  0  0  0  0  0  0  0
  151.9563  141.7428  155.8226 H   0  0  0  0  0  0  0  0  0  0  0  0
  151.6734  137.4752  153.7158 H   0  0  0  0  0  0  0  0  0  0  0  0
  148.9755  138.0258  153.4714 H   0  0  0  0  0  0  0  0  0  0  0  0
  147.9527  140.5444  155.8112 H   0  0  0  0  0  0  0  0  0  0  0  0
  153.8842  142.0361  158.9237 H   0  0  0  0  0  0  0  0  0  0  0  0
  154.4660  143.2764  159.9776 H   0  0  0  0  0  0  0  0  0  0  0  0
  152.9433  140.7855  160.9336 H   0  0  0  0  0  0  0  0  0  0  0  0
  154.6856  140.9758  160.9950 H   0  0  0  0  0  0  0  0  0  0  0  0
  151.2478  142.7340  162.3070 H   0  0  0  0  0  0  0  0  0  0  0  0
  151.9996  144.0684  163.1604 H   0  0  0  0  0  0  0  0  0  0  0  0
  153.1345  144.7994  161.0297 H   0  0  0  0  0  0  0  0  0  0  0  0
  151.4063  144.8266  160.8822 H   0  0  0  0  0  0  0  0  0  0  0  0
  1  2  2  0  0  0  0
  2  3  1  0  0  0  0
  2 14  1  0  0  0  0
  3  4  1  0  0  0  0
  3 20  1  0  0  0  0
  4  5  1  0  0  0  0
  4 21  1  0  0  0  0
  4 22  1  0  0  0  0
  5  6  1  0  0  0  0
  5 23  1  0  0  0  0
  5 24  1  0  0  0  0
  6 10  1  0  0  0  0
  6  7  2  0  0  0  0
  7  8  1  0  0  0  0
  8  9  2  0  0  0  0
  8 25  1  0  0  0  0
  9 10  1  0  0  0  0
  9 26  1  0  0  0  0
 10 11  1  0  0  0  0
 11 12  1  0  0  0  0
 11 13  1  0  0  0  0
 11 27  1  0  0  0  0
 14 19  1  0  0  0  0
 14 15  1  0  0  0  0
 15 16  1  0  0  0  0
 15 28  1  0  0  0  0
 15 29  1  0  0  0  0
 16 17  1  0  0  0  0
 16 30  1  0  0  0  0
 16 31  1  0  0  0  0
 17 18  1  0  0  0  0
 18 19  1  0  0  0  0
 18 32  1  0  0  0  0
 18 33  1  0  0  0  0
 19 34  1  0  0  0  0
 19 35  1  0  0  0  0
M  END
> <s_m_source_file>
AV-unprocessed.smi

> <i_m_source_file_index>
1064

> <i_lp_mmshare_version>
43012

> <i_f3d_flags>
0

> <s_epik_input>
W0NIMl0xW0NIMl1TW0NIMl1bQ0gyXU4xQyg9TylbTkhdW0NIMl1bQ0gyXWMybltjSF1bY0hdbjJbQ0hdKEYpRg==

> <s_epik_cmdline>
J2VwaWtfcHl0aG9uJywgJy1waCcsICc3LjAnLCAnLXRuJywgJzgnLCAnLW1hJywgJzIwMCcsICctbWV0YWxfYmluZGluZycsICctaW1hZScsICc8aW5maWxlLm1hZT4nLCAnLW9tYWUnLCAnPG91dGZpbGUubWFlPic=

> <r_lp_tautomer_probability>
1

> <r_epik_Ionization_Penalty>
0.100551

> <r_epik_Ionization_Penalty_Charging>
0.100507

> <r_epik_Ionization_Penalty_Neutral>
4.37624e-05

> <r_epik_State_Penalty>
0.0905262

> <r_epik_Charging_Adjusted_Penalty>
0.191033

> <i_epik_Tot_Q>
0

> <i_epik_Tot_abs_Q>
0

> <r_epik_Metal_State_Penalty>
0.077291

> <b_epik_Metal_Only>
0

> <s_lp_Force_Field>
OPLS_2005

> <r_lp_Energy>
25.4045

> <b_lp_Chiralities_Consistent>
1

> <s_lp_Variant>
AV-unprocessed.smi:1064-1

> <Gold.Version>
5.8.1

> <Gold.Id.Protein>
6NUR|6NUR_protein|mol2

> <Gold.PLP.Fitness>
47.6905

> <Gold.PLP.PLP>
-44.0005

> <Gold.PLP.part.hbond>
-1.4255

> <Gold.PLP.part.metal>
0.0000

> <Gold.PLP.part.buried>
-0.1491

> <Gold.PLP.part.nonpolar>
-40.7034

> <Gold.PLP.part.repulsive>
0.2205

> <Gold.PLP.ligand.clash>
0.0000

> <Gold.PLP.ligand.torsion>
0.6237

> <Gold.PLP.Chemscore.Hbond>
0.0000

> <Gold.PLP.Chemscore.CHOScore>
1.6233

> <Gold.PLP.Chemscore.Metal>
0.0000

> <Gold.Chemscore.Hbonds>
donor molecule, donor type, donor heavy atom, donor atom, acceptor molecule, acceptor atom, score
      L1  C     8    25       P1  7949  0.50
      L1  C     9    26       P1  7948  1.00

> <Gold.PLP.Chemscore.Internal.Correction>
0.0675

> <Gold.Rescore>
     Score         DG    S(hbond)    S(metal)    S(lipo)     H(rot)  DE(clash)    DE(int)     intcor
     11.26     -12.14       0.00        0.00      92.13       1.61       0.30       0.58       ----

> <Gold.Chemscore.Fitness>
11.2591

> <Gold.Chemscore.DG>
-12.1373

> <Gold.Chemscore.ZeroCoef>
-5.4800

> <Gold.Chemscore.Hbond>
0.0000

> <Gold.Chemscore.Metal>
0.0000

> <Gold.Chemscore.Lipo>
92.1270

> <Gold.Chemscore.Internal_Hbond>
0.0000

> <Gold.Chemscore.DEClash>
0.2988

> <Gold.Chemscore.DEInternal>
0.5793

> <Gold.Chemscore.Rot>
1.6100

> <Gold.Chemscore.Internal.Correction>
   9.000000E+99

> <Gold.Chemscore.Hbond.Weighted>
-0.0000

> <Gold.Chemscore.Metal.Weighted>
-0.0000

> <Gold.Chemscore.Lipo.Weighted>
-10.7789

> <Gold.Chemscore.Internal_Hbond.Weighted>
0.0000

> <Gold.Chemscore.DEClash.Weighted>
0.2988

> <Gold.Chemscore.DEInternal.Weighted>
0.5793

> <Gold.Chemscore.Rot.Weighted>
4.1216

> <Gold.Chemscore.Internal.Correction.Weighted>
   9.000000E+99

> <Gold.Protein.RotatedTorsions>
[ 6907 6896 6895 6894 ] final  -88.02 input  -60.11 | X-H torsion
[ 7974 7965 7964 7962 ] final -178.79 input  175.53 | X-H torsion
[ 8008 7997 7996 7995 ] final  151.51 input   59.86 | X-H torsion
[ 10167 10162 10161 10158 ] final  -43.40 input  -65.29 | X-H torsion
[ 10718 10713 10712 10709 ] final  -36.49 input   66.30 | X-H torsion
[ 10763 10752 10751 10750 ] final  169.24 input  -60.55 | X-H torsion
[ 11005 11000 10999 10996 ] final -157.41 input  -57.11 | X-H torsion

> <Gold.Protein.ActiveResidues>
 VAL166  LYS551  ARG553  GLY616  TRP617  ASP618  TYR619  PRO620  LYS621  CYS622 
 ASP623  PHE694  ASN695  SER759  ASP760  ASP761  ALA762  ILE779  LEU786  VAL792 
 PHE793  MET794  SER795  GLU796  ALA797  LYS798  CYS799  TRP800  GLU811  SER814 

> <Gold.Protein.RotatedAtoms>
  150.6867  134.2807  159.4625 H   0  0  0  0  0  0  0  0  0  0  0  0  # atno 6907 bound_to 6896
  152.0721  134.9524  160.0583 H   0  0  0  0  0  0  0  0  0  0  0  0  # atno 6908 bound_to 6896
  152.0910  133.4166  159.4581 H   0  0  0  0  0  0  0  0  0  0  0  0  # atno 6909 bound_to 6896
  144.7133  140.0816  143.6425 H   0  0  0  0  0  0  0  0  0  0  0  0  # atno 7974 bound_to 7965
  156.2670  140.2046  156.6188 H   0  0  0  0  0  0  0  0  0  0  0  0  # atno 8008 bound_to 7997
  154.6773  140.0543  157.0253 H   0  0  0  0  0  0  0  0  0  0  0  0  # atno 8009 bound_to 7997
  155.1050  140.3210  155.4539 H   0  0  0  0  0  0  0  0  0  0  0  0  # atno 8010 bound_to 7997
  140.6935  143.2985  151.3346 H   0  0  0  0  0  0  0  0  0  0  0  0  # atno 10167 bound_to 10162
  156.3262  130.4273  149.7914 H   0  0  0  0  0  0  0  0  0  0  0  0  # atno 10718 bound_to 10713
  154.3803  135.2753  155.2215 H   0  0  0  0  0  0  0  0  0  0  0  0  # atno 10763 bound_to 10752
  154.4325  135.5974  153.6081 H   0  0  0  0  0  0  0  0  0  0  0  0  # atno 10764 bound_to 10752
  152.9835  135.5999  154.4045 H   0  0  0  0  0  0  0  0  0  0  0  0  # atno 10765 bound_to 10752
  140.6649  134.4310  157.5233 H   0  0  0  0  0  0  0  0  0  0  0  0  # atno 11005 bound_to 11000
  145.9697  139.2861  143.1106 LP  0  0  0  0  0  0  0  0  0  0  0  0  # atno 17320 bound_to 7965
  145.9130  140.9167  143.0444 LP  0  0  0  0  0  0  0  0  0  0  0  0  # atno 17321 bound_to 7965
  139.6364  144.0623  152.2519 LP  0  0  0  0  0  0  0  0  0  0  0  0  # atno 17342 bound_to 10162
  140.0114  144.6221  150.7644 LP  0  0  0  0  0  0  0  0  0  0  0  0  # atno 17343 bound_to 10162
  156.5203  130.8212  151.3201 LP  0  0  0  0  0  0  0  0  0  0  0  0  # atno 17370 bound_to 10713
  157.7422  130.9885  150.2497 LP  0  0  0  0  0  0  0  0  0  0  0  0  # atno 17371 bound_to 10713
  139.9001  134.8577  156.1934 LP  0  0  0  0  0  0  0  0  0  0  0  0  # atno 17394 bound_to 11000
  141.0437  133.6924  156.1644 LP  0  0  0  0  0  0  0  0  0  0  0  0  # atno 17395 bound_to 11000

$$$$
