AV-unprocessed.smi:3136|AV-procd|sdf|11950|dock9
  -GOLD-   2272017343D 1   1.00000     0.00000
 Structure written by MMmdl.
 40 40  0  0  0  0  0  0  0  0  2 V2000
  148.1759  145.3318  161.5059 C   0  0  0  0  0  0  0  0  0  0  0  0
  147.7405  144.5428  160.2639 C   0  0  0  0  0  0  0  0  0  0  0  0
  148.7846  144.5266  159.2459 N   0  0  0  0  0  0  0  0  0  0  0  0
  150.0547  144.1445  159.4497 C   0  0  0  0  0  0  0  0  0  0  0  0
  150.4796  143.7680  160.5422 O   0  0  0  0  0  0  0  0  0  0  0  0
  150.9821  144.1972  158.2319 C   0  0  0  0  0  0  0  0  0  0  0  0
  151.0492  142.8591  157.4773 C   0  0  0  0  0  0  0  0  0  0  0  0
  149.7133  142.4582  156.9892 N   0  3  0  0  0  0  0  0  0  0  0  0
  149.7014  141.2937  156.0722 C   0  0  2  0  0  0  0  0  0  0  0  0
  148.2408  140.8640  155.8565 C   0  0  0  0  0  0  0  0  0  0  0  0
  150.5866  140.1448  156.6298 C   0  0  1  0  0  0  0  0  0  0  0  0
  150.1242  139.6276  158.0057 C   0  0  0  0  0  0  0  0  0  0  0  0
  150.6715  139.0350  155.6862 N   0  0  0  0  0  0  0  0  0  0  0  0
  151.4267  137.8808  155.7677 C   0  0  0  0  0  0  0  0  0  0  0  0
  151.1333  137.1215  154.6717 C   0  0  0  0  0  0  0  0  0  0  0  0
  150.1691  137.8974  153.9711 C   0  0  0  0  0  0  0  0  0  0  0  0
  149.8887  139.0359  154.5842 N   0  0  0  0  0  0  0  0  0  0  0  0
  147.3990  145.3088  162.2702 H   0  0  0  0  0  0  0  0  0  0  0  0
  148.3711  146.3773  161.2654 H   0  0  0  0  0  0  0  0  0  0  0  0
  149.0830  144.9121  161.9421 H   0  0  0  0  0  0  0  0  0  0  0  0
  147.5209  143.5119  160.5423 H   0  0  0  0  0  0  0  0  0  0  0  0
  146.8175  144.9569  159.8548 H   0  0  0  0  0  0  0  0  0  0  0  0
  148.5193  144.8249  158.3183 H   0  0  0  0  0  0  0  0  0  0  0  0
  150.6274  144.9773  157.5559 H   0  0  0  0  0  0  0  0  0  0  0  0
  151.9783  144.4946  158.5615 H   0  0  0  0  0  0  0  0  0  0  0  0
  151.7284  142.9346  156.6269 H   0  0  0  0  0  0  0  0  0  0  0  0
  151.4436  142.0841  158.1347 H   0  0  0  0  0  0  0  0  0  0  0  0
  149.1267  142.2404  157.7825 H   0  0  0  0  0  0  0  0  0  0  0  0
  150.0935  141.6030  155.1013 H   0  0  0  0  0  0  0  0  0  0  0  0
  148.1548  140.0962  155.0878 H   0  0  0  0  0  0  0  0  0  0  0  0
  147.6301  141.7065  155.5299 H   0  0  0  0  0  0  0  0  0  0  0  0
  147.8010  140.4717  156.7742 H   0  0  0  0  0  0  0  0  0  0  0  0
  151.5982  140.5333  156.7642 H   0  0  0  0  0  0  0  0  0  0  0  0
  150.2372  140.3869  158.7789 H   0  0  0  0  0  0  0  0  0  0  0  0
  150.7175  138.7680  158.3197 H   0  0  0  0  0  0  0  0  0  0  0  0
  149.0779  139.3218  157.9898 H   0  0  0  0  0  0  0  0  0  0  0  0
  152.1005  137.6938  156.5909 H   0  0  0  0  0  0  0  0  0  0  0  0
  151.5424  136.1563  154.4117 H   0  0  0  0  0  0  0  0  0  0  0  0
  149.6640  137.6663  153.0449 H   0  0  0  0  0  0  0  0  0  0  0  0
  149.3139  143.2478  156.5026 H   0  0  0  0  0  0  0  0  0  0  0  0
  1  2  1  0  0  0  0
  1 18  1  0  0  0  0
  1 19  1  0  0  0  0
  1 20  1  0  0  0  0
  2  3  1  0  0  0  0
  2 21  1  0  0  0  0
  2 22  1  0  0  0  0
  3  4  1  0  0  0  0
  3 23  1  0  0  0  0
  4  5  2  0  0  0  0
  4  6  1  0  0  0  0
  6  7  1  0  0  0  0
  6 24  1  0  0  0  0
  6 25  1  0  0  0  0
  7  8  1  0  0  0  0
  7 26  1  0  0  0  0
  7 27  1  0  0  0  0
  8  9  1  0  0  0  0
  8 28  1  0  0  0  0
  8 40  1  0  0  0  0
  9 10  1  0  0  0  0
  9 11  1  0  0  0  0
  9 29  1  0  0  0  0
 10 30  1  0  0  0  0
 10 31  1  0  0  0  0
 10 32  1  0  0  0  0
 11 12  1  0  0  0  0
 11 13  1  0  0  0  0
 11 33  1  0  0  0  0
 12 34  1  0  0  0  0
 12 35  1  0  0  0  0
 12 36  1  0  0  0  0
 13 17  1  0  0  0  0
 13 14  1  0  0  0  0
 14 15  2  0  0  0  0
 14 37  1  0  0  0  0
 15 16  1  0  0  0  0
 15 38  1  0  0  0  0
 16 17  2  0  0  0  0
 16 39  1  0  0  0  0
M  CHG  1   8   1
M  END
> <s_m_source_file>
AV-unprocessed.smi

> <i_m_source_file_index>
3136

> <i_lp_mmshare_version>
43012

> <i_f3d_flags>
0

> <s_epik_input>
W0NIM11bQ0gyXVtOSF1DKD1PKVtDSDJdW0NIMl1bTkhdW0NASF0oW0NIM10pW0NASF0oW0NIM10pbjFbY0hdW2NIXVtjSF1uMQ==

> <s_epik_cmdline>
J2VwaWtfcHl0aG9uJywgJy1waCcsICc3LjAnLCAnLXRuJywgJzgnLCAnLW1hJywgJzIwMCcsICctbWV0YWxfYmluZGluZycsICctaW1hZScsICc8aW5maWxlLm1hZT4nLCAnLW9tYWUnLCAnPG91dGZpbGUubWFlPic=

> <r_lp_tautomer_probability>
1

> <r_epik_Ionization_Penalty>
0.00463447

> <r_epik_Ionization_Penalty_Charging>
0.00462393

> <r_epik_Ionization_Penalty_Neutral>
1.05394e-05

> <r_epik_State_Penalty>
-0

> <r_epik_Charging_Adjusted_Penalty>
0.00462393

> <i_epik_Tot_Q>
1

> <i_epik_Tot_abs_Q>
1

> <r_epik_Metal_State_Penalty>
-0

> <b_epik_Metal_Only>
0

> <s_lp_Force_Field>
OPLS_2005

> <r_lp_Energy>
10.6492

> <b_lp_Chiralities_Consistent>
1

> <s_lp_Variant>
AV-unprocessed.smi:3136-3

> <Gold.Version>
5.8.1

> <Gold.Id.Protein>
6NUR|6NUR_protein|mol2

> <Gold.PLP.Fitness>
49.5236

> <Gold.PLP.PLP>
-35.6043

> <Gold.PLP.part.hbond>
-3.7341

> <Gold.PLP.part.metal>
0.0000

> <Gold.PLP.part.buried>
-5.3579

> <Gold.PLP.part.nonpolar>
-28.1623

> <Gold.PLP.part.repulsive>
0.4584

> <Gold.PLP.ligand.clash>
0.0000

> <Gold.PLP.ligand.torsion>
0.5362

> <Gold.PLP.Chemscore.Hbond>
4.0000

> <Gold.PLP.Chemscore.CHOScore>
0.9433

> <Gold.PLP.Chemscore.Metal>
0.0000

> <Gold.Chemscore.Hbonds>
donor molecule, donor type, donor heavy atom, donor atom, acceptor molecule, acceptor atom, score
      L1  H     3    23       P1  8029  1.00
      L1  H     8    40       P1  8028  2.00
      L1  C    16    39       P1  7948  0.80

> <Gold.PLP.Chemscore.Internal.Correction>
0.1620

> <Gold.Rescore>
     Score         DG    S(hbond)    S(metal)    S(lipo)     H(rot)  DE(clash)    DE(int)     intcor
     16.04     -18.12       2.82        0.00      78.20       2.32       0.04       2.04       ----

> <Gold.Chemscore.Fitness>
16.0449

> <Gold.Chemscore.DG>
-18.1220

> <Gold.Chemscore.ZeroCoef>
-5.4800

> <Gold.Chemscore.Hbond>
2.8206

> <Gold.Chemscore.Metal>
0.0000

> <Gold.Chemscore.Lipo>
78.2040

> <Gold.Chemscore.Internal_Hbond>
0.0000

> <Gold.Chemscore.DEClash>
0.0398

> <Gold.Chemscore.DEInternal>
2.0372

> <Gold.Chemscore.Rot>
2.3159

> <Gold.Chemscore.Internal.Correction>
   9.000000E+99

> <Gold.Chemscore.Hbonds>
donor molecule, donor type, donor heavy atom, donor atom, acceptor molecule, acceptor atom, score
      L1  H     3    23       P1  8029  0.79
      L1  H     8    40       P1  8028  1.00

> <Gold.Chemscore.Hbond.Weighted>
-9.4207

> <Gold.Chemscore.Metal.Weighted>
-0.0000

> <Gold.Chemscore.Lipo.Weighted>
-9.1499

> <Gold.Chemscore.Internal_Hbond.Weighted>
0.0000

> <Gold.Chemscore.DEClash.Weighted>
0.0398

> <Gold.Chemscore.DEInternal.Weighted>
2.0372

> <Gold.Chemscore.Rot.Weighted>
5.9286

> <Gold.Chemscore.Internal.Correction.Weighted>
   9.000000E+99

> <Gold.Protein.RotatedTorsions>
[ 6907 6896 6895 6894 ] final   40.33 input  -60.11 | X-H torsion
[ 7974 7965 7964 7962 ] final  -69.39 input  175.53 | X-H torsion
[ 8008 7997 7996 7995 ] final   27.29 input   59.86 | X-H torsion
[ 10167 10162 10161 10158 ] final  132.75 input  -65.29 | X-H torsion
[ 10718 10713 10712 10709 ] final  153.14 input   66.30 | X-H torsion
[ 10763 10752 10751 10750 ] final -142.48 input  -60.55 | X-H torsion
[ 11005 11000 10999 10996 ] final  -54.02 input  -57.11 | X-H torsion

> <Gold.Protein.ActiveResidues>
 VAL166  LYS551  ARG553  GLY616  TRP617  ASP618  TYR619  PRO620  LYS621  CYS622 
 ASP623  PHE694  ASN695  SER759  ASP760  ASP761  ALA762  ILE779  LEU786  VAL792 
 PHE793  MET794  SER795  GLU796  ALA797  LYS798  CYS799  TRP800  GLU811  SER814 

> <Gold.Protein.RotatedAtoms>
  152.1812  134.8753  160.0525 H   0  0  0  0  0  0  0  0  0  0  0  0  # atno 6907 bound_to 6896
  151.9676  133.3710  159.4067 H   0  0  0  0  0  0  0  0  0  0  0  0  # atno 6908 bound_to 6896
  150.6918  134.4097  159.5200 H   0  0  0  0  0  0  0  0  0  0  0  0  # atno 6909 bound_to 6896
  145.7043  140.9104  143.0714 H   0  0  0  0  0  0  0  0  0  0  0  0  # atno 7974 bound_to 7965
  155.0406  140.3169  155.4726 H   0  0  0  0  0  0  0  0  0  0  0  0  # atno 8008 bound_to 7997
  156.2855  140.2163  156.5473 H   0  0  0  0  0  0  0  0  0  0  0  0  # atno 8009 bound_to 7997
  154.7293  140.0483  157.0699 H   0  0  0  0  0  0  0  0  0  0  0  0  # atno 8010 bound_to 7997
  139.5326  144.6647  151.4897 H   0  0  0  0  0  0  0  0  0  0  0  0  # atno 10167 bound_to 10162
  157.2486  131.0774  151.1745 H   0  0  0  0  0  0  0  0  0  0  0  0  # atno 10718 bound_to 10713
  154.8507  135.3495  154.6034 H   0  0  0  0  0  0  0  0  0  0  0  0  # atno 10763 bound_to 10752
  153.6643  135.6988  153.5172 H   0  0  0  0  0  0  0  0  0  0  0  0  # atno 10764 bound_to 10752
  153.2793  135.4268  155.1020 H   0  0  0  0  0  0  0  0  0  0  0  0  # atno 10765 bound_to 10752
  141.1005  133.6618  156.4258 H   0  0  0  0  0  0  0  0  0  0  0  0  # atno 11005 bound_to 11000
  144.6959  139.8989  143.7457 LP  0  0  0  0  0  0  0  0  0  0  0  0  # atno 17320 bound_to 7965
  146.0770  139.3757  143.0488 LP  0  0  0  0  0  0  0  0  0  0  0  0  # atno 17321 bound_to 7965
  140.6514  143.8690  150.6789 LP  0  0  0  0  0  0  0  0  0  0  0  0  # atno 17342 bound_to 10162
  140.2055  143.3925  152.1758 LP  0  0  0  0  0  0  0  0  0  0  0  0  # atno 17343 bound_to 10162
  157.3302  130.6981  149.6320 LP  0  0  0  0  0  0  0  0  0  0  0  0  # atno 17370 bound_to 10713
  155.9667  130.4309  150.4899 LP  0  0  0  0  0  0  0  0  0  0  0  0  # atno 17371 bound_to 10713
  140.5034  134.6464  157.5257 LP  0  0  0  0  0  0  0  0  0  0  0  0  # atno 17394 bound_to 11000
  139.9855  134.7069  155.9782 LP  0  0  0  0  0  0  0  0  0  0  0  0  # atno 17395 bound_to 11000

$$$$
