AV-unprocessed.smi:3046|AV-procd|sdf|11615|dock9
  -GOLD-   2272016593D 1   1.00000     0.00000
 Structure written by MMmdl.
 38 38  0  0  0  0  0  0  0  0  2 V2000
  148.1276  133.4323  153.2673 C   0  0  0  0  0  0  0  0  0  0  0  0
  146.8786  133.8453  153.5288 C   0  0  0  0  0  0  0  0  0  0  0  0
  146.5349  135.0723  154.3502 C   0  0  0  0  0  0  0  0  0  0  0  0
  147.0112  136.2924  153.7100 N   0  0  0  0  0  0  0  0  0  0  0  0
  146.7604  137.5388  154.1403 C   0  0  0  0  0  0  0  0  0  0  0  0
  146.1038  137.7846  155.1529 O   0  0  0  0  0  0  0  0  0  0  0  0
  147.3429  138.6818  153.2985 C   0  0  2  0  0  0  0  0  0  0  0  0
  146.7586  138.6357  151.8783 C   0  0  0  0  0  0  0  0  0  0  0  0
  148.8211  138.6068  153.2261 N   0  3  0  0  0  0  0  0  0  0  0  0
  149.5692  138.9702  154.4551 C   0  0  1  0  0  0  0  0  0  0  0  0
  150.9921  138.3859  154.4444 C   0  0  0  0  0  0  0  0  0  0  0  0
  149.6122  140.5032  154.6105 C   0  0  0  0  0  0  0  0  0  0  0  0
  150.2531  140.9148  155.8473 N   0  0  0  0  0  0  0  0  0  0  0  0
  150.5265  142.1935  156.2862 C   0  0  0  0  0  0  0  0  0  0  0  0
  151.1454  142.0830  157.4983 C   0  0  0  0  0  0  0  0  0  0  0  0
  151.2053  140.6789  157.7215 C   0  0  0  0  0  0  0  0  0  0  0  0
  150.6728  139.9824  156.7302 N   0  0  0  0  0  0  0  0  0  0  0  0
  148.9875  133.9716  153.6374 H   0  0  0  0  0  0  0  0  0  0  0  0
  148.3060  132.5452  152.6772 H   0  0  0  0  0  0  0  0  0  0  0  0
  146.0454  133.2748  153.1439 H   0  0  0  0  0  0  0  0  0  0  0  0
  145.4546  135.1156  154.4974 H   0  0  0  0  0  0  0  0  0  0  0  0
  146.9856  134.9976  155.3403 H   0  0  0  0  0  0  0  0  0  0  0  0
  147.5665  136.1788  152.8741 H   0  0  0  0  0  0  0  0  0  0  0  0
  147.0547  139.6344  153.7461 H   0  0  0  0  0  0  0  0  0  0  0  0
  145.6707  138.7132  151.8923 H   0  0  0  0  0  0  0  0  0  0  0  0
  147.0196  137.7082  151.3665 H   0  0  0  0  0  0  0  0  0  0  0  0
  147.1352  139.4626  151.2752 H   0  0  0  0  0  0  0  0  0  0  0  0
  149.0934  137.6841  152.9172 H   0  0  0  0  0  0  0  0  0  0  0  0
  149.0381  138.5674  155.3190 H   0  0  0  0  0  0  0  0  0  0  0  0
  151.5516  138.7036  155.3247 H   0  0  0  0  0  0  0  0  0  0  0  0
  151.5484  138.7102  153.5640 H   0  0  0  0  0  0  0  0  0  0  0  0
  150.9815  137.2963  154.4524 H   0  0  0  0  0  0  0  0  0  0  0  0
  150.1677  140.9486  153.7842 H   0  0  0  0  0  0  0  0  0  0  0  0
  148.6068  140.9264  154.5712 H   0  0  0  0  0  0  0  0  0  0  0  0
  150.2628  143.0657  155.7059 H   0  0  0  0  0  0  0  0  0  0  0  0
  151.5004  142.8834  158.1306 H   0  0  0  0  0  0  0  0  0  0  0  0
  151.6183  140.1489  158.5671 H   0  0  0  0  0  0  0  0  0  0  0  0
  149.1075  139.2698  152.5192 H   0  0  0  0  0  0  0  0  0  0  0  0
  1  2  2  0  0  0  0
  1 18  1  0  0  0  0
  1 19  1  0  0  0  0
  2  3  1  0  0  0  0
  2 20  1  0  0  0  0
  3  4  1  0  0  0  0
  3 21  1  0  0  0  0
  3 22  1  0  0  0  0
  4  5  1  0  0  0  0
  4 23  1  0  0  0  0
  5  6  2  0  0  0  0
  5  7  1  0  0  0  0
  7  8  1  0  0  0  0
  7  9  1  0  0  0  0
  7 24  1  0  0  0  0
  8 25  1  0  0  0  0
  8 26  1  0  0  0  0
  8 27  1  0  0  0  0
  9 10  1  0  0  0  0
  9 28  1  0  0  0  0
  9 38  1  0  0  0  0
 10 11  1  0  0  0  0
 10 12  1  0  0  0  0
 10 29  1  0  0  0  0
 11 30  1  0  0  0  0
 11 31  1  0  0  0  0
 11 32  1  0  0  0  0
 12 13  1  0  0  0  0
 12 33  1  0  0  0  0
 12 34  1  0  0  0  0
 13 17  1  0  0  0  0
 13 14  1  0  0  0  0
 14 15  2  0  0  0  0
 14 35  1  0  0  0  0
 15 16  1  0  0  0  0
 15 36  1  0  0  0  0
 16 17  2  0  0  0  0
 16 37  1  0  0  0  0
M  CHG  1   9   1
M  END
> <s_m_source_file>
AV-unprocessed.smi

> <i_m_source_file_index>
3046

> <i_lp_mmshare_version>
43012

> <i_f3d_flags>
0

> <s_epik_input>
W0NIMl09W0NIXVtDSDJdW05IXUMoPU8pW0NASF0oW0NIM10pW05IXVtDQEhdKFtDSDNdKVtDSDJdbjFbY0hdW2NIXVtjSF1uMQ==

> <s_epik_cmdline>
J2VwaWtfcHl0aG9uJywgJy1waCcsICc3LjAnLCAnLXRuJywgJzgnLCAnLW1hJywgJzIwMCcsICctbWV0YWxfYmluZGluZycsICctaW1hZScsICc8aW5maWxlLm1hZT4nLCAnLW9tYWUnLCAnPG91dGZpbGUubWFlPic=

> <r_lp_tautomer_probability>
1

> <r_epik_Ionization_Penalty>
0.132961

> <r_epik_Ionization_Penalty_Charging>
0.132956

> <r_epik_Ionization_Penalty_Neutral>
5.00268e-06

> <r_epik_State_Penalty>
0.122332

> <r_epik_Charging_Adjusted_Penalty>
0.255288

> <i_epik_Tot_Q>
1

> <i_epik_Tot_abs_Q>
1

> <r_epik_Metal_State_Penalty>
0.122338

> <b_epik_Metal_Only>
0

> <s_lp_Force_Field>
OPLS_2005

> <r_lp_Energy>
6.26821

> <b_lp_Chiralities_Consistent>
1

> <s_lp_Variant>
AV-unprocessed.smi:3046-3

> <Gold.Version>
5.8.1

> <Gold.Id.Protein>
6NUR|6NUR_protein|mol2

> <Gold.PLP.Fitness>
45.3707

> <Gold.PLP.PLP>
-30.8308

> <Gold.PLP.part.hbond>
-3.0000

> <Gold.PLP.part.metal>
0.0000

> <Gold.PLP.part.buried>
-1.9489

> <Gold.PLP.part.nonpolar>
-26.5442

> <Gold.PLP.part.repulsive>
0.1171

> <Gold.PLP.ligand.clash>
0.0000

> <Gold.PLP.ligand.torsion>
0.3069

> <Gold.PLP.Chemscore.Hbond>
4.0000

> <Gold.PLP.Chemscore.CHOScore>
1.0000

> <Gold.PLP.Chemscore.Metal>
0.0000

> <Gold.Chemscore.Hbonds>
donor molecule, donor type, donor heavy atom, donor atom, acceptor molecule, acceptor atom, score
      L1  H     4    23       P1  7948  1.00
      L1  H     9    28       P1  7948  2.00
      L1  H     9    38       P1  7957  1.00
      L1  C    14    35       P1  8028  1.00

> <Gold.PLP.Chemscore.Internal.Correction>
0.1538

> <Gold.Rescore>
     Score         DG    S(hbond)    S(metal)    S(lipo)     H(rot)  DE(clash)    DE(int)     intcor
     16.05     -17.70       2.99        0.00      68.61       2.26       0.00       1.64       ----

> <Gold.Chemscore.Fitness>
16.0472

> <Gold.Chemscore.DG>
-17.6964

> <Gold.Chemscore.ZeroCoef>
-5.4800

> <Gold.Chemscore.Hbond>
2.9884

> <Gold.Chemscore.Metal>
0.0000

> <Gold.Chemscore.Lipo>
68.6102

> <Gold.Chemscore.Internal_Hbond>
0.0000

> <Gold.Chemscore.DEClash>
0.0048

> <Gold.Chemscore.DEInternal>
1.6444

> <Gold.Chemscore.Rot>
2.2626

> <Gold.Chemscore.Internal.Correction>
   9.000000E+99

> <Gold.Chemscore.Hbonds>
donor molecule, donor type, donor heavy atom, donor atom, acceptor molecule, acceptor atom, score
      L1  H     4    23       P1  7948  0.99
      L1  H     9    28       P1  7948  0.97
      L1  H     9    38       P1  7957  0.99

> <Gold.Chemscore.Hbond.Weighted>
-9.9812

> <Gold.Chemscore.Metal.Weighted>
-0.0000

> <Gold.Chemscore.Lipo.Weighted>
-8.0274

> <Gold.Chemscore.Internal_Hbond.Weighted>
0.0000

> <Gold.Chemscore.DEClash.Weighted>
0.0048

> <Gold.Chemscore.DEInternal.Weighted>
1.6444

> <Gold.Chemscore.Rot.Weighted>
5.7922

> <Gold.Chemscore.Internal.Correction.Weighted>
   9.000000E+99

> <Gold.Protein.RotatedTorsions>
[ 6907 6896 6895 6894 ] final -133.42 input  -60.11 | X-H torsion
[ 7974 7965 7964 7962 ] final   17.55 input  175.53 | X-H torsion
[ 8008 7997 7996 7995 ] final  161.96 input   59.86 | X-H torsion
[ 10167 10162 10161 10158 ] final -150.16 input  -65.29 | X-H torsion
[ 10718 10713 10712 10709 ] final  116.54 input   66.30 | X-H torsion
[ 10763 10752 10751 10750 ] final -179.98 input  -60.55 | X-H torsion
[ 11005 11000 10999 10996 ] final   61.11 input  -57.11 | X-H torsion

> <Gold.Protein.ActiveResidues>
 VAL166  LYS551  ARG553  GLY616  TRP617  ASP618  TYR619  PRO620  LYS621  CYS622 
 ASP623  PHE694  ASN695  SER759  ASP760  ASP761  ALA762  ILE779  LEU786  VAL792 
 PHE793  MET794  SER795  GLU796  ALA797  LYS798  CYS799  TRP800  GLU811  SER814 

> <Gold.Protein.RotatedAtoms>
  150.9738  133.6316  159.2733 H   0  0  0  0  0  0  0  0  0  0  0  0  # atno 6907 bound_to 6896
  151.3596  135.0900  159.9439 H   0  0  0  0  0  0  0  0  0  0  0  0  # atno 6908 bound_to 6896
  152.5192  133.9314  159.7637 H   0  0  0  0  0  0  0  0  0  0  0  0  # atno 6909 bound_to 6896
  146.2214  139.8585  142.8609 H   0  0  0  0  0  0  0  0  0  0  0  0  # atno 7974 bound_to 7965
  156.2065  140.1763  156.7788 H   0  0  0  0  0  0  0  0  0  0  0  0  # atno 8008 bound_to 7997
  154.5663  140.0690  156.8926 H   0  0  0  0  0  0  0  0  0  0  0  0  # atno 8009 bound_to 7997
  155.2755  140.3345  155.4264 H   0  0  0  0  0  0  0  0  0  0  0  0  # atno 8010 bound_to 7997
  139.7379  143.8707  152.2554 H   0  0  0  0  0  0  0  0  0  0  0  0  # atno 10167 bound_to 10162
  157.6154  131.1026  150.7488 H   0  0  0  0  0  0  0  0  0  0  0  0  # atno 10718 bound_to 10713
  154.5282  135.2798  155.1204 H   0  0  0  0  0  0  0  0  0  0  0  0  # atno 10763 bound_to 10752
  154.2734  135.6299  153.5323 H   0  0  0  0  0  0  0  0  0  0  0  0  # atno 10764 bound_to 10752
  152.9951  135.5634  154.5788 H   0  0  0  0  0  0  0  0  0  0  0  0  # atno 10765 bound_to 10752
  140.0184  134.6189  155.9675 H   0  0  0  0  0  0  0  0  0  0  0  0  # atno 11005 bound_to 11000
  145.2728  141.0114  143.3762 LP  0  0  0  0  0  0  0  0  0  0  0  0  # atno 17320 bound_to 7965
  144.9210  139.4412  143.6541 LP  0  0  0  0  0  0  0  0  0  0  0  0  # atno 17321 bound_to 7965
  139.8649  144.7098  150.9055 LP  0  0  0  0  0  0  0  0  0  0  0  0  # atno 17342 bound_to 10162
  140.7781  143.3786  151.1518 LP  0  0  0  0  0  0  0  0  0  0  0  0  # atno 17343 bound_to 10162
  156.7856  130.4873  149.5393 LP  0  0  0  0  0  0  0  0  0  0  0  0  # atno 17370 bound_to 10713
  156.1273  130.6153  151.0282 LP  0  0  0  0  0  0  0  0  0  0  0  0  # atno 17371 bound_to 10713
  141.1758  133.6540  156.4823 LP  0  0  0  0  0  0  0  0  0  0  0  0  # atno 17394 bound_to 11000
  140.4430  134.6998  157.5001 LP  0  0  0  0  0  0  0  0  0  0  0  0  # atno 17395 bound_to 11000

$$$$
