AV-unprocessed.smi:247|AV-procd|sdf|1888|dock4
  -GOLD-   2262020543D 1   1.00000     0.00000
 Structure written by MMmdl.
 61 65  0  0  0  0  0  0  0  0  1 V2000
  143.3478  147.2249  155.7751 O   0  0  0  0  0  0  0  0  0  0  0  0
  143.5056  145.8571  155.4532 C   0  0  0  0  0  0  0  0  0  0  0  0
  143.2154  144.9030  156.6453 C   0  0  0  0  0  0  0  0  0  0  0  0
  143.3632  143.4310  156.1456 C   0  0  0  0  0  0  0  0  0  0  0  0
  144.7212  143.0246  155.8106 N   0  0  0  0  0  0  0  0  0  0  0  0
  145.4100  143.3248  154.6556 C   0  0  0  0  0  0  0  0  0  0  0  0
  146.6245  142.8525  154.5893 N   0  0  0  0  0  0  0  0  0  0  0  0
  146.7937  142.1952  155.8001 C   0  0  0  0  0  0  0  0  0  0  0  0
  147.8669  141.4794  156.3894 C   0  0  0  0  0  0  0  0  0  0  0  0
  149.0477  141.3200  155.7516 N   0  0  0  0  0  0  0  0  0  0  0  0
  148.9572  140.6853  154.4408 C   0  0  0  0  0  0  0  0  0  0  0  0
  150.2093  139.8100  154.2864 C   0  0  0  0  0  0  0  0  0  0  0  0
  151.1238  140.2489  155.4284 C   0  0  0  0  0  0  0  0  0  0  0  0
  150.1150  140.6662  156.5015 C   0  0  1  0  0  0  0  0  0  0  0  0
  150.6610  141.5235  157.6766 C   0  0  2  0  0  0  0  0  0  0  0  0
  151.0717  142.9551  157.2569 C   0  0  0  0  0  0  0  0  0  0  0  0
  151.4865  143.7042  158.3938 O   0  0  0  0  0  0  0  0  0  0  0  0
  152.6446  143.1647  159.0199 C   0  0  0  0  0  0  0  0  0  0  0  0
  152.3356  141.7569  159.5491 C   0  0  0  0  0  0  0  0  0  0  0  0
  151.8390  140.8511  158.4131 C   0  0  1  0  0  0  0  0  0  0  0  0
  151.4443  139.6114  158.9666 O   0  0  0  0  0  0  0  0  0  0  0  0
  147.6813  140.9592  157.6312 N   0  0  0  0  0  0  0  0  0  0  0  0
  146.5139  141.1346  158.2584 C   0  0  0  0  0  0  0  0  0  0  0  0
  145.4260  141.7820  157.8333 N   0  0  0  0  0  0  0  0  0  0  0  0
  145.6119  142.2995  156.5846 C   0  0  0  0  0  0  0  0  0  0  0  0
  144.1786  145.2200  157.8185 C   0  0  0  0  0  0  0  0  0  0  0  0
  143.7968  144.4698  159.1070 C   0  0  0  0  0  0  0  0  0  0  0  0
  142.4611  144.7928  159.4740 O   0  0  0  0  0  0  0  0  0  0  0  0
  141.5036  144.3946  158.5002 C   0  0  0  0  0  0  0  0  0  0  0  0
  141.7696  145.1167  157.1647 C   0  0  0  0  0  0  0  0  0  0  0  0
  144.1479  147.5343  156.1717 H   0  0  0  0  0  0  0  0  0  0  0  0
  142.8449  145.6303  154.6158 H   0  0  0  0  0  0  0  0  0  0  0  0
  144.5266  145.7283  155.0946 H   0  0  0  0  0  0  0  0  0  0  0  0
  142.9915  142.7211  156.8827 H   0  0  0  0  0  0  0  0  0  0  0  0
  142.7415  143.2782  155.2625 H   0  0  0  0  0  0  0  0  0  0  0  0
  144.9786  143.9055  153.8533 H   0  0  0  0  0  0  0  0  0  0  0  0
  148.0476  140.0949  154.3190 H   0  0  0  0  0  0  0  0  0  0  0  0
  148.9461  141.4677  153.6817 H   0  0  0  0  0  0  0  0  0  0  0  0
  149.9395  138.7612  154.4162 H   0  0  0  0  0  0  0  0  0  0  0  0
  150.6779  139.9156  153.3075 H   0  0  0  0  0  0  0  0  0  0  0  0
  151.7944  139.4550  155.7586 H   0  0  0  0  0  0  0  0  0  0  0  0
  151.7302  141.0929  155.1010 H   0  0  0  0  0  0  0  0  0  0  0  0
  149.7034  139.7471  156.9219 H   0  0  0  0  0  0  0  0  0  0  0  0
  149.8519  141.6298  158.4013 H   0  0  0  0  0  0  0  0  0  0  0  0
  151.8757  142.9454  156.5207 H   0  0  0  0  0  0  0  0  0  0  0  0
  150.2321  143.4771  156.7993 H   0  0  0  0  0  0  0  0  0  0  0  0
  153.4785  143.1437  158.3166 H   0  0  0  0  0  0  0  0  0  0  0  0
  152.9371  143.8184  159.8419 H   0  0  0  0  0  0  0  0  0  0  0  0
  153.2235  141.3288  160.0158 H   0  0  0  0  0  0  0  0  0  0  0  0
  151.5757  141.8284  160.3288 H   0  0  0  0  0  0  0  0  0  0  0  0
  152.6584  140.6695  157.7168 H   0  0  0  0  0  0  0  0  0  0  0  0
  150.8801  139.1715  158.3491 H   0  0  0  0  0  0  0  0  0  0  0  0
  146.4418  140.6943  159.2420 H   0  0  0  0  0  0  0  0  0  0  0  0
  145.2131  145.0105  157.5494 H   0  0  0  0  0  0  0  0  0  0  0  0
  144.1501  146.2868  158.0425 H   0  0  0  0  0  0  0  0  0  0  0  0
  143.9069  143.3910  158.9945 H   0  0  0  0  0  0  0  0  0  0  0  0
  144.4610  144.7677  159.9183 H   0  0  0  0  0  0  0  0  0  0  0  0
  141.5134  143.3108  158.3849 H   0  0  0  0  0  0  0  0  0  0  0  0
  140.5108  144.6545  158.8672 H   0  0  0  0  0  0  0  0  0  0  0  0
  141.5811  146.1780  157.3287 H   0  0  0  0  0  0  0  0  0  0  0  0
  141.0435  144.7964  156.4168 H   0  0  0  0  0  0  0  0  0  0  0  0
  1  2  1  0  0  0  0
  1 31  1  0  0  0  0
  2  3  1  0  0  0  0
  2 32  1  0  0  0  0
  2 33  1  0  0  0  0
  3 30  1  0  0  0  0
  3  4  1  0  0  0  0
  3 26  1  0  0  0  0
  4  5  1  0  0  0  0
  4 34  1  0  0  0  0
  4 35  1  0  0  0  0
  5 25  1  0  0  0  0
  5  6  1  0  0  0  0
  6  7  2  0  0  0  0
  6 36  1  0  0  0  0
  7  8  1  0  0  0  0
  8 25  2  0  0  0  0
  8  9  1  0  0  0  0
  9 10  1  0  0  0  0
  9 22  2  0  0  0  0
 10 14  1  0  0  0  0
 10 11  1  0  0  0  0
 11 12  1  0  0  0  0
 11 37  1  0  0  0  0
 11 38  1  0  0  0  0
 12 13  1  0  0  0  0
 12 39  1  0  0  0  0
 12 40  1  0  0  0  0
 13 14  1  0  0  0  0
 13 41  1  0  0  0  0
 13 42  1  0  0  0  0
 14 15  1  0  0  0  0
 14 43  1  0  0  0  0
 15 20  1  0  0  0  0
 15 16  1  0  0  0  0
 15 44  1  0  0  0  0
 16 17  1  0  0  0  0
 16 45  1  0  0  0  0
 16 46  1  0  0  0  0
 17 18  1  0  0  0  0
 18 19  1  0  0  0  0
 18 47  1  0  0  0  0
 18 48  1  0  0  0  0
 19 20  1  0  0  0  0
 19 49  1  0  0  0  0
 19 50  1  0  0  0  0
 20 21  1  0  0  0  0
 20 51  1  0  0  0  0
 21 52  1  0  0  0  0
 22 23  1  0  0  0  0
 23 24  2  0  0  0  0
 23 53  1  0  0  0  0
 24 25  1  0  0  0  0
 26 27  1  0  0  0  0
 26 54  1  0  0  0  0
 26 55  1  0  0  0  0
 27 28  1  0  0  0  0
 27 56  1  0  0  0  0
 27 57  1  0  0  0  0
 28 29  1  0  0  0  0
 29 30  1  0  0  0  0
 29 58  1  0  0  0  0
 29 59  1  0  0  0  0
 30 60  1  0  0  0  0
 30 61  1  0  0  0  0
M  END
> <s_m_source_file>
AV-unprocessed.smi

> <i_m_source_file_index>
247

> <i_lp_mmshare_version>
43012

> <i_f3d_flags>
0

> <s_epik_input>
W0NIMl0xW0NIMl1PW0NIMl1bQ0gyXUMxKFtDSDJdW09IXSlbQ0gyXW4oW2NIXW4yKWMoYzIzKW5bY0hdbmMzTjRbQ0gyXVtDSDJdW0NIMl1bQ0BIXTRbQ0BASF01W0NIMl1PW0NIMl1bQ0gyXVtDQEhdNVtPSF0=

> <s_epik_cmdline>
J2VwaWtfcHl0aG9uJywgJy1waCcsICc3LjAnLCAnLXRuJywgJzgnLCAnLW1hJywgJzIwMCcsICctbWV0YWxfYmluZGluZycsICctaW1hZScsICc8aW5maWxlLm1hZT4nLCAnLW9tYWUnLCAnPG91dGZpbGUubWFlPic=

> <r_lp_tautomer_probability>
1

> <r_epik_Ionization_Penalty>
0.00362597

> <r_epik_Ionization_Penalty_Charging>
0

> <r_epik_Ionization_Penalty_Neutral>
0.00362597

> <r_epik_State_Penalty>
0.00241433

> <r_epik_Charging_Adjusted_Penalty>
0.00241433

> <i_epik_Tot_Q>
0

> <i_epik_Tot_abs_Q>
0

> <r_epik_Metal_State_Penalty>
-0

> <b_epik_Metal_Only>
0

> <s_lp_Force_Field>
OPLS_2005

> <r_lp_Energy>
58.6296

> <b_lp_Chiralities_Consistent>
1

> <s_lp_Variant>
AV-unprocessed.smi:247-1

> <Gold.Version>
5.8.1

> <Gold.Id.Protein>
6NUR|6NUR_protein|mol2

> <Gold.PLP.Fitness>
44.2924

> <Gold.PLP.PLP>
-44.8000

> <Gold.PLP.part.hbond>
-0.3708

> <Gold.PLP.part.metal>
0.0000

> <Gold.PLP.part.buried>
-3.7538

> <Gold.PLP.part.nonpolar>
-41.2272

> <Gold.PLP.part.repulsive>
0.5484

> <Gold.PLP.ligand.clash>
0.0000

> <Gold.PLP.ligand.torsion>
0.4072

> <Gold.PLP.Chemscore.Hbond>
0.0000

> <Gold.PLP.Chemscore.CHOScore>
0.0374

> <Gold.PLP.Chemscore.Metal>
0.0000

> <Gold.PLP.Chemscore.Internal.Correction>
0.1946

> <Gold.Rescore>
     Score         DG    S(hbond)    S(metal)    S(lipo)     H(rot)  DE(clash)    DE(int)     intcor
      6.02      -9.05       0.00        0.00     101.14       3.23       1.61       1.42       ----

> <Gold.Chemscore.Fitness>
6.0213

> <Gold.Chemscore.DG>
-9.0502

> <Gold.Chemscore.ZeroCoef>
-5.4800

> <Gold.Chemscore.Hbond>
0.0000

> <Gold.Chemscore.Metal>
0.0000

> <Gold.Chemscore.Lipo>
101.1410

> <Gold.Chemscore.Internal_Hbond>
0.0000

> <Gold.Chemscore.DEClash>
1.6108

> <Gold.Chemscore.DEInternal>
1.4181

> <Gold.Chemscore.Rot>
3.2278

> <Gold.Chemscore.Internal.Correction>
   9.000000E+99

> <Gold.Chemscore.Hbond.Weighted>
-0.0000

> <Gold.Chemscore.Metal.Weighted>
-0.0000

> <Gold.Chemscore.Lipo.Weighted>
-11.8335

> <Gold.Chemscore.Internal_Hbond.Weighted>
0.0000

> <Gold.Chemscore.DEClash.Weighted>
1.6108

> <Gold.Chemscore.DEInternal.Weighted>
1.4181

> <Gold.Chemscore.Rot.Weighted>
8.2633

> <Gold.Chemscore.Internal.Correction.Weighted>
   9.000000E+99

> <Gold.Protein.RotatedTorsions>
[ 6907 6896 6895 6894 ] final -122.96 input  -60.11 | X-H torsion
[ 7974 7965 7964 7962 ] final  146.36 input  175.53 | X-H torsion
[ 8008 7997 7996 7995 ] final   33.77 input   59.86 | X-H torsion
[ 10167 10162 10161 10158 ] final  -90.54 input  -65.29 | X-H torsion
[ 10718 10713 10712 10709 ] final -125.53 input   66.30 | X-H torsion
[ 10763 10752 10751 10750 ] final  162.42 input  -60.55 | X-H torsion
[ 11005 11000 10999 10996 ] final  -43.58 input  -57.11 | X-H torsion

> <Gold.Protein.ActiveResidues>
 VAL166  LYS551  ARG553  GLY616  TRP617  ASP618  TYR619  PRO620  LYS621  CYS622 
 ASP623  PHE694  ASN695  SER759  ASP760  ASP761  ALA762  ILE779  LEU786  VAL792 
 PHE793  MET794  SER795  GLU796  ALA797  LYS798  CYS799  TRP800  GLU811  SER814 

> <Gold.Protein.RotatedAtoms>
  150.8625  133.7622  159.2987 H   0  0  0  0  0  0  0  0  0  0  0  0  # atno 6907 bound_to 6896
  151.5260  135.1066  159.9900 H   0  0  0  0  0  0  0  0  0  0  0  0  # atno 6908 bound_to 6896
  152.4637  133.7832  159.6918 H   0  0  0  0  0  0  0  0  0  0  0  0  # atno 6909 bound_to 6896
  144.8677  139.5895  143.5901 H   0  0  0  0  0  0  0  0  0  0  0  0  # atno 7974 bound_to 7965
  155.1440  140.3269  155.4446 H   0  0  0  0  0  0  0  0  0  0  0  0  # atno 8008 bound_to 7997
  156.2596  140.1988  156.6504 H   0  0  0  0  0  0  0  0  0  0  0  0  # atno 8009 bound_to 7997
  154.6521  140.0557  156.9954 H   0  0  0  0  0  0  0  0  0  0  0  0  # atno 8010 bound_to 7997
  140.3538  143.2877  151.9694 H   0  0  0  0  0  0  0  0  0  0  0  0  # atno 10167 bound_to 10162
  156.1683  130.6650  151.0145 H   0  0  0  0  0  0  0  0  0  0  0  0  # atno 10718 bound_to 10713
  154.2781  135.2764  155.2709 H   0  0  0  0  0  0  0  0  0  0  0  0  # atno 10763 bound_to 10752
  154.5242  135.5747  153.6709 H   0  0  0  0  0  0  0  0  0  0  0  0  # atno 10764 bound_to 10752
  152.9934  135.6212  154.2939 H   0  0  0  0  0  0  0  0  0  0  0  0  # atno 10765 bound_to 10752
  141.0393  133.6786  156.2753 H   0  0  0  0  0  0  0  0  0  0  0  0  # atno 11005 bound_to 11000
  146.2908  139.7134  142.9162 LP  0  0  0  0  0  0  0  0  0  0  0  0  # atno 17320 bound_to 7965
  145.4189  141.0404  143.2975 LP  0  0  0  0  0  0  0  0  0  0  0  0  # atno 17321 bound_to 7965
  139.4823  144.6052  151.7533 LP  0  0  0  0  0  0  0  0  0  0  0  0  # atno 17342 bound_to 10162
  140.5193  144.0904  150.6018 LP  0  0  0  0  0  0  0  0  0  0  0  0  # atno 17343 bound_to 10162
  157.6784  131.0844  150.7434 LP  0  0  0  0  0  0  0  0  0  0  0  0  # atno 17370 bound_to 10713
  156.7494  130.4764  149.5460 LP  0  0  0  0  0  0  0  0  0  0  0  0  # atno 17371 bound_to 10713
  140.6263  134.5309  157.5554 LP  0  0  0  0  0  0  0  0  0  0  0  0  # atno 17394 bound_to 11000
  139.9264  134.8048  156.1057 LP  0  0  0  0  0  0  0  0  0  0  0  0  # atno 17395 bound_to 11000

$$$$
