AV-unprocessed.smi:614|AV-procd|sdf|3068|dock6
  -GOLD-   2262023593D 1   1.00000     0.00000
 Structure written by MMmdl.
 44 45  0  0  0  0  0  0  0  0  1 V2000
  151.0902  140.6963  156.0390 C   0  0  0  0  0  0  0  0  0  0  0  0
  149.9255  140.4034  155.2315 N   0  0  0  0  0  0  0  0  0  0  0  0
  148.9529  141.2708  154.7764 C   0  0  0  0  0  0  0  0  0  0  0  0
  148.0582  140.5373  154.0495 C   0  0  0  0  0  0  0  0  0  0  0  0
  148.5818  139.2169  154.1220 C   0  0  0  0  0  0  0  0  0  0  0  0
  147.9250  138.1409  153.4715 N   0  0  0  0  0  0  0  0  0  0  0  0
  146.6444  137.7572  153.6108 C   0  0  0  0  0  0  0  0  0  0  0  0
  145.8111  138.3254  154.3165 O   0  0  0  0  0  0  0  0  0  0  0  0
  146.3886  136.6641  152.8722 N   0  0  0  0  0  0  0  0  0  0  0  0
  145.1329  135.9085  152.7417 C   0  0  1  0  0  0  0  0  0  0  0  0
  144.8579  135.1158  154.0455 C   0  0  0  0  0  0  0  0  0  0  0  0
  143.9575  136.9032  152.5106 C   0  0  0  0  0  0  0  0  0  0  0  0
  144.3325  137.9976  151.6981 O   0  0  0  0  0  0  0  0  0  0  0  0
  145.3046  134.9212  151.5328 C   0  0  0  0  0  0  0  0  0  0  0  0
  144.0321  134.0823  151.2320 C   0  0  0  0  0  0  0  0  0  0  0  0
  144.2117  133.1688  150.0092 C   0  0  0  0  0  0  0  0  0  0  0  0
  145.4175  132.2375  150.1820 C   0  0  0  0  0  0  0  0  0  0  0  0
  146.6902  133.0464  150.4605 C   0  0  0  0  0  0  0  0  0  0  0  0
  146.5157  133.9613  151.6834 C   0  0  0  0  0  0  0  0  0  0  0  0
  149.7003  139.1350  154.8296 N   0  0  0  0  0  0  0  0  0  0  0  0
  151.0384  141.7187  156.4141 H   0  0  0  0  0  0  0  0  0  0  0  0
  151.9919  140.5836  155.4366 H   0  0  0  0  0  0  0  0  0  0  0  0
  151.1369  140.0109  156.8860 H   0  0  0  0  0  0  0  0  0  0  0  0
  148.9785  142.3264  155.0039 H   0  0  0  0  0  0  0  0  0  0  0  0
  147.1714  140.8922  153.5452 H   0  0  0  0  0  0  0  0  0  0  0  0
  148.4970  137.5931  152.8462 H   0  0  0  0  0  0  0  0  0  0  0  0
  147.1604  136.2977  152.3351 H   0  0  0  0  0  0  0  0  0  0  0  0
  144.0572  134.3892  153.9046 H   0  0  0  0  0  0  0  0  0  0  0  0
  144.5509  135.7687  154.8627 H   0  0  0  0  0  0  0  0  0  0  0  0
  145.7381  134.5751  154.3923 H   0  0  0  0  0  0  0  0  0  0  0  0
  143.1152  136.4109  152.0248 H   0  0  0  0  0  0  0  0  0  0  0  0
  143.5718  137.2885  153.4545 H   0  0  0  0  0  0  0  0  0  0  0  0
  143.7983  138.7411  151.9322 H   0  0  0  0  0  0  0  0  0  0  0  0
  145.4894  135.5244  150.6427 H   0  0  0  0  0  0  0  0  0  0  0  0
  143.7681  133.4708  152.0955 H   0  0  0  0  0  0  0  0  0  0  0  0
  143.1773  134.7295  151.0413 H   0  0  0  0  0  0  0  0  0  0  0  0
  143.3085  132.5790  149.8508 H   0  0  0  0  0  0  0  0  0  0  0  0
  144.3436  133.7780  149.1140 H   0  0  0  0  0  0  0  0  0  0  0  0
  145.2336  131.5461  151.0053 H   0  0  0  0  0  0  0  0  0  0  0  0
  145.5501  131.6279  149.2878 H   0  0  0  0  0  0  0  0  0  0  0  0
  147.5309  132.3706  150.6194 H   0  0  0  0  0  0  0  0  0  0  0  0
  146.9396  133.6492  149.5862 H   0  0  0  0  0  0  0  0  0  0  0  0
  147.4402  134.5222  151.8134 H   0  0  0  0  0  0  0  0  0  0  0  0
  146.4009  133.3455  152.5759 H   0  0  0  0  0  0  0  0  0  0  0  0
  1  2  1  0  0  0  0
  1 21  1  0  0  0  0
  1 22  1  0  0  0  0
  1 23  1  0  0  0  0
  2 20  1  0  0  0  0
  2  3  1  0  0  0  0
  3  4  2  0  0  0  0
  3 24  1  0  0  0  0
  4  5  1  0  0  0  0
  4 25  1  0  0  0  0
  5  6  1  0  0  0  0
  5 20  2  0  0  0  0
  6  7  1  0  0  0  0
  6 26  1  0  0  0  0
  7  8  2  0  0  0  0
  7  9  1  0  0  0  0
  9 10  1  0  0  0  0
  9 27  1  0  0  0  0
 10 11  1  0  0  0  0
 10 12  1  0  0  0  0
 10 14  1  0  0  0  0
 11 28  1  0  0  0  0
 11 29  1  0  0  0  0
 11 30  1  0  0  0  0
 12 13  1  0  0  0  0
 12 31  1  0  0  0  0
 12 32  1  0  0  0  0
 13 33  1  0  0  0  0
 14 19  1  0  0  0  0
 14 15  1  0  0  0  0
 14 34  1  0  0  0  0
 15 16  1  0  0  0  0
 15 35  1  0  0  0  0
 15 36  1  0  0  0  0
 16 17  1  0  0  0  0
 16 37  1  0  0  0  0
 16 38  1  0  0  0  0
 17 18  1  0  0  0  0
 17 39  1  0  0  0  0
 17 40  1  0  0  0  0
 18 19  1  0  0  0  0
 18 41  1  0  0  0  0
 18 42  1  0  0  0  0
 19 43  1  0  0  0  0
 19 44  1  0  0  0  0
M  END
> <s_m_source_file>
AV-unprocessed.smi

> <i_m_source_file_index>
614

> <i_lp_mmshare_version>
43012

> <i_f3d_flags>
0

> <s_epik_input>
W0NIM11uMVtjSF1bY0hdYyhuMSlbTkhdQyg9TylbTkhdW0NAQF0oW0NIM10pKFtDSDJdW09IXSlbQ0hdMltDSDJdW0NIMl1bQ0gyXVtDSDJdW0NIMl0y

> <s_epik_cmdline>
J2VwaWtfcHl0aG9uJywgJy1waCcsICc3LjAnLCAnLXRuJywgJzgnLCAnLW1hJywgJzIwMCcsICctbWV0YWxfYmluZGluZycsICctaW1hZScsICc8aW5maWxlLm1hZT4nLCAnLW9tYWUnLCAnPG91dGZpbGUubWFlPic=

> <r_lp_tautomer_probability>
1

> <r_epik_Ionization_Penalty>
3.66621e-05

> <r_epik_Ionization_Penalty_Charging>
0

> <r_epik_Ionization_Penalty_Neutral>
3.66621e-05

> <r_epik_State_Penalty>
-0

> <r_epik_Charging_Adjusted_Penalty>
0

> <i_epik_Tot_Q>
0

> <i_epik_Tot_abs_Q>
0

> <r_epik_Metal_State_Penalty>
-0

> <b_epik_Metal_Only>
0

> <s_lp_Force_Field>
OPLS_2005

> <r_lp_Energy>
18.5246

> <b_lp_Chiralities_Consistent>
1

> <s_lp_Variant>
AV-unprocessed.smi:614-1

> <Gold.Version>
5.8.1

> <Gold.Id.Protein>
6NUR|6NUR_protein|mol2

> <Gold.PLP.Fitness>
44.4501

> <Gold.PLP.PLP>
-34.5434

> <Gold.PLP.part.hbond>
-3.2632

> <Gold.PLP.part.metal>
0.0000

> <Gold.PLP.part.buried>
-3.5823

> <Gold.PLP.part.nonpolar>
-27.0890

> <Gold.PLP.part.repulsive>
0.2354

> <Gold.PLP.ligand.clash>
0.0000

> <Gold.PLP.ligand.torsion>
1.0642

> <Gold.PLP.Chemscore.Hbond>
3.0000

> <Gold.PLP.Chemscore.CHOScore>
1.0000

> <Gold.PLP.Chemscore.Metal>
0.0000

> <Gold.Chemscore.Hbonds>
donor molecule, donor type, donor heavy atom, donor atom, acceptor molecule, acceptor atom, score
      L1  H     6    26       P1  7948  1.00
      L1  H     9    27       P1  7948  1.00
      L1  H    13    33       P1 10175  1.00
      L1  C     3    24       P1  8028  1.00

> <Gold.PLP.Chemscore.Internal.Correction>
0.0350

> <Gold.Rescore>
     Score         DG    S(hbond)    S(metal)    S(lipo)     H(rot)  DE(clash)    DE(int)     intcor
     16.89     -17.60       2.95        0.00      64.60       2.07       0.01       0.69       ----

> <Gold.Chemscore.Fitness>
16.8934

> <Gold.Chemscore.DG>
-17.5957

> <Gold.Chemscore.ZeroCoef>
-5.4800

> <Gold.Chemscore.Hbond>
2.9520

> <Gold.Chemscore.Metal>
0.0000

> <Gold.Chemscore.Lipo>
64.5973

> <Gold.Chemscore.Internal_Hbond>
0.0000

> <Gold.Chemscore.DEClash>
0.0118

> <Gold.Chemscore.DEInternal>
0.6906

> <Gold.Chemscore.Rot>
2.0710

> <Gold.Chemscore.Internal.Correction>
   9.000000E+99

> <Gold.Chemscore.Hbonds>
donor molecule, donor type, donor heavy atom, donor atom, acceptor molecule, acceptor atom, score
      L1  H     6    26       P1  7948  0.99
      L1  H     9    27       P1  7948  0.98
      L1  H    13    33       P1 10175  0.95

> <Gold.Chemscore.Hbond.Weighted>
-9.8596

> <Gold.Chemscore.Metal.Weighted>
-0.0000

> <Gold.Chemscore.Lipo.Weighted>
-7.5579

> <Gold.Chemscore.Internal_Hbond.Weighted>
0.0000

> <Gold.Chemscore.DEClash.Weighted>
0.0118

> <Gold.Chemscore.DEInternal.Weighted>
0.6906

> <Gold.Chemscore.Rot.Weighted>
5.3017

> <Gold.Chemscore.Internal.Correction.Weighted>
   9.000000E+99

> <Gold.Protein.RotatedTorsions>
[ 6907 6896 6895 6894 ] final -161.21 input  -60.11 | X-H torsion
[ 7974 7965 7964 7962 ] final  -24.55 input  175.53 | X-H torsion
[ 8008 7997 7996 7995 ] final   45.69 input   59.86 | X-H torsion
[ 10167 10162 10161 10158 ] final  140.17 input  -65.29 | X-H torsion
[ 10718 10713 10712 10709 ] final   -1.90 input   66.30 | X-H torsion
[ 10763 10752 10751 10750 ] final  130.10 input  -60.55 | X-H torsion
[ 11005 11000 10999 10996 ] final  -18.78 input  -57.11 | X-H torsion

> <Gold.Protein.ActiveResidues>
 VAL166  LYS551  ARG553  GLY616  TRP617  ASP618  TYR619  PRO620  LYS621  CYS622 
 ASP623  PHE694  ASN695  SER759  ASP760  ASP761  ALA762  ILE779  LEU786  VAL792 
 PHE793  MET794  SER795  GLU796  ALA797  LYS798  CYS799  TRP800  GLU811  SER814 

> <Gold.Protein.RotatedAtoms>
  151.3612  133.3889  159.2689 H   0  0  0  0  0  0  0  0  0  0  0  0  # atno 6907 bound_to 6896
  150.9724  134.9096  159.7806 H   0  0  0  0  0  0  0  0  0  0  0  0  # atno 6908 bound_to 6896
  152.5189  134.3574  159.9325 H   0  0  0  0  0  0  0  0  0  0  0  0  # atno 6909 bound_to 6896
  146.1547  140.4767  142.8596 H   0  0  0  0  0  0  0  0  0  0  0  0  # atno 7974 bound_to 7965
  155.3400  140.3407  155.4239 H   0  0  0  0  0  0  0  0  0  0  0  0  # atno 8008 bound_to 7997
  156.1818  140.1666  156.8296 H   0  0  0  0  0  0  0  0  0  0  0  0  # atno 8009 bound_to 7997
  154.5342  140.0738  156.8381 H   0  0  0  0  0  0  0  0  0  0  0  0  # atno 8010 bound_to 7997
  139.5057  144.6250  151.5958 H   0  0  0  0  0  0  0  0  0  0  0  0  # atno 10167 bound_to 10162
  156.7987  130.5386  149.5725 H   0  0  0  0  0  0  0  0  0  0  0  0  # atno 10718 bound_to 10713
  153.7525  135.3208  155.3323 H   0  0  0  0  0  0  0  0  0  0  0  0  # atno 10763 bound_to 10752
  154.8258  135.4570  154.0917 H   0  0  0  0  0  0  0  0  0  0  0  0  # atno 10764 bound_to 10752
  153.2124  135.6937  153.8180 H   0  0  0  0  0  0  0  0  0  0  0  0  # atno 10765 bound_to 10752
  140.8302  133.8002  155.9751 H   0  0  0  0  0  0  0  0  0  0  0  0  # atno 11005 bound_to 11000
  144.7948  140.6102  143.6517 LP  0  0  0  0  0  0  0  0  0  0  0  0  # atno 17320 bound_to 7965
  145.4737  139.1501  143.3800 LP  0  0  0  0  0  0  0  0  0  0  0  0  # atno 17321 bound_to 7965
  140.5965  143.9687  150.6358 LP  0  0  0  0  0  0  0  0  0  0  0  0  # atno 17342 bound_to 10162
  140.2885  143.3341  152.1085 LP  0  0  0  0  0  0  0  0  0  0  0  0  # atno 17343 bound_to 10162
  156.1114  130.6043  151.0053 LP  0  0  0  0  0  0  0  0  0  0  0  0  # atno 17370 bound_to 10713
  157.6564  131.0888  150.7937 LP  0  0  0  0  0  0  0  0  0  0  0  0  # atno 17371 bound_to 10713
  140.9006  134.2383  157.5044 LP  0  0  0  0  0  0  0  0  0  0  0  0  # atno 17394 bound_to 11000
  139.8705  134.9704  156.4702 LP  0  0  0  0  0  0  0  0  0  0  0  0  # atno 17395 bound_to 11000

$$$$
