AV-unprocessed.smi:3218|AV-procd|sdf|12293|dock8
  -GOLD-   2272018133D 1   1.00000     0.00000
 Structure written by MMmdl.
 38 39  0  0  0  0  0  0  0  0  2 V2000
  143.8277  133.1930  151.7063 C   0  0  0  0  0  0  0  0  0  0  0  0
  144.4307  134.5578  151.8778 C   0  0  0  0  0  0  0  0  0  0  0  0
  144.4147  135.3800  153.0400 C   0  0  0  0  0  0  0  0  0  0  0  0
  145.0413  136.5322  152.8635 N   0  0  0  0  0  0  0  0  0  0  0  0
  145.4758  136.4874  151.5862 N   0  0  0  0  0  0  0  0  0  0  0  0
  146.2232  137.6041  151.0370 C   0  0  0  0  0  0  0  0  0  0  0  0
  146.4104  138.7387  152.0570 C   0  0  0  0  0  0  0  0  0  0  0  0
  147.8076  138.8253  152.5282 N   0  3  0  0  0  0  0  0  0  0  0  0
  147.9531  139.3957  153.8807 C   0  0  0  0  0  0  0  0  0  0  0  0
  148.8815  140.6201  153.8639 C   0  0  0  0  0  0  0  0  0  0  0  0
  149.3884  140.9303  155.1980 N   0  0  0  0  0  0  0  0  0  0  0  0
  148.5003  141.4288  156.2348 C   0  0  0  0  0  0  0  0  0  0  0  0
  149.4235  141.8082  157.4017 C   0  0  0  0  0  0  0  0  0  0  0  0
  150.7808  141.1706  157.0851 C   0  0  0  0  0  0  0  0  0  0  0  0
  150.6433  140.7569  155.6298 C   0  0  0  0  0  0  0  0  0  0  0  0
  151.5836  140.3238  154.9657 O   0  0  0  0  0  0  0  0  0  0  0  0
  145.1220  135.3068  150.9682 C   0  0  0  0  0  0  0  0  0  0  0  0
  142.9895  133.0329  152.3849 H   0  0  0  0  0  0  0  0  0  0  0  0
  144.5552  132.4054  151.9027 H   0  0  0  0  0  0  0  0  0  0  0  0
  143.4531  133.0407  150.6938 H   0  0  0  0  0  0  0  0  0  0  0  0
  143.9693  135.1738  154.0022 H   0  0  0  0  0  0  0  0  0  0  0  0
  147.1975  137.2330  150.7169 H   0  0  0  0  0  0  0  0  0  0  0  0
  145.7188  137.9669  150.1400 H   0  0  0  0  0  0  0  0  0  0  0  0
  146.1108  139.6908  151.6168 H   0  0  0  0  0  0  0  0  0  0  0  0
  145.7611  138.5660  152.9161 H   0  0  0  0  0  0  0  0  0  0  0  0
  148.2078  137.8981  152.5225 H   0  0  0  0  0  0  0  0  0  0  0  0
  146.9666  139.6712  154.2559 H   0  0  0  0  0  0  0  0  0  0  0  0
  148.3527  138.6336  154.5508 H   0  0  0  0  0  0  0  0  0  0  0  0
  149.7220  140.4414  153.1917 H   0  0  0  0  0  0  0  0  0  0  0  0
  148.3528  141.4899  153.4704 H   0  0  0  0  0  0  0  0  0  0  0  0
  147.9189  142.2828  155.8855 H   0  0  0  0  0  0  0  0  0  0  0  0
  147.8069  140.6389  156.5267 H   0  0  0  0  0  0  0  0  0  0  0  0
  149.5292  142.8924  157.4588 H   0  0  0  0  0  0  0  0  0  0  0  0
  149.0254  141.4673  158.3579 H   0  0  0  0  0  0  0  0  0  0  0  0
  151.6071  141.8683  157.2252 H   0  0  0  0  0  0  0  0  0  0  0  0
  150.9590  140.2869  157.6988 H   0  0  0  0  0  0  0  0  0  0  0  0
  145.3891  135.0987  149.9423 H   0  0  0  0  0  0  0  0  0  0  0  0
  148.3247  139.4016  151.8788 H   0  0  0  0  0  0  0  0  0  0  0  0
  1  2  1  0  0  0  0
  1 18  1  0  0  0  0
  1 19  1  0  0  0  0
  1 20  1  0  0  0  0
  2 17  2  0  0  0  0
  2  3  1  0  0  0  0
  3  4  2  0  0  0  0
  3 21  1  0  0  0  0
  4  5  1  0  0  0  0
  5  6  1  0  0  0  0
  5 17  1  0  0  0  0
  6  7  1  0  0  0  0
  6 22  1  0  0  0  0
  6 23  1  0  0  0  0
  7  8  1  0  0  0  0
  7 24  1  0  0  0  0
  7 25  1  0  0  0  0
  8  9  1  0  0  0  0
  8 26  1  0  0  0  0
  8 38  1  0  0  0  0
  9 10  1  0  0  0  0
  9 27  1  0  0  0  0
  9 28  1  0  0  0  0
 10 11  1  0  0  0  0
 10 29  1  0  0  0  0
 10 30  1  0  0  0  0
 11 15  1  0  0  0  0
 11 12  1  0  0  0  0
 12 13  1  0  0  0  0
 12 31  1  0  0  0  0
 12 32  1  0  0  0  0
 13 14  1  0  0  0  0
 13 33  1  0  0  0  0
 13 34  1  0  0  0  0
 14 15  1  0  0  0  0
 14 35  1  0  0  0  0
 14 36  1  0  0  0  0
 15 16  2  0  0  0  0
 17 37  1  0  0  0  0
M  CHG  1   8   1
M  END
> <s_m_source_file>
AV-unprocessed.smi

> <i_m_source_file_index>
3218

> <i_lp_mmshare_version>
43012

> <i_f3d_flags>
0

> <s_epik_input>
W0NIM11jMVtjSF1ubihbY0hdMSlbQ0gyXVtDSDJdW05IXVtDSDJdW0NIMl1OMltDSDJdW0NIMl1bQ0gyXUMyPU8=

> <s_epik_cmdline>
J2VwaWtfcHl0aG9uJywgJy1waCcsICc3LjAnLCAnLXRuJywgJzgnLCAnLW1hJywgJzIwMCcsICctbWV0YWxfYmluZGluZycsICctaW1hZScsICc8aW5maWxlLm1hZT4nLCAnLW9tYWUnLCAnPG91dGZpbGUubWFlPic=

> <r_lp_tautomer_probability>
1

> <r_epik_Ionization_Penalty>
0.00826456

> <r_epik_Ionization_Penalty_Charging>
0.00825899

> <r_epik_Ionization_Penalty_Neutral>
5.57245e-06

> <r_epik_State_Penalty>
0.00621436

> <r_epik_Charging_Adjusted_Penalty>
0.0144734

> <i_epik_Tot_Q>
1

> <i_epik_Tot_abs_Q>
1

> <r_epik_Metal_State_Penalty>
0.00623755

> <b_epik_Metal_Only>
0

> <s_lp_Force_Field>
OPLS_2005

> <r_lp_Energy>
17.5309

> <b_lp_Chiralities_Consistent>
1

> <s_lp_Variant>
AV-unprocessed.smi:3218-1

> <Gold.Version>
5.8.1

> <Gold.Id.Protein>
6NUR|6NUR_protein|mol2

> <Gold.PLP.Fitness>
44.3373

> <Gold.PLP.PLP>
-31.4068

> <Gold.PLP.part.hbond>
-2.9884

> <Gold.PLP.part.metal>
0.0000

> <Gold.PLP.part.buried>
3.3790

> <Gold.PLP.part.nonpolar>
-31.7539

> <Gold.PLP.part.repulsive>
0.2733

> <Gold.PLP.ligand.clash>
0.0000

> <Gold.PLP.ligand.torsion>
1.0482

> <Gold.PLP.Chemscore.Hbond>
3.9920

> <Gold.PLP.Chemscore.CHOScore>
1.0000

> <Gold.PLP.Chemscore.Metal>
0.0000

> <Gold.Chemscore.Hbonds>
donor molecule, donor type, donor heavy atom, donor atom, acceptor molecule, acceptor atom, score
      L1  H     8    26       P1  7948  2.00
      L1  H     8    38       P1  7957  1.00
      P1  H  7989  7998       L1    16  0.96
      L1  C    17    37       P1  7921  1.00

> <Gold.PLP.Chemscore.Internal.Correction>
0.0509

> <Gold.Rescore>
     Score         DG    S(hbond)    S(metal)    S(lipo)     H(rot)  DE(clash)    DE(int)     intcor
     14.73     -17.55       2.96        0.00      63.13       2.03       1.67       1.15       ----

> <Gold.Chemscore.Fitness>
14.7295

> <Gold.Chemscore.DG>
-17.5501

> <Gold.Chemscore.ZeroCoef>
-5.4800

> <Gold.Chemscore.Hbond>
2.9597

> <Gold.Chemscore.Metal>
0.0000

> <Gold.Chemscore.Lipo>
63.1323

> <Gold.Chemscore.Internal_Hbond>
0.0000

> <Gold.Chemscore.DEClash>
1.6739

> <Gold.Chemscore.DEInternal>
1.1467

> <Gold.Chemscore.Rot>
2.0319

> <Gold.Chemscore.Internal.Correction>
   9.000000E+99

> <Gold.Chemscore.Hbonds>
donor molecule, donor type, donor heavy atom, donor atom, acceptor molecule, acceptor atom, score
      L1  H     8    26       P1  7948  0.99
      L1  H     8    38       P1  7957  0.97
      P1  H  7989  7998       L1    16  0.80

> <Gold.Chemscore.Hbond.Weighted>
-9.8854

> <Gold.Chemscore.Metal.Weighted>
-0.0000

> <Gold.Chemscore.Lipo.Weighted>
-7.3865

> <Gold.Chemscore.Internal_Hbond.Weighted>
0.0000

> <Gold.Chemscore.DEClash.Weighted>
1.6739

> <Gold.Chemscore.DEInternal.Weighted>
1.1467

> <Gold.Chemscore.Rot.Weighted>
5.2017

> <Gold.Chemscore.Internal.Correction.Weighted>
   9.000000E+99

> <Gold.Protein.RotatedTorsions>
[ 6907 6896 6895 6894 ] final -101.29 input  -60.11 | X-H torsion
[ 7974 7965 7964 7962 ] final  141.71 input  175.53 | X-H torsion
[ 8008 7997 7996 7995 ] final   56.52 input   59.86 | X-H torsion
[ 10167 10162 10161 10158 ] final  138.60 input  -65.29 | X-H torsion
[ 10718 10713 10712 10709 ] final -170.91 input   66.30 | X-H torsion
[ 10763 10752 10751 10750 ] final -137.82 input  -60.55 | X-H torsion
[ 11005 11000 10999 10996 ] final  -51.89 input  -57.11 | X-H torsion

> <Gold.Protein.ActiveResidues>
 VAL166  LYS551  ARG553  GLY616  TRP617  ASP618  TYR619  PRO620  LYS621  CYS622 
 ASP623  PHE694  ASN695  SER759  ASP760  ASP761  ALA762  ILE779  LEU786  VAL792 
 PHE793  MET794  SER795  GLU796  ALA797  LYS798  CYS799  TRP800  GLU811  SER814 

> <Gold.Protein.RotatedAtoms>
  150.7149  134.0757  159.3879 H   0  0  0  0  0  0  0  0  0  0  0  0  # atno 6907 bound_to 6896
  151.8740  135.0476  160.0491 H   0  0  0  0  0  0  0  0  0  0  0  0  # atno 6908 bound_to 6896
  152.2620  133.5270  159.5424 H   0  0  0  0  0  0  0  0  0  0  0  0  # atno 6909 bound_to 6896
  144.9072  139.5342  143.5726 H   0  0  0  0  0  0  0  0  0  0  0  0  # atno 7974 bound_to 7965
  155.5188  140.3479  155.4403 H   0  0  0  0  0  0  0  0  0  0  0  0  # atno 8008 bound_to 7997
  156.0799  140.1384  156.9753 H   0  0  0  0  0  0  0  0  0  0  0  0  # atno 8009 bound_to 7997
  154.4574  140.0948  156.6771 H   0  0  0  0  0  0  0  0  0  0  0  0  # atno 8010 bound_to 7997
  139.5105  144.6344  151.5735 H   0  0  0  0  0  0  0  0  0  0  0  0  # atno 10167 bound_to 10162
  156.7332  130.9314  151.3106 H   0  0  0  0  0  0  0  0  0  0  0  0  # atno 10718 bound_to 10713
  154.8652  135.3631  154.5284 H   0  0  0  0  0  0  0  0  0  0  0  0  # atno 10763 bound_to 10752
  153.5911  135.7015  153.5428 H   0  0  0  0  0  0  0  0  0  0  0  0  # atno 10764 bound_to 10752
  153.3373  135.4108  155.1505 H   0  0  0  0  0  0  0  0  0  0  0  0  # atno 10765 bound_to 10752
  141.0895  133.6635  156.3944 H   0  0  0  0  0  0  0  0  0  0  0  0  # atno 11005 bound_to 11000
  146.3140  139.7849  142.8998 LP  0  0  0  0  0  0  0  0  0  0  0  0  # atno 17320 bound_to 7965
  145.3516  141.0308  143.3335 LP  0  0  0  0  0  0  0  0  0  0  0  0  # atno 17321 bound_to 7965
  140.6087  143.9476  150.6437 LP  0  0  0  0  0  0  0  0  0  0  0  0  # atno 17342 bound_to 10162
  140.2711  143.3455  152.1237 LP  0  0  0  0  0  0  0  0  0  0  0  0  # atno 17343 bound_to 10162
  157.6850  130.9177  150.0363 LP  0  0  0  0  0  0  0  0  0  0  0  0  # atno 17370 bound_to 10713
  156.1515  130.3642  149.9431 LP  0  0  0  0  0  0  0  0  0  0  0  0  # atno 17371 bound_to 10713
  140.5284  134.6236  157.5342 LP  0  0  0  0  0  0  0  0  0  0  0  0  # atno 17394 bound_to 11000
  139.9719  134.7279  156.0025 LP  0  0  0  0  0  0  0  0  0  0  0  0  # atno 17395 bound_to 11000

$$$$
