#       Name:                AV-unprocessed.smi:349
#       Creating user name   scv26
#       Creation time:       Thu Mar 26 22:32:53 2020


#       File generated by GOLD software.
#

@<TRIPOS>MOLECULE
AV-unprocessed.smi:349
    49    50     1
SMALL
NO_CHARGES


@<TRIPOS>ATOM
      1 ****        -3.0639  -2.8072  -2.5955 C.3            1 S1                 0.0000
      2 ****        -3.3215  -3.3430  -1.1783 C.3            1 S1                 0.0000
      3 ****        -2.8467  -2.4025  -0.0486 C.3            1 S1                 0.0000
      4 ****        -3.2918  -2.9267   1.3274 C.3            1 S1                 0.0000
      5 ****        -1.3235  -2.2059  -0.0654 C.2            1 S1                 0.0000
      6 ****        -0.5730  -3.1725   0.0707 O.2            1 S1                 0.0000
      7 ****        -0.8846  -0.9471  -0.2243 N.am           1 S1                 0.0000
      8 ****         0.5137  -0.5259  -0.2430 C.3            1 S1                 0.0000
      9 ****         0.9779   0.0951   1.0755 C.ar           1 S1                 0.0000
     10 ****         0.6907  -0.5606   2.2947 C.ar           1 S1                 0.0000
     11 ****         1.1422  -0.0057   3.5049 C.ar           1 S1                 0.0000
     12 ****         1.8769   1.1911   3.4539 C.ar           1 S1                 0.0000
     13 ****         2.1684   1.8274   2.3016 N.ar           1 S1                 0.0000
     14 ****         1.7360   1.2979   1.1305 C.ar           1 S1                 0.0000
     15 ****         2.0490   2.0069  -0.0434 N.3            1 S1                 0.0000
     16 ****         3.3698   2.6243  -0.1045 C.3            1 S1                 0.0000
     17 ****         3.6204   3.1809  -1.5162 C.3            1 S1                 0.0000
     18 ****         2.5811   4.0938  -1.8588 O.3            1 S1                 0.0000
     19 ****         1.2994   3.4708  -1.8645 C.3            1 S1                 0.0000
     20 ****         0.9870   2.9114  -0.4656 C.3            1 S1                 0.0000
     21 ****        -3.4763  -3.4841  -3.3438 H              1 S1                 0.0000
     22 ****        -1.9983  -2.7037  -2.8010 H              1 S1                 0.0000
     23 ****        -3.5304  -1.8321  -2.7380 H              1 S1                 0.0000
     24 ****        -4.3930  -3.5140  -1.0682 H              1 S1                 0.0000
     25 ****        -2.8533  -4.3228  -1.0722 H              1 S1                 0.0000
     26 ****        -3.3212  -1.4309  -0.1974 H              1 S1                 0.0000
     27 ****        -2.9565  -2.2692   2.1306 H              1 S1                 0.0000
     28 ****        -2.8948  -3.9232   1.5251 H              1 S1                 0.0000
     29 ****        -4.3787  -2.9871   1.3890 H              1 S1                 0.0000
     30 ****        -1.5764  -0.2193  -0.3302 H              1 S1                 0.0000
     31 ****         1.1724  -1.3641  -0.4747 H              1 S1                 0.0000
     32 ****         0.6204   0.1650  -1.0770 H              1 S1                 0.0000
     33 ****         0.1358  -1.4864   2.3102 H              1 S1                 0.0000
     34 ****         0.9344  -0.4889   4.4480 H              1 S1                 0.0000
     35 ****         2.2421   1.6490   4.3612 H              1 S1                 0.0000
     36 ****         3.4364   3.4330   0.6247 H              1 S1                 0.0000
     37 ****         4.1340   1.8895   0.1517 H              1 S1                 0.0000
     38 ****         4.5774   3.7016  -1.5513 H              1 S1                 0.0000
     39 ****         3.6681   2.3747  -2.2500 H              1 S1                 0.0000
     40 ****         0.5486   4.2069  -2.1517 H              1 S1                 0.0000
     41 ****         1.2729   2.6784  -2.6144 H              1 S1                 0.0000
     42 ****         0.0259   2.3964  -0.4751 H              1 S1                 0.0000
     43 ****         0.9044   3.7279   0.2532 H              1 S1                 0.0000
     44 ****        -0.9548  -4.0887   0.1926 LP             1 S1                 0.0000
     45 ****         0.4183  -3.0413   0.0593 LP             1 S1                 0.0000
     46 ****         2.6956   2.6771   2.3104 LP             1 S1                 0.0000
     47 ****         2.1113   1.2768  -0.7239 LP             1 S1                 0.0000
     48 ****         2.7639   4.4632  -2.7699 LP             1 S1                 0.0000
     49 ****         2.5741   4.8392  -1.1922 LP             1 S1                 0.0000
@<TRIPOS>BOND
    1    1    2 1     
    2    1   21 1     
    3    1   22 1     
    4    1   23 1     
    5    2    3 1     
    6    2   24 1     
    7    2   25 1     
    8    3    4 1     
    9    3    5 1     
   10    3   26 1     
   11    4   27 1     
   12    4   28 1     
   13    4   29 1     
   14    5    6 2     
   15    5    7 am    
   16    7    8 1     
   17    7   30 1     
   18    8    9 1     
   19    8   31 1     
   20    8   32 1     
   21    9   14 ar    
   22    9   10 ar    
   23   10   11 ar    
   24   10   33 1     
   25   11   12 ar    
   26   11   34 1     
   27   12   13 ar    
   28   12   35 1     
   29   13   14 ar    
   30   14   15 1     
   31   15   20 1     
   32   15   16 1     
   33   16   17 1     
   34   16   36 1     
   35   16   37 1     
   36   17   18 1     
   37   17   38 1     
   38   17   39 1     
   39   18   19 1     
   40   19   20 1     
   41   19   40 1     
   42   19   41 1     
   43   20   42 1     
   44   20   43 1     
   45    6   44 1     
   46    6   45 1     
   47   13   46 1     
   48   15   47 1     
   49   18   48 1     
   50   18   49 1     
@<TRIPOS>SUBSTRUCTURE
      1 S1             1
@<TRIPOS>SET
LONE_PAIRS      STATIC     ATOMS    <user>   **** ""
6 44 45 46 47 48 49
DONOR_HYDROGENS      STATIC     ATOMS    <user>   **** ""
1 30
ATOM$BLUE        STATIC     ATOMS    COLORGROUP SYSTEM
6 44 45 46 47 48 49
ATOM$RED        STATIC     ATOMS    COLORGROUP SYSTEM
1 30
