AV-unprocessed.smi:1166|AV-procd|sdf|4934|dock10
  -GOLD-   22720 3523D 1   1.00000     0.00000
 Structure written by MMmdl.
 47 48  0  0  0  0  0  0  0  0  2 V2000
  145.8578  132.1832  150.7591 C   0  0  0  0  0  0  0  0  0  0  0  0
  145.5386  132.6727  152.0956 N   0  0  0  0  0  0  0  0  0  0  0  0
  145.9171  131.9007  153.2717 C   0  0  0  0  0  0  0  0  0  0  0  0
  144.8899  133.9168  152.2514 C   0  0  0  0  0  0  0  0  0  0  0  0
  145.2644  135.0819  151.5379 C   0  0  0  0  0  0  0  0  0  0  0  0
  144.5669  136.2887  151.7494 C   0  0  0  0  0  0  0  0  0  0  0  0
  143.5043  136.3338  152.6756 C   0  0  0  0  0  0  0  0  0  0  0  0
  142.8237  137.5706  152.8426 N   0  0  0  0  0  0  0  0  0  0  0  0
  141.6478  137.8063  153.4497 C   0  0  0  0  0  0  0  0  0  0  0  0
  140.9498  136.9575  154.0036 O   0  0  0  0  0  0  0  0  0  0  0  0
  141.3264  139.1067  153.3941 N   0  0  0  0  0  0  0  0  0  0  0  0
  140.1290  139.7046  153.9765 C   0  0  2  0  0  0  0  0  0  0  0  0
  138.8607  139.1597  153.2992 C   0  0  0  0  0  0  0  0  0  0  0  0
  137.6233  139.8447  153.8895 C   0  0  0  0  0  0  0  0  0  0  0  0
  137.7204  141.3755  153.7680 C   0  0  0  0  0  0  0  0  0  0  0  0
  138.9785  141.8901  154.3466 N   0  0  0  0  0  0  0  0  0  0  0  0
  138.9766  142.6228  155.9252 S   0  0  0  0  0  0  0  0  0  0  0  0
  138.6712  144.4067  155.5956 C   0  0  0  0  0  0  0  0  0  0  0  0
  137.8230  142.0904  156.6663 O   0  0  0  0  0  0  0  0  0  0  0  0
  140.3296  142.4851  156.4855 O   0  0  0  0  0  0  0  0  0  0  0  0
  140.2021  141.2380  153.8391 C   0  0  0  0  0  0  0  0  0  0  0  0
  143.1607  135.1413  153.3562 C   0  0  0  0  0  0  0  0  0  0  0  0
  143.8551  134.0068  153.1223 N   0  3  0  0  0  0  0  0  0  0  0  0
  144.9558  132.1106  150.1503 H   0  0  0  0  0  0  0  0  0  0  0  0
  146.3130  131.1933  150.7973 H   0  0  0  0  0  0  0  0  0  0  0  0
  146.5590  132.8554  150.2631 H   0  0  0  0  0  0  0  0  0  0  0  0
  146.5770  132.4817  153.9166 H   0  0  0  0  0  0  0  0  0  0  0  0
  146.4445  130.9875  152.9944 H   0  0  0  0  0  0  0  0  0  0  0  0
  145.0333  131.6151  153.8430 H   0  0  0  0  0  0  0  0  0  0  0  0
  146.0785  135.0714  150.8286 H   0  0  0  0  0  0  0  0  0  0  0  0
  144.8536  137.1757  151.2032 H   0  0  0  0  0  0  0  0  0  0  0  0
  143.3122  138.3832  152.4959 H   0  0  0  0  0  0  0  0  0  0  0  0
  141.9599  139.7343  152.9208 H   0  0  0  0  0  0  0  0  0  0  0  0
  140.0961  139.4523  155.0365 H   0  0  0  0  0  0  0  0  0  0  0  0
  138.9025  139.3380  152.2238 H   0  0  0  0  0  0  0  0  0  0  0  0
  138.7856  138.0803  153.4363 H   0  0  0  0  0  0  0  0  0  0  0  0
  136.7271  139.4915  153.3789 H   0  0  0  0  0  0  0  0  0  0  0  0
  137.5096  139.5572  154.9340 H   0  0  0  0  0  0  0  0  0  0  0  0
  137.6860  141.6598  152.7157 H   0  0  0  0  0  0  0  0  0  0  0  0
  136.8614  141.8498  154.2414 H   0  0  0  0  0  0  0  0  0  0  0  0
  138.6797  144.9486  156.5410 H   0  0  0  0  0  0  0  0  0  0  0  0
  137.6982  144.5370  155.1252 H   0  0  0  0  0  0  0  0  0  0  0  0
  139.4542  144.8058  154.9533 H   0  0  0  0  0  0  0  0  0  0  0  0
  141.0778  141.6263  154.3590 H   0  0  0  0  0  0  0  0  0  0  0  0
  140.3229  141.5107  152.7898 H   0  0  0  0  0  0  0  0  0  0  0  0
  142.3560  135.0383  154.0681 H   0  0  0  0  0  0  0  0  0  0  0  0
  143.5810  133.1662  153.6309 H   0  0  0  0  0  0  0  0  0  0  0  0
  1  2  1  0  0  0  0
  1 24  1  0  0  0  0
  1 25  1  0  0  0  0
  1 26  1  0  0  0  0
  2  3  1  0  0  0  0
  2  4  1  0  0  0  0
  3 27  1  0  0  0  0
  3 28  1  0  0  0  0
  3 29  1  0  0  0  0
  4 23  1  0  0  0  0
  4  5  2  0  0  0  0
  5  6  1  0  0  0  0
  5 30  1  0  0  0  0
  6  7  2  0  0  0  0
  6 31  1  0  0  0  0
  7  8  1  0  0  0  0
  7 22  1  0  0  0  0
  8  9  1  0  0  0  0
  8 32  1  0  0  0  0
  9 10  2  0  0  0  0
  9 11  1  0  0  0  0
 11 12  1  0  0  0  0
 11 33  1  0  0  0  0
 12 21  1  0  0  0  0
 12 13  1  0  0  0  0
 12 34  1  0  0  0  0
 13 14  1  0  0  0  0
 13 35  1  0  0  0  0
 13 36  1  0  0  0  0
 14 15  1  0  0  0  0
 14 37  1  0  0  0  0
 14 38  1  0  0  0  0
 15 16  1  0  0  0  0
 15 39  1  0  0  0  0
 15 40  1  0  0  0  0
 16 17  1  0  0  0  0
 16 21  1  0  0  0  0
 17 18  1  0  0  0  0
 17 19  2  0  0  0  0
 17 20  2  0  0  0  0
 18 41  1  0  0  0  0
 18 42  1  0  0  0  0
 18 43  1  0  0  0  0
 21 44  1  0  0  0  0
 21 45  1  0  0  0  0
 22 23  2  0  0  0  0
 22 46  1  0  0  0  0
 23 47  1  0  0  0  0
M  CHG  1  23   1
M  END
> <s_m_source_file>
AV-unprocessed.smi

> <i_m_source_file_index>
1166

> <i_lp_mmshare_version>
43012

> <i_f3d_flags>
0

> <s_epik_input>
W0NIM11OKFtDSDNdKWMxW2NIXVtjSF1jKFtjSF1uMSlbTkhdQyg9TylbTkhdW0NAQEhdMltDSDJdW0NIMl1bQ0gyXU4oW0NIMl0yKVMoPU8pKD1PKVtDSDNd

> <s_epik_cmdline>
J2VwaWtfcHl0aG9uJywgJy1waCcsICc3LjAnLCAnLXRuJywgJzgnLCAnLW1hJywgJzIwMCcsICctbWV0YWxfYmluZGluZycsICctaW1hZScsICc8aW5maWxlLm1hZT4nLCAnLW9tYWUnLCAnPG91dGZpbGUubWFlPic=

> <r_lp_tautomer_probability>
0.999994

> <r_epik_Ionization_Penalty>
0.276583

> <r_epik_Ionization_Penalty_Charging>
0.276565

> <r_epik_Ionization_Penalty_Neutral>
1.87575e-05

> <r_epik_State_Penalty>
0.268949

> <r_epik_Charging_Adjusted_Penalty>
0.545513

> <i_epik_Tot_Q>
1

> <i_epik_Tot_abs_Q>
1

> <r_epik_Metal_State_Penalty>
0.551815

> <b_epik_Metal_Only>
0

> <s_lp_Force_Field>
OPLS_2005

> <r_lp_Energy>
7.52153

> <b_lp_Chiralities_Consistent>
1

> <s_lp_Variant>
AV-unprocessed.smi:1166-1

> <Gold.Version>
5.8.1

> <Gold.Id.Protein>
6NUR|6NUR_protein|mol2

> <Gold.PLP.Fitness>
41.9097

> <Gold.PLP.PLP>
-31.9056

> <Gold.PLP.part.hbond>
-4.0022

> <Gold.PLP.part.metal>
0.0000

> <Gold.PLP.part.buried>
-1.6564

> <Gold.PLP.part.nonpolar>
-26.3784

> <Gold.PLP.part.repulsive>
0.1381

> <Gold.PLP.ligand.clash>
0.0000

> <Gold.PLP.ligand.torsion>
1.8679

> <Gold.PLP.Chemscore.Hbond>
3.8938

> <Gold.PLP.Chemscore.CHOScore>
0.0000

> <Gold.PLP.Chemscore.Metal>
0.0000

> <Gold.Chemscore.Hbonds>
donor molecule, donor type, donor heavy atom, donor atom, acceptor molecule, acceptor atom, score
      L1  H     8    32       P1 10175  0.89
      L1  H    11    33       P1 10175  1.00
      L1  H    23    47       P1 10957  2.00

> <Gold.PLP.Chemscore.Internal.Correction>
2.0587

> <Gold.Rescore>
     Score         DG    S(hbond)    S(metal)    S(lipo)     H(rot)  DE(clash)    DE(int)     intcor
     15.52     -18.60       2.56        0.00      61.09       1.00       0.01       3.08       ----

> <Gold.Chemscore.Fitness>
15.5204

> <Gold.Chemscore.DG>
-18.6048

> <Gold.Chemscore.ZeroCoef>
-5.4800

> <Gold.Chemscore.Hbond>
2.5562

> <Gold.Chemscore.Metal>
0.0000

> <Gold.Chemscore.Lipo>
61.0871

> <Gold.Chemscore.Internal_Hbond>
0.0000

> <Gold.Chemscore.DEClash>
0.0077

> <Gold.Chemscore.DEInternal>
3.0767

> <Gold.Chemscore.Rot>
1.0000

> <Gold.Chemscore.Internal.Correction>
   9.000000E+99

> <Gold.Chemscore.Hbonds>
donor molecule, donor type, donor heavy atom, donor atom, acceptor molecule, acceptor atom, score
      L1  H     8    32       P1 10175  0.83
      L1  H    11    33       P1 10175  0.49
      L1  H    23    47       P1 10957  0.91

> <Gold.Chemscore.Hbond.Weighted>
-8.5376

> <Gold.Chemscore.Metal.Weighted>
-0.0000

> <Gold.Chemscore.Lipo.Weighted>
-7.1472

> <Gold.Chemscore.Internal_Hbond.Weighted>
0.0000

> <Gold.Chemscore.DEClash.Weighted>
0.0077

> <Gold.Chemscore.DEInternal.Weighted>
3.0767

> <Gold.Chemscore.Rot.Weighted>
2.5600

> <Gold.Chemscore.Internal.Correction.Weighted>
   9.000000E+99

> <Gold.Protein.RotatedTorsions>
[ 6907 6896 6895 6894 ] final -113.24 input  -60.11 | X-H torsion
[ 7974 7965 7964 7962 ] final  172.16 input  175.53 | X-H torsion
[ 8008 7997 7996 7995 ] final  143.15 input   59.86 | X-H torsion
[ 10167 10162 10161 10158 ] final -118.51 input  -65.29 | X-H torsion
[ 10718 10713 10712 10709 ] final  -19.35 input   66.30 | X-H torsion
[ 10763 10752 10751 10750 ] final  -21.80 input  -60.55 | X-H torsion
[ 11005 11000 10999 10996 ] final  116.57 input  -57.11 | X-H torsion

> <Gold.Protein.ActiveResidues>
 VAL166  LYS551  ARG553  GLY616  TRP617  ASP618  TYR619  PRO620  LYS621  CYS622 
 ASP623  PHE694  ASN695  SER759  ASP760  ASP761  ALA762  ILE779  LEU786  VAL792 
 PHE793  MET794  SER795  GLU796  ALA797  LYS798  CYS799  TRP800  GLU811  SER814 

> <Gold.Protein.RotatedAtoms>
  150.7815  133.8974  159.3330 H   0  0  0  0  0  0  0  0  0  0  0  0  # atno 6907 bound_to 6896
  151.6835  135.0956  160.0230 H   0  0  0  0  0  0  0  0  0  0  0  0  # atno 6908 bound_to 6896
  152.3867  133.6583  159.6240 H   0  0  0  0  0  0  0  0  0  0  0  0  # atno 6909 bound_to 6896
  144.7275  139.9457  143.6430 H   0  0  0  0  0  0  0  0  0  0  0  0  # atno 7974 bound_to 7965
  156.2936  140.2270  156.4843 H   0  0  0  0  0  0  0  0  0  0  0  0  # atno 8008 bound_to 7997
  154.7826  140.0459  157.1160 H   0  0  0  0  0  0  0  0  0  0  0  0  # atno 8009 bound_to 7997
  154.9741  140.3070  155.4978 H   0  0  0  0  0  0  0  0  0  0  0  0  # atno 8010 bound_to 7997
  140.0567  143.5008  152.2054 H   0  0  0  0  0  0  0  0  0  0  0  0  # atno 10167 bound_to 10162
  156.5469  130.4692  149.6471 H   0  0  0  0  0  0  0  0  0  0  0  0  # atno 10718 bound_to 10713
  153.6418  135.6984  153.5239 H   0  0  0  0  0  0  0  0  0  0  0  0  # atno 10763 bound_to 10752
  153.2776  135.4195  155.1047 H   0  0  0  0  0  0  0  0  0  0  0  0  # atno 10764 bound_to 10752
  154.8498  135.3594  154.5962 H   0  0  0  0  0  0  0  0  0  0  0  0  # atno 10765 bound_to 10752
  139.9045  134.9599  156.7218 H   0  0  0  0  0  0  0  0  0  0  0  0  # atno 11005 bound_to 11000
  146.0750  139.3738  143.0499 LP  0  0  0  0  0  0  0  0  0  0  0  0  # atno 17320 bound_to 7965
  145.7917  140.9811  143.1045 LP  0  0  0  0  0  0  0  0  0  0  0  0  # atno 17321 bound_to 7965
  139.5919  144.7553  151.3379 LP  0  0  0  0  0  0  0  0  0  0  0  0  # atno 17342 bound_to 10162
  140.7191  143.7184  150.7715 LP  0  0  0  0  0  0  0  0  0  0  0  0  # atno 17343 bound_to 10162
  156.2920  130.7129  151.1980 LP  0  0  0  0  0  0  0  0  0  0  0  0  # atno 17370 bound_to 10713
  157.7395  131.0528  150.5229 LP  0  0  0  0  0  0  0  0  0  0  0  0  # atno 17371 bound_to 10713
  140.6994  133.9319  155.8015 LP  0  0  0  0  0  0  0  0  0  0  0  0  # atno 17394 bound_to 11000
  141.0383  134.0658  157.3933 LP  0  0  0  0  0  0  0  0  0  0  0  0  # atno 17395 bound_to 11000

$$$$
