AV-unprocessed.smi:415|AV-procd|sdf|2521|dock4
  -GOLD-   2262022473D 1   1.00000     0.00000
 Structure written by MMmdl.
 53 54  0  0  0  0  0  0  0  0  1 V2000
  145.6318  132.0081  151.8684 C   0  0  0  0  0  0  0  0  0  0  0  0
  145.6646  133.1786  152.6660 O   0  0  0  0  0  0  0  0  0  0  0  0
  146.6322  133.1056  153.6987 C   0  0  0  0  0  0  0  0  0  0  0  0
  148.0095  132.8553  153.0670 C   0  0  0  0  0  0  0  0  0  0  0  0
  149.0722  132.7875  154.0509 N   0  0  0  0  0  0  0  0  0  0  0  0
  149.8616  131.6583  154.2484 C   0  0  0  0  0  0  0  0  0  0  0  0
  149.6549  130.5339  153.4696 N   0  0  0  0  0  0  0  0  0  0  0  0
  150.8412  131.6379  155.1797 C   0  0  0  0  0  0  0  0  0  0  0  0
  151.1295  132.7928  156.0187 C   0  0  0  0  0  0  0  0  0  0  0  0
  152.0016  132.7860  156.8882 O   0  0  0  0  0  0  0  0  0  0  0  0
  150.3371  133.9388  155.7788 N   0  0  0  0  0  0  0  0  0  0  0  0
  150.5681  135.1494  156.5978 C   0  0  0  0  0  0  0  0  0  0  0  0
  151.1796  136.3142  155.8049 C   0  0  0  0  0  0  0  0  0  0  0  0
  151.2498  136.2781  154.5754 O   0  0  0  0  0  0  0  0  0  0  0  0
  151.6093  137.3535  156.5356 N   0  0  0  0  0  0  0  0  0  0  0  0
  152.2246  138.5719  156.0070 C   0  0  1  0  0  0  0  0  0  0  0  0
  151.4903  139.0485  154.7381 C   0  0  0  0  0  0  0  0  0  0  0  0
  150.0899  139.5892  155.0596 C   0  0  0  0  0  0  0  0  0  0  0  0
  150.1616  140.7082  156.1069 C   0  0  0  0  0  0  0  0  0  0  0  0
  150.8679  140.2513  157.4004 C   0  0  2  0  0  0  0  0  0  0  0  0
  150.8981  141.4104  158.4128 C   0  0  0  0  0  0  0  0  0  0  0  0
  152.2813  139.6855  157.0853 C   0  0  1  0  0  0  0  0  0  0  0  0
  153.0362  139.2068  158.3424 C   0  0  0  0  0  0  0  0  0  0  0  0
  149.3118  133.9642  154.8060 C   0  0  0  0  0  0  0  0  0  0  0  0
  148.6472  134.9893  154.6286 O   0  0  0  0  0  0  0  0  0  0  0  0
  144.8758  132.1162  151.0907 H   0  0  0  0  0  0  0  0  0  0  0  0
  145.3784  131.1310  152.4651 H   0  0  0  0  0  0  0  0  0  0  0  0
  146.5925  131.8351  151.3813 H   0  0  0  0  0  0  0  0  0  0  0  0
  146.6434  134.0377  154.2660 H   0  0  0  0  0  0  0  0  0  0  0  0
  146.3774  132.3012  154.3908 H   0  0  0  0  0  0  0  0  0  0  0  0
  148.0328  131.9368  152.4778 H   0  0  0  0  0  0  0  0  0  0  0  0
  148.2717  133.6457  152.3645 H   0  0  0  0  0  0  0  0  0  0  0  0
  148.9425  130.5039  152.7541 H   0  0  0  0  0  0  0  0  0  0  0  0
  150.2266  129.7069  153.5659 H   0  0  0  0  0  0  0  0  0  0  0  0
  151.4342  130.7443  155.3123 H   0  0  0  0  0  0  0  0  0  0  0  0
  149.6448  135.5017  157.0595 H   0  0  0  0  0  0  0  0  0  0  0  0
  151.2147  134.9205  157.4470 H   0  0  0  0  0  0  0  0  0  0  0  0
  151.5057  137.2989  157.5386 H   0  0  0  0  0  0  0  0  0  0  0  0
  153.2537  138.3373  155.7272 H   0  0  0  0  0  0  0  0  0  0  0  0
  152.0754  139.8352  154.2601 H   0  0  0  0  0  0  0  0  0  0  0  0
  151.4212  138.2398  154.0096 H   0  0  0  0  0  0  0  0  0  0  0  0
  149.6198  139.9629  154.1497 H   0  0  0  0  0  0  0  0  0  0  0  0
  149.4534  138.7822  155.4249 H   0  0  0  0  0  0  0  0  0  0  0  0
  150.6885  141.5646  155.6839 H   0  0  0  0  0  0  0  0  0  0  0  0
  149.1521  141.0522  156.3348 H   0  0  0  0  0  0  0  0  0  0  0  0
  150.2692  139.4525  157.8404 H   0  0  0  0  0  0  0  0  0  0  0  0
  151.5418  142.2208  158.0697 H   0  0  0  0  0  0  0  0  0  0  0  0
  151.2572  141.0858  159.3889 H   0  0  0  0  0  0  0  0  0  0  0  0
  149.9003  141.8225  158.5648 H   0  0  0  0  0  0  0  0  0  0  0  0
  152.8689  140.5011  156.6604 H   0  0  0  0  0  0  0  0  0  0  0  0
  152.4559  138.4777  158.9087 H   0  0  0  0  0  0  0  0  0  0  0  0
  153.2711  140.0353  159.0100 H   0  0  0  0  0  0  0  0  0  0  0  0
  153.9841  138.7398  158.0739 H   0  0  0  0  0  0  0  0  0  0  0  0
  1  2  1  0  0  0  0
  1 26  1  0  0  0  0
  1 27  1  0  0  0  0
  1 28  1  0  0  0  0
  2  3  1  0  0  0  0
  3  4  1  0  0  0  0
  3 29  1  0  0  0  0
  3 30  1  0  0  0  0
  4  5  1  0  0  0  0
  4 31  1  0  0  0  0
  4 32  1  0  0  0  0
  5 24  1  0  0  0  0
  5  6  1  0  0  0  0
  6  7  1  0  0  0  0
  6  8  2  0  0  0  0
  7 33  1  0  0  0  0
  7 34  1  0  0  0  0
  8  9  1  0  0  0  0
  8 35  1  0  0  0  0
  9 10  2  0  0  0  0
  9 11  1  0  0  0  0
 11 12  1  0  0  0  0
 11 24  1  0  0  0  0
 12 13  1  0  0  0  0
 12 36  1  0  0  0  0
 12 37  1  0  0  0  0
 13 14  2  0  0  0  0
 13 15  1  0  0  0  0
 15 16  1  0  0  0  0
 15 38  1  0  0  0  0
 16 22  1  0  0  0  0
 16 17  1  0  0  0  0
 16 39  1  0  0  0  0
 17 18  1  0  0  0  0
 17 40  1  0  0  0  0
 17 41  1  0  0  0  0
 18 19  1  0  0  0  0
 18 42  1  0  0  0  0
 18 43  1  0  0  0  0
 19 20  1  0  0  0  0
 19 44  1  0  0  0  0
 19 45  1  0  0  0  0
 20 21  1  0  0  0  0
 20 22  1  0  0  0  0
 20 46  1  0  0  0  0
 21 47  1  0  0  0  0
 21 48  1  0  0  0  0
 21 49  1  0  0  0  0
 22 23  1  0  0  0  0
 22 50  1  0  0  0  0
 23 51  1  0  0  0  0
 23 52  1  0  0  0  0
 23 53  1  0  0  0  0
 24 25  2  0  0  0  0
M  END
> <s_m_source_file>
AV-unprocessed.smi

> <i_m_source_file_index>
415

> <i_lp_mmshare_version>
43012

> <i_f3d_flags>
0

> <s_epik_input>
W0NIM11PW0NIMl1bQ0gyXW4xYyhbTkgyXSlbY0hdYyg9TyluKGMxPU8pW0NIMl1DKD1PKVtOSF1bQ0BASF0yW0NIMl1bQ0gyXVtDSDJdW0NAQEhdKFtDSDNdKVtDQEhdMltDSDNd

> <s_epik_cmdline>
J2VwaWtfcHl0aG9uJywgJy1waCcsICc3LjAnLCAnLXRuJywgJzgnLCAnLW1hJywgJzIwMCcsICctbWV0YWxfYmluZGluZycsICctaW1hZScsICc8aW5maWxlLm1hZT4nLCAnLW9tYWUnLCAnPG91dGZpbGUubWFlPic=

> <r_lp_tautomer_probability>
1

> <r_epik_Ionization_Penalty>
8.6647e-06

> <r_epik_Ionization_Penalty_Charging>
1.81162e-08

> <r_epik_Ionization_Penalty_Neutral>
8.64658e-06

> <r_epik_State_Penalty>
-0

> <r_epik_Charging_Adjusted_Penalty>
1.81162e-08

> <i_epik_Tot_Q>
0

> <i_epik_Tot_abs_Q>
0

> <r_epik_Metal_State_Penalty>
-0

> <b_epik_Metal_Only>
0

> <s_lp_Force_Field>
OPLS_2005

> <r_lp_Energy>
19.0862

> <b_lp_Chiralities_Consistent>
1

> <s_lp_Variant>
AV-unprocessed.smi:415-4

> <Gold.Version>
5.8.1

> <Gold.Id.Protein>
6NUR|6NUR_protein|mol2

> <Gold.PLP.Fitness>
44.5813

> <Gold.PLP.PLP>
-39.3624

> <Gold.PLP.part.hbond>
-2.0000

> <Gold.PLP.part.metal>
0.0000

> <Gold.PLP.part.buried>
-4.4557

> <Gold.PLP.part.nonpolar>
-35.2909

> <Gold.PLP.part.repulsive>
2.7511

> <Gold.PLP.ligand.clash>
0.0000

> <Gold.PLP.ligand.torsion>
0.4086

> <Gold.PLP.Chemscore.Hbond>
1.9920

> <Gold.PLP.Chemscore.CHOScore>
0.0000

> <Gold.PLP.Chemscore.Metal>
0.0000

> <Gold.Chemscore.Hbonds>
donor molecule, donor type, donor heavy atom, donor atom, acceptor molecule, acceptor atom, score
      P1  H 10752 10765       L1    14  0.55

> <Gold.PLP.Chemscore.Internal.Correction>
0.0602

> <Gold.Rescore>
     Score         DG    S(hbond)    S(metal)    S(lipo)     H(rot)  DE(clash)    DE(int)     intcor
     13.06     -14.61       1.95        0.00      71.95       2.26       0.47       1.09       ----

> <Gold.Chemscore.Fitness>
13.0565

> <Gold.Chemscore.DG>
-14.6108

> <Gold.Chemscore.ZeroCoef>
-5.4800

> <Gold.Chemscore.Hbond>
1.9490

> <Gold.Chemscore.Metal>
0.0000

> <Gold.Chemscore.Lipo>
71.9507

> <Gold.Chemscore.Internal_Hbond>
0.0000

> <Gold.Chemscore.DEClash>
0.4665

> <Gold.Chemscore.DEInternal>
1.0879

> <Gold.Chemscore.Rot>
2.2645

> <Gold.Chemscore.Internal.Correction>
   9.000000E+99

> <Gold.Chemscore.Hbonds>
donor molecule, donor type, donor heavy atom, donor atom, acceptor molecule, acceptor atom, score
      L1  H     7    33       P1 10747  0.01
      P1  H  6896  6907       L1    10  0.03
      P1  H 10752 10765       L1    14  0.03

> <Gold.Chemscore.Hbond.Weighted>
-6.5098

> <Gold.Chemscore.Metal.Weighted>
-0.0000

> <Gold.Chemscore.Lipo.Weighted>
-8.4182

> <Gold.Chemscore.Internal_Hbond.Weighted>
0.0000

> <Gold.Chemscore.DEClash.Weighted>
0.4665

> <Gold.Chemscore.DEInternal.Weighted>
1.0879

> <Gold.Chemscore.Rot.Weighted>
5.7972

> <Gold.Chemscore.Internal.Correction.Weighted>
   9.000000E+99

> <Gold.Protein.RotatedTorsions>
[ 6907 6896 6895 6894 ] final -163.72 input  -60.11 | X-H torsion
[ 7974 7965 7964 7962 ] final  147.71 input  175.53 | X-H torsion
[ 8008 7997 7996 7995 ] final   24.60 input   59.86 | X-H torsion
[ 10167 10162 10161 10158 ] final   81.79 input  -65.29 | X-H torsion
[ 10718 10713 10712 10709 ] final  159.84 input   66.30 | X-H torsion
[ 10763 10752 10751 10750 ] final -174.26 input  -60.55 | X-H torsion
[ 11005 11000 10999 10996 ] final   39.61 input  -57.11 | X-H torsion

> <Gold.Protein.ActiveResidues>
 VAL166  LYS551  ARG553  GLY616  TRP617  ASP618  TYR619  PRO620  LYS621  CYS622 
 ASP623  PHE694  ASN695  SER759  ASP760  ASP761  ALA762  ILE779  LEU786  VAL792 
 PHE793  MET794  SER795  GLU796  ALA797  LYS798  CYS799  TRP800  GLU811  SER814 

> <Gold.Protein.RotatedAtoms>
  151.4005  133.3759  159.2731 H   0  0  0  0  0  0  0  0  0  0  0  0  # atno 6907 bound_to 6896
  150.9437  134.8845  159.7639 H   0  0  0  0  0  0  0  0  0  0  0  0  # atno 6908 bound_to 6896
  152.5082  134.3957  159.9451 H   0  0  0  0  0  0  0  0  0  0  0  0  # atno 6909 bound_to 6896
  144.8570  139.6062  143.5948 H   0  0  0  0  0  0  0  0  0  0  0  0  # atno 7974 bound_to 7965
  154.9988  140.3123  155.4875 H   0  0  0  0  0  0  0  0  0  0  0  0  # atno 8008 bound_to 7997
  156.2928  140.2235  156.5038 H   0  0  0  0  0  0  0  0  0  0  0  0  # atno 8009 bound_to 7997
  154.7637  140.0457  157.0982 H   0  0  0  0  0  0  0  0  0  0  0  0  # atno 8010 bound_to 7997
  139.9356  144.6123  150.8302 H   0  0  0  0  0  0  0  0  0  0  0  0  # atno 10167 bound_to 10162
  157.1586  131.0581  151.2244 H   0  0  0  0  0  0  0  0  0  0  0  0  # atno 10718 bound_to 10713
  154.5983  135.2852  155.0562 H   0  0  0  0  0  0  0  0  0  0  0  0  # atno 10763 bound_to 10752
  154.1837  135.6452  153.5045 H   0  0  0  0  0  0  0  0  0  0  0  0  # atno 10764 bound_to 10752
  153.0147  135.5429  154.6693 H   0  0  0  0  0  0  0  0  0  0  0  0  # atno 10765 bound_to 10752
  140.2011  134.3870  155.8096 H   0  0  0  0  0  0  0  0  0  0  0  0  # atno 11005 bound_to 11000
  146.2831  139.6930  142.9215 LP  0  0  0  0  0  0  0  0  0  0  0  0  # atno 17320 bound_to 7965
  145.4386  141.0421  143.2870 LP  0  0  0  0  0  0  0  0  0  0  0  0  # atno 17321 bound_to 7965
  140.7625  143.3200  151.2643 LP  0  0  0  0  0  0  0  0  0  0  0  0  # atno 17342 bound_to 10162
  139.6746  143.9960  152.2773 LP  0  0  0  0  0  0  0  0  0  0  0  0  # atno 17343 bound_to 10162
  157.4154  130.7408  149.6871 LP  0  0  0  0  0  0  0  0  0  0  0  0  # atno 17370 bound_to 10713
  155.9758  130.4084  150.3826 LP  0  0  0  0  0  0  0  0  0  0  0  0  # atno 17371 bound_to 10713
  141.2227  133.7094  156.8259 LP  0  0  0  0  0  0  0  0  0  0  0  0  # atno 17394 bound_to 11000
  140.2053  134.8867  157.3215 LP  0  0  0  0  0  0  0  0  0  0  0  0  # atno 17395 bound_to 11000

$$$$
