AV-unprocessed.smi:67|AV-procd|sdf|637|dock5
  -GOLD-   2262016533D 1   1.00000     0.00000
 Structure written by MMmdl.
 48 50  0  0  0  0  0  0  0  0  2 V2000
  144.3355  138.5799  153.6280 O   0  0  0  0  0  0  0  0  0  0  0  0
  145.4703  137.8287  153.2352 C   0  0  1  0  0  0  0  0  0  0  0  0
  146.5286  137.8991  154.3698 C   0  0  0  0  0  0  0  0  0  0  0  0
  146.9696  139.2745  154.7419 N   0  3  2  0  0  0  0  0  0  0  0  0
  148.0438  139.7606  153.8351 C   0  0  0  0  0  0  0  0  0  0  0  0
  148.4192  141.2229  154.1249 C   0  0  0  0  0  0  0  0  0  0  0  0
  148.8487  141.4113  155.5917 C   0  0  2  0  0  0  0  0  0  0  0  0
  150.0312  140.6708  155.8872 O   0  0  0  0  0  0  0  0  0  0  0  0
  150.6738  140.8457  157.0955 C   0  0  0  0  0  0  0  0  0  0  0  0
  151.0107  139.7997  157.9908 C   0  0  0  0  0  0  0  0  0  0  0  0
  151.6740  140.0843  159.1996 C   0  0  0  0  0  0  0  0  0  0  0  0
  152.0075  141.4106  159.5298 C   0  0  0  0  0  0  0  0  0  0  0  0
  151.6766  142.4637  158.6522 C   0  0  0  0  0  0  0  0  0  0  0  0
  152.0448  143.8985  158.9995 C   0  0  0  0  0  0  0  0  0  0  0  0
  150.9674  144.6844  158.9855 F   0  0  0  0  0  0  0  0  0  0  0  0
  152.5943  143.9667  160.2127 F   0  0  0  0  0  0  0  0  0  0  0  0
  152.9205  144.3544  158.1049 F   0  0  0  0  0  0  0  0  0  0  0  0
  151.0178  142.1694  157.4389 C   0  0  0  0  0  0  0  0  0  0  0  0
  147.7328  140.8855  156.5047 C   0  0  0  0  0  0  0  0  0  0  0  0
  147.3499  139.4322  156.1717 C   0  0  0  0  0  0  0  0  0  0  0  0
  145.0836  136.3942  152.8090 C   0  0  0  0  0  0  0  0  0  0  0  0
  145.3321  136.3348  151.3025 C   0  0  0  0  0  0  0  0  0  0  0  0
  146.3448  137.3438  151.0585 N   0  0  0  0  0  0  0  0  0  0  0  0
  146.0067  138.4557  151.9298 C   0  0  0  0  0  0  0  0  0  0  0  0
  144.1188  139.1854  152.9355 H   0  0  0  0  0  0  0  0  0  0  0  0
  146.1891  137.3595  155.2553 H   0  0  0  0  0  0  0  0  0  0  0  0
  147.4117  137.3623  154.0203 H   0  0  0  0  0  0  0  0  0  0  0  0
  148.9219  139.1204  153.9355 H   0  0  0  0  0  0  0  0  0  0  0  0
  147.7154  139.6832  152.7979 H   0  0  0  0  0  0  0  0  0  0  0  0
  149.2064  141.5408  153.4420 H   0  0  0  0  0  0  0  0  0  0  0  0
  147.5617  141.8632  153.9146 H   0  0  0  0  0  0  0  0  0  0  0  0
  148.9912  142.4670  155.8229 H   0  0  0  0  0  0  0  0  0  0  0  0
  150.7744  138.7692  157.7770 H   0  0  0  0  0  0  0  0  0  0  0  0
  151.9294  139.2816  159.8757 H   0  0  0  0  0  0  0  0  0  0  0  0
  152.5206  141.6151  160.4581 H   0  0  0  0  0  0  0  0  0  0  0  0
  150.7699  142.9688  156.7561 H   0  0  0  0  0  0  0  0  0  0  0  0
  148.0407  140.9588  157.5483 H   0  0  0  0  0  0  0  0  0  0  0  0
  146.8523  141.5210  156.4012 H   0  0  0  0  0  0  0  0  0  0  0  0
  146.5160  139.1627  156.8152 H   0  0  0  0  0  0  0  0  0  0  0  0
  148.1732  138.7570  156.4101 H   0  0  0  0  0  0  0  0  0  0  0  0
  145.7345  135.6616  153.2870 H   0  0  0  0  0  0  0  0  0  0  0  0
  144.0548  136.1318  153.0600 H   0  0  0  0  0  0  0  0  0  0  0  0
  145.6494  135.3471  150.9667 H   0  0  0  0  0  0  0  0  0  0  0  0
  144.4169  136.5928  150.7680 H   0  0  0  0  0  0  0  0  0  0  0  0
  146.3376  137.6331  150.0852 H   0  0  0  0  0  0  0  0  0  0  0  0
  145.2287  139.0524  151.4501 H   0  0  0  0  0  0  0  0  0  0  0  0
  146.8605  139.1161  152.0845 H   0  0  0  0  0  0  0  0  0  0  0  0
  146.1732  139.8763  154.5861 H   0  0  0  0  0  0  0  0  0  0  0  0
  1  2  1  0  0  0  0
  1 25  1  0  0  0  0
  2 24  1  0  0  0  0
  2  3  1  0  0  0  0
  2 21  1  0  0  0  0
  3  4  1  0  0  0  0
  3 26  1  0  0  0  0
  3 27  1  0  0  0  0
  4 20  1  0  0  0  0
  4  5  1  0  0  0  0
  4 48  1  0  0  0  0
  5  6  1  0  0  0  0
  5 28  1  0  0  0  0
  5 29  1  0  0  0  0
  6  7  1  0  0  0  0
  6 30  1  0  0  0  0
  6 31  1  0  0  0  0
  7  8  1  0  0  0  0
  7 19  1  0  0  0  0
  7 32  1  0  0  0  0
  8  9  1  0  0  0  0
  9 18  1  0  0  0  0
  9 10  2  0  0  0  0
 10 11  1  0  0  0  0
 10 33  1  0  0  0  0
 11 12  2  0  0  0  0
 11 34  1  0  0  0  0
 12 13  1  0  0  0  0
 12 35  1  0  0  0  0
 13 14  1  0  0  0  0
 13 18  2  0  0  0  0
 14 15  1  0  0  0  0
 14 16  1  0  0  0  0
 14 17  1  0  0  0  0
 18 36  1  0  0  0  0
 19 20  1  0  0  0  0
 19 37  1  0  0  0  0
 19 38  1  0  0  0  0
 20 39  1  0  0  0  0
 20 40  1  0  0  0  0
 21 22  1  0  0  0  0
 21 41  1  0  0  0  0
 21 42  1  0  0  0  0
 22 23  1  0  0  0  0
 22 43  1  0  0  0  0
 22 44  1  0  0  0  0
 23 24  1  0  0  0  0
 23 45  1  0  0  0  0
 24 46  1  0  0  0  0
 24 47  1  0  0  0  0
M  CHG  1   4   1
M  END
> <s_m_source_file>
AV-unprocessed.smi

> <i_m_source_file_index>
67

> <i_lp_mmshare_version>
43012

> <i_f3d_flags>
0

> <s_epik_input>
W0NIMl0xW05IXVtDSDJdW0NIMl1bQ0BAXTEoW09IXSlbQ0gyXU4yW0NIMl1bQ0gyXVtDSF0oW0NIMl1bQ0gyXTIpT2MzW2NIXVtjSF1bY0hdYyhDKEYpKEYpRilbY0hdMw==

> <s_epik_cmdline>
J2VwaWtfcHl0aG9uJywgJy1waCcsICc3LjAnLCAnLXRuJywgJzgnLCAnLW1hJywgJzIwMCcsICctbWV0YWxfYmluZGluZycsICctaW1hZScsICc8aW5maWxlLm1hZT4nLCAnLW9tYWUnLCAnPG91dGZpbGUubWFlPic=

> <r_epik_Ionization_Penalty>
2.37709

> <r_epik_Ionization_Penalty_Charging>
0.0305656

> <r_epik_Ionization_Penalty_Neutral>
2.34653

> <r_epik_State_Penalty>
2.56959

> <r_epik_Charging_Adjusted_Penalty>
2.60016

> <i_epik_Tot_Q>
1

> <i_epik_Tot_abs_Q>
1

> <r_epik_Metal_State_Penalty>
2.56925

> <b_epik_Metal_Only>
0

> <s_lp_Force_Field>
OPLS_2005

> <r_lp_Energy>
51.6978

> <b_lp_Chiralities_Consistent>
1

> <s_lp_Variant>
AV-unprocessed.smi:67-9

> <Gold.Version>
5.8.1

> <Gold.Id.Protein>
6NUR|6NUR_protein|mol2

> <Gold.PLP.Fitness>
48.9182

> <Gold.PLP.PLP>
-46.4714

> <Gold.PLP.part.hbond>
-3.5002

> <Gold.PLP.part.metal>
0.0000

> <Gold.PLP.part.buried>
-2.5013

> <Gold.PLP.part.nonpolar>
-41.4589

> <Gold.PLP.part.repulsive>
0.0611

> <Gold.PLP.ligand.clash>
1.4408

> <Gold.PLP.ligand.torsion>
0.4567

> <Gold.PLP.Chemscore.Hbond>
1.0000

> <Gold.PLP.Chemscore.CHOScore>
0.0000

> <Gold.PLP.Chemscore.Metal>
0.0000

> <Gold.Chemscore.Hbonds>
donor molecule, donor type, donor heavy atom, donor atom, acceptor molecule, acceptor atom, score
      L1  H     1    25       P1 10175  0.73

> <Gold.PLP.Chemscore.Internal.Correction>
1.8010

> <Gold.Rescore>
     Score         DG    S(hbond)    S(metal)    S(lipo)     H(rot)  DE(clash)    DE(int)     intcor
     14.53     -16.67       1.74        0.00      93.64       2.17       1.45       0.69       ----

> <Gold.Chemscore.Fitness>
14.5331

> <Gold.Chemscore.DG>
-16.6688

> <Gold.Chemscore.ZeroCoef>
-5.4800

> <Gold.Chemscore.Hbond>
1.7357

> <Gold.Chemscore.Metal>
0.0000

> <Gold.Chemscore.Lipo>
93.6373

> <Gold.Chemscore.Internal_Hbond>
0.0000

> <Gold.Chemscore.DEClash>
1.4466

> <Gold.Chemscore.DEInternal>
0.6891

> <Gold.Chemscore.Rot>
2.1734

> <Gold.Chemscore.Internal.Correction>
   9.000000E+99

> <Gold.Chemscore.Hbonds>
donor molecule, donor type, donor heavy atom, donor atom, acceptor molecule, acceptor atom, score
      L1  H     1    25       P1 10175  0.70

> <Gold.Chemscore.Hbond.Weighted>
-5.7972

> <Gold.Chemscore.Metal.Weighted>
-0.0000

> <Gold.Chemscore.Lipo.Weighted>
-10.9556

> <Gold.Chemscore.Internal_Hbond.Weighted>
0.0000

> <Gold.Chemscore.DEClash.Weighted>
1.4466

> <Gold.Chemscore.DEInternal.Weighted>
0.6891

> <Gold.Chemscore.Rot.Weighted>
5.5640

> <Gold.Chemscore.Internal.Correction.Weighted>
   9.000000E+99

> <Gold.Protein.RotatedTorsions>
[ 6907 6896 6895 6894 ] final  -98.93 input  -60.11 | X-H torsion
[ 7974 7965 7964 7962 ] final  -30.76 input  175.53 | X-H torsion
[ 8008 7997 7996 7995 ] final -171.76 input   59.86 | X-H torsion
[ 10167 10162 10161 10158 ] final  -43.38 input  -65.29 | X-H torsion
[ 10718 10713 10712 10709 ] final  -99.45 input   66.30 | X-H torsion
[ 10763 10752 10751 10750 ] final  -51.13 input  -60.55 | X-H torsion
[ 11005 11000 10999 10996 ] final  146.91 input  -57.11 | X-H torsion

> <Gold.Protein.ActiveResidues>
 VAL166  LYS551  ARG553  GLY616  TRP617  ASP618  TYR619  PRO620  LYS621  CYS622 
 ASP623  PHE694  ASN695  SER759  ASP760  ASP761  ALA762  ILE779  LEU786  VAL792 
 PHE793  MET794  SER795  GLU796  ALA797  LYS798  CYS799  TRP800  GLU811  SER814 

> <Gold.Protein.RotatedAtoms>
  150.7063  134.1119  159.4003 H   0  0  0  0  0  0  0  0  0  0  0  0  # atno 6907 bound_to 6896
  151.9106  135.0338  160.0523 H   0  0  0  0  0  0  0  0  0  0  0  0  # atno 6908 bound_to 6896
  152.2339  133.5045  159.5268 H   0  0  0  0  0  0  0  0  0  0  0  0  # atno 6909 bound_to 6896
  146.1118  140.5582  142.8774 H   0  0  0  0  0  0  0  0  0  0  0  0  # atno 7974 bound_to 7965
  155.9357  140.1099  157.1096 H   0  0  0  0  0  0  0  0  0  0  0  0  # atno 8008 bound_to 7997
  154.4079  140.1229  156.4927 H   0  0  0  0  0  0  0  0  0  0  0  0  # atno 8009 bound_to 7997
  155.7024  140.3472  155.4941 H   0  0  0  0  0  0  0  0  0  0  0  0  # atno 8010 bound_to 7997
  140.6936  143.2986  151.3343 H   0  0  0  0  0  0  0  0  0  0  0  0  # atno 10167 bound_to 10162
  156.0134  130.5283  150.6672 H   0  0  0  0  0  0  0  0  0  0  0  0  # atno 10718 bound_to 10713
  154.1216  135.6534  153.4904 H   0  0  0  0  0  0  0  0  0  0  0  0  # atno 10763 bound_to 10752
  153.0223  135.5271  154.7091 H   0  0  0  0  0  0  0  0  0  0  0  0  # atno 10764 bound_to 10752
  154.6300  135.2975  155.0197 H   0  0  0  0  0  0  0  0  0  0  0  0  # atno 10765 bound_to 10752
  140.0832  134.9084  157.1535 H   0  0  0  0  0  0  0  0  0  0  0  0  # atno 11005 bound_to 11000
  144.7518  140.5211  143.6796 LP  0  0  0  0  0  0  0  0  0  0  0  0  # atno 17320 bound_to 7965
  145.5647  139.1481  143.3321 LP  0  0  0  0  0  0  0  0  0  0  0  0  # atno 17321 bound_to 7965
  139.6365  144.0620  152.2520 LP  0  0  0  0  0  0  0  0  0  0  0  0  # atno 17342 bound_to 10162
  140.0112  144.6222  150.7646 LP  0  0  0  0  0  0  0  0  0  0  0  0  # atno 17343 bound_to 10162
  157.4402  131.0860  151.0951 LP  0  0  0  0  0  0  0  0  0  0  0  0  # atno 17370 bound_to 10713
  157.1497  130.6179  149.5579 LP  0  0  0  0  0  0  0  0  0  0  0  0  # atno 17371 bound_to 10713
  140.3457  134.2654  155.7205 LP  0  0  0  0  0  0  0  0  0  0  0  0  # atno 17394 bound_to 11000
  141.2054  133.7861  157.0236 LP  0  0  0  0  0  0  0  0  0  0  0  0  # atno 17395 bound_to 11000

$$$$
