AV-unprocessed.smi:1724|AV-procd|sdf|6950|dock2
  -GOLD-   22720 8163D 1   1.00000     0.00000
 Structure written by MMmdl.
 38 39  0  0  0  0  0  0  0  0  1 V2000
  145.5648  138.4352  153.2842 O   0  0  0  0  0  0  0  0  0  0  0  0
  146.5560  137.8564  152.8410 C   0  0  0  0  0  0  0  0  0  0  0  0
  146.4849  136.7560  152.0780 N   0  0  0  0  0  0  0  0  0  0  0  0
  145.2553  136.0885  151.6589 C   0  0  0  0  0  0  0  0  0  0  0  0
  145.5303  134.7578  150.9294 C   0  0  1  0  0  0  0  0  0  0  0  0
  146.0821  133.6608  151.8598 C   0  0  0  0  0  0  0  0  0  0  0  0
  146.2422  132.3438  151.0920 C   0  0  0  0  0  0  0  0  0  0  0  0
  144.9296  131.9690  150.3884 C   0  0  0  0  0  0  0  0  0  0  0  0
  144.5252  133.0302  149.5309 O   0  0  0  0  0  0  0  0  0  0  0  0
  144.2560  134.2401  150.2316 C   0  0  0  0  0  0  0  0  0  0  0  0
  147.8381  138.2186  153.0341 N   0  0  0  0  0  0  0  0  0  0  0  0
  148.3725  139.2960  153.7628 C   0  0  0  0  0  0  0  0  0  0  0  0
  149.4417  139.2260  154.5994 C   0  0  0  0  0  0  0  0  0  0  0  0
  149.9360  140.3909  155.3170 C   0  0  0  0  0  0  0  0  0  0  0  0
  151.1239  140.3240  156.2636 C   0  0  0  0  0  0  0  0  0  0  0  0
  150.8800  139.4582  157.2471 F   0  0  0  0  0  0  0  0  0  0  0  0
  152.2095  139.9086  155.6113 F   0  0  0  0  0  0  0  0  0  0  0  0
  151.3904  141.5117  156.8076 F   0  0  0  0  0  0  0  0  0  0  0  0
  149.2841  141.5481  155.1064 C   0  0  0  0  0  0  0  0  0  0  0  0
  148.1898  141.6302  154.2434 N   0  0  0  0  0  0  0  0  0  0  0  0
  147.6867  140.5827  153.5532 C   0  0  0  0  0  0  0  0  0  0  0  0
  146.7184  140.7376  152.8097 O   0  0  0  0  0  0  0  0  0  0  0  0
  147.7556  142.5357  154.1372 H   0  0  0  0  0  0  0  0  0  0  0  0
  147.3507  136.3485  151.7565 H   0  0  0  0  0  0  0  0  0  0  0  0
  144.5854  135.9264  152.5051 H   0  0  0  0  0  0  0  0  0  0  0  0
  144.7314  136.7694  150.9875 H   0  0  0  0  0  0  0  0  0  0  0  0
  146.2751  134.9477  150.1548 H   0  0  0  0  0  0  0  0  0  0  0  0
  147.0437  133.9547  152.2810 H   0  0  0  0  0  0  0  0  0  0  0  0
  145.4033  133.5136  152.7010 H   0  0  0  0  0  0  0  0  0  0  0  0
  147.0358  132.4458  150.3507 H   0  0  0  0  0  0  0  0  0  0  0  0
  146.5478  131.5468  151.7704 H   0  0  0  0  0  0  0  0  0  0  0  0
  145.0676  131.0671  149.7917 H   0  0  0  0  0  0  0  0  0  0  0  0
  144.1449  131.7538  151.1154 H   0  0  0  0  0  0  0  0  0  0  0  0
  143.4518  134.0817  150.9523 H   0  0  0  0  0  0  0  0  0  0  0  0
  143.8961  134.9772  149.5134 H   0  0  0  0  0  0  0  0  0  0  0  0
  148.5321  137.6481  152.5733 H   0  0  0  0  0  0  0  0  0  0  0  0
  149.9674  138.2991  154.7527 H   0  0  0  0  0  0  0  0  0  0  0  0
  149.5469  142.4845  155.5762 H   0  0  0  0  0  0  0  0  0  0  0  0
  1  2  2  0  0  0  0
  2  3  1  0  0  0  0
  2 11  1  0  0  0  0
  3  4  1  0  0  0  0
  3 24  1  0  0  0  0
  4  5  1  0  0  0  0
  4 25  1  0  0  0  0
  4 26  1  0  0  0  0
  5 10  1  0  0  0  0
  5  6  1  0  0  0  0
  5 27  1  0  0  0  0
  6  7  1  0  0  0  0
  6 28  1  0  0  0  0
  6 29  1  0  0  0  0
  7  8  1  0  0  0  0
  7 30  1  0  0  0  0
  7 31  1  0  0  0  0
  8  9  1  0  0  0  0
  8 32  1  0  0  0  0
  8 33  1  0  0  0  0
  9 10  1  0  0  0  0
 10 34  1  0  0  0  0
 10 35  1  0  0  0  0
 11 12  1  0  0  0  0
 11 36  1  0  0  0  0
 12 21  1  0  0  0  0
 12 13  2  0  0  0  0
 13 14  1  0  0  0  0
 13 37  1  0  0  0  0
 14 15  1  0  0  0  0
 14 19  2  0  0  0  0
 15 16  1  0  0  0  0
 15 17  1  0  0  0  0
 15 18  1  0  0  0  0
 19 20  1  0  0  0  0
 19 38  1  0  0  0  0
 20 23  1  0  0  0  0
 20 21  1  0  0  0  0
 21 22  2  0  0  0  0
M  END
> <s_m_source_file>
AV-unprocessed.smi

> <i_m_source_file_index>
1724

> <i_lp_mmshare_version>
43012

> <i_f3d_flags>
0

> <s_epik_input>
Tz1jMVtuSF1bY0hdYyhDKEYpKEYpRilbY0hdYzFbTkhdQyg9TylbTkhdW0NIMl1bQ0BASF0yW0NIMl1bQ0gyXVtDSDJdT1tDSDJdMg==

> <s_epik_cmdline>
J2VwaWtfcHl0aG9uJywgJy1waCcsICc3LjAnLCAnLXRuJywgJzgnLCAnLW1hJywgJzIwMCcsICctbWV0YWxfYmluZGluZycsICctaW1hZScsICc8aW5maWxlLm1hZT4nLCAnLW9tYWUnLCAnPG91dGZpbGUubWFlPic=

> <r_lp_tautomer_probability>
1

> <r_epik_Ionization_Penalty>
0.00384958

> <r_epik_Ionization_Penalty_Charging>
0.00382926

> <r_epik_Ionization_Penalty_Neutral>
2.03186e-05

> <r_epik_State_Penalty>
-0

> <r_epik_Charging_Adjusted_Penalty>
0.00382926

> <i_epik_Tot_Q>
0

> <i_epik_Tot_abs_Q>
0

> <r_epik_Metal_State_Penalty>
0.371494

> <b_epik_Metal_Only>
0

> <s_lp_Force_Field>
OPLS_2005

> <r_lp_Energy>
21.778

> <b_lp_Chiralities_Consistent>
1

> <s_lp_Variant>
AV-unprocessed.smi:1724-2

> <Gold.Version>
5.8.1

> <Gold.Id.Protein>
6NUR|6NUR_protein|mol2

> <Gold.PLP.Fitness>
40.6663

> <Gold.PLP.PLP>
-34.0262

> <Gold.PLP.part.hbond>
-2.6438

> <Gold.PLP.part.metal>
0.0000

> <Gold.PLP.part.buried>
-0.4121

> <Gold.PLP.part.nonpolar>
-33.9569

> <Gold.PLP.part.repulsive>
3.4004

> <Gold.PLP.ligand.clash>
1.5238

> <Gold.PLP.ligand.torsion>
0.4472

> <Gold.PLP.Chemscore.Hbond>
2.0000

> <Gold.PLP.Chemscore.CHOScore>
1.0000

> <Gold.PLP.Chemscore.Metal>
0.0000

> <Gold.Chemscore.Hbonds>
donor molecule, donor type, donor heavy atom, donor atom, acceptor molecule, acceptor atom, score
      L1  H     3    24       P1  7948  1.00
      L1  H    11    36       P1  7948  1.00
      L1  C    19    38       P1  8028  1.00

> <Gold.PLP.Chemscore.Internal.Correction>
0.0583

> <Gold.Rescore>
     Score         DG    S(hbond)    S(metal)    S(lipo)     H(rot)  DE(clash)    DE(int)     intcor
     11.87     -16.19       1.93        0.00      65.65       1.33       0.12       4.20       ----

> <Gold.Chemscore.Fitness>
11.8672

> <Gold.Chemscore.DG>
-16.1867

> <Gold.Chemscore.ZeroCoef>
-5.4800

> <Gold.Chemscore.Hbond>
1.9287

> <Gold.Chemscore.Metal>
0.0000

> <Gold.Chemscore.Lipo>
65.6480

> <Gold.Chemscore.Internal_Hbond>
0.0000

> <Gold.Chemscore.DEClash>
0.1189

> <Gold.Chemscore.DEInternal>
4.2007

> <Gold.Chemscore.Rot>
1.3344

> <Gold.Chemscore.Internal.Correction>
   9.000000E+99

> <Gold.Chemscore.Hbonds>
donor molecule, donor type, donor heavy atom, donor atom, acceptor molecule, acceptor atom, score
      L1  H     3    24       P1  7948  0.93
      L1  H    11    36       P1  7948  0.95

> <Gold.Chemscore.Hbond.Weighted>
-6.4419

> <Gold.Chemscore.Metal.Weighted>
-0.0000

> <Gold.Chemscore.Lipo.Weighted>
-7.6808

> <Gold.Chemscore.Internal_Hbond.Weighted>
0.0000

> <Gold.Chemscore.DEClash.Weighted>
0.1189

> <Gold.Chemscore.DEInternal.Weighted>
4.2007

> <Gold.Chemscore.Rot.Weighted>
3.4160

> <Gold.Chemscore.Internal.Correction.Weighted>
   9.000000E+99

> <Gold.Protein.RotatedTorsions>
[ 6907 6896 6895 6894 ] final  118.04 input  -60.11 | X-H torsion
[ 7974 7965 7964 7962 ] final  178.21 input  175.53 | X-H torsion
[ 8008 7997 7996 7995 ] final   59.31 input   59.86 | X-H torsion
[ 10167 10162 10161 10158 ] final   91.20 input  -65.29 | X-H torsion
[ 10718 10713 10712 10709 ] final -131.64 input   66.30 | X-H torsion
[ 10763 10752 10751 10750 ] final -130.09 input  -60.55 | X-H torsion
[ 11005 11000 10999 10996 ] final  113.04 input  -57.11 | X-H torsion

> <Gold.Protein.ActiveResidues>
 VAL166  LYS551  ARG553  GLY616  TRP617  ASP618  TYR619  PRO620  LYS621  CYS622 
 ASP623  PHE694  ASN695  SER759  ASP760  ASP761  ALA762  ILE779  LEU786  VAL792 
 PHE793  MET794  SER795  GLU796  ALA797  LYS798  CYS799  TRP800  GLU811  SER814 

> <Gold.Protein.RotatedAtoms>
  152.4571  133.7744  159.6816 H   0  0  0  0  0  0  0  0  0  0  0  0  # atno 6907 bound_to 6896
  150.8500  133.7791  159.3035 H   0  0  0  0  0  0  0  0  0  0  0  0  # atno 6908 bound_to 6896
  151.5389  135.1071  159.9973 H   0  0  0  0  0  0  0  0  0  0  0  0  # atno 6909 bound_to 6896
  144.7159  140.0363  143.6438 H   0  0  0  0  0  0  0  0  0  0  0  0  # atno 7974 bound_to 7965
  155.5642  140.3489  155.4499 H   0  0  0  0  0  0  0  0  0  0  0  0  # atno 8008 bound_to 7997
  156.0492  140.1314  157.0095 H   0  0  0  0  0  0  0  0  0  0  0  0  # atno 8009 bound_to 7997
  154.4426  140.1008  156.6336 H   0  0  0  0  0  0  0  0  0  0  0  0  # atno 8010 bound_to 7997
  139.8398  144.6646  150.9297 H   0  0  0  0  0  0  0  0  0  0  0  0  # atno 10167 bound_to 10162
  156.2265  130.7011  151.0813 H   0  0  0  0  0  0  0  0  0  0  0  0  # atno 10718 bound_to 10713
  154.8756  135.3874  154.4026 H   0  0  0  0  0  0  0  0  0  0  0  0  # atno 10763 bound_to 10752
  153.4748  135.7030  153.5977 H   0  0  0  0  0  0  0  0  0  0  0  0  # atno 10764 bound_to 10752
  153.4418  135.3854  155.2200 H   0  0  0  0  0  0  0  0  0  0  0  0  # atno 10765 bound_to 10752
  139.8942  134.9542  156.6678 H   0  0  0  0  0  0  0  0  0  0  0  0  # atno 11005 bound_to 11000
  146.0061  139.3131  143.0898 LP  0  0  0  0  0  0  0  0  0  0  0  0  # atno 17320 bound_to 7965
  145.8737  140.9405  143.0637 LP  0  0  0  0  0  0  0  0  0  0  0  0  # atno 17321 bound_to 7965
  140.7799  143.3923  151.1289 LP  0  0  0  0  0  0  0  0  0  0  0  0  # atno 17342 bound_to 10162
  139.7570  143.8692  152.3091 LP  0  0  0  0  0  0  0  0  0  0  0  0  # atno 17343 bound_to 10162
  157.7113  131.0733  150.6491 LP  0  0  0  0  0  0  0  0  0  0  0  0  # atno 17370 bound_to 10713
  156.6556  130.4497  149.5704 LP  0  0  0  0  0  0  0  0  0  0  0  0  # atno 17371 bound_to 10713
  140.7397  133.8988  155.8269 LP  0  0  0  0  0  0  0  0  0  0  0  0  # atno 17394 bound_to 11000
  141.0088  134.1050  157.4243 LP  0  0  0  0  0  0  0  0  0  0  0  0  # atno 17395 bound_to 11000

$$$$
