AV-unprocessed.smi:3162|AV-procd|sdf|12068|dock5
  -GOLD-   2272017493D 1   1.00000     0.00000
 Structure written by MMmdl.
 36 36  0  0  0  0  0  0  0  0  1 V2000
  146.0526  141.7618  154.3854 C   0  0  0  0  0  0  0  0  0  0  0  0
  147.5591  141.9697  154.1639 C   0  0  0  0  0  0  0  0  0  0  0  0
  148.4519  141.4021  155.2890 C   0  0  1  0  0  0  0  0  0  0  0  0
  149.7911  142.0207  155.2022 N   0  0  0  0  0  0  0  0  0  0  0  0
  150.8971  141.3382  155.8798 C   0  0  2  0  0  0  0  0  0  0  0  0
  150.9701  139.9144  155.3039 C   0  0  0  0  0  0  0  0  0  0  0  0
  150.7523  141.3527  157.4231 C   0  0  0  0  0  0  0  0  0  0  0  0
  151.3496  142.5167  158.0595 N   0  0  0  0  0  0  0  0  0  0  0  0
  150.9673  143.8384  157.9632 C   0  0  0  0  0  0  0  0  0  0  0  0
  151.8207  144.5723  158.7375 C   0  0  0  0  0  0  0  0  0  0  0  0
  151.8319  146.0535  158.9817 C   0  0  0  0  0  0  0  0  0  0  0  0
  152.7090  143.5942  159.2682 C   0  0  0  0  0  0  0  0  0  0  0  0
  152.4285  142.3682  158.8582 N   0  0  0  0  0  0  0  0  0  0  0  0
  147.7988  141.5727  156.6725 C   0  0  0  0  0  0  0  0  0  0  0  0
  147.8660  142.7828  157.2335 N   0  0  0  0  0  0  0  0  0  0  0  0
  147.2245  140.6306  157.2151 O   0  0  0  0  0  0  0  0  0  0  0  0
  145.4839  142.1256  153.5295 H   0  0  0  0  0  0  0  0  0  0  0  0
  145.6955  142.2965  155.2657 H   0  0  0  0  0  0  0  0  0  0  0  0
  145.8167  140.7054  154.5141 H   0  0  0  0  0  0  0  0  0  0  0  0
  147.8292  141.4894  153.2223 H   0  0  0  0  0  0  0  0  0  0  0  0
  147.7611  143.0325  154.0228 H   0  0  0  0  0  0  0  0  0  0  0  0
  148.5601  140.3352  155.0938 H   0  0  0  0  0  0  0  0  0  0  0  0
  149.7623  142.9821  155.5111 H   0  0  0  0  0  0  0  0  0  0  0  0
  151.8372  141.8247  155.6207 H   0  0  0  0  0  0  0  0  0  0  0  0
  151.7702  139.3440  155.7764 H   0  0  0  0  0  0  0  0  0  0  0  0
  151.1716  139.9339  154.2323 H   0  0  0  0  0  0  0  0  0  0  0  0
  150.0389  139.3665  155.4535 H   0  0  0  0  0  0  0  0  0  0  0  0
  149.6922  141.3299  157.6804 H   0  0  0  0  0  0  0  0  0  0  0  0
  151.1753  140.4555  157.8739 H   0  0  0  0  0  0  0  0  0  0  0  0
  150.1239  144.1441  157.3617 H   0  0  0  0  0  0  0  0  0  0  0  0
  151.8759  146.2849  160.0460 H   0  0  0  0  0  0  0  0  0  0  0  0
  150.9393  146.5380  158.5849 H   0  0  0  0  0  0  0  0  0  0  0  0
  152.6924  146.5309  158.5127 H   0  0  0  0  0  0  0  0  0  0  0  0
  153.5454  143.7391  159.9361 H   0  0  0  0  0  0  0  0  0  0  0  0
  147.4504  142.9421  158.1394 H   0  0  0  0  0  0  0  0  0  0  0  0
  148.3320  143.5349  156.7471 H   0  0  0  0  0  0  0  0  0  0  0  0
  1  2  1  0  0  0  0
  1 17  1  0  0  0  0
  1 18  1  0  0  0  0
  1 19  1  0  0  0  0
  2  3  1  0  0  0  0
  2 20  1  0  0  0  0
  2 21  1  0  0  0  0
  3  4  1  0  0  0  0
  3 14  1  0  0  0  0
  3 22  1  0  0  0  0
  4  5  1  0  0  0  0
  4 23  1  0  0  0  0
  5  6  1  0  0  0  0
  5  7  1  0  0  0  0
  5 24  1  0  0  0  0
  6 25  1  0  0  0  0
  6 26  1  0  0  0  0
  6 27  1  0  0  0  0
  7  8  1  0  0  0  0
  7 28  1  0  0  0  0
  7 29  1  0  0  0  0
  8 13  1  0  0  0  0
  8  9  1  0  0  0  0
  9 10  2  0  0  0  0
  9 30  1  0  0  0  0
 10 11  1  0  0  0  0
 10 12  1  0  0  0  0
 11 31  1  0  0  0  0
 11 32  1  0  0  0  0
 11 33  1  0  0  0  0
 12 13  2  0  0  0  0
 12 34  1  0  0  0  0
 14 15  1  0  0  0  0
 14 16  2  0  0  0  0
 15 35  1  0  0  0  0
 15 36  1  0  0  0  0
M  END
> <s_m_source_file>
AV-unprocessed.smi

> <i_m_source_file_index>
3162

> <i_lp_mmshare_version>
43012

> <i_f3d_flags>
0

> <s_epik_input>
W0NIM11bQ0gyXVtDQEBIXShDKD1PKVtOSDJdKVtOSF1bQ0BIXShbQ0gzXSlbQ0gyXW4xW2NIXWMoW0NIM10pW2NIXW4x

> <s_epik_cmdline>
J2VwaWtfcHl0aG9uJywgJy1waCcsICc3LjAnLCAnLXRuJywgJzgnLCAnLW1hJywgJzIwMCcsICctbWV0YWxfYmluZGluZycsICctaW1hZScsICc8aW5maWxlLm1hZT4nLCAnLW9tYWUnLCAnPG91dGZpbGUubWFlPic=

> <r_lp_tautomer_probability>
1

> <r_epik_Ionization_Penalty>
1.04167

> <r_epik_Ionization_Penalty_Charging>
0

> <r_epik_Ionization_Penalty_Neutral>
1.04167

> <r_epik_State_Penalty>
1.09367

> <r_epik_Charging_Adjusted_Penalty>
1.09367

> <i_epik_Tot_Q>
0

> <i_epik_Tot_abs_Q>
0

> <r_epik_Metal_State_Penalty>
1.09362

> <b_epik_Metal_Only>
0

> <s_lp_Force_Field>
OPLS_2005

> <r_lp_Energy>
2.92083

> <b_lp_Chiralities_Consistent>
1

> <s_lp_Variant>
AV-unprocessed.smi:3162-6

> <Gold.Version>
5.8.1

> <Gold.Id.Protein>
6NUR|6NUR_protein|mol2

> <Gold.PLP.Fitness>
41.9378

> <Gold.PLP.PLP>
-35.7983

> <Gold.PLP.part.hbond>
-2.2496

> <Gold.PLP.part.metal>
0.0000

> <Gold.PLP.part.buried>
-0.8806

> <Gold.PLP.part.nonpolar>
-30.7463

> <Gold.PLP.part.repulsive>
0.0522

> <Gold.PLP.ligand.clash>
0.0000

> <Gold.PLP.ligand.torsion>
1.2248

> <Gold.PLP.Chemscore.Hbond>
1.7937

> <Gold.PLP.Chemscore.CHOScore>
1.0000

> <Gold.PLP.Chemscore.Metal>
0.0000

> <Gold.Chemscore.Hbonds>
donor molecule, donor type, donor heavy atom, donor atom, acceptor molecule, acceptor atom, score
      L1  H     4    23       P1  8028  1.00
      L1  H    15    36       P1  8028  0.80
      L1  C     9    30       P1  8028  1.00

> <Gold.PLP.Chemscore.Internal.Correction>
0.2079

> <Gold.Rescore>
     Score         DG    S(hbond)    S(metal)    S(lipo)     H(rot)  DE(clash)    DE(int)     intcor
     11.51     -12.31       0.88        0.00      86.61       2.43       0.05       0.76       ----

> <Gold.Chemscore.Fitness>
11.5075

> <Gold.Chemscore.DG>
-12.3129

> <Gold.Chemscore.ZeroCoef>
-5.4800

> <Gold.Chemscore.Hbond>
0.8765

> <Gold.Chemscore.Metal>
0.0000

> <Gold.Chemscore.Lipo>
86.6105

> <Gold.Chemscore.Internal_Hbond>
0.0000

> <Gold.Chemscore.DEClash>
0.0477

> <Gold.Chemscore.DEInternal>
0.7577

> <Gold.Chemscore.Rot>
2.4328

> <Gold.Chemscore.Internal.Correction>
   9.000000E+99

> <Gold.Chemscore.Hbonds>
donor molecule, donor type, donor heavy atom, donor atom, acceptor molecule, acceptor atom, score
      L1  H     4    23       P1  8028  0.95
      L1  H    15    36       P1  8028  0.12

> <Gold.Chemscore.Hbond.Weighted>
-2.9275

> <Gold.Chemscore.Metal.Weighted>
-0.0000

> <Gold.Chemscore.Lipo.Weighted>
-10.1334

> <Gold.Chemscore.Internal_Hbond.Weighted>
0.0000

> <Gold.Chemscore.DEClash.Weighted>
0.0477

> <Gold.Chemscore.DEInternal.Weighted>
0.7577

> <Gold.Chemscore.Rot.Weighted>
6.2279

> <Gold.Chemscore.Internal.Correction.Weighted>
   9.000000E+99

> <Gold.Protein.RotatedTorsions>
[ 6907 6896 6895 6894 ] final  -45.77 input  -60.11 | X-H torsion
[ 7974 7965 7964 7962 ] final -143.53 input  175.53 | X-H torsion
[ 8008 7997 7996 7995 ] final  -67.10 input   59.86 | X-H torsion
[ 10167 10162 10161 10158 ] final -153.37 input  -65.29 | X-H torsion
[ 10718 10713 10712 10709 ] final   -0.51 input   66.30 | X-H torsion
[ 10763 10752 10751 10750 ] final  152.05 input  -60.55 | X-H torsion
[ 11005 11000 10999 10996 ] final  115.00 input  -57.11 | X-H torsion

> <Gold.Protein.ActiveResidues>
 VAL166  LYS551  ARG553  GLY616  TRP617  ASP618  TYR619  PRO620  LYS621  CYS622 
 ASP623  PHE694  ASN695  SER759  ASP760  ASP761  ALA762  ILE779  LEU786  VAL792 
 PHE793  MET794  SER795  GLU796  ALA797  LYS798  CYS799  TRP800  GLU811  SER814 

> <Gold.Protein.RotatedAtoms>
  150.9184  134.8602  159.7472 H   0  0  0  0  0  0  0  0  0  0  0  0  # atno 6907 bound_to 6896
  152.4980  134.4254  159.9504 H   0  0  0  0  0  0  0  0  0  0  0  0  # atno 6908 bound_to 6896
  151.4291  133.3636  159.2801 H   0  0  0  0  0  0  0  0  0  0  0  0  # atno 6909 bound_to 6896
  144.8362  140.5822  143.5482 H   0  0  0  0  0  0  0  0  0  0  0  0  # atno 7974 bound_to 7965
  154.4777  140.0899  156.7303 H   0  0  0  0  0  0  0  0  0  0  0  0  # atno 8008 bound_to 7997
  155.4552  140.3459  155.4287 H   0  0  0  0  0  0  0  0  0  0  0  0  # atno 8009 bound_to 7997
  156.1143  140.1456  156.9283 H   0  0  0  0  0  0  0  0  0  0  0  0  # atno 8010 bound_to 7997
  139.7103  143.9120  152.2465 H   0  0  0  0  0  0  0  0  0  0  0  0  # atno 10167 bound_to 10162
  156.8193  130.5451  149.5699 H   0  0  0  0  0  0  0  0  0  0  0  0  # atno 10718 bound_to 10713
  154.1138  135.2837  155.3224 H   0  0  0  0  0  0  0  0  0  0  0  0  # atno 10763 bound_to 10752
  154.6471  135.5382  153.7861 H   0  0  0  0  0  0  0  0  0  0  0  0  # atno 10764 bound_to 10752
  153.0336  135.6501  154.1295 H   0  0  0  0  0  0  0  0  0  0  0  0  # atno 10765 bound_to 10752
  139.8997  134.9577  156.6978 H   0  0  0  0  0  0  0  0  0  0  0  0  # atno 11005 bound_to 11000
  145.4789  139.1497  143.3773 LP  0  0  0  0  0  0  0  0  0  0  0  0  # atno 17320 bound_to 7965
  146.2661  140.4925  142.8833 LP  0  0  0  0  0  0  0  0  0  0  0  0  # atno 17321 bound_to 7965
  139.8987  144.6924  150.8689 LP  0  0  0  0  0  0  0  0  0  0  0  0  # atno 17342 bound_to 10162
  140.7731  143.3530  151.1976 LP  0  0  0  0  0  0  0  0  0  0  0  0  # atno 17343 bound_to 10162
  156.0998  130.5960  150.9875 LP  0  0  0  0  0  0  0  0  0  0  0  0  # atno 17370 bound_to 10713
  157.6465  131.0903  150.8142 LP  0  0  0  0  0  0  0  0  0  0  0  0  # atno 17371 bound_to 10713
  140.7174  133.9170  155.8124 LP  0  0  0  0  0  0  0  0  0  0  0  0  # atno 17394 bound_to 11000
  141.0254  134.0831  157.4074 LP  0  0  0  0  0  0  0  0  0  0  0  0  # atno 17395 bound_to 11000

$$$$
