AV-unprocessed.smi:1389|AV-procd|sdf|5648|dock1
  -GOLD-   22720 5263D 1   1.00000     0.00000
 Structure written by MMmdl.
 52 54  0  0  0  0  0  0  0  0  2 V2000
  145.0151  142.8928  156.8677 C   0  0  0  0  0  0  0  0  0  0  0  0
  144.6986  142.1148  155.5671 C   0  0  2  0  0  0  0  0  0  0  0  0
  145.8378  142.3180  154.5340 C   0  0  0  0  0  0  0  0  0  0  0  0
  147.1670  142.2738  155.1355 N   0  0  0  0  0  0  0  0  0  0  0  0
  147.9833  141.2113  155.1104 C   0  0  0  0  0  0  0  0  0  0  0  0
  147.6931  140.1473  154.5640 O   0  0  0  0  0  0  0  0  0  0  0  0
  149.1389  141.4745  155.7428 N   0  0  0  0  0  0  0  0  0  0  0  0
  150.2953  140.6513  155.8556 C   0  0  0  0  0  0  0  0  0  0  0  0
  150.4901  139.5178  155.0284 C   0  0  0  0  0  0  0  0  0  0  0  0
  151.6185  138.7038  155.2276 C   0  0  0  0  0  0  0  0  0  0  0  0
  152.5082  139.0419  156.2604 C   0  0  0  0  0  0  0  0  0  0  0  0
  152.3300  140.1077  157.0658 N   0  0  0  0  0  0  0  0  0  0  0  0
  151.2541  140.9109  156.8771 C   0  0  0  0  0  0  0  0  0  0  0  0
  151.1268  142.0217  157.7426 N   0  0  0  0  0  0  0  0  0  0  0  0
  151.9275  142.1077  158.9590 C   0  0  0  0  0  0  0  0  0  0  0  0
  151.8075  143.5613  159.4065 C   0  0  0  0  0  0  0  0  0  0  0  0
  151.7659  144.3088  158.0771 C   0  0  0  0  0  0  0  0  0  0  0  0
  151.0218  143.3487  157.1424 C   0  0  0  0  0  0  0  0  0  0  0  0
  143.3785  142.4791  154.9560 N   0  3  0  0  0  0  0  0  0  0  0  0
  142.2416  141.7498  155.5810 C   0  0  0  0  0  0  0  0  0  0  0  0
  140.9196  142.0682  154.8642 C   0  0  0  0  0  0  0  0  0  0  0  0
  140.6868  143.4684  154.9028 O   0  0  0  0  0  0  0  0  0  0  0  0
  141.7087  144.1852  154.2260 C   0  0  0  0  0  0  0  0  0  0  0  0
  143.0658  143.9342  154.9066 C   0  0  0  0  0  0  0  0  0  0  0  0
  145.9893  142.6212  157.2738 H   0  0  0  0  0  0  0  0  0  0  0  0
  144.2977  142.6766  157.6593 H   0  0  0  0  0  0  0  0  0  0  0  0
  145.0228  143.9699  156.6965 H   0  0  0  0  0  0  0  0  0  0  0  0
  144.6533  141.0586  155.8388 H   0  0  0  0  0  0  0  0  0  0  0  0
  145.8021  141.5788  153.7345 H   0  0  0  0  0  0  0  0  0  0  0  0
  145.7243  143.2881  154.0488 H   0  0  0  0  0  0  0  0  0  0  0  0
  147.4866  143.1099  155.6028 H   0  0  0  0  0  0  0  0  0  0  0  0
  149.2534  142.4192  156.0803 H   0  0  0  0  0  0  0  0  0  0  0  0
  149.7836  139.2437  154.2605 H   0  0  0  0  0  0  0  0  0  0  0  0
  151.7903  137.8339  154.6112 H   0  0  0  0  0  0  0  0  0  0  0  0
  153.3832  138.4378  156.4498 H   0  0  0  0  0  0  0  0  0  0  0  0
  151.5678  141.4167  159.7219 H   0  0  0  0  0  0  0  0  0  0  0  0
  152.9734  141.8775  158.7521 H   0  0  0  0  0  0  0  0  0  0  0  0
  150.8719  143.7103  159.9477 H   0  0  0  0  0  0  0  0  0  0  0  0
  152.6286  143.8767  160.0510 H   0  0  0  0  0  0  0  0  0  0  0  0
  151.2852  145.2845  158.1518 H   0  0  0  0  0  0  0  0  0  0  0  0
  152.7826  144.4622  157.7124 H   0  0  0  0  0  0  0  0  0  0  0  0
  151.4335  143.3772  156.1324 H   0  0  0  0  0  0  0  0  0  0  0  0
  149.9693  143.6275  157.0875 H   0  0  0  0  0  0  0  0  0  0  0  0
  142.3999  140.6733  155.5543 H   0  0  0  0  0  0  0  0  0  0  0  0
  142.1646  142.0289  156.6333 H   0  0  0  0  0  0  0  0  0  0  0  0
  140.9378  141.7136  153.8321 H   0  0  0  0  0  0  0  0  0  0  0  0
  140.0921  141.5604  155.3600 H   0  0  0  0  0  0  0  0  0  0  0  0
  141.7398  143.8918  153.1753 H   0  0  0  0  0  0  0  0  0  0  0  0
  141.4683  145.2484  154.2505 H   0  0  0  0  0  0  0  0  0  0  0  0
  143.0599  144.3436  155.9181 H   0  0  0  0  0  0  0  0  0  0  0  0
  143.8207  144.4752  154.3367 H   0  0  0  0  0  0  0  0  0  0  0  0
  143.4242  142.1796  153.9925 H   0  0  0  0  0  0  0  0  0  0  0  0
  1  2  1  0  0  0  0
  1 25  1  0  0  0  0
  1 26  1  0  0  0  0
  1 27  1  0  0  0  0
  2  3  1  0  0  0  0
  2 19  1  0  0  0  0
  2 28  1  0  0  0  0
  3  4  1  0  0  0  0
  3 29  1  0  0  0  0
  3 30  1  0  0  0  0
  4  5  1  0  0  0  0
  4 31  1  0  0  0  0
  5  6  2  0  0  0  0
  5  7  1  0  0  0  0
  7  8  1  0  0  0  0
  7 32  1  0  0  0  0
  8 13  1  0  0  0  0
  8  9  2  0  0  0  0
  9 10  1  0  0  0  0
  9 33  1  0  0  0  0
 10 11  2  0  0  0  0
 10 34  1  0  0  0  0
 11 12  1  0  0  0  0
 11 35  1  0  0  0  0
 12 13  2  0  0  0  0
 13 14  1  0  0  0  0
 14 18  1  0  0  0  0
 14 15  1  0  0  0  0
 15 16  1  0  0  0  0
 15 36  1  0  0  0  0
 15 37  1  0  0  0  0
 16 17  1  0  0  0  0
 16 38  1  0  0  0  0
 16 39  1  0  0  0  0
 17 18  1  0  0  0  0
 17 40  1  0  0  0  0
 17 41  1  0  0  0  0
 18 42  1  0  0  0  0
 18 43  1  0  0  0  0
 19 24  1  0  0  0  0
 19 20  1  0  0  0  0
 19 52  1  0  0  0  0
 20 21  1  0  0  0  0
 20 44  1  0  0  0  0
 20 45  1  0  0  0  0
 21 22  1  0  0  0  0
 21 46  1  0  0  0  0
 21 47  1  0  0  0  0
 22 23  1  0  0  0  0
 23 24  1  0  0  0  0
 23 48  1  0  0  0  0
 23 49  1  0  0  0  0
 24 50  1  0  0  0  0
 24 51  1  0  0  0  0
M  CHG  1  19   1
M  END
> <s_m_source_file>
AV-unprocessed.smi

> <i_m_source_file_index>
1389

> <i_lp_mmshare_version>
43012

> <i_f3d_flags>
0

> <s_epik_input>
W0NIMl0xW0NIMl1PW0NIMl1bQ0gyXU4xW0NASF0oW0NIM10pW0NIMl1bTkhdQyg9TylbTkhdYzJbY0hdW2NIXVtjSF1uYzJOM1tDSDJdW0NIMl1bQ0gyXVtDSDJdMw==

> <s_epik_cmdline>
J2VwaWtfcHl0aG9uJywgJy1waCcsICc3LjAnLCAnLXRuJywgJzgnLCAnLW1hJywgJzIwMCcsICctbWV0YWxfYmluZGluZycsICctaW1hZScsICc8aW5maWxlLm1hZT4nLCAnLW9tYWUnLCAnPG91dGZpbGUubWFlPic=

> <r_lp_tautomer_probability>
1

> <r_epik_Ionization_Penalty>
0.686

> <r_epik_Ionization_Penalty_Charging>
0.602531

> <r_epik_Ionization_Penalty_Neutral>
0.08347

> <r_epik_State_Penalty>
0.679975

> <r_epik_Charging_Adjusted_Penalty>
1.28251

> <i_epik_Tot_Q>
1

> <i_epik_Tot_abs_Q>
1

> <r_epik_Metal_State_Penalty>
0.679055

> <b_epik_Metal_Only>
0

> <s_lp_Force_Field>
OPLS_2005

> <r_lp_Energy>
48.7477

> <b_lp_Chiralities_Consistent>
1

> <s_lp_Variant>
AV-unprocessed.smi:1389-3

> <Gold.Version>
5.8.1

> <Gold.Id.Protein>
6NUR|6NUR_protein|mol2

> <Gold.PLP.Fitness>
50.7600

> <Gold.PLP.PLP>
-41.6357

> <Gold.PLP.part.hbond>
-3.2470

> <Gold.PLP.part.metal>
0.0000

> <Gold.PLP.part.buried>
0.3190

> <Gold.PLP.part.nonpolar>
-38.0848

> <Gold.PLP.part.repulsive>
0.5795

> <Gold.PLP.ligand.clash>
0.0000

> <Gold.PLP.ligand.torsion>
0.9493

> <Gold.PLP.Chemscore.Hbond>
3.5500

> <Gold.PLP.Chemscore.CHOScore>
0.0000

> <Gold.PLP.Chemscore.Metal>
0.0000

> <Gold.Chemscore.Hbonds>
donor molecule, donor type, donor heavy atom, donor atom, acceptor molecule, acceptor atom, score
      L1  H     4    31       P1  8028  0.72
      L1  H     7    32       P1  8028  0.15
      L1  H    19    52       P1 10174  0.63

> <Gold.PLP.Chemscore.Internal.Correction>
0.3730

> <Gold.Rescore>
     Score         DG    S(hbond)    S(metal)    S(lipo)     H(rot)  DE(clash)    DE(int)     intcor
     16.18     -19.61       1.85        0.00     103.72       1.63       1.27       2.16       ----

> <Gold.Chemscore.Fitness>
16.1771

> <Gold.Chemscore.DG>
-19.6073

> <Gold.Chemscore.ZeroCoef>
-5.4800

> <Gold.Chemscore.Hbond>
1.8463

> <Gold.Chemscore.Metal>
0.0000

> <Gold.Chemscore.Lipo>
103.7189

> <Gold.Chemscore.Internal_Hbond>
0.0000

> <Gold.Chemscore.DEClash>
1.2735

> <Gold.Chemscore.DEInternal>
2.1567

> <Gold.Chemscore.Rot>
1.6307

> <Gold.Chemscore.Internal.Correction>
   9.000000E+99

> <Gold.Chemscore.Hbonds>
donor molecule, donor type, donor heavy atom, donor atom, acceptor molecule, acceptor atom, score
      L1  H     4    31       P1  8028  0.14
      L1  H     7    32       P1  8028  0.16
      L1  H    19    52       P1 10174  0.01

> <Gold.Chemscore.Hbond.Weighted>
-6.1668

> <Gold.Chemscore.Metal.Weighted>
-0.0000

> <Gold.Chemscore.Lipo.Weighted>
-12.1351

> <Gold.Chemscore.Internal_Hbond.Weighted>
0.0000

> <Gold.Chemscore.DEClash.Weighted>
1.2735

> <Gold.Chemscore.DEInternal.Weighted>
2.1567

> <Gold.Chemscore.Rot.Weighted>
4.1746

> <Gold.Chemscore.Internal.Correction.Weighted>
   9.000000E+99

> <Gold.Protein.RotatedTorsions>
[ 6907 6896 6895 6894 ] final   70.45 input  -60.11 | X-H torsion
[ 7974 7965 7964 7962 ] final  -34.59 input  175.53 | X-H torsion
[ 8008 7997 7996 7995 ] final  167.08 input   59.86 | X-H torsion
[ 10167 10162 10161 10158 ] final  -38.55 input  -65.29 | X-H torsion
[ 10718 10713 10712 10709 ] final   48.02 input   66.30 | X-H torsion
[ 10763 10752 10751 10750 ] final  -22.85 input  -60.55 | X-H torsion
[ 11005 11000 10999 10996 ] final -137.33 input  -57.11 | X-H torsion

> <Gold.Protein.ActiveResidues>
 VAL166  LYS551  ARG553  GLY616  TRP617  ASP618  TYR619  PRO620  LYS621  CYS622 
 ASP623  PHE694  ASN695  SER759  ASP760  ASP761  ALA762  ILE779  LEU786  VAL792 
 PHE793  MET794  SER795  GLU796  ALA797  LYS798  CYS799  TRP800  GLU811  SER814 

> <Gold.Protein.RotatedAtoms>
  152.4750  134.4867  159.9682 H   0  0  0  0  0  0  0  0  0  0  0  0  # atno 6907 bound_to 6896
  151.4885  133.3524  159.2857 H   0  0  0  0  0  0  0  0  0  0  0  0  # atno 6908 bound_to 6896
  150.8782  134.8196  159.7267 H   0  0  0  0  0  0  0  0  0  0  0  0  # atno 6909 bound_to 6896
  146.0816  140.6057  142.8905 H   0  0  0  0  0  0  0  0  0  0  0  0  # atno 7974 bound_to 7965
  156.1664  140.1626  156.8524 H   0  0  0  0  0  0  0  0  0  0  0  0  # atno 8008 bound_to 7997
  154.5212  140.0778  156.8209 H   0  0  0  0  0  0  0  0  0  0  0  0  # atno 8009 bound_to 7997
  155.3603  140.3395  155.4243 H   0  0  0  0  0  0  0  0  0  0  0  0  # atno 8010 bound_to 7997
  140.7089  143.3270  151.2657 H   0  0  0  0  0  0  0  0  0  0  0  0  # atno 10167 bound_to 10162
  157.4644  130.8216  149.7920 H   0  0  0  0  0  0  0  0  0  0  0  0  # atno 10718 bound_to 10713
  153.6585  135.6977  153.5185 H   0  0  0  0  0  0  0  0  0  0  0  0  # atno 10763 bound_to 10752
  153.2650  135.4232  155.0931 H   0  0  0  0  0  0  0  0  0  0  0  0  # atno 10764 bound_to 10752
  154.8458  135.3564  154.6130 H   0  0  0  0  0  0  0  0  0  0  0  0  # atno 10765 bound_to 10752
  140.8721  134.2038  157.4644 H   0  0  0  0  0  0  0  0  0  0  0  0  # atno 11005 bound_to 11000
  144.7297  140.4635  143.6947 LP  0  0  0  0  0  0  0  0  0  0  0  0  # atno 17320 bound_to 7965
  145.6206  139.1524  143.3024 LP  0  0  0  0  0  0  0  0  0  0  0  0  # atno 17321 bound_to 7965
  139.6741  143.9968  152.2771 LP  0  0  0  0  0  0  0  0  0  0  0  0  # atno 17342 bound_to 10162
  139.9576  144.6579  150.8110 LP  0  0  0  0  0  0  0  0  0  0  0  0  # atno 17343 bound_to 10162
  156.0043  130.3863  150.2487 LP  0  0  0  0  0  0  0  0  0  0  0  0  # atno 17370 bound_to 10713
  157.0667  131.0105  151.3204 LP  0  0  0  0  0  0  0  0  0  0  0  0  # atno 17371 bound_to 10713
  139.8713  134.9779  156.4976 LP  0  0  0  0  0  0  0  0  0  0  0  0  # atno 17394 bound_to 11000
  140.8561  133.8095  155.9217 LP  0  0  0  0  0  0  0  0  0  0  0  0  # atno 17395 bound_to 11000

$$$$
