AV-unprocessed.smi:219|AV-procd|sdf|1679|dock7
  -GOLD-   2262020113D 1   1.00000     0.00000
 Structure written by MMmdl.
 50 53  0  0  0  0  0  0  0  0  1 V2000
  152.5732  138.5257  159.4333 N   0  0  0  0  0  0  0  0  0  0  0  0
  152.7115  139.1225  158.2468 C   0  0  0  0  0  0  0  0  0  0  0  0
  153.6738  138.9080  157.5127 O   0  0  0  0  0  0  0  0  0  0  0  0
  151.6294  140.1311  157.8434 C   0  0  0  0  0  0  0  0  0  0  0  0
  151.5443  141.4025  158.7387 C   0  0  1  0  0  0  0  0  0  0  0  0
  152.9756  141.8115  159.1584 C   0  0  0  0  0  0  0  0  0  0  0  0
  152.9889  143.0795  160.0214 C   0  0  0  0  0  0  0  0  0  0  0  0
  152.2727  144.2149  159.2843 C   0  0  0  0  0  0  0  0  0  0  0  0
  150.8507  143.7827  158.9045 C   0  0  0  0  0  0  0  0  0  0  0  0
  150.8586  142.5505  158.1126 N   0  0  0  0  0  0  0  0  0  0  0  0
  149.6337  142.3042  157.5961 C   0  0  0  0  0  0  0  0  0  0  0  0
  148.5200  142.6986  158.2692 N   0  0  0  0  0  0  0  0  0  0  0  0
  147.3106  142.4370  157.7642 C   0  0  0  0  0  0  0  0  0  0  0  0
  146.9974  141.8063  156.6300 N   0  0  0  0  0  0  0  0  0  0  0  0
  148.1155  141.4073  155.9576 C   0  0  0  0  0  0  0  0  0  0  0  0
  149.4618  141.6231  156.3631 C   0  0  0  0  0  0  0  0  0  0  0  0
  150.3365  141.0860  155.4284 N   0  0  0  0  0  0  0  0  0  0  0  0
  149.5498  140.5751  154.5206 C   0  0  0  0  0  0  0  0  0  0  0  0
  148.2009  140.7108  154.7646 N   0  0  0  0  0  0  0  0  0  0  0  0
  147.1098  140.2320  153.9294 C   0  0  0  0  0  0  0  0  0  0  0  0
  147.2417  138.7444  153.5233 C   0  0  1  0  0  0  0  0  0  0  0  0
  148.2923  138.6091  152.5822 O   0  0  0  0  0  0  0  0  0  0  0  0
  147.5454  137.8360  154.7091 C   0  0  0  0  0  0  0  0  0  0  0  0
  146.9032  136.5177  154.2997 C   0  0  0  0  0  0  0  0  0  0  0  0
  145.7022  136.9362  153.6746 O   0  0  0  0  0  0  0  0  0  0  0  0
  145.9650  138.1175  152.9230 C   0  0  0  0  0  0  0  0  0  0  0  0
  153.2600  137.8507  159.7367 H   0  0  0  0  0  0  0  0  0  0  0  0
  151.7820  138.7462  160.0204 H   0  0  0  0  0  0  0  0  0  0  0  0
  151.8554  140.4190  156.8159 H   0  0  0  0  0  0  0  0  0  0  0  0
  150.6588  139.6349  157.7979 H   0  0  0  0  0  0  0  0  0  0  0  0
  150.9961  141.1554  159.6493 H   0  0  0  0  0  0  0  0  0  0  0  0
  153.4519  140.9990  159.7085 H   0  0  0  0  0  0  0  0  0  0  0  0
  153.5833  141.9782  158.2675 H   0  0  0  0  0  0  0  0  0  0  0  0
  152.4938  142.8846  160.9735 H   0  0  0  0  0  0  0  0  0  0  0  0
  154.0145  143.3678  160.2533 H   0  0  0  0  0  0  0  0  0  0  0  0
  152.2389  145.1070  159.9098 H   0  0  0  0  0  0  0  0  0  0  0  0
  152.8298  144.4831  158.3856 H   0  0  0  0  0  0  0  0  0  0  0  0
  150.2638  143.6313  159.8120 H   0  0  0  0  0  0  0  0  0  0  0  0
  150.3658  144.5822  158.3419 H   0  0  0  0  0  0  0  0  0  0  0  0
  146.4735  142.7778  158.3552 H   0  0  0  0  0  0  0  0  0  0  0  0
  149.9368  140.0774  153.6434 H   0  0  0  0  0  0  0  0  0  0  0  0
  146.1727  140.3944  154.4635 H   0  0  0  0  0  0  0  0  0  0  0  0
  147.0660  140.8607  153.0391 H   0  0  0  0  0  0  0  0  0  0  0  0
  148.5743  137.7073  152.5738 H   0  0  0  0  0  0  0  0  0  0  0  0
  148.6092  137.7445  154.9328 H   0  0  0  0  0  0  0  0  0  0  0  0
  147.0491  138.2068  155.6072 H   0  0  0  0  0  0  0  0  0  0  0  0
  147.5262  135.9835  153.5806 H   0  0  0  0  0  0  0  0  0  0  0  0
  146.7086  135.8599  155.1468 H   0  0  0  0  0  0  0  0  0  0  0  0
  145.0985  138.7722  153.0074 H   0  0  0  0  0  0  0  0  0  0  0  0
  146.0847  137.8691  151.8671 H   0  0  0  0  0  0  0  0  0  0  0  0
  1  2  1  0  0  0  0
  1 27  1  0  0  0  0
  1 28  1  0  0  0  0
  2  3  2  0  0  0  0
  2  4  1  0  0  0  0
  4  5  1  0  0  0  0
  4 29  1  0  0  0  0
  4 30  1  0  0  0  0
  5 10  1  0  0  0  0
  5  6  1  0  0  0  0
  5 31  1  0  0  0  0
  6  7  1  0  0  0  0
  6 32  1  0  0  0  0
  6 33  1  0  0  0  0
  7  8  1  0  0  0  0
  7 34  1  0  0  0  0
  7 35  1  0  0  0  0
  8  9  1  0  0  0  0
  8 36  1  0  0  0  0
  8 37  1  0  0  0  0
  9 10  1  0  0  0  0
  9 38  1  0  0  0  0
  9 39  1  0  0  0  0
 10 11  1  0  0  0  0
 11 16  1  0  0  0  0
 11 12  2  0  0  0  0
 12 13  1  0  0  0  0
 13 14  2  0  0  0  0
 13 40  1  0  0  0  0
 14 15  1  0  0  0  0
 15 19  1  0  0  0  0
 15 16  2  0  0  0  0
 16 17  1  0  0  0  0
 17 18  2  0  0  0  0
 18 19  1  0  0  0  0
 18 41  1  0  0  0  0
 19 20  1  0  0  0  0
 20 21  1  0  0  0  0
 20 42  1  0  0  0  0
 20 43  1  0  0  0  0
 21 26  1  0  0  0  0
 21 22  1  0  0  0  0
 21 23  1  0  0  0  0
 22 44  1  0  0  0  0
 23 24  1  0  0  0  0
 23 45  1  0  0  0  0
 23 46  1  0  0  0  0
 24 25  1  0  0  0  0
 24 47  1  0  0  0  0
 24 48  1  0  0  0  0
 25 26  1  0  0  0  0
 26 49  1  0  0  0  0
 26 50  1  0  0  0  0
M  END
> <s_m_source_file>
AV-unprocessed.smi

> <i_m_source_file_index>
219

> <i_lp_mmshare_version>
43012

> <i_f3d_flags>
0

> <s_epik_input>
W05IMl1DKD1PKVtDSDJdW0NAQEhdMVtDSDJdW0NIMl1bQ0gyXVtDSDJdTjFjKG5bY0hdbjIpYyhjMjMpbltjSF1uM1tDSDJdW0NAQF00KFtPSF0pW0NIMl1bQ0gyXU9bQ0gyXTQ=

> <s_epik_cmdline>
J2VwaWtfcHl0aG9uJywgJy1waCcsICc3LjAnLCAnLXRuJywgJzgnLCAnLW1hJywgJzIwMCcsICctbWV0YWxfYmluZGluZycsICctaW1hZScsICc8aW5maWxlLm1hZT4nLCAnLW9tYWUnLCAnPG91dGZpbGUubWFlPic=

> <r_lp_tautomer_probability>
1

> <r_epik_Ionization_Penalty>
0.00228532

> <r_epik_Ionization_Penalty_Charging>
0

> <r_epik_Ionization_Penalty_Neutral>
0.00228532

> <r_epik_State_Penalty>
0.00140978

> <r_epik_Charging_Adjusted_Penalty>
0.00140978

> <i_epik_Tot_Q>
0

> <i_epik_Tot_abs_Q>
0

> <r_epik_Metal_State_Penalty>
-0

> <b_epik_Metal_Only>
0

> <s_lp_Force_Field>
OPLS_2005

> <r_lp_Energy>
37.1625

> <b_lp_Chiralities_Consistent>
1

> <s_lp_Variant>
AV-unprocessed.smi:219-2

> <Gold.Version>
5.8.1

> <Gold.Id.Protein>
6NUR|6NUR_protein|mol2

> <Gold.PLP.Fitness>
44.2905

> <Gold.PLP.PLP>
-37.1107

> <Gold.PLP.part.hbond>
-3.2854

> <Gold.PLP.part.metal>
0.0000

> <Gold.PLP.part.buried>
-4.6799

> <Gold.PLP.part.nonpolar>
-30.0104

> <Gold.PLP.part.repulsive>
0.6745

> <Gold.PLP.ligand.clash>
0.0000

> <Gold.PLP.ligand.torsion>
1.0395

> <Gold.PLP.Chemscore.Hbond>
2.0000

> <Gold.PLP.Chemscore.CHOScore>
1.0000

> <Gold.PLP.Chemscore.Metal>
0.0000

> <Gold.Chemscore.Hbonds>
donor molecule, donor type, donor heavy atom, donor atom, acceptor molecule, acceptor atom, score
      L1  H    22    44       P1  7948  1.00
      P1  H  7997  8009       L1     3  1.00
      L1  C    18    41       P1  7957  1.00

> <Gold.PLP.Chemscore.Internal.Correction>
0.2589

> <Gold.Rescore>
     Score         DG    S(hbond)    S(metal)    S(lipo)     H(rot)  DE(clash)    DE(int)     intcor
     11.85     -13.09       1.99        0.00      82.08       3.37       0.01       1.23       ----

> <Gold.Chemscore.Fitness>
11.8492

> <Gold.Chemscore.DG>
-13.0901

> <Gold.Chemscore.ZeroCoef>
-5.4800

> <Gold.Chemscore.Hbond>
1.9858

> <Gold.Chemscore.Metal>
0.0000

> <Gold.Chemscore.Lipo>
82.0846

> <Gold.Chemscore.Internal_Hbond>
0.0000

> <Gold.Chemscore.DEClash>
0.0102

> <Gold.Chemscore.DEInternal>
1.2306

> <Gold.Chemscore.Rot>
3.3697

> <Gold.Chemscore.Internal.Correction>
   9.000000E+99

> <Gold.Chemscore.Hbonds>
donor molecule, donor type, donor heavy atom, donor atom, acceptor molecule, acceptor atom, score
      L1  H    22    44       P1  7948  0.97
      P1  H  7997  8009       L1     3  0.91

> <Gold.Chemscore.Hbond.Weighted>
-6.6326

> <Gold.Chemscore.Metal.Weighted>
-0.0000

> <Gold.Chemscore.Lipo.Weighted>
-9.6039

> <Gold.Chemscore.Internal_Hbond.Weighted>
0.0000

> <Gold.Chemscore.DEClash.Weighted>
0.0102

> <Gold.Chemscore.DEInternal.Weighted>
1.2306

> <Gold.Chemscore.Rot.Weighted>
8.6264

> <Gold.Chemscore.Internal.Correction.Weighted>
   9.000000E+99

> <Gold.Protein.RotatedTorsions>
[ 6907 6896 6895 6894 ] final  -79.01 input  -60.11 | X-H torsion
[ 7974 7965 7964 7962 ] final   97.20 input  175.53 | X-H torsion
[ 8008 7997 7996 7995 ] final  174.35 input   59.86 | X-H torsion
[ 10167 10162 10161 10158 ] final  -90.41 input  -65.29 | X-H torsion
[ 10718 10713 10712 10709 ] final  -45.04 input   66.30 | X-H torsion
[ 10763 10752 10751 10750 ] final  171.10 input  -60.55 | X-H torsion
[ 11005 11000 10999 10996 ] final -121.17 input  -57.11 | X-H torsion

> <Gold.Protein.ActiveResidues>
 VAL166  LYS551  ARG553  GLY616  TRP617  ASP618  TYR619  PRO620  LYS621  CYS622 
 ASP623  PHE694  ASN695  SER759  ASP760  ASP761  ALA762  ILE779  LEU786  VAL792 
 PHE793  MET794  SER795  GLU796  ALA797  LYS798  CYS799  TRP800  GLU811  SER814 

> <Gold.Protein.RotatedAtoms>
  150.6959  134.4185  159.5194 H   0  0  0  0  0  0  0  0  0  0  0  0  # atno 6907 bound_to 6896
  152.1932  134.8651  160.0524 H   0  0  0  0  0  0  0  0  0  0  0  0  # atno 6908 bound_to 6896
  151.9598  133.3657  159.4068 H   0  0  0  0  0  0  0  0  0  0  0  0  # atno 6909 bound_to 6896
  145.4286  139.2313  143.3156 H   0  0  0  0  0  0  0  0  0  0  0  0  # atno 7974 bound_to 7965
  156.0983  140.1437  156.9501 H   0  0  0  0  0  0  0  0  0  0  0  0  # atno 8008 bound_to 7997
  154.4686  140.0917  156.7131 H   0  0  0  0  0  0  0  0  0  0  0  0  # atno 8009 bound_to 7997
  155.4803  140.3444  155.4341 H   0  0  0  0  0  0  0  0  0  0  0  0  # atno 8010 bound_to 7997
  140.3552  143.2870  151.9680 H   0  0  0  0  0  0  0  0  0  0  0  0  # atno 10167 bound_to 10162
  156.2323  130.4173  149.8859 H   0  0  0  0  0  0  0  0  0  0  0  0  # atno 10718 bound_to 10713
  154.4071  135.2755  155.2060 H   0  0  0  0  0  0  0  0  0  0  0  0  # atno 10763 bound_to 10752
  154.4061  135.6033  153.5929 H   0  0  0  0  0  0  0  0  0  0  0  0  # atno 10764 bound_to 10752
  152.9831  135.5938  154.4347 H   0  0  0  0  0  0  0  0  0  0  0  0  # atno 10765 bound_to 10752
  141.0090  134.0293  157.3439 H   0  0  0  0  0  0  0  0  0  0  0  0  # atno 11005 bound_to 11000
  146.2619  140.5020  142.8850 LP  0  0  0  0  0  0  0  0  0  0  0  0  # atno 17320 bound_to 7965
  144.8197  140.6529  143.6361 LP  0  0  0  0  0  0  0  0  0  0  0  0  # atno 17321 bound_to 7965
  139.4821  144.6041  151.7552 LP  0  0  0  0  0  0  0  0  0  0  0  0  # atno 17342 bound_to 10162
  140.5181  144.0922  150.6014 LP  0  0  0  0  0  0  0  0  0  0  0  0  # atno 17343 bound_to 10162
  156.6469  130.8728  151.3524 LP  0  0  0  0  0  0  0  0  0  0  0  0  # atno 17370 bound_to 10713
  157.7139  130.9473  150.1184 LP  0  0  0  0  0  0  0  0  0  0  0  0  # atno 17371 bound_to 10713
  139.9079  135.0184  156.7566 LP  0  0  0  0  0  0  0  0  0  0  0  0  # atno 17394 bound_to 11000
  140.6766  133.9512  155.7886 LP  0  0  0  0  0  0  0  0  0  0  0  0  # atno 17395 bound_to 11000

$$$$
