AV-unprocessed.smi:1151|AV-procd|sdf|4896|dock2
  -GOLD-   22720 3473D 1   1.00000     0.00000
 Structure written by MMmdl.
 35 36  0  0  0  0  0  0  0  0  1 V2000
  150.3623  141.6879  155.9984 C   0  0  0  0  0  0  0  0  0  0  0  0
  149.9828  140.4402  155.2771 C   0  0  0  0  0  0  0  0  0  0  0  0
  148.7198  140.0964  155.0116 N   0  0  0  0  0  0  0  0  0  0  0  0
  148.6260  138.8819  154.3250 C   0  0  0  0  0  0  0  0  0  0  0  0
  147.2799  138.3301  153.9533 C   0  0  0  0  0  0  0  0  0  0  0  0
  146.8305  138.7111  152.5276 C   0  0  0  0  0  0  0  0  0  0  0  0
  146.4813  137.5508  151.7129 N   0  0  0  0  0  0  0  0  0  0  0  0
  145.7995  136.4794  152.1452 C   0  0  0  0  0  0  0  0  0  0  0  0
  145.4316  136.3398  153.3120 O   0  0  0  0  0  0  0  0  0  0  0  0
  145.4690  135.4125  151.0933 C   0  0  1  0  0  0  0  0  0  0  0  0
  146.1393  134.0692  151.4266 C   0  0  0  0  0  0  0  0  0  0  0  0
  145.8449  133.0215  150.3410 C   0  0  0  0  0  0  0  0  0  0  0  0
  144.3680  132.9743  149.9218 C   0  0  0  0  0  0  0  0  0  0  0  0
  143.9427  131.9930  149.3168 O   0  0  0  0  0  0  0  0  0  0  0  0
  143.5779  134.0275  150.1948 N   0  0  0  0  0  0  0  0  0  0  0  0
  143.9439  135.2080  150.9776 C   0  0  0  0  0  0  0  0  0  0  0  0
  149.8469  138.3066  154.0734 C   0  0  0  0  0  0  0  0  0  0  0  0
  151.1589  139.2672  154.6968 S   0  0  0  0  0  0  0  0  0  0  0  0
  149.5630  142.4266  155.9313 H   0  0  0  0  0  0  0  0  0  0  0  0
  151.2661  142.1129  155.5618 H   0  0  0  0  0  0  0  0  0  0  0  0
  150.5500  141.4678  157.0494 H   0  0  0  0  0  0  0  0  0  0  0  0
  147.2828  137.2438  154.0476 H   0  0  0  0  0  0  0  0  0  0  0  0
  146.5335  138.6794  154.6677 H   0  0  0  0  0  0  0  0  0  0  0  0
  145.9429  139.3418  152.5860 H   0  0  0  0  0  0  0  0  0  0  0  0
  147.5989  139.3049  152.0303 H   0  0  0  0  0  0  0  0  0  0  0  0
  146.7458  137.5836  150.7390 H   0  0  0  0  0  0  0  0  0  0  0  0
  145.8468  135.7484  150.1256 H   0  0  0  0  0  0  0  0  0  0  0  0
  147.2182  134.1978  151.5240 H   0  0  0  0  0  0  0  0  0  0  0  0
  145.7851  133.6981  152.3902 H   0  0  0  0  0  0  0  0  0  0  0  0
  146.4329  133.2455  149.4504 H   0  0  0  0  0  0  0  0  0  0  0  0
  146.1587  132.0339  150.6810 H   0  0  0  0  0  0  0  0  0  0  0  0
  142.6209  133.9809  149.8762 H   0  0  0  0  0  0  0  0  0  0  0  0
  143.4927  135.0973  151.9649 H   0  0  0  0  0  0  0  0  0  0  0  0
  143.4820  136.0842  150.5212 H   0  0  0  0  0  0  0  0  0  0  0  0
  150.0511  137.3742  153.5681 H   0  0  0  0  0  0  0  0  0  0  0  0
  1  2  1  0  0  0  0
  1 19  1  0  0  0  0
  1 20  1  0  0  0  0
  1 21  1  0  0  0  0
  2 18  1  0  0  0  0
  2  3  2  0  0  0  0
  3  4  1  0  0  0  0
  4  5  1  0  0  0  0
  4 17  2  0  0  0  0
  5  6  1  0  0  0  0
  5 22  1  0  0  0  0
  5 23  1  0  0  0  0
  6  7  1  0  0  0  0
  6 24  1  0  0  0  0
  6 25  1  0  0  0  0
  7  8  1  0  0  0  0
  7 26  1  0  0  0  0
  8  9  2  0  0  0  0
  8 10  1  0  0  0  0
 10 16  1  0  0  0  0
 10 11  1  0  0  0  0
 10 27  1  0  0  0  0
 11 12  1  0  0  0  0
 11 28  1  0  0  0  0
 11 29  1  0  0  0  0
 12 13  1  0  0  0  0
 12 30  1  0  0  0  0
 12 31  1  0  0  0  0
 13 14  2  0  0  0  0
 13 15  1  0  0  0  0
 15 16  1  0  0  0  0
 15 32  1  0  0  0  0
 16 33  1  0  0  0  0
 16 34  1  0  0  0  0
 17 18  1  0  0  0  0
 17 35  1  0  0  0  0
M  END
> <s_m_source_file>
AV-unprocessed.smi

> <i_m_source_file_index>
1151

> <i_lp_mmshare_version>
43012

> <i_f3d_flags>
0

> <s_epik_input>
W0NIM11jMW5jKFtjSF1zMSlbQ0gyXVtDSDJdW05IXUMoPU8pW0NAQEhdMltDSDJdW0NIMl1DKD1PKVtOSF1bQ0gyXTI=

> <s_epik_cmdline>
J2VwaWtfcHl0aG9uJywgJy1waCcsICc3LjAnLCAnLXRuJywgJzgnLCAnLW1hJywgJzIwMCcsICctbWV0YWxfYmluZGluZycsICctaW1hZScsICc8aW5maWxlLm1hZT4nLCAnLW9tYWUnLCAnPG91dGZpbGUubWFlPic=

> <r_epik_Ionization_Penalty>
0.00105008

> <r_epik_Ionization_Penalty_Charging>
0

> <r_epik_Ionization_Penalty_Neutral>
0.00105008

> <r_epik_State_Penalty>
0.000686749

> <r_epik_Charging_Adjusted_Penalty>
0.000686749

> <i_epik_Tot_Q>
0

> <i_epik_Tot_abs_Q>
0

> <r_epik_Metal_State_Penalty>
-0

> <b_epik_Metal_Only>
0

> <s_lp_Force_Field>
OPLS_2005

> <r_lp_Energy>
7.51238

> <b_lp_Chiralities_Consistent>
1

> <s_lp_Variant>
AV-unprocessed.smi:1151-2

> <Gold.Version>
5.8.1

> <Gold.Id.Protein>
6NUR|6NUR_protein|mol2

> <Gold.PLP.Fitness>
39.6815

> <Gold.PLP.PLP>
-33.1221

> <Gold.PLP.part.hbond>
-3.0000

> <Gold.PLP.part.metal>
0.0000

> <Gold.PLP.part.buried>
-3.1214

> <Gold.PLP.part.nonpolar>
-28.8465

> <Gold.PLP.part.repulsive>
0.5378

> <Gold.PLP.ligand.clash>
0.0000

> <Gold.PLP.ligand.torsion>
0.8724

> <Gold.PLP.Chemscore.Hbond>
1.7280

> <Gold.PLP.Chemscore.CHOScore>
1.0339

> <Gold.PLP.Chemscore.Metal>
0.0000

> <Gold.Chemscore.Hbonds>
donor molecule, donor type, donor heavy atom, donor atom, acceptor molecule, acceptor atom, score
      L1  H    15    32       P1 10186  1.00
      P1  H 10785 10796       L1    14  0.67
      L1  C    17    35       P1  7948  1.00
      L1  C    17    35       P1  7949  0.05

> <Gold.PLP.Chemscore.Internal.Correction>
0.0184

> <Gold.Rescore>
     Score         DG    S(hbond)    S(metal)    S(lipo)     H(rot)  DE(clash)    DE(int)     intcor
     13.32     -15.64       1.77        0.00      73.45       1.70       0.07       2.26       ----

> <Gold.Chemscore.Fitness>
13.3210

> <Gold.Chemscore.DG>
-15.6445

> <Gold.Chemscore.ZeroCoef>
-5.4800

> <Gold.Chemscore.Hbond>
1.7714

> <Gold.Chemscore.Metal>
0.0000

> <Gold.Chemscore.Lipo>
73.4546

> <Gold.Chemscore.Internal_Hbond>
0.0000

> <Gold.Chemscore.DEClash>
0.0652

> <Gold.Chemscore.DEInternal>
2.2582

> <Gold.Chemscore.Rot>
1.6978

> <Gold.Chemscore.Internal.Correction>
   9.000000E+99

> <Gold.Chemscore.Hbonds>
donor molecule, donor type, donor heavy atom, donor atom, acceptor molecule, acceptor atom, score
      L1  H    15    32       P1 10186  1.00
      P1  H 10785 10796       L1    14  0.66

> <Gold.Chemscore.Hbond.Weighted>
-5.9166

> <Gold.Chemscore.Metal.Weighted>
-0.0000

> <Gold.Chemscore.Lipo.Weighted>
-8.5942

> <Gold.Chemscore.Internal_Hbond.Weighted>
0.0000

> <Gold.Chemscore.DEClash.Weighted>
0.0652

> <Gold.Chemscore.DEInternal.Weighted>
2.2582

> <Gold.Chemscore.Rot.Weighted>
4.3463

> <Gold.Chemscore.Internal.Correction.Weighted>
   9.000000E+99

> <Gold.Protein.RotatedTorsions>
[ 6907 6896 6895 6894 ] final  118.52 input  -60.11 | X-H torsion
[ 7974 7965 7964 7962 ] final    8.09 input  175.53 | X-H torsion
[ 8008 7997 7996 7995 ] final  -64.39 input   59.86 | X-H torsion
[ 10167 10162 10161 10158 ] final    0.85 input  -65.29 | X-H torsion
[ 10718 10713 10712 10709 ] final  -39.47 input   66.30 | X-H torsion
[ 10763 10752 10751 10750 ] final -176.31 input  -60.55 | X-H torsion
[ 11005 11000 10999 10996 ] final -155.29 input  -57.11 | X-H torsion

> <Gold.Protein.ActiveResidues>
 VAL166  LYS551  ARG553  GLY616  TRP617  ASP618  TYR619  PRO620  LYS621  CYS622 
 ASP623  PHE694  ASN695  SER759  ASP760  ASP761  ALA762  ILE779  LEU786  VAL792 
 PHE793  MET794  SER795  GLU796  ALA797  LYS798  CYS799  TRP800  GLU811  SER814 

> <Gold.Protein.RotatedAtoms>
  152.4537  133.7680  159.6783 H   0  0  0  0  0  0  0  0  0  0  0  0  # atno 6907 bound_to 6896
  150.8457  133.7855  159.3050 H   0  0  0  0  0  0  0  0  0  0  0  0  # atno 6908 bound_to 6896
  151.5467  135.1070  159.9991 H   0  0  0  0  0  0  0  0  0  0  0  0  # atno 6909 bound_to 6896
  146.2420  139.9985  142.8418 H   0  0  0  0  0  0  0  0  0  0  0  0  # atno 7974 bound_to 7965
  154.4609  140.0955  156.6890 H   0  0  0  0  0  0  0  0  0  0  0  0  # atno 8008 bound_to 7997
  155.4998  140.3473  155.4350 H   0  0  0  0  0  0  0  0  0  0  0  0  # atno 8009 bound_to 7997
  156.0868  140.1387  156.9632 H   0  0  0  0  0  0  0  0  0  0  0  0  # atno 8010 bound_to 7997
  140.6710  143.7049  150.7923 H   0  0  0  0  0  0  0  0  0  0  0  0  # atno 10167 bound_to 10162
  156.2921  130.4229  149.8228 H   0  0  0  0  0  0  0  0  0  0  0  0  # atno 10718 bound_to 10713
  154.5739  135.2830  155.0800 H   0  0  0  0  0  0  0  0  0  0  0  0  # atno 10763 bound_to 10752
  154.2162  135.6399  153.5134 H   0  0  0  0  0  0  0  0  0  0  0  0  # atno 10764 bound_to 10752
  153.0066  135.5503  154.6371 H   0  0  0  0  0  0  0  0  0  0  0  0  # atno 10765 bound_to 10752
  140.6881  134.4071  157.5221 H   0  0  0  0  0  0  0  0  0  0  0  0  # atno 11005 bound_to 11000
  145.1437  140.9585  143.4473 LP  0  0  0  0  0  0  0  0  0  0  0  0  # atno 17320 bound_to 7965
  145.0271  139.3373  143.6043 LP  0  0  0  0  0  0  0  0  0  0  0  0  # atno 17321 bound_to 7965
  140.0734  143.5039  152.2568 LP  0  0  0  0  0  0  0  0  0  0  0  0  # atno 17342 bound_to 10162
  139.5978  144.7573  151.3244 LP  0  0  0  0  0  0  0  0  0  0  0  0  # atno 17343 bound_to 10162
  156.5637  130.8394  151.3336 LP  0  0  0  0  0  0  0  0  0  0  0  0  # atno 17370 bound_to 10713
  157.7345  130.9747  150.2033 LP  0  0  0  0  0  0  0  0  0  0  0  0  # atno 17371 bound_to 10713
  139.8931  134.8737  156.2237 LP  0  0  0  0  0  0  0  0  0  0  0  0  # atno 17394 bound_to 11000
  141.0264  133.7013  156.1354 LP  0  0  0  0  0  0  0  0  0  0  0  0  # atno 17395 bound_to 11000

$$$$
