AV-unprocessed.smi:118|AV-procd|sdf|1132|dock7
  -GOLD-   2262018263D 1   1.00000     0.00000
 Structure written by MMmdl.
 41 44  0  0  0  0  0  0  0  0  1 V2000
  151.3325  141.0533  156.6236 O   0  0  0  0  0  0  0  0  0  0  0  0
  152.1748  140.1654  156.7625 C   0  0  0  0  0  0  0  0  0  0  0  0
  152.4001  139.1261  155.6527 C   0  0  0  0  0  0  0  0  0  0  0  0
  151.1669  138.4037  155.2708 N   0  0  0  0  0  0  0  0  0  0  0  0
  150.0906  139.1345  154.7092 C   0  0  0  0  0  0  0  0  0  0  0  0
  150.1717  140.3493  154.5214 O   0  0  0  0  0  0  0  0  0  0  0  0
  148.9021  138.3542  154.3839 C   0  0  0  0  0  0  0  0  0  0  0  0
  147.8391  138.9611  153.8291 F   0  0  0  0  0  0  0  0  0  0  0  0
  148.8507  137.0289  154.6306 C   0  0  0  0  0  0  0  0  0  0  0  0
  149.9009  136.3320  155.2020 N   0  0  0  0  0  0  0  0  0  0  0  0
  149.8269  134.8438  155.4774 C   0  0  1  0  0  0  0  0  0  0  0  0
  148.3951  134.3173  155.2513 C   0  0  0  0  0  0  0  0  0  0  0  0
  148.6049  133.1675  154.2858 C   0  0  0  0  0  0  0  0  0  0  0  0
  149.8615  133.6000  153.5462 C   0  0  0  0  0  0  0  0  0  0  0  0
  150.6560  134.1529  154.5870 O   0  0  0  0  0  0  0  0  0  0  0  0
  151.0957  137.0129  155.5217 C   0  0  0  0  0  0  0  0  0  0  0  0
  152.0499  136.4077  156.0158 O   0  0  0  0  0  0  0  0  0  0  0  0
  152.9442  140.0118  157.8550 N   0  0  0  0  0  0  0  0  0  0  0  0
  152.9565  140.7918  159.0444 C   0  0  0  0  0  0  0  0  0  0  0  0
  152.0571  141.8624  159.2855 C   0  0  0  0  0  0  0  0  0  0  0  0
  152.1287  142.6127  160.4805 C   0  0  0  0  0  0  0  0  0  0  0  0
  153.1041  142.3209  161.4556 C   0  0  0  0  0  0  0  0  0  0  0  0
  154.0093  141.2725  161.2132 C   0  0  0  0  0  0  0  0  0  0  0  0
  153.9412  140.5177  160.0193 C   0  0  0  0  0  0  0  0  0  0  0  0
  154.9113  139.5200  159.9389 N   0  0  0  0  0  0  0  0  0  0  0  0
  155.6350  139.7310  161.2689 S   0  0  0  0  0  0  0  0  0  0  0  0
  155.0260  140.8774  162.0761 N   0  0  0  0  0  0  0  0  0  0  0  0
  152.8482  139.6337  154.7973 H   0  0  0  0  0  0  0  0  0  0  0  0
  153.1698  138.4220  155.9738 H   0  0  0  0  0  0  0  0  0  0  0  0
  147.9428  136.5111  154.3622 H   0  0  0  0  0  0  0  0  0  0  0  0
  150.1948  134.7178  156.4972 H   0  0  0  0  0  0  0  0  0  0  0  0
  147.9398  134.0080  156.1925 H   0  0  0  0  0  0  0  0  0  0  0  0
  147.7735  135.0889  154.7937 H   0  0  0  0  0  0  0  0  0  0  0  0
  148.7944  132.2451  154.8362 H   0  0  0  0  0  0  0  0  0  0  0  0
  147.7538  133.0043  153.6243 H   0  0  0  0  0  0  0  0  0  0  0  0
  150.3671  132.7716  153.0501 H   0  0  0  0  0  0  0  0  0  0  0  0
  149.6317  134.3622  152.8004 H   0  0  0  0  0  0  0  0  0  0  0  0
  153.5273  139.1877  157.8727 H   0  0  0  0  0  0  0  0  0  0  0  0
  151.3082  142.1365  158.5586 H   0  0  0  0  0  0  0  0  0  0  0  0
  151.4324  143.4216  160.6462 H   0  0  0  0  0  0  0  0  0  0  0  0
  153.1582  142.8963  162.3681 H   0  0  0  0  0  0  0  0  0  0  0  0
  1  2  2  0  0  0  0
  2  3  1  0  0  0  0
  2 18  1  0  0  0  0
  3  4  1  0  0  0  0
  3 28  1  0  0  0  0
  3 29  1  0  0  0  0
  4 16  1  0  0  0  0
  4  5  1  0  0  0  0
  5  6  2  0  0  0  0
  5  7  1  0  0  0  0
  7  8  1  0  0  0  0
  7  9  2  0  0  0  0
  9 10  1  0  0  0  0
  9 30  1  0  0  0  0
 10 11  1  0  0  0  0
 10 16  1  0  0  0  0
 11 15  1  0  0  0  0
 11 12  1  0  0  0  0
 11 31  1  0  0  0  0
 12 13  1  0  0  0  0
 12 32  1  0  0  0  0
 12 33  1  0  0  0  0
 13 14  1  0  0  0  0
 13 34  1  0  0  0  0
 13 35  1  0  0  0  0
 14 15  1  0  0  0  0
 14 36  1  0  0  0  0
 14 37  1  0  0  0  0
 16 17  2  0  0  0  0
 18 19  1  0  0  0  0
 18 38  1  0  0  0  0
 19 24  1  0  0  0  0
 19 20  2  0  0  0  0
 20 21  1  0  0  0  0
 20 39  1  0  0  0  0
 21 22  2  0  0  0  0
 21 40  1  0  0  0  0
 22 23  1  0  0  0  0
 22 41  1  0  0  0  0
 23 27  1  0  0  0  0
 23 24  2  0  0  0  0
 24 25  1  0  0  0  0
 25 26  2  0  0  0  0
 26 27  2  0  0  0  0
M  END
> <s_m_source_file>
AV-unprocessed.smi

> <i_m_source_file_index>
118

> <i_lp_mmshare_version>
43012

> <i_f3d_flags>
0

> <s_epik_input>
TjE9Uz1OYyhjMTIpYyhbY0hdW2NIXVtjSF0yKVtOSF1DKD1PKVtDSDJdbjNjKD1PKWMoRilbY0hdbihjMz1PKVtDQEBIXTRbQ0gyXVtDSDJdW0NIMl1PNA==

> <s_epik_cmdline>
J2VwaWtfcHl0aG9uJywgJy1waCcsICc3LjAnLCAnLXRuJywgJzgnLCAnLW1hJywgJzIwMCcsICctbWV0YWxfYmluZGluZycsICctaW1hZScsICc8aW5maWxlLm1hZT4nLCAnLW9tYWUnLCAnPG91dGZpbGUubWFlPic=

> <r_lp_tautomer_probability>
1

> <r_epik_Ionization_Penalty>
1.81156e-06

> <r_epik_Ionization_Penalty_Charging>
3.88729e-08

> <r_epik_Ionization_Penalty_Neutral>
1.77269e-06

> <r_epik_State_Penalty>
-0

> <r_epik_Charging_Adjusted_Penalty>
3.88729e-08

> <i_epik_Tot_Q>
0

> <i_epik_Tot_abs_Q>
0

> <r_epik_Metal_State_Penalty>
-0

> <b_epik_Metal_Only>
0

> <s_epik_Chemistry_Notes>
This compound contains an acetal/aminal-like group ( X-CH(R)-Y where X, Y are N, S, or O) that may be acid/base labile, releasing an aldehyde.

> <s_lp_Force_Field>
OPLS_2005

> <r_lp_Energy>
52.0747

> <b_lp_Chiralities_Consistent>
1

> <s_lp_Variant>
AV-unprocessed.smi:118-2

> <Gold.Version>
5.8.1

> <Gold.Id.Protein>
6NUR|6NUR_protein|mol2

> <Gold.PLP.Fitness>
46.6710

> <Gold.PLP.PLP>
-41.1192

> <Gold.PLP.part.hbond>
-2.9807

> <Gold.PLP.part.metal>
0.0000

> <Gold.PLP.part.buried>
-4.4410

> <Gold.PLP.part.nonpolar>
-35.6404

> <Gold.PLP.part.repulsive>
2.0050

> <Gold.PLP.ligand.clash>
0.0000

> <Gold.PLP.ligand.torsion>
0.2173

> <Gold.PLP.Chemscore.Hbond>
1.9833

> <Gold.PLP.Chemscore.CHOScore>
0.0082

> <Gold.PLP.Chemscore.Metal>
0.0000

> <Gold.Chemscore.Hbonds>
donor molecule, donor type, donor heavy atom, donor atom, acceptor molecule, acceptor atom, score
      P1  H  7989  7998       L1     6  0.99
      P1  H 10752 10765       L1    17  1.00
      L1  C     9    30       P1  7948  0.09

> <Gold.PLP.Chemscore.Internal.Correction>
0.0122

> <Gold.Rescore>
     Score         DG    S(hbond)    S(metal)    S(lipo)     H(rot)  DE(clash)    DE(int)     intcor
     10.71     -16.78       1.92        0.00      81.20       1.80       0.67       5.40       ----

> <Gold.Chemscore.Fitness>
10.7088

> <Gold.Chemscore.DG>
-16.7780

> <Gold.Chemscore.ZeroCoef>
-5.4800

> <Gold.Chemscore.Hbond>
1.9162

> <Gold.Chemscore.Metal>
0.0000

> <Gold.Chemscore.Lipo>
81.1966

> <Gold.Chemscore.Internal_Hbond>
0.0000

> <Gold.Chemscore.DEClash>
0.6662

> <Gold.Chemscore.DEInternal>
5.4030

> <Gold.Chemscore.Rot>
1.7977

> <Gold.Chemscore.Internal.Correction>
   9.000000E+99

> <Gold.Chemscore.Hbonds>
donor molecule, donor type, donor heavy atom, donor atom, acceptor molecule, acceptor atom, score
      P1  H  7989  7998       L1     6  0.85
      P1  H 10752 10765       L1    17  0.98

> <Gold.Chemscore.Hbond.Weighted>
-6.4002

> <Gold.Chemscore.Metal.Weighted>
-0.0000

> <Gold.Chemscore.Lipo.Weighted>
-9.5000

> <Gold.Chemscore.Internal_Hbond.Weighted>
0.0000

> <Gold.Chemscore.DEClash.Weighted>
0.6662

> <Gold.Chemscore.DEInternal.Weighted>
5.4030

> <Gold.Chemscore.Rot.Weighted>
4.6022

> <Gold.Chemscore.Internal.Correction.Weighted>
   9.000000E+99

> <Gold.Protein.RotatedTorsions>
[ 6907 6896 6895 6894 ] final -126.89 input  -60.11 | X-H torsion
[ 7974 7965 7964 7962 ] final  -15.42 input  175.53 | X-H torsion
[ 8008 7997 7996 7995 ] final -114.21 input   59.86 | X-H torsion
[ 10167 10162 10161 10158 ] final  -13.63 input  -65.29 | X-H torsion
[ 10718 10713 10712 10709 ] final  150.55 input   66.30 | X-H torsion
[ 10763 10752 10751 10750 ] final -151.48 input  -60.55 | X-H torsion
[ 11005 11000 10999 10996 ] final -118.89 input  -57.11 | X-H torsion

> <Gold.Protein.ActiveResidues>
 VAL166  LYS551  ARG553  GLY616  TRP617  ASP618  TYR619  PRO620  LYS621  CYS622 
 ASP623  PHE694  ASN695  SER759  ASP760  ASP761  ALA762  ILE779  LEU786  VAL792 
 PHE793  MET794  SER795  GLU796  ALA797  LYS798  CYS799  TRP800  GLU811  SER814 

> <Gold.Protein.RotatedAtoms>
  150.9016  133.7112  159.2877 H   0  0  0  0  0  0  0  0  0  0  0  0  # atno 6907 bound_to 6896
  151.4628  135.1038  159.9739 H   0  0  0  0  0  0  0  0  0  0  0  0  # atno 6908 bound_to 6896
  152.4880  133.8374  159.7190 H   0  0  0  0  0  0  0  0  0  0  0  0  # atno 6909 bound_to 6896
  146.2032  140.3491  142.8416 H   0  0  0  0  0  0  0  0  0  0  0  0  # atno 7974 bound_to 7965
  155.0327  140.0393  157.2480 H   0  0  0  0  0  0  0  0  0  0  0  0  # atno 8008 bound_to 7997
  154.7283  140.2725  155.6455 H   0  0  0  0  0  0  0  0  0  0  0  0  # atno 8009 bound_to 7997
  156.2835  140.2689  156.1975 H   0  0  0  0  0  0  0  0  0  0  0  0  # atno 8010 bound_to 7997
  140.7186  143.5406  150.9414 H   0  0  0  0  0  0  0  0  0  0  0  0  # atno 10167 bound_to 10162
  157.2821  131.0837  151.1524 H   0  0  0  0  0  0  0  0  0  0  0  0  # atno 10718 bound_to 10713
  154.8055  135.3259  154.7443 H   0  0  0  0  0  0  0  0  0  0  0  0  # atno 10763 bound_to 10752
  153.8102  135.6896  153.4846 H   0  0  0  0  0  0  0  0  0  0  0  0  # atno 10764 bound_to 10752
  153.1797  135.4591  154.9957 H   0  0  0  0  0  0  0  0  0  0  0  0  # atno 10765 bound_to 10752
  141.0254  134.0062  157.3222 H   0  0  0  0  0  0  0  0  0  0  0  0  # atno 11005 bound_to 11000
  144.8732  140.7301  143.6034 LP  0  0  0  0  0  0  0  0  0  0  0  0  # atno 17320 bound_to 7965
  145.3410  139.1732  143.4486 LP  0  0  0  0  0  0  0  0  0  0  0  0  # atno 17321 bound_to 7965
  139.9128  143.6699  152.3112 LP  0  0  0  0  0  0  0  0  0  0  0  0  # atno 17342 bound_to 10162
  139.7088  144.7623  151.1147 LP  0  0  0  0  0  0  0  0  0  0  0  0  # atno 17343 bound_to 10162
  157.2954  130.6817  149.6136 LP  0  0  0  0  0  0  0  0  0  0  0  0  # atno 17370 bound_to 10713
  155.9664  130.4408  150.5314 LP  0  0  0  0  0  0  0  0  0  0  0  0  # atno 17371 bound_to 10713
  139.9172  135.0198  156.7928 LP  0  0  0  0  0  0  0  0  0  0  0  0  # atno 17394 bound_to 11000
  140.6501  133.9739  155.7750 LP  0  0  0  0  0  0  0  0  0  0  0  0  # atno 17395 bound_to 11000

$$$$
