AV-unprocessed.smi:746|AV-procd|sdf|3577|dock2
  -GOLD-   22720 0573D 1   1.00000     0.00000
 Structure written by MMmdl.
 48 50  0  0  0  0  0  0  0  0  1 V2000
  153.4624  132.1268  164.9061 C   0  0  0  0  0  0  0  0  0  0  0  0
  153.1074  131.7446  163.5885 O   0  0  0  0  0  0  0  0  0  0  0  0
  154.2366  131.6020  162.7433 C   0  0  0  0  0  0  0  0  0  0  0  0
  155.0336  132.9094  162.7433 C   0  0  0  0  0  0  0  0  0  0  0  0
  154.8568  133.5461  161.4818 O   0  0  0  0  0  0  0  0  0  0  0  0
  154.6485  134.9096  161.4535 C   0  0  0  0  0  0  0  0  0  0  0  0
  154.8086  135.6387  162.6481 C   0  0  0  0  0  0  0  0  0  0  0  0
  154.5984  137.0305  162.6305 C   0  0  0  0  0  0  0  0  0  0  0  0
  154.2415  137.6528  161.4106 C   0  0  0  0  0  0  0  0  0  0  0  0
  153.9851  139.0433  161.2664 N   0  0  0  0  0  0  0  0  0  0  0  0
  153.9476  139.7822  160.1395 C   0  0  0  0  0  0  0  0  0  0  0  0
  153.9731  139.2973  159.0086 O   0  0  0  0  0  0  0  0  0  0  0  0
  153.7129  141.0965  160.3734 N   0  0  0  0  0  0  0  0  0  0  0  0
  154.3064  141.8081  161.5192 C   0  0  0  0  0  0  0  0  0  0  0  0
  153.2224  142.5764  162.2985 C   0  0  0  0  0  0  0  0  0  0  0  0
  152.1205  143.1350  161.3778 C   0  0  0  0  0  0  0  0  0  0  0  0
  152.6282  143.3404  159.9353 C   0  0  2  0  0  0  0  0  0  0  0  0
  151.5137  143.7926  158.9711 C   0  0  0  0  0  0  0  0  0  0  0  0
  151.4718  142.7599  157.8418 C   0  0  0  0  0  0  0  0  0  0  0  0
  152.0806  141.4973  158.4451 C   0  0  0  0  0  0  0  0  0  0  0  0
  153.2126  142.0314  159.3393 C   0  0  2  0  0  0  0  0  0  0  0  0
  154.0929  136.8314  160.2739 C   0  0  0  0  0  0  0  0  0  0  0  0
  154.2933  135.4966  160.2840 N   0  0  0  0  0  0  0  0  0  0  0  0
  152.5634  132.2234  165.5148 H   0  0  0  0  0  0  0  0  0  0  0  0
  153.9780  133.0880  164.9128 H   0  0  0  0  0  0  0  0  0  0  0  0
  154.1062  131.3807  165.3738 H   0  0  0  0  0  0  0  0  0  0  0  0
  154.8664  130.7829  163.0939 H   0  0  0  0  0  0  0  0  0  0  0  0
  153.9160  131.3614  161.7284 H   0  0  0  0  0  0  0  0  0  0  0  0
  154.6794  133.5568  163.5475 H   0  0  0  0  0  0  0  0  0  0  0  0
  156.0893  132.6961  162.9196 H   0  0  0  0  0  0  0  0  0  0  0  0
  155.0841  135.1383  163.5646 H   0  0  0  0  0  0  0  0  0  0  0  0
  154.7016  137.5843  163.5505 H   0  0  0  0  0  0  0  0  0  0  0  0
  153.7948  139.5401  162.1246 H   0  0  0  0  0  0  0  0  0  0  0  0
  154.8712  141.1684  162.1986 H   0  0  0  0  0  0  0  0  0  0  0  0
  155.0392  142.5154  161.1273 H   0  0  0  0  0  0  0  0  0  0  0  0
  152.7668  141.9264  163.0465 H   0  0  0  0  0  0  0  0  0  0  0  0
  153.6950  143.3895  162.8507 H   0  0  0  0  0  0  0  0  0  0  0  0
  151.2890  142.4286  161.3599 H   0  0  0  0  0  0  0  0  0  0  0  0
  151.7225  144.0643  161.7864 H   0  0  0  0  0  0  0  0  0  0  0  0
  153.4122  144.0992  159.9551 H   0  0  0  0  0  0  0  0  0  0  0  0
  150.5495  143.8175  159.4807 H   0  0  0  0  0  0  0  0  0  0  0  0
  151.6952  144.7955  158.5828 H   0  0  0  0  0  0  0  0  0  0  0  0
  150.4633  142.5976  157.4601 H   0  0  0  0  0  0  0  0  0  0  0  0
  152.0901  143.1000  157.0100 H   0  0  0  0  0  0  0  0  0  0  0  0
  151.3333  140.9768  159.0463 H   0  0  0  0  0  0  0  0  0  0  0  0
  152.4273  140.8138  157.6699 H   0  0  0  0  0  0  0  0  0  0  0  0
  154.0530  142.2948  158.6944 H   0  0  0  0  0  0  0  0  0  0  0  0
  153.8073  137.2574  159.3231 H   0  0  0  0  0  0  0  0  0  0  0  0
  1  2  1  0  0  0  0
  1 24  1  0  0  0  0
  1 25  1  0  0  0  0
  1 26  1  0  0  0  0
  2  3  1  0  0  0  0
  3  4  1  0  0  0  0
  3 27  1  0  0  0  0
  3 28  1  0  0  0  0
  4  5  1  0  0  0  0
  4 29  1  0  0  0  0
  4 30  1  0  0  0  0
  5  6  1  0  0  0  0
  6 23  1  0  0  0  0
  6  7  2  0  0  0  0
  7  8  1  0  0  0  0
  7 31  1  0  0  0  0
  8  9  2  0  0  0  0
  8 32  1  0  0  0  0
  9 10  1  0  0  0  0
  9 22  1  0  0  0  0
 10 11  1  0  0  0  0
 10 33  1  0  0  0  0
 11 12  2  0  0  0  0
 11 13  1  0  0  0  0
 13 21  1  0  0  0  0
 13 14  1  0  0  0  0
 14 15  1  0  0  0  0
 14 34  1  0  0  0  0
 14 35  1  0  0  0  0
 15 16  1  0  0  0  0
 15 36  1  0  0  0  0
 15 37  1  0  0  0  0
 16 17  1  0  0  0  0
 16 38  1  0  0  0  0
 16 39  1  0  0  0  0
 17 21  1  0  0  0  0
 17 18  1  0  0  0  0
 17 40  1  0  0  0  0
 18 19  1  0  0  0  0
 18 41  1  0  0  0  0
 18 42  1  0  0  0  0
 19 20  1  0  0  0  0
 19 43  1  0  0  0  0
 19 44  1  0  0  0  0
 20 21  1  0  0  0  0
 20 45  1  0  0  0  0
 20 46  1  0  0  0  0
 21 47  1  0  0  0  0
 22 23  2  0  0  0  0
 22 48  1  0  0  0  0
M  END
> <s_m_source_file>
AV-unprocessed.smi

> <i_m_source_file_index>
746

> <i_lp_mmshare_version>
43012

> <i_f3d_flags>
0

> <s_epik_input>
W0NIM11PW0NIMl1bQ0gyXU9jMVtjSF1bY0hdYyhbY0hdbjEpW05IXUMoPU8pTihbQ0gyXVtDSDJdW0NIMl0yKVtDQEhdKFtDQEBIXTIzKVtDSDJdW0NIMl1bQ0gyXTM=

> <s_epik_cmdline>
J2VwaWtfcHl0aG9uJywgJy1waCcsICc3LjAnLCAnLXRuJywgJzgnLCAnLW1hJywgJzIwMCcsICctbWV0YWxfYmluZGluZycsICctaW1hZScsICc8aW5maWxlLm1hZT4nLCAnLW9tYWUnLCAnPG91dGZpbGUubWFlPic=

> <r_lp_tautomer_probability>
1

> <r_epik_Ionization_Penalty>
8.29966e-05

> <r_epik_Ionization_Penalty_Charging>
0

> <r_epik_Ionization_Penalty_Neutral>
8.29966e-05

> <r_epik_State_Penalty>
-0

> <r_epik_Charging_Adjusted_Penalty>
0

> <i_epik_Tot_Q>
0

> <i_epik_Tot_abs_Q>
0

> <r_epik_Metal_State_Penalty>
-0

> <b_epik_Metal_Only>
0

> <s_lp_Force_Field>
OPLS_2005

> <r_lp_Energy>
61.4405

> <b_lp_Chiralities_Consistent>
1

> <s_lp_Variant>
AV-unprocessed.smi:746-2

> <Gold.Version>
5.8.1

> <Gold.Id.Protein>
6NUR|6NUR_protein|mol2

> <Gold.PLP.Fitness>
47.0600

> <Gold.PLP.PLP>
-43.7989

> <Gold.PLP.part.hbond>
-1.7437

> <Gold.PLP.part.metal>
0.0000

> <Gold.PLP.part.buried>
-2.5285

> <Gold.PLP.part.nonpolar>
-39.1533

> <Gold.PLP.part.repulsive>
0.0414

> <Gold.PLP.ligand.clash>
0.3550

> <Gold.PLP.ligand.torsion>
1.1042

> <Gold.PLP.Chemscore.Hbond>
1.8125

> <Gold.PLP.Chemscore.CHOScore>
0.0000

> <Gold.PLP.Chemscore.Metal>
0.0000

> <Gold.Chemscore.Hbonds>
donor molecule, donor type, donor heavy atom, donor atom, acceptor molecule, acceptor atom, score
      P1  H  6896  6907       L1    23  1.00
      P1  H  7997  8008       L1    12  0.81

> <Gold.PLP.Chemscore.Internal.Correction>
0.3871

> <Gold.Rescore>
     Score         DG    S(hbond)    S(metal)    S(lipo)     H(rot)  DE(clash)    DE(int)     intcor
     15.41     -19.47       1.03        0.00     123.31       1.52       0.32       3.75       ----

> <Gold.Chemscore.Fitness>
15.4077

> <Gold.Chemscore.DG>
-19.4697

> <Gold.Chemscore.ZeroCoef>
-5.4800

> <Gold.Chemscore.Hbond>
1.0321

> <Gold.Chemscore.Metal>
0.0000

> <Gold.Chemscore.Lipo>
123.3051

> <Gold.Chemscore.Internal_Hbond>
0.0000

> <Gold.Chemscore.DEClash>
0.3166

> <Gold.Chemscore.DEInternal>
3.7454

> <Gold.Chemscore.Rot>
1.5172

> <Gold.Chemscore.Internal.Correction>
   9.000000E+99

> <Gold.Chemscore.Hbonds>
donor molecule, donor type, donor heavy atom, donor atom, acceptor molecule, acceptor atom, score
      P1  H  6896  6907       L1    23  0.14
      P1  H  7997  8008       L1    12  0.80

> <Gold.Chemscore.Hbond.Weighted>
-3.4472

> <Gold.Chemscore.Metal.Weighted>
-0.0000

> <Gold.Chemscore.Lipo.Weighted>
-14.4267

> <Gold.Chemscore.Internal_Hbond.Weighted>
0.0000

> <Gold.Chemscore.DEClash.Weighted>
0.3166

> <Gold.Chemscore.DEInternal.Weighted>
3.7454

> <Gold.Chemscore.Rot.Weighted>
3.8841

> <Gold.Chemscore.Internal.Correction.Weighted>
   9.000000E+99

> <Gold.Protein.RotatedTorsions>
[ 6907 6896 6895 6894 ] final   62.63 input  -60.11 | X-H torsion
[ 7974 7965 7964 7962 ] final  121.76 input  175.53 | X-H torsion
[ 8008 7997 7996 7995 ] final -111.10 input   59.86 | X-H torsion
[ 10167 10162 10161 10158 ] final -150.93 input  -65.29 | X-H torsion
[ 10718 10713 10712 10709 ] final    2.30 input   66.30 | X-H torsion
[ 10763 10752 10751 10750 ] final -134.07 input  -60.55 | X-H torsion
[ 11005 11000 10999 10996 ] final  -85.78 input  -57.11 | X-H torsion

> <Gold.Protein.ActiveResidues>
 VAL166  LYS551  ARG553  GLY616  TRP617  ASP618  TYR619  PRO620  LYS621  CYS622 
 ASP623  PHE694  ASN695  SER759  ASP760  ASP761  ALA762  ILE779  LEU786  VAL792 
 PHE793  MET794  SER795  GLU796  ALA797  LYS798  CYS799  TRP800  GLU811  SER814 

> <Gold.Protein.RotatedAtoms>
  152.4187  134.5994  159.9995 H   0  0  0  0  0  0  0  0  0  0  0  0  # atno 6907 bound_to 6896
  151.6150  133.3338  159.3083 H   0  0  0  0  0  0  0  0  0  0  0  0  # atno 6908 bound_to 6896
  150.8076  134.7249  159.6724 H   0  0  0  0  0  0  0  0  0  0  0  0  # atno 6909 bound_to 6896
  145.1156  139.3423  143.4741 H   0  0  0  0  0  0  0  0  0  0  0  0  # atno 7974 bound_to 7965
  154.9846  140.0396  157.2293 H   0  0  0  0  0  0  0  0  0  0  0  0  # atno 8008 bound_to 7997
  154.7683  140.2797  155.6136 H   0  0  0  0  0  0  0  0  0  0  0  0  # atno 8009 bound_to 7997
  156.2916  140.2615  156.2479 H   0  0  0  0  0  0  0  0  0  0  0  0  # atno 8010 bound_to 7997
  139.7311  143.8806  152.2535 H   0  0  0  0  0  0  0  0  0  0  0  0  # atno 10167 bound_to 10162
  156.8609  130.5586  149.5663 H   0  0  0  0  0  0  0  0  0  0  0  0  # atno 10718 bound_to 10713
  154.8724  135.3746  154.4676 H   0  0  0  0  0  0  0  0  0  0  0  0  # atno 10763 bound_to 10752
  153.5339  135.7027  153.5675 H   0  0  0  0  0  0  0  0  0  0  0  0  # atno 10764 bound_to 10752
  153.3867  135.3983  155.1860 H   0  0  0  0  0  0  0  0  0  0  0  0  # atno 10765 bound_to 10752
  141.1637  133.7418  156.9066 H   0  0  0  0  0  0  0  0  0  0  0  0  # atno 11005 bound_to 11000
  146.3524  140.1093  142.8604 LP  0  0  0  0  0  0  0  0  0  0  0  0  # atno 17320 bound_to 7965
  145.0798  140.9213  143.4832 LP  0  0  0  0  0  0  0  0  0  0  0  0  # atno 17321 bound_to 7965
  139.8730  144.7058  150.8965 LP  0  0  0  0  0  0  0  0  0  0  0  0  # atno 17342 bound_to 10162
  140.7771  143.3723  151.1627 LP  0  0  0  0  0  0  0  0  0  0  0  0  # atno 17343 bound_to 10162
  156.0777  130.5795  150.9505 LP  0  0  0  0  0  0  0  0  0  0  0  0  # atno 17370 bound_to 10713
  157.6250  131.0926  150.8550 LP  0  0  0  0  0  0  0  0  0  0  0  0  # atno 17371 bound_to 10713
  140.1546  134.9207  157.2637 LP  0  0  0  0  0  0  0  0  0  0  0  0  # atno 17394 bound_to 11000
  140.2682  134.3491  155.7382 LP  0  0  0  0  0  0  0  0  0  0  0  0  # atno 17395 bound_to 11000

$$$$
