AV-unprocessed.smi:2433|AV-procd|sdf|9589|dock10
  -GOLD-   2272013223D 1   1.00000     0.00000
 Structure written by MMmdl.
 38 40  0  0  0  0  0  0  0  0  1 V2000
  150.6540  139.9869  154.4977 O   0  0  0  0  0  0  0  0  0  0  0  0
  151.0876  140.1592  155.6373 C   0  0  0  0  0  0  0  0  0  0  0  0
  150.9101  141.4145  156.3671 C   0  0  0  0  0  0  0  0  0  0  0  0
  151.3888  141.5634  157.6248 C   0  0  0  0  0  0  0  0  0  0  0  0
  151.2028  142.8831  158.3719 C   0  0  0  0  0  0  0  0  0  0  0  0
  151.9257  144.1273  157.8164 C   0  0  0  0  0  0  0  0  0  0  0  0
  153.0711  143.8479  158.7949 C   0  0  0  0  0  0  0  0  0  0  0  0
  152.0899  143.0095  159.6217 C   0  0  0  0  0  0  0  0  0  0  0  0
  152.0769  140.5146  158.2485 N   0  0  0  0  0  0  0  0  0  0  0  0
  152.2491  139.3930  157.6249 C   0  0  0  0  0  0  0  0  0  0  0  0
  151.7683  139.1915  156.3174 N   0  0  0  0  0  0  0  0  0  0  0  0
  152.0344  137.8738  155.7177 C   0  0  0  0  0  0  0  0  0  0  0  0
  151.7683  136.7143  156.7029 C   0  0  2  0  0  0  0  0  0  0  0  0
  153.0092  136.1970  157.1413 O   0  0  0  0  0  0  0  0  0  0  0  0
  150.9162  135.6356  156.0516 C   0  0  0  0  0  0  0  0  0  0  0  0
  149.6959  135.9827  155.4331 C   0  0  0  0  0  0  0  0  0  0  0  0
  148.9066  134.9935  154.8147 C   0  0  0  0  0  0  0  0  0  0  0  0
  149.3347  133.6522  154.8078 C   0  0  0  0  0  0  0  0  0  0  0  0
  148.5766  132.7021  154.2108 F   0  0  0  0  0  0  0  0  0  0  0  0
  150.5526  133.3000  155.4201 C   0  0  0  0  0  0  0  0  0  0  0  0
  151.3422  134.2885  156.0393 C   0  0  0  0  0  0  0  0  0  0  0  0
  150.3858  142.2311  155.8920 H   0  0  0  0  0  0  0  0  0  0  0  0
  150.1487  143.0696  158.5806 H   0  0  0  0  0  0  0  0  0  0  0  0
  152.2060  144.1091  156.7635 H   0  0  0  0  0  0  0  0  0  0  0  0
  151.3975  145.0510  158.0579 H   0  0  0  0  0  0  0  0  0  0  0  0
  153.8677  143.2483  158.3517 H   0  0  0  0  0  0  0  0  0  0  0  0
  153.4623  144.7289  159.3042 H   0  0  0  0  0  0  0  0  0  0  0  0
  151.6138  143.5861  160.4165 H   0  0  0  0  0  0  0  0  0  0  0  0
  152.5029  142.0737  160.0007 H   0  0  0  0  0  0  0  0  0  0  0  0
  152.7693  138.5432  158.0703 H   0  0  0  0  0  0  0  0  0  0  0  0
  151.3781  137.7642  154.8517 H   0  0  0  0  0  0  0  0  0  0  0  0
  153.0420  137.8007  155.3027 H   0  0  0  0  0  0  0  0  0  0  0  0
  151.2373  137.0801  157.5829 H   0  0  0  0  0  0  0  0  0  0  0  0
  152.8710  135.7406  157.9573 H   0  0  0  0  0  0  0  0  0  0  0  0
  149.3615  137.0100  155.4280 H   0  0  0  0  0  0  0  0  0  0  0  0
  147.9735  135.2650  154.3432 H   0  0  0  0  0  0  0  0  0  0  0  0
  150.8834  132.2718  155.4125 H   0  0  0  0  0  0  0  0  0  0  0  0
  152.2778  134.0094  156.5013 H   0  0  0  0  0  0  0  0  0  0  0  0
  1  2  2  0  0  0  0
  2 11  1  0  0  0  0
  2  3  1  0  0  0  0
  3  4  2  0  0  0  0
  3 22  1  0  0  0  0
  4  5  1  0  0  0  0
  4  9  1  0  0  0  0
  5  8  1  0  0  0  0
  5  6  1  0  0  0  0
  5 23  1  0  0  0  0
  6  7  1  0  0  0  0
  6 24  1  0  0  0  0
  6 25  1  0  0  0  0
  7  8  1  0  0  0  0
  7 26  1  0  0  0  0
  7 27  1  0  0  0  0
  8 28  1  0  0  0  0
  8 29  1  0  0  0  0
  9 10  2  0  0  0  0
 10 11  1  0  0  0  0
 10 30  1  0  0  0  0
 11 12  1  0  0  0  0
 12 13  1  0  0  0  0
 12 31  1  0  0  0  0
 12 32  1  0  0  0  0
 13 14  1  0  0  0  0
 13 15  1  0  0  0  0
 13 33  1  0  0  0  0
 14 34  1  0  0  0  0
 15 21  1  0  0  0  0
 15 16  2  0  0  0  0
 16 17  1  0  0  0  0
 16 35  1  0  0  0  0
 17 18  2  0  0  0  0
 17 36  1  0  0  0  0
 18 19  1  0  0  0  0
 18 20  1  0  0  0  0
 20 21  2  0  0  0  0
 20 37  1  0  0  0  0
 21 38  1  0  0  0  0
M  END
> <s_m_source_file>
AV-unprocessed.smi

> <i_m_source_file_index>
2433

> <i_lp_mmshare_version>
43012

> <i_f3d_flags>
0

> <s_epik_input>
W0NIMl0xW0NIMl1bQ0gyXVtDSF0xYyhbY0hdYzI9TyluW2NIXW4yW0NIMl1bQ0BIXShbT0hdKWMzW2NIXVtjSF1jKEYpW2NIXVtjSF0z

> <s_epik_cmdline>
J2VwaWtfcHl0aG9uJywgJy1waCcsICc3LjAnLCAnLXRuJywgJzgnLCAnLW1hJywgJzIwMCcsICctbWV0YWxfYmluZGluZycsICctaW1hZScsICc8aW5maWxlLm1hZT4nLCAnLW9tYWUnLCAnPG91dGZpbGUubWFlPic=

> <r_lp_tautomer_probability>
1

> <r_epik_Ionization_Penalty>
2.57762e-05

> <r_epik_Ionization_Penalty_Charging>
5.39435e-08

> <r_epik_Ionization_Penalty_Neutral>
2.57223e-05

> <r_epik_State_Penalty>
-0

> <r_epik_Charging_Adjusted_Penalty>
5.39435e-08

> <i_epik_Tot_Q>
0

> <i_epik_Tot_abs_Q>
0

> <r_epik_Metal_State_Penalty>
-0

> <b_epik_Metal_Only>
0

> <s_lp_Force_Field>
OPLS_2005

> <r_lp_Energy>
28.7145

> <b_lp_Chiralities_Consistent>
1

> <s_lp_Variant>
AV-unprocessed.smi:2433-1

> <Gold.Version>
5.8.1

> <Gold.Id.Protein>
6NUR|6NUR_protein|mol2

> <Gold.PLP.Fitness>
43.8377

> <Gold.PLP.PLP>
-39.7543

> <Gold.PLP.part.hbond>
-2.0000

> <Gold.PLP.part.metal>
0.0000

> <Gold.PLP.part.buried>
-3.1391

> <Gold.PLP.part.nonpolar>
-34.5060

> <Gold.PLP.part.repulsive>
0.1010

> <Gold.PLP.ligand.clash>
0.0000

> <Gold.PLP.ligand.torsion>
1.1535

> <Gold.PLP.Chemscore.Hbond>
2.0000

> <Gold.PLP.Chemscore.CHOScore>
0.0000

> <Gold.PLP.Chemscore.Metal>
0.0000

> <Gold.Chemscore.Hbonds>
donor molecule, donor type, donor heavy atom, donor atom, acceptor molecule, acceptor atom, score
      P1  H  7989  7998       L1     1  1.00
      P1  H 10752 10764       L1    14  0.72

> <Gold.PLP.Chemscore.Internal.Correction>
0.3904

> <Gold.Rescore>
     Score         DG    S(hbond)    S(metal)    S(lipo)     H(rot)  DE(clash)    DE(int)     intcor
     16.12     -17.34       1.87        0.00      94.74       2.14       0.01       1.22       ----

> <Gold.Chemscore.Fitness>
16.1156

> <Gold.Chemscore.DG>
-17.3441

> <Gold.Chemscore.ZeroCoef>
-5.4800

> <Gold.Chemscore.Hbond>
1.8713

> <Gold.Chemscore.Metal>
0.0000

> <Gold.Chemscore.Lipo>
94.7414

> <Gold.Chemscore.Internal_Hbond>
0.0000

> <Gold.Chemscore.DEClash>
0.0060

> <Gold.Chemscore.DEInternal>
1.2225

> <Gold.Chemscore.Rot>
2.1370

> <Gold.Chemscore.Internal.Correction>
   9.000000E+99

> <Gold.Chemscore.Hbonds>
donor molecule, donor type, donor heavy atom, donor atom, acceptor molecule, acceptor atom, score
      P1  H  7989  7998       L1     1  0.55
      P1  H 10752 10764       L1    14  0.09

> <Gold.Chemscore.Hbond.Weighted>
-6.2501

> <Gold.Chemscore.Metal.Weighted>
-0.0000

> <Gold.Chemscore.Lipo.Weighted>
-11.0847

> <Gold.Chemscore.Internal_Hbond.Weighted>
0.0000

> <Gold.Chemscore.DEClash.Weighted>
0.0060

> <Gold.Chemscore.DEInternal.Weighted>
1.2225

> <Gold.Chemscore.Rot.Weighted>
5.4707

> <Gold.Chemscore.Internal.Correction.Weighted>
   9.000000E+99

> <Gold.Protein.RotatedTorsions>
[ 6907 6896 6895 6894 ] final  106.16 input  -60.11 | X-H torsion
[ 7974 7965 7964 7962 ] final   87.61 input  175.53 | X-H torsion
[ 8008 7997 7996 7995 ] final -127.33 input   59.86 | X-H torsion
[ 10167 10162 10161 10158 ] final  -70.58 input  -65.29 | X-H torsion
[ 10718 10713 10712 10709 ] final  -79.60 input   66.30 | X-H torsion
[ 10763 10752 10751 10750 ] final   -2.31 input  -60.55 | X-H torsion
[ 11005 11000 10999 10996 ] final -143.34 input  -57.11 | X-H torsion

> <Gold.Protein.ActiveResidues>
 VAL166  LYS551  ARG553  GLY616  TRP617  ASP618  TYR619  PRO620  LYS621  CYS622 
 ASP623  PHE694  ASN695  SER759  ASP760  ASP761  ALA762  ILE779  LEU786  VAL792 
 PHE793  MET794  SER795  GLU796  ALA797  LYS798  CYS799  TRP800  GLU811  SER814 

> <Gold.Protein.RotatedAtoms>
  152.5204  133.9422  159.7631 H   0  0  0  0  0  0  0  0  0  0  0  0  # atno 6907 bound_to 6896
  150.9750  133.6296  159.2739 H   0  0  0  0  0  0  0  0  0  0  0  0  # atno 6908 bound_to 6896
  151.3494  135.0887  159.9451 H   0  0  0  0  0  0  0  0  0  0  0  0  # atno 6909 bound_to 6896
  145.5566  139.2300  143.2482 H   0  0  0  0  0  0  0  0  0  0  0  0  # atno 7974 bound_to 7965
  155.2444  140.0430  157.2979 H   0  0  0  0  0  0  0  0  0  0  0  0  # atno 8008 bound_to 7997
  154.5808  140.2400  155.8026 H   0  0  0  0  0  0  0  0  0  0  0  0  # atno 8009 bound_to 7997
  156.2191  140.2975  155.9918 H   0  0  0  0  0  0  0  0  0  0  0  0  # atno 8010 bound_to 7997
  140.5341  143.2319  151.7208 H   0  0  0  0  0  0  0  0  0  0  0  0  # atno 10167 bound_to 10162
  156.0089  130.4550  150.3673 H   0  0  0  0  0  0  0  0  0  0  0  0  # atno 10718 bound_to 10713
  153.3563  135.6988  153.6748 H   0  0  0  0  0  0  0  0  0  0  0  0  # atno 10763 bound_to 10752
  153.5454  135.3564  155.2737 H   0  0  0  0  0  0  0  0  0  0  0  0  # atno 10764 bound_to 10752
  154.8661  135.4213  154.2810 H   0  0  0  0  0  0  0  0  0  0  0  0  # atno 10765 bound_to 10752
  140.8134  134.2717  157.4931 H   0  0  0  0  0  0  0  0  0  0  0  0  # atno 11005 bound_to 11000
  146.1880  140.6391  142.9159 LP  0  0  0  0  0  0  0  0  0  0  0  0  # atno 17320 bound_to 7965
  144.7503  140.5174  143.6806 LP  0  0  0  0  0  0  0  0  0  0  0  0  # atno 17321 bound_to 7965
  139.4964  144.4069  152.0122 LP  0  0  0  0  0  0  0  0  0  0  0  0  # atno 17342 bound_to 10162
  140.3173  144.3468  150.6018 LP  0  0  0  0  0  0  0  0  0  0  0  0  # atno 17343 bound_to 10162
  157.1759  131.0380  151.2772 LP  0  0  0  0  0  0  0  0  0  0  0  0  # atno 17370 bound_to 10713
  157.4188  130.7426  149.6897 LP  0  0  0  0  0  0  0  0  0  0  0  0  # atno 17371 bound_to 10713
  139.8712  134.9496  156.4030 LP  0  0  0  0  0  0  0  0  0  0  0  0  # atno 17394 bound_to 11000
  140.9174  133.7669  155.9864 LP  0  0  0  0  0  0  0  0  0  0  0  0  # atno 17395 bound_to 11000

$$$$
