AV-unprocessed.smi:1673|AV-procd|sdf|6712|dock6
  -GOLD-   22720 7453D 1   1.00000     0.00000
 Structure written by MMmdl.
 39 40  0  0  0  0  0  0  0  0  1 V2000
  149.6537  131.5809  155.6881 C   0  0  0  0  0  0  0  0  0  0  0  0
  150.2209  132.9685  155.8051 C   0  0  0  0  0  0  0  0  0  0  0  0
  151.1396  133.2123  156.7281 N   0  0  0  0  0  0  0  0  0  0  0  0
  151.5346  134.5487  156.5614 O   0  0  0  0  0  0  0  0  0  0  0  0
  150.8353  135.0884  155.5291 C   0  0  0  0  0  0  0  0  0  0  0  0
  151.1301  136.5079  155.1794 C   0  0  0  0  0  0  0  0  0  0  0  0
  149.9772  134.1477  155.0411 C   0  0  0  0  0  0  0  0  0  0  0  0
  149.1043  134.3442  153.9419 N   0  0  0  0  0  0  0  0  0  0  0  0
  147.9399  133.7163  153.7191 C   0  0  0  0  0  0  0  0  0  0  0  0
  147.4308  132.8922  154.4782 O   0  0  0  0  0  0  0  0  0  0  0  0
  147.3847  134.1138  152.5651 N   0  0  0  0  0  0  0  0  0  0  0  0
  146.1122  133.6424  152.0196 C   0  0  1  0  0  0  0  0  0  0  0  0
  145.5975  134.6786  151.0013 C   0  0  0  0  0  0  0  0  0  0  0  0
  144.2880  134.2251  150.3402 C   0  0  0  0  0  0  0  0  0  0  0  0
  144.4538  132.8493  149.6812 C   0  0  0  0  0  0  0  0  0  0  0  0
  144.9508  131.8089  150.6963 C   0  0  0  0  0  0  0  0  0  0  0  0
  146.2695  132.2435  151.3681 C   0  0  2  0  0  0  0  0  0  0  0  0
  146.7436  131.1690  152.3633 C   0  0  0  0  0  0  0  0  0  0  0  0
  149.4159  131.3376  154.6525 H   0  0  0  0  0  0  0  0  0  0  0  0
  148.7418  131.4797  156.2764 H   0  0  0  0  0  0  0  0  0  0  0  0
  150.3603  130.8299  156.0428 H   0  0  0  0  0  0  0  0  0  0  0  0
  150.5953  136.8100  154.2790 H   0  0  0  0  0  0  0  0  0  0  0  0
  152.1963  136.6478  155.0010 H   0  0  0  0  0  0  0  0  0  0  0  0
  150.8317  137.1741  155.9889 H   0  0  0  0  0  0  0  0  0  0  0  0
  149.3486  135.0914  153.3088 H   0  0  0  0  0  0  0  0  0  0  0  0
  147.8820  134.7988  152.0153 H   0  0  0  0  0  0  0  0  0  0  0  0
  145.3694  133.5677  152.8163 H   0  0  0  0  0  0  0  0  0  0  0  0
  145.4430  135.6398  151.4933 H   0  0  0  0  0  0  0  0  0  0  0  0
  146.3506  134.8451  150.2295 H   0  0  0  0  0  0  0  0  0  0  0  0
  143.4954  134.1810  151.0884 H   0  0  0  0  0  0  0  0  0  0  0  0
  143.9726  134.9581  149.5971 H   0  0  0  0  0  0  0  0  0  0  0  0
  143.5053  132.5266  149.2513 H   0  0  0  0  0  0  0  0  0  0  0  0
  145.1606  132.9214  148.8536 H   0  0  0  0  0  0  0  0  0  0  0  0
  144.1850  131.6522  151.4576 H   0  0  0  0  0  0  0  0  0  0  0  0
  145.0856  130.8499  150.1948 H   0  0  0  0  0  0  0  0  0  0  0  0
  147.0266  132.3186  150.5858 H   0  0  0  0  0  0  0  0  0  0  0  0
  146.0513  131.0735  153.2004 H   0  0  0  0  0  0  0  0  0  0  0  0
  147.7280  131.4013  152.7699 H   0  0  0  0  0  0  0  0  0  0  0  0
  146.8184  130.1942  151.8809 H   0  0  0  0  0  0  0  0  0  0  0  0
  1  2  1  0  0  0  0
  1 19  1  0  0  0  0
  1 20  1  0  0  0  0
  1 21  1  0  0  0  0
  2  7  1  0  0  0  0
  2  3  2  0  0  0  0
  3  4  1  0  0  0  0
  4  5  1  0  0  0  0
  5  6  1  0  0  0  0
  5  7  2  0  0  0  0
  6 22  1  0  0  0  0
  6 23  1  0  0  0  0
  6 24  1  0  0  0  0
  7  8  1  0  0  0  0
  8  9  1  0  0  0  0
  8 25  1  0  0  0  0
  9 10  2  0  0  0  0
  9 11  1  0  0  0  0
 11 12  1  0  0  0  0
 11 26  1  0  0  0  0
 12 17  1  0  0  0  0
 12 13  1  0  0  0  0
 12 27  1  0  0  0  0
 13 14  1  0  0  0  0
 13 28  1  0  0  0  0
 13 29  1  0  0  0  0
 14 15  1  0  0  0  0
 14 30  1  0  0  0  0
 14 31  1  0  0  0  0
 15 16  1  0  0  0  0
 15 32  1  0  0  0  0
 15 33  1  0  0  0  0
 16 17  1  0  0  0  0
 16 34  1  0  0  0  0
 16 35  1  0  0  0  0
 17 18  1  0  0  0  0
 17 36  1  0  0  0  0
 18 37  1  0  0  0  0
 18 38  1  0  0  0  0
 18 39  1  0  0  0  0
M  END
> <s_m_source_file>
AV-unprocessed.smi

> <i_m_source_file_index>
1673

> <i_lp_mmshare_version>
43012

> <i_f3d_flags>
0

> <s_epik_input>
W0NIM11jMW5vYyhbQ0gzXSljMVtOSF1DKD1PKVtOSF1bQ0BASF0yW0NIMl1bQ0gyXVtDSDJdW0NIMl1bQ0BIXTJbQ0gzXQ==

> <s_epik_cmdline>
J2VwaWtfcHl0aG9uJywgJy1waCcsICc3LjAnLCAnLXRuJywgJzgnLCAnLW1hJywgJzIwMCcsICctbWV0YWxfYmluZGluZycsICctaW1hZScsICc8aW5maWxlLm1hZT4nLCAnLW9tYWUnLCAnPG91dGZpbGUubWFlPic=

> <r_lp_tautomer_probability>
1

> <r_epik_Ionization_Penalty>
4.01865e-05

> <r_epik_Ionization_Penalty_Charging>
0

> <r_epik_Ionization_Penalty_Neutral>
4.01865e-05

> <r_epik_State_Penalty>
-0

> <r_epik_Charging_Adjusted_Penalty>
0

> <i_epik_Tot_Q>
0

> <i_epik_Tot_abs_Q>
0

> <r_epik_Metal_State_Penalty>
-0

> <b_epik_Metal_Only>
0

> <s_lp_Force_Field>
OPLS_2005

> <r_lp_Energy>
12.0286

> <b_lp_Chiralities_Consistent>
1

> <s_lp_Variant>
AV-unprocessed.smi:1673-4

> <Gold.Version>
5.8.1

> <Gold.Id.Protein>
6NUR|6NUR_protein|mol2

> <Gold.PLP.Fitness>
37.1953

> <Gold.PLP.PLP>
-29.5680

> <Gold.PLP.part.hbond>
-3.5830

> <Gold.PLP.part.metal>
0.0000

> <Gold.PLP.part.buried>
-4.8399

> <Gold.PLP.part.nonpolar>
-21.6422

> <Gold.PLP.part.repulsive>
0.0402

> <Gold.PLP.ligand.clash>
0.0000

> <Gold.PLP.ligand.torsion>
0.4463

> <Gold.PLP.Chemscore.Hbond>
2.7520

> <Gold.PLP.Chemscore.CHOScore>
0.0000

> <Gold.PLP.Chemscore.Metal>
0.0000

> <Gold.Chemscore.Hbonds>
donor molecule, donor type, donor heavy atom, donor atom, acceptor molecule, acceptor atom, score
      L1  H     8    25       P1  7948  0.65
      L1  H    11    26       P1  7948  1.00

> <Gold.PLP.Chemscore.Internal.Correction>
0.2639

> <Gold.Rescore>
     Score         DG    S(hbond)    S(metal)    S(lipo)     H(rot)  DE(clash)    DE(int)     intcor
     14.99     -17.97       2.11        0.00      68.32       1.00       0.17       2.81       ----

> <Gold.Chemscore.Fitness>
14.9885

> <Gold.Chemscore.DG>
-17.9734

> <Gold.Chemscore.ZeroCoef>
-5.4800

> <Gold.Chemscore.Hbond>
2.1138

> <Gold.Chemscore.Metal>
0.0000

> <Gold.Chemscore.Lipo>
68.3192

> <Gold.Chemscore.Internal_Hbond>
0.0000

> <Gold.Chemscore.DEClash>
0.1739

> <Gold.Chemscore.DEInternal>
2.8109

> <Gold.Chemscore.Rot>
1.0000

> <Gold.Chemscore.Internal.Correction>
   9.000000E+99

> <Gold.Chemscore.Hbonds>
donor molecule, donor type, donor heavy atom, donor atom, acceptor molecule, acceptor atom, score
      L1  H     8    25       P1  7948  0.05
      L1  H    11    26       P1  7948  0.43

> <Gold.Chemscore.Hbond.Weighted>
-7.0600

> <Gold.Chemscore.Metal.Weighted>
-0.0000

> <Gold.Chemscore.Lipo.Weighted>
-7.9933

> <Gold.Chemscore.Internal_Hbond.Weighted>
0.0000

> <Gold.Chemscore.DEClash.Weighted>
0.1739

> <Gold.Chemscore.DEInternal.Weighted>
2.8109

> <Gold.Chemscore.Rot.Weighted>
2.5600

> <Gold.Chemscore.Internal.Correction.Weighted>
   9.000000E+99

> <Gold.Protein.RotatedTorsions>
[ 6907 6896 6895 6894 ] final -133.20 input  -60.11 | X-H torsion
[ 7974 7965 7964 7962 ] final  158.65 input  175.53 | X-H torsion
[ 8008 7997 7996 7995 ] final  136.74 input   59.86 | X-H torsion
[ 10167 10162 10161 10158 ] final -167.15 input  -65.29 | X-H torsion
[ 10718 10713 10712 10709 ] final  145.62 input   66.30 | X-H torsion
[ 10763 10752 10751 10750 ] final  119.07 input  -60.55 | X-H torsion
[ 11005 11000 10999 10996 ] final    5.38 input  -57.11 | X-H torsion

> <Gold.Protein.ActiveResidues>
 VAL166  LYS551  ARG553  GLY616  TRP617  ASP618  TYR619  PRO620  LYS621  CYS622 
 ASP623  PHE694  ASN695  SER759  ASP760  ASP761  ALA762  ILE779  LEU786  VAL792 
 PHE793  MET794  SER795  GLU796  ALA797  LYS798  CYS799  TRP800  GLU811  SER814 

> <Gold.Protein.RotatedAtoms>
  150.9713  133.6341  159.2737 H   0  0  0  0  0  0  0  0  0  0  0  0  # atno 6907 bound_to 6896
  151.3629  135.0906  159.9450 H   0  0  0  0  0  0  0  0  0  0  0  0  # atno 6908 bound_to 6896
  152.5183  133.9282  159.7622 H   0  0  0  0  0  0  0  0  0  0  0  0  # atno 6909 bound_to 6896
  144.7834  139.7507  143.6250 H   0  0  0  0  0  0  0  0  0  0  0  0  # atno 7974 bound_to 7965
  156.3003  140.2437  156.3795 H   0  0  0  0  0  0  0  0  0  0  0  0  # atno 8008 bound_to 7997
  154.8714  140.0416  157.1747 H   0  0  0  0  0  0  0  0  0  0  0  0  # atno 8009 bound_to 7997
  154.8791  140.2946  155.5440 H   0  0  0  0  0  0  0  0  0  0  0  0  # atno 8010 bound_to 7997
  139.6068  144.0896  152.1801 H   0  0  0  0  0  0  0  0  0  0  0  0  # atno 10167 bound_to 10162
  157.3430  131.0939  151.1066 H   0  0  0  0  0  0  0  0  0  0  0  0  # atno 10718 bound_to 10713
  153.5774  135.3490  155.2861 H   0  0  0  0  0  0  0  0  0  0  0  0  # atno 10763 bound_to 10752
  154.8673  135.4174  154.2658 H   0  0  0  0  0  0  0  0  0  0  0  0  # atno 10764 bound_to 10752
  153.3437  135.7051  153.6916 H   0  0  0  0  0  0  0  0  0  0  0  0  # atno 10765 bound_to 10752
  140.5714  134.0099  155.8010 H   0  0  0  0  0  0  0  0  0  0  0  0  # atno 11005 bound_to 11000
  146.2054  139.5375  142.9716 LP  0  0  0  0  0  0  0  0  0  0  0  0  # atno 17320 bound_to 7965
  145.5988  141.0358  143.2030 LP  0  0  0  0  0  0  0  0  0  0  0  0  # atno 17321 bound_to 7965
  140.0506  144.5936  150.7339 LP  0  0  0  0  0  0  0  0  0  0  0  0  # atno 17342 bound_to 10162
  140.7290  143.2668  151.4018 LP  0  0  0  0  0  0  0  0  0  0  0  0  # atno 17343 bound_to 10162
  157.2270  130.6507  149.5834 LP  0  0  0  0  0  0  0  0  0  0  0  0  # atno 17370 bound_to 10713
  155.9710  130.4611  150.6096 LP  0  0  0  0  0  0  0  0  0  0  0  0  # atno 17371 bound_to 10713
  141.1054  133.9702  157.3006 LP  0  0  0  0  0  0  0  0  0  0  0  0  # atno 17394 bound_to 11000
  139.9360  135.0196  156.8557 LP  0  0  0  0  0  0  0  0  0  0  0  0  # atno 17395 bound_to 11000

$$$$
