#       Name:                AV-unprocessed.smi:309
#       Creating user name   scv26
#       Creation time:       Thu Mar 26 22:19:31 2020


#       File generated by GOLD software.
#

@<TRIPOS>MOLECULE
AV-unprocessed.smi:309
    41    43     1
SMALL
NO_CHARGES


@<TRIPOS>ATOM
      1 ****        -0.5468   4.0678  -0.1801 O.3            1 S1                 0.0000
      2 ****        -0.3375   3.5010   1.0938 C.3            1 S1                 0.0000
      3 ****        -0.7672   2.0715   1.1558 C.2            1 S1                 0.0000
      4 ****        -2.0599   1.6456   1.2175 N.pl3          1 S1                 1.0000
      5 ****        -2.0993   0.2529   1.2629 C.ar           1 S1                 0.0000
      6 ****        -3.1778  -0.6239   1.3268 C.ar           1 S1                 0.0000
      7 ****        -2.8734  -2.0003   1.3588 C.ar           1 S1                 0.0000
      8 ****        -1.5400  -2.4569   1.3316 C.ar           1 S1                 0.0000
      9 ****        -0.4554  -1.5576   1.2711 C.ar           1 S1                 0.0000
     10 ****        -0.7635  -0.1969   1.2316 C.ar           1 S1                 0.0000
     11 ****         0.0263   0.9588   1.1503 N.pl3          1 S1                 0.0000
     12 ****         1.4951   0.8283   1.0767 C.3            1 S1                 0.0000
     13 ****         2.0542   0.8249  -0.3658 C.3            1 S1                 0.0000
     14 ****         1.7401   2.0467  -1.0061 O.3            1 S1                 0.0000
     15 ****         1.6078  -0.3988  -1.1660 C.ar           1 S1                 0.0000
     16 ****         0.4468  -0.3289  -1.9715 C.ar           1 S1                 0.0000
     17 ****        -0.0016  -1.4555  -2.6855 C.ar           1 S1                 0.0000
     18 ****        -1.4336  -1.3548  -3.6418 Cl             1 S1                 0.0000
     19 ****         0.7127  -2.6647  -2.6110 C.ar           1 S1                 0.0000
     20 ****         1.8697  -2.7462  -1.8147 C.ar           1 S1                 0.0000
     21 ****         2.3173  -1.6240  -1.0892 C.ar           1 S1                 0.0000
     22 ****         3.7234  -1.7938  -0.0979 Cl             1 S1                 0.0000
     23 ****         0.0274   3.6355  -0.7945 H              1 S1                 0.0000
     24 ****         0.7154   3.5937   1.3575 H              1 S1                 0.0000
     25 ****        -0.9016   4.0737   1.8301 H              1 S1                 0.0000
     26 ****        -4.2001  -0.2757   1.3487 H              1 S1                 0.0000
     27 ****        -3.6782  -2.7195   1.4058 H              1 S1                 0.0000
     28 ****        -1.3443  -3.5191   1.3574 H              1 S1                 0.0000
     29 ****         0.5598  -1.9239   1.2476 H              1 S1                 0.0000
     30 ****         1.9231   1.6606   1.6351 H              1 S1                 0.0000
     31 ****         1.8031  -0.0676   1.6158 H              1 S1                 0.0000
     32 ****         3.1422   0.8167  -0.3066 H              1 S1                 0.0000
     33 ****         2.2122   2.0851  -1.8243 H              1 S1                 0.0000
     34 ****        -0.1219   0.5877  -2.0307 H              1 S1                 0.0000
     35 ****         0.3722  -3.5313  -3.1586 H              1 S1                 0.0000
     36 ****         2.4121  -3.6785  -1.7547 H              1 S1                 0.0000
     37 ****        -2.8570   2.2690   1.2243 H              1 S1                 0.0000
     38 ****        -0.3394   5.0456  -0.1536 LP             1 S1                 0.0000
     39 ****        -1.4988   3.9364  -0.4566 LP             1 S1                 0.0000
     40 ****         2.0114   2.8127  -0.4234 LP             1 S1                 0.0000
     41 ****         0.7566   2.0930  -1.1812 LP             1 S1                 0.0000
@<TRIPOS>BOND
    1    1    2 1     
    2    1   23 1     
    3    2    3 1     
    4    2   24 1     
    5    2   25 1     
    6    3   11 1     
    7    3    4 2     
    8    4    5 1     
    9    4   37 1     
   10    5   10 ar    
   11    5    6 ar    
   12    6    7 ar    
   13    6   26 1     
   14    7    8 ar    
   15    7   27 1     
   16    8    9 ar    
   17    8   28 1     
   18    9   10 ar    
   19    9   29 1     
   20   10   11 1     
   21   11   12 1     
   22   12   13 1     
   23   12   30 1     
   24   12   31 1     
   25   13   14 1     
   26   13   15 1     
   27   13   32 1     
   28   14   33 1     
   29   15   21 ar    
   30   15   16 ar    
   31   16   17 ar    
   32   16   34 1     
   33   17   18 1     
   34   17   19 ar    
   35   19   20 ar    
   36   19   35 1     
   37   20   21 ar    
   38   20   36 1     
   39   21   22 1     
   40    1   38 1     
   41    1   39 1     
   42   14   40 1     
   43   14   41 1     
@<TRIPOS>SUBSTRUCTURE
      1 S1             1
@<TRIPOS>SET
LONE_PAIRS      STATIC     ATOMS    <user>   **** ""
4 38 39 40 41
DONOR_HYDROGENS      STATIC     ATOMS    <user>   **** ""
3 23 37 33
ATOM$BLUE        STATIC     ATOMS    COLORGROUP SYSTEM
4 38 39 40 41
ATOM$RED        STATIC     ATOMS    COLORGROUP SYSTEM
3 23 37 33
