AV-unprocessed.smi:3056|AV-procd|sdf|11650|dock3
  -GOLD-   2272017 43D 1   1.00000     0.00000
 Structure written by MMmdl.
 48 49  0  0  0  0  0  0  0  0  2 V2000
  140.8315  136.8011  153.6474 C   0  0  0  0  0  0  0  0  0  0  0  0
  142.2266  136.3508  153.3228 C   0  0  0  0  0  0  0  0  0  0  0  0
  142.8552  135.1240  153.6779 C   0  0  0  0  0  0  0  0  0  0  0  0
  144.1024  135.0416  153.2446 N   0  0  0  0  0  0  0  0  0  0  0  0
  144.3121  136.2014  152.5841 N   0  0  0  0  0  0  0  0  0  0  0  0
  145.6199  136.4688  151.9969 C   0  0  1  0  0  0  0  0  0  0  0  0
  145.5648  136.2332  150.4751 C   0  0  0  0  0  0  0  0  0  0  0  0
  146.1368  137.8814  152.3871 C   0  0  2  0  0  0  0  0  0  0  0  0
  146.6973  138.6550  151.1814 C   0  0  0  0  0  0  0  0  0  0  0  0
  147.2034  137.7895  153.4156 N   0  3  0  0  0  0  0  0  0  0  0  0
  147.7834  139.0756  153.8702 C   0  0  0  0  0  0  0  0  0  0  0  0
  149.2144  138.9474  154.4190 C   0  0  0  0  0  0  0  0  0  0  0  0
  149.7815  137.8553  154.3545 O   0  0  0  0  0  0  0  0  0  0  0  0
  149.8049  140.0367  154.9657 N   0  0  0  0  0  0  0  0  0  0  0  0
  149.1873  141.3537  155.1488 C   0  0  0  0  0  0  0  0  0  0  0  0
  149.0413  141.6068  156.6594 C   0  0  0  0  0  0  0  0  0  0  0  0
  150.3199  141.5230  157.2855 O   0  0  0  0  0  0  0  0  0  0  0  0
  150.9660  140.2643  157.0968 C   0  0  2  0  0  0  0  0  0  0  0  0
  152.3100  140.2989  157.8322 C   0  0  0  0  0  0  0  0  0  0  0  0
  151.1324  140.0046  155.5856 C   0  0  0  0  0  0  0  0  0  0  0  0
  143.1962  137.0144  152.6261 C   0  0  0  0  0  0  0  0  0  0  0  0
  140.2200  135.9836  154.0300 H   0  0  0  0  0  0  0  0  0  0  0  0
  140.3219  137.1983  152.7694 H   0  0  0  0  0  0  0  0  0  0  0  0
  140.8285  137.5856  154.4042 H   0  0  0  0  0  0  0  0  0  0  0  0
  142.4459  134.2978  154.2409 H   0  0  0  0  0  0  0  0  0  0  0  0
  146.3149  135.7313  152.4033 H   0  0  0  0  0  0  0  0  0  0  0  0
  146.5602  136.2286  150.0319 H   0  0  0  0  0  0  0  0  0  0  0  0
  144.9786  137.0009  149.9695 H   0  0  0  0  0  0  0  0  0  0  0  0
  145.1147  135.2664  150.2458 H   0  0  0  0  0  0  0  0  0  0  0  0
  145.3055  138.4649  152.7865 H   0  0  0  0  0  0  0  0  0  0  0  0
  145.9253  138.8676  150.4423 H   0  0  0  0  0  0  0  0  0  0  0  0
  147.4937  138.0984  150.6859 H   0  0  0  0  0  0  0  0  0  0  0  0
  147.1087  139.6165  151.4902 H   0  0  0  0  0  0  0  0  0  0  0  0
  146.8159  137.3105  154.2162 H   0  0  0  0  0  0  0  0  0  0  0  0
  147.7547  139.8069  153.0636 H   0  0  0  0  0  0  0  0  0  0  0  0
  147.1450  139.4510  154.6704 H   0  0  0  0  0  0  0  0  0  0  0  0
  149.8279  142.1161  154.7030 H   0  0  0  0  0  0  0  0  0  0  0  0
  148.2186  141.4617  154.6640 H   0  0  0  0  0  0  0  0  0  0  0  0
  148.6251  142.5982  156.8383 H   0  0  0  0  0  0  0  0  0  0  0  0
  148.3571  140.8859  157.1099 H   0  0  0  0  0  0  0  0  0  0  0  0
  150.3484  139.4797  157.5374 H   0  0  0  0  0  0  0  0  0  0  0  0
  152.8419  139.3535  157.7223 H   0  0  0  0  0  0  0  0  0  0  0  0
  152.1661  140.4766  158.8982 H   0  0  0  0  0  0  0  0  0  0  0  0
  152.9514  141.0915  157.4458 H   0  0  0  0  0  0  0  0  0  0  0  0
  151.6511  139.0584  155.4255 H   0  0  0  0  0  0  0  0  0  0  0  0
  151.7619  140.7730  155.1340 H   0  0  0  0  0  0  0  0  0  0  0  0
  143.1840  137.9917  152.1663 H   0  0  0  0  0  0  0  0  0  0  0  0
  147.9592  137.2322  153.0438 H   0  0  0  0  0  0  0  0  0  0  0  0
  1  2  1  0  0  0  0
  1 22  1  0  0  0  0
  1 23  1  0  0  0  0
  1 24  1  0  0  0  0
  2 21  2  0  0  0  0
  2  3  1  0  0  0  0
  3  4  2  0  0  0  0
  3 25  1  0  0  0  0
  4  5  1  0  0  0  0
  5  6  1  0  0  0  0
  5 21  1  0  0  0  0
  6  7  1  0  0  0  0
  6  8  1  0  0  0  0
  6 26  1  0  0  0  0
  7 27  1  0  0  0  0
  7 28  1  0  0  0  0
  7 29  1  0  0  0  0
  8  9  1  0  0  0  0
  8 10  1  0  0  0  0
  8 30  1  0  0  0  0
  9 31  1  0  0  0  0
  9 32  1  0  0  0  0
  9 33  1  0  0  0  0
 10 11  1  0  0  0  0
 10 34  1  0  0  0  0
 10 48  1  0  0  0  0
 11 12  1  0  0  0  0
 11 35  1  0  0  0  0
 11 36  1  0  0  0  0
 12 13  2  0  0  0  0
 12 14  1  0  0  0  0
 14 20  1  0  0  0  0
 14 15  1  0  0  0  0
 15 16  1  0  0  0  0
 15 37  1  0  0  0  0
 15 38  1  0  0  0  0
 16 17  1  0  0  0  0
 16 39  1  0  0  0  0
 16 40  1  0  0  0  0
 17 18  1  0  0  0  0
 18 19  1  0  0  0  0
 18 20  1  0  0  0  0
 18 41  1  0  0  0  0
 19 42  1  0  0  0  0
 19 43  1  0  0  0  0
 19 44  1  0  0  0  0
 20 45  1  0  0  0  0
 20 46  1  0  0  0  0
 21 47  1  0  0  0  0
M  CHG  1  10   1
M  END
> <s_m_source_file>
AV-unprocessed.smi

> <i_m_source_file_index>
3056

> <i_lp_mmshare_version>
43012

> <i_f3d_flags>
0

> <s_epik_input>
W0NIM11jMVtjSF1ubihbY0hdMSlbQ0BIXShbQ0gzXSlbQ0BIXShbQ0gzXSlbTkhdW0NIMl1DKD1PKU4yW0NIMl1bQ0gyXU9bQ0BASF0oW0NIM10pW0NIMl0y

> <s_epik_cmdline>
J2VwaWtfcHl0aG9uJywgJy1waCcsICc3LjAnLCAnLXRuJywgJzgnLCAnLW1hJywgJzIwMCcsICctbWV0YWxfYmluZGluZycsICctaW1hZScsICc8aW5maWxlLm1hZT4nLCAnLW9tYWUnLCAnPG91dGZpbGUubWFlPic=

> <r_lp_tautomer_probability>
1

> <r_epik_Ionization_Penalty>
0.233715

> <r_epik_Ionization_Penalty_Charging>
0.233698

> <r_epik_Ionization_Penalty_Neutral>
1.68157e-05

> <r_epik_State_Penalty>
0.225221

> <r_epik_Charging_Adjusted_Penalty>
0.458919

> <i_epik_Tot_Q>
1

> <i_epik_Tot_abs_Q>
1

> <r_epik_Metal_State_Penalty>
0.225535

> <b_epik_Metal_Only>
0

> <s_lp_Force_Field>
OPLS_2005

> <r_lp_Energy>
28.2676

> <b_lp_Chiralities_Consistent>
1

> <s_lp_Variant>
AV-unprocessed.smi:3056-6

> <Gold.Version>
5.8.1

> <Gold.Id.Protein>
6NUR|6NUR_protein|mol2

> <Gold.PLP.Fitness>
45.6224

> <Gold.PLP.PLP>
-34.5119

> <Gold.PLP.part.hbond>
-1.0000

> <Gold.PLP.part.metal>
0.0000

> <Gold.PLP.part.buried>
0.1194

> <Gold.PLP.part.nonpolar>
-34.7316

> <Gold.PLP.part.repulsive>
0.3706

> <Gold.PLP.ligand.clash>
0.0000

> <Gold.PLP.ligand.torsion>
1.9219

> <Gold.PLP.Chemscore.Hbond>
2.0000

> <Gold.PLP.Chemscore.CHOScore>
2.9328

> <Gold.PLP.Chemscore.Metal>
0.0000

> <Gold.Chemscore.Hbonds>
donor molecule, donor type, donor heavy atom, donor atom, acceptor molecule, acceptor atom, score
      L1  H    10    48       P1  7948  2.00
      L1  C     3    25       P1 10957  0.85
      L1  C    21    47       P1 10171  0.96
      L1  C    21    47       P1 10175  1.00

> <Gold.PLP.Chemscore.Internal.Correction>
0.1559

> <Gold.Rescore>
     Score         DG    S(hbond)    S(metal)    S(lipo)     H(rot)  DE(clash)    DE(int)     intcor
     11.14     -14.26       0.98        0.00      84.91       1.74       0.96       2.16       ----

> <Gold.Chemscore.Fitness>
11.1434

> <Gold.Chemscore.DG>
-14.2576

> <Gold.Chemscore.ZeroCoef>
-5.4800

> <Gold.Chemscore.Hbond>
0.9839

> <Gold.Chemscore.Metal>
0.0000

> <Gold.Chemscore.Lipo>
84.9061

> <Gold.Chemscore.Internal_Hbond>
0.0000

> <Gold.Chemscore.DEClash>
0.9562

> <Gold.Chemscore.DEInternal>
2.1580

> <Gold.Chemscore.Rot>
1.7354

> <Gold.Chemscore.Internal.Correction>
   9.000000E+99

> <Gold.Chemscore.Hbonds>
donor molecule, donor type, donor heavy atom, donor atom, acceptor molecule, acceptor atom, score
      L1  H    10    48       P1  7948  1.00

> <Gold.Chemscore.Hbond.Weighted>
-3.2862

> <Gold.Chemscore.Metal.Weighted>
-0.0000

> <Gold.Chemscore.Lipo.Weighted>
-9.9340

> <Gold.Chemscore.Internal_Hbond.Weighted>
0.0000

> <Gold.Chemscore.DEClash.Weighted>
0.9562

> <Gold.Chemscore.DEInternal.Weighted>
2.1580

> <Gold.Chemscore.Rot.Weighted>
4.4426

> <Gold.Chemscore.Internal.Correction.Weighted>
   9.000000E+99

> <Gold.Protein.RotatedTorsions>
[ 6907 6896 6895 6894 ] final  -51.27 input  -60.11 | X-H torsion
[ 7974 7965 7964 7962 ] final  -54.96 input  175.53 | X-H torsion
[ 8008 7997 7996 7995 ] final  -56.03 input   59.86 | X-H torsion
[ 10167 10162 10161 10158 ] final  138.82 input  -65.29 | X-H torsion
[ 10718 10713 10712 10709 ] final  -62.25 input   66.30 | X-H torsion
[ 10763 10752 10751 10750 ] final  -99.31 input  -60.55 | X-H torsion
[ 11005 11000 10999 10996 ] final  -17.46 input  -57.11 | X-H torsion

> <Gold.Protein.ActiveResidues>
 VAL166  LYS551  ARG553  GLY616  TRP617  ASP618  TYR619  PRO620  LYS621  CYS622 
 ASP623  PHE694  ASN695  SER759  ASP760  ASP761  ALA762  ILE779  LEU786  VAL792 
 PHE793  MET794  SER795  GLU796  ALA797  LYS798  CYS799  TRP800  GLU811  SER814 

> <Gold.Protein.RotatedAtoms>
  150.8627  134.7983  159.7094 H   0  0  0  0  0  0  0  0  0  0  0  0  # atno 6907 bound_to 6896
  152.4659  134.5074  159.9753 H   0  0  0  0  0  0  0  0  0  0  0  0  # atno 6908 bound_to 6896
  151.5175  133.3434  159.2931 H   0  0  0  0  0  0  0  0  0  0  0  0  # atno 6909 bound_to 6896
  145.8796  140.8154  142.9846 H   0  0  0  0  0  0  0  0  0  0  0  0  # atno 7974 bound_to 7965
  154.4215  140.1139  156.5571 H   0  0  0  0  0  0  0  0  0  0  0  0  # atno 8008 bound_to 7997
  155.6349  140.3496  155.4676 H   0  0  0  0  0  0  0  0  0  0  0  0  # atno 8009 bound_to 7997
  155.9918  140.1181  157.0621 H   0  0  0  0  0  0  0  0  0  0  0  0  # atno 8010 bound_to 7997
  139.5098  144.6331  151.5766 H   0  0  0  0  0  0  0  0  0  0  0  0  # atno 10167 bound_to 10162
  156.0868  130.4207  150.1108 H   0  0  0  0  0  0  0  0  0  0  0  0  # atno 10718 bound_to 10713
  154.7487  135.4977  153.9251 H   0  0  0  0  0  0  0  0  0  0  0  0  # atno 10763 bound_to 10752
  153.1120  135.6711  153.9491 H   0  0  0  0  0  0  0  0  0  0  0  0  # atno 10764 bound_to 10752
  153.9248  135.3084  155.3426 H   0  0  0  0  0  0  0  0  0  0  0  0  # atno 10765 bound_to 10752
  140.8171  133.8097  155.9621 H   0  0  0  0  0  0  0  0  0  0  0  0  # atno 11005 bound_to 11000
  144.6727  140.1364  143.7440 LP  0  0  0  0  0  0  0  0  0  0  0  0  # atno 17320 bound_to 7965
  145.9039  139.2446  143.1477 LP  0  0  0  0  0  0  0  0  0  0  0  0  # atno 17321 bound_to 7965
  140.6071  143.9505  150.6426 LP  0  0  0  0  0  0  0  0  0  0  0  0  # atno 17342 bound_to 10162
  140.2735  143.3439  152.1216 LP  0  0  0  0  0  0  0  0  0  0  0  0  # atno 17343 bound_to 10162
  156.9128  130.9657  151.3560 LP  0  0  0  0  0  0  0  0  0  0  0  0  # atno 17370 bound_to 10713
  157.6004  130.8508  149.8794 LP  0  0  0  0  0  0  0  0  0  0  0  0  # atno 17371 bound_to 10713
  140.9138  134.2227  157.4969 LP  0  0  0  0  0  0  0  0  0  0  0  0  # atno 17394 bound_to 11000
  139.8710  134.9762  156.4912 LP  0  0  0  0  0  0  0  0  0  0  0  0  # atno 17395 bound_to 11000

$$$$
