AV-unprocessed.smi:1547|AV-procd|sdf|6220|dock5
  -GOLD-   22720 6393D 1   1.00000     0.00000
 Structure written by MMmdl.
 40 41  0  0  0  0  0  0  0  0  2 V2000
  150.9230  142.1329  156.4416 C   0  0  0  0  0  0  0  0  0  0  0  0
  150.5914  140.9292  155.6098 C   0  0  0  0  0  0  0  0  0  0  0  0
  149.3754  140.6458  154.9227 C   0  0  0  0  0  0  0  0  0  0  0  0
  149.6336  139.4348  154.3405 C   0  0  0  0  0  0  0  0  0  0  0  0
  148.8270  138.6758  153.5516 N   0  0  0  0  0  0  0  0  0  0  0  0
  147.4859  138.6960  153.4571 C   0  0  0  0  0  0  0  0  0  0  0  0
  146.7326  139.4149  154.1144 O   0  0  0  0  0  0  0  0  0  0  0  0
  147.0488  137.8207  152.5401 N   0  0  0  0  0  0  0  0  0  0  0  0
  145.6465  137.6006  152.2053 C   0  0  0  0  0  0  0  0  0  0  0  0
  145.4143  136.1897  151.6325 C   0  0  0  0  0  0  0  0  0  0  0  0
  146.4562  135.2336  152.0730 N   0  3  0  0  0  0  0  0  0  0  0  0
  146.4522  134.9216  153.5237 C   0  0  0  0  0  0  0  0  0  0  0  0
  146.6229  133.4025  153.6552 C   0  0  0  0  0  0  0  0  0  0  0  0
  147.1115  132.9522  152.2826 C   0  0  0  0  0  0  0  0  0  0  0  0
  146.4412  133.9492  151.3434 C   0  0  0  0  0  0  0  0  0  0  0  0
  150.9139  139.0477  154.6683 N   0  0  0  0  0  0  0  0  0  0  0  0
  151.6386  137.8488  154.2942 C   0  0  0  0  0  0  0  0  0  0  0  0
  151.5018  139.9746  155.4554 N   0  0  0  0  0  0  0  0  0  0  0  0
  150.0980  142.8455  156.4499 H   0  0  0  0  0  0  0  0  0  0  0  0
  151.8020  142.6484  156.0542 H   0  0  0  0  0  0  0  0  0  0  0  0
  151.1281  141.8512  157.4746 H   0  0  0  0  0  0  0  0  0  0  0  0
  148.4787  141.2454  154.8775 H   0  0  0  0  0  0  0  0  0  0  0  0
  149.3064  138.0160  152.9569 H   0  0  0  0  0  0  0  0  0  0  0  0
  147.7315  137.2649  152.0453 H   0  0  0  0  0  0  0  0  0  0  0  0
  145.0556  137.7355  153.1116 H   0  0  0  0  0  0  0  0  0  0  0  0
  145.3179  138.3696  151.5043 H   0  0  0  0  0  0  0  0  0  0  0  0
  144.4320  135.8070  151.9140 H   0  0  0  0  0  0  0  0  0  0  0  0
  145.4280  136.2437  150.5429 H   0  0  0  0  0  0  0  0  0  0  0  0
  147.2801  135.4510  153.9961 H   0  0  0  0  0  0  0  0  0  0  0  0
  145.5322  135.2443  154.0141 H   0  0  0  0  0  0  0  0  0  0  0  0
  147.3058  133.1226  154.4580 H   0  0  0  0  0  0  0  0  0  0  0  0
  145.6564  132.9430  153.8666 H   0  0  0  0  0  0  0  0  0  0  0  0
  148.1960  133.0526  152.2212 H   0  0  0  0  0  0  0  0  0  0  0  0
  146.8536  131.9168  152.0578 H   0  0  0  0  0  0  0  0  0  0  0  0
  145.4105  133.6405  151.1592 H   0  0  0  0  0  0  0  0  0  0  0  0
  146.9478  134.0264  150.3809 H   0  0  0  0  0  0  0  0  0  0  0  0
  151.6016  137.7195  153.2124 H   0  0  0  0  0  0  0  0  0  0  0  0
  151.1828  136.9823  154.7734 H   0  0  0  0  0  0  0  0  0  0  0  0
  152.6821  137.9178  154.6046 H   0  0  0  0  0  0  0  0  0  0  0  0
  147.3533  135.6533  151.8755 H   0  0  0  0  0  0  0  0  0  0  0  0
  1  2  1  0  0  0  0
  1 19  1  0  0  0  0
  1 20  1  0  0  0  0
  1 21  1  0  0  0  0
  2 18  2  0  0  0  0
  2  3  1  0  0  0  0
  3  4  2  0  0  0  0
  3 22  1  0  0  0  0
  4  5  1  0  0  0  0
  4 16  1  0  0  0  0
  5  6  1  0  0  0  0
  5 23  1  0  0  0  0
  6  7  2  0  0  0  0
  6  8  1  0  0  0  0
  8  9  1  0  0  0  0
  8 24  1  0  0  0  0
  9 10  1  0  0  0  0
  9 25  1  0  0  0  0
  9 26  1  0  0  0  0
 10 11  1  0  0  0  0
 10 27  1  0  0  0  0
 10 28  1  0  0  0  0
 11 15  1  0  0  0  0
 11 12  1  0  0  0  0
 11 40  1  0  0  0  0
 12 13  1  0  0  0  0
 12 29  1  0  0  0  0
 12 30  1  0  0  0  0
 13 14  1  0  0  0  0
 13 31  1  0  0  0  0
 13 32  1  0  0  0  0
 14 15  1  0  0  0  0
 14 33  1  0  0  0  0
 14 34  1  0  0  0  0
 15 35  1  0  0  0  0
 15 36  1  0  0  0  0
 16 17  1  0  0  0  0
 16 18  1  0  0  0  0
 17 37  1  0  0  0  0
 17 38  1  0  0  0  0
 17 39  1  0  0  0  0
M  CHG  1  11   1
M  END
> <s_m_source_file>
AV-unprocessed.smi

> <i_m_source_file_index>
1547

> <i_lp_mmshare_version>
43012

> <i_f3d_flags>
0

> <s_epik_input>
W0NIM11jMVtjSF1jKG4objEpW0NIM10pW05IXUMoPU8pW05IXVtDSDJdW0NIMl1OMltDSDJdW0NIMl1bQ0gyXVtDSDJdMg==

> <s_epik_cmdline>
J2VwaWtfcHl0aG9uJywgJy1waCcsICc3LjAnLCAnLXRuJywgJzgnLCAnLW1hJywgJzIwMCcsICctbWV0YWxfYmluZGluZycsICctaW1hZScsICc8aW5maWxlLm1hZT4nLCAnLW9tYWUnLCAnPG91dGZpbGUubWFlPic=

> <r_lp_tautomer_probability>
1

> <r_epik_Ionization_Penalty>
0.00226577

> <r_epik_Ionization_Penalty_Charging>
0.00218899

> <r_epik_Ionization_Penalty_Neutral>
7.67743e-05

> <r_epik_State_Penalty>
0.00150446

> <r_epik_Charging_Adjusted_Penalty>
0.00369345

> <i_epik_Tot_Q>
1

> <i_epik_Tot_abs_Q>
1

> <r_epik_Metal_State_Penalty>
-0

> <b_epik_Metal_Only>
0

> <s_lp_Force_Field>
OPLS_2005

> <r_lp_Energy>
27.1917

> <b_lp_Chiralities_Consistent>
1

> <s_lp_Variant>
AV-unprocessed.smi:1547-1

> <Gold.Version>
5.8.1

> <Gold.Id.Protein>
6NUR|6NUR_protein|mol2

> <Gold.PLP.Fitness>
44.3175

> <Gold.PLP.PLP>
-34.0194

> <Gold.PLP.part.hbond>
-4.7277

> <Gold.PLP.part.metal>
0.0000

> <Gold.PLP.part.buried>
-1.6429

> <Gold.PLP.part.nonpolar>
-28.6389

> <Gold.PLP.part.repulsive>
0.3437

> <Gold.PLP.ligand.clash>
0.0000

> <Gold.PLP.ligand.torsion>
0.5648

> <Gold.PLP.Chemscore.Hbond>
3.7956

> <Gold.PLP.Chemscore.CHOScore>
0.0000

> <Gold.PLP.Chemscore.Metal>
0.0000

> <Gold.Chemscore.Hbonds>
donor molecule, donor type, donor heavy atom, donor atom, acceptor molecule, acceptor atom, score
      L1  H     5    23       P1  7948  0.73
      L1  H     8    24       P1  7948  1.00
      L1  H    11    40       P1  7948  2.00

> <Gold.PLP.Chemscore.Internal.Correction>
0.0408

> <Gold.Rescore>
     Score         DG    S(hbond)    S(metal)    S(lipo)     H(rot)  DE(clash)    DE(int)     intcor
     15.71     -17.88       2.73        0.00      61.25       1.52       0.59       1.58       ----

> <Gold.Chemscore.Fitness>
15.7119

> <Gold.Chemscore.DG>
-17.8780

> <Gold.Chemscore.ZeroCoef>
-5.4800

> <Gold.Chemscore.Hbond>
2.7282

> <Gold.Chemscore.Metal>
0.0000

> <Gold.Chemscore.Lipo>
61.2538

> <Gold.Chemscore.Internal_Hbond>
0.0000

> <Gold.Chemscore.DEClash>
0.5866

> <Gold.Chemscore.DEInternal>
1.5795

> <Gold.Chemscore.Rot>
1.5160

> <Gold.Chemscore.Internal.Correction>
   9.000000E+99

> <Gold.Chemscore.Hbonds>
donor molecule, donor type, donor heavy atom, donor atom, acceptor molecule, acceptor atom, score
      L1  H     5    23       P1  7948  0.67
      L1  H     8    24       P1  7948  0.98
      L1  H    11    40       P1  7948  1.00

> <Gold.Chemscore.Hbond.Weighted>
-9.1122

> <Gold.Chemscore.Metal.Weighted>
-0.0000

> <Gold.Chemscore.Lipo.Weighted>
-7.1667

> <Gold.Chemscore.Internal_Hbond.Weighted>
0.0000

> <Gold.Chemscore.DEClash.Weighted>
0.5866

> <Gold.Chemscore.DEInternal.Weighted>
1.5795

> <Gold.Chemscore.Rot.Weighted>
3.8809

> <Gold.Chemscore.Internal.Correction.Weighted>
   9.000000E+99

> <Gold.Protein.RotatedTorsions>
[ 6907 6896 6895 6894 ] final   63.43 input  -60.11 | X-H torsion
[ 7974 7965 7964 7962 ] final -125.43 input  175.53 | X-H torsion
[ 8008 7997 7996 7995 ] final    5.22 input   59.86 | X-H torsion
[ 10167 10162 10161 10158 ] final   62.67 input  -65.29 | X-H torsion
[ 10718 10713 10712 10709 ] final   42.47 input   66.30 | X-H torsion
[ 10763 10752 10751 10750 ] final   92.94 input  -60.55 | X-H torsion
[ 11005 11000 10999 10996 ] final -145.62 input  -57.11 | X-H torsion

> <Gold.Protein.ActiveResidues>
 VAL166  LYS551  ARG553  GLY616  TRP617  ASP618  TYR619  PRO620  LYS621  CYS622 
 ASP623  PHE694  ASN695  SER759  ASP760  ASP761  ALA762  ILE779  LEU786  VAL792 
 PHE793  MET794  SER795  GLU796  ALA797  LYS798  CYS799  TRP800  GLU811  SER814 

> <Gold.Protein.RotatedAtoms>
  152.4253  134.5880  159.9966 H   0  0  0  0  0  0  0  0  0  0  0  0  # atno 6907 bound_to 6896
  151.6019  133.3350  159.3057 H   0  0  0  0  0  0  0  0  0  0  0  0  # atno 6908 bound_to 6896
  150.8142  134.7351  159.6780 H   0  0  0  0  0  0  0  0  0  0  0  0  # atno 6909 bound_to 6896
  144.9977  140.7791  143.4515 H   0  0  0  0  0  0  0  0  0  0  0  0  # atno 7974 bound_to 7965
  154.7257  140.2720  155.6501 H   0  0  0  0  0  0  0  0  0  0  0  0  # atno 8008 bound_to 7997
  156.2836  140.2725  156.1867 H   0  0  0  0  0  0  0  0  0  0  0  0  # atno 8009 bound_to 7997
  155.0448  140.0371  157.2512 H   0  0  0  0  0  0  0  0  0  0  0  0  # atno 8010 bound_to 7997
  140.1414  144.4550  150.6809 H   0  0  0  0  0  0  0  0  0  0  0  0  # atno 10167 bound_to 10162
  157.4052  130.7882  149.7382 H   0  0  0  0  0  0  0  0  0  0  0  0  # atno 10718 bound_to 10713
  153.2247  135.4343  155.0529 H   0  0  0  0  0  0  0  0  0  0  0  0  # atno 10763 bound_to 10752
  154.8267  135.3365  154.6875 H   0  0  0  0  0  0  0  0  0  0  0  0  # atno 10764 bound_to 10752
  153.7305  135.7011  153.5046 H   0  0  0  0  0  0  0  0  0  0  0  0  # atno 10765 bound_to 10752
  140.7904  134.2975  157.5015 H   0  0  0  0  0  0  0  0  0  0  0  0  # atno 11005 bound_to 11000
  145.2197  139.2165  143.5099 LP  0  0  0  0  0  0  0  0  0  0  0  0  # atno 17320 bound_to 7965
  146.3445  140.2052  142.8589 LP  0  0  0  0  0  0  0  0  0  0  0  0  # atno 17321 bound_to 7965
  140.6758  143.2304  151.5511 LP  0  0  0  0  0  0  0  0  0  0  0  0  # atno 17342 bound_to 10162
  139.5470  144.2495  152.1461 LP  0  0  0  0  0  0  0  0  0  0  0  0  # atno 17343 bound_to 10162
  155.9834  130.4000  150.3364 LP  0  0  0  0  0  0  0  0  0  0  0  0  # atno 17370 bound_to 10713
  157.1496  131.0317  151.2891 LP  0  0  0  0  0  0  0  0  0  0  0  0  # atno 17371 bound_to 10713
  139.8732  134.9371  156.3678 LP  0  0  0  0  0  0  0  0  0  0  0  0  # atno 17394 bound_to 11000
  140.9395  133.7524  156.0128 LP  0  0  0  0  0  0  0  0  0  0  0  0  # atno 17395 bound_to 11000

$$$$
