#       Name:                AV-unprocessed.smi:2258
#       Creating user name   scv26
#       Creation time:       Fri Mar 27 12:33:35 2020


#       File generated by GOLD software.
#

@<TRIPOS>MOLECULE
AV-unprocessed.smi:2258
    45    47     1
SMALL
NO_CHARGES


@<TRIPOS>ATOM
      1 ****        -6.6006   1.7584   1.2566 C.3            1 S1                 0.0000
      2 ****        -5.2496   2.3025   1.3982 N.am           1 S1                 0.0000
      3 ****        -5.1056   3.6666   1.6871 C.2            1 S1                 0.0000
      4 ****        -3.8849   4.2128   1.8301 C.2            1 S1                 0.0000
      5 ****        -2.7341   3.4367   1.6936 N.2            1 S1                 0.0000
      6 ****        -2.7914   2.1640   1.4145 C.2            1 S1                 0.0000
      7 ****        -1.6565   1.3455   1.2812 N.am           1 S1                 0.0000
      8 ****        -0.3454   1.6591   1.1550 C.2            1 S1                 0.0000
      9 ****         0.0235   2.8313   1.1967 O.2            1 S1                 0.0000
     10 ****         0.5193   0.6340   1.0446 N.am           1 S1                 0.0000
     11 ****         1.9678   0.7422   0.8922 C.3            1 S1                 0.0000
     12 ****         2.4195   0.7563  -0.5794 C.3            1 S1                 0.0000
     13 ****         1.9125  -0.5348  -1.2389 C.3            1 S1                 0.0000
     14 ****         2.5800  -1.8670  -1.0036 C.3            1 S1                 0.0000
     15 ****         2.6033  -1.2416  -2.3840 C.3            1 S1                 0.0000
     16 ****         2.1167   2.0496  -1.3698 C.3            1 S1                 0.0000
     17 ****         3.5173   2.0013  -1.9741 C.3            1 S1                 0.0000
     18 ****         3.9093   1.1245  -0.7863 C.3            1 S1                 0.0000
     19 ****        -4.1617   1.4975   1.2557 C.2            1 S1                 0.0000
     20 ****        -4.2399   0.2922   1.0099 O.2            1 S1                 0.0000
     21 ****        -7.3705   2.5260   1.3420 H              1 S1                 0.0000
     22 ****        -6.7936   1.0118   2.0280 H              1 S1                 0.0000
     23 ****        -6.7232   1.2816   0.2830 H              1 S1                 0.0000
     24 ****        -6.0249   4.2258   1.7833 H              1 S1                 0.0000
     25 ****        -3.7419   5.2600   2.0533 H              1 S1                 0.0000
     26 ****        -1.8335   0.3526   1.3335 H              1 S1                 0.0000
     27 ****         0.1348  -0.3000   1.0379 H              1 S1                 0.0000
     28 ****         2.3305   1.6264   1.4190 H              1 S1                 0.0000
     29 ****         2.4143  -0.1061   1.4116 H              1 S1                 0.0000
     30 ****         0.8263  -0.5691  -1.3014 H              1 S1                 0.0000
     31 ****         3.5109  -1.8767  -0.4407 H              1 S1                 0.0000
     32 ****         1.9342  -2.7292  -0.8502 H              1 S1                 0.0000
     33 ****         1.9713  -1.6919  -3.1466 H              1 S1                 0.0000
     34 ****         3.5616  -0.8736  -2.7416 H              1 S1                 0.0000
     35 ****         1.3078   1.9631  -2.0958 H              1 S1                 0.0000
     36 ****         1.9782   2.9221  -0.7292 H              1 S1                 0.0000
     37 ****         3.5511   1.4800  -2.9310 H              1 S1                 0.0000
     38 ****         4.0280   2.9634  -2.0185 H              1 S1                 0.0000
     39 ****         4.3173   1.7152   0.0359 H              1 S1                 0.0000
     40 ****         4.5771   0.2982  -1.0282 H              1 S1                 0.0000
     41 ****        -1.8400   3.8683   1.8131 LP             1 S1                 0.0000
     42 ****        -0.6469   3.5622   1.3247 LP             1 S1                 0.0000
     43 ****         0.9939   3.0537   1.1027 LP             1 S1                 0.0000
     44 ****        -5.1358  -0.1397   0.9054 LP             1 S1                 0.0000
     45 ****        -3.4075  -0.2538   0.9151 LP             1 S1                 0.0000
@<TRIPOS>BOND
    1    1    2 1     
    2    1   21 1     
    3    1   22 1     
    4    1   23 1     
    5    2   19 am    
    6    2    3 1     
    7    3    4 2     
    8    3   24 1     
    9    4    5 1     
   10    4   25 1     
   11    5    6 2     
   12    6    7 1     
   13    6   19 1     
   14    7    8 am    
   15    7   26 1     
   16    8    9 2     
   17    8   10 am    
   18   10   11 1     
   19   10   27 1     
   20   11   12 1     
   21   11   28 1     
   22   11   29 1     
   23   12   18 1     
   24   12   13 1     
   25   12   16 1     
   26   13   15 1     
   27   13   14 1     
   28   13   30 1     
   29   14   15 1     
   30   14   31 1     
   31   14   32 1     
   32   15   33 1     
   33   15   34 1     
   34   16   17 1     
   35   16   35 1     
   36   16   36 1     
   37   17   18 1     
   38   17   37 1     
   39   17   38 1     
   40   18   39 1     
   41   18   40 1     
   42   19   20 2     
   43    5   41 1     
   44    9   42 1     
   45    9   43 1     
   46   20   44 1     
   47   20   45 1     
@<TRIPOS>SUBSTRUCTURE
      1 S1             1
@<TRIPOS>SET
LONE_PAIRS      STATIC     ATOMS    <user>   **** ""
5 41 42 43 44 45
DONOR_HYDROGENS      STATIC     ATOMS    <user>   **** ""
2 26 27
ATOM$BLUE        STATIC     ATOMS    COLORGROUP SYSTEM
5 41 42 43 44 45
ATOM$RED        STATIC     ATOMS    COLORGROUP SYSTEM
2 26 27
