AV-unprocessed.smi:1749|AV-procd|sdf|7049|dock1
  -GOLD-   22720 8263D 1   1.00000     0.00000
 Structure written by MMmdl.
 31 32  0  0  0  0  0  0  0  0  2 V2000
  153.0096  142.9049  162.6794 C   0  0  0  0  0  0  0  0  0  0  0  0
  152.1193  143.2008  161.4642 C   0  0  1  0  0  0  0  0  0  0  0  0
  152.0915  144.7064  161.1381 C   0  0  0  0  0  0  0  0  0  0  0  0
  151.1970  145.0020  159.9243 C   0  0  0  0  0  0  0  0  0  0  0  0
  151.6357  144.1873  158.6983 C   0  0  0  0  0  0  0  0  0  0  0  0
  151.6628  142.6795  159.0074 C   0  0  1  0  0  0  0  0  0  0  0  0
  152.1344  141.9546  157.8310 N   0  0  0  0  0  0  0  0  0  0  0  0
  152.1335  140.6179  157.6592 C   0  0  0  0  0  0  0  0  0  0  0  0
  151.7237  139.9001  158.5706 O   0  0  0  0  0  0  0  0  0  0  0  0
  152.5908  140.1298  156.4757 N   0  5  0  0  0  0  0  0  0  0  0  0
  151.8396  139.3547  155.6715 C   0  0  0  0  0  0  0  0  0  0  0  0
  150.9164  139.8610  154.8382 N   0  0  0  0  0  0  0  0  0  0  0  0
  150.2520  138.8880  154.1037 N   0  0  0  0  0  0  0  0  0  0  0  0
  150.7013  137.6677  154.3954 C   0  0  0  0  0  0  0  0  0  0  0  0
  151.9763  137.5962  155.5932 S   0  0  0  0  0  0  0  0  0  0  0  0
  152.5591  142.3891  160.2297 C   0  0  0  0  0  0  0  0  0  0  0  0
  154.0454  143.1892  162.4918 H   0  0  0  0  0  0  0  0  0  0  0  0
  152.9952  141.8429  162.9260 H   0  0  0  0  0  0  0  0  0  0  0  0
  152.6679  143.4517  163.5584 H   0  0  0  0  0  0  0  0  0  0  0  0
  151.1041  142.8941  161.7207 H   0  0  0  0  0  0  0  0  0  0  0  0
  151.7338  145.2692  162.0009 H   0  0  0  0  0  0  0  0  0  0  0  0
  153.1041  145.0593  160.9372 H   0  0  0  0  0  0  0  0  0  0  0  0
  150.1601  144.7663  160.1672 H   0  0  0  0  0  0  0  0  0  0  0  0
  151.2257  146.0668  159.6918 H   0  0  0  0  0  0  0  0  0  0  0  0
  150.9616  144.3862  157.8642 H   0  0  0  0  0  0  0  0  0  0  0  0
  152.6262  144.5174  158.3806 H   0  0  0  0  0  0  0  0  0  0  0  0
  150.6428  142.3617  159.2318 H   0  0  0  0  0  0  0  0  0  0  0  0
  152.4874  142.5155  157.0696 H   0  0  0  0  0  0  0  0  0  0  0  0
  150.2808  136.8046  153.9017 H   0  0  0  0  0  0  0  0  0  0  0  0
  153.5969  142.6239  159.9878 H   0  0  0  0  0  0  0  0  0  0  0  0
  152.5323  141.3243  160.4649 H   0  0  0  0  0  0  0  0  0  0  0  0
  1  2  1  0  0  0  0
  1 17  1  0  0  0  0
  1 18  1  0  0  0  0
  1 19  1  0  0  0  0
  2 16  1  0  0  0  0
  2  3  1  0  0  0  0
  2 20  1  0  0  0  0
  3  4  1  0  0  0  0
  3 21  1  0  0  0  0
  3 22  1  0  0  0  0
  4  5  1  0  0  0  0
  4 23  1  0  0  0  0
  4 24  1  0  0  0  0
  5  6  1  0  0  0  0
  5 25  1  0  0  0  0
  5 26  1  0  0  0  0
  6  7  1  0  0  0  0
  6 16  1  0  0  0  0
  6 27  1  0  0  0  0
  7  8  1  0  0  0  0
  7 28  1  0  0  0  0
  8  9  2  0  0  0  0
  8 10  1  0  0  0  0
 10 11  1  0  0  0  0
 11 15  1  0  0  0  0
 11 12  2  0  0  0  0
 12 13  1  0  0  0  0
 13 14  2  0  0  0  0
 14 15  1  0  0  0  0
 14 29  1  0  0  0  0
 16 30  1  0  0  0  0
 16 31  1  0  0  0  0
M  CHG  1  10  -1
M  END
> <s_m_source_file>
AV-unprocessed.smi

> <i_m_source_file_index>
1749

> <i_lp_mmshare_version>
43012

> <i_f3d_flags>
0

> <s_epik_input>
W0NIM11bQ0BASF0xW0NIMl1bQ0gyXVtDSDJdW0NASF0oW0NIMl0xKVtOSF1DKD1PKVtOSF1jMm5uW2NIXXMy

> <s_epik_cmdline>
J2VwaWtfcHl0aG9uJywgJy1waCcsICc3LjAnLCAnLXRuJywgJzgnLCAnLW1hJywgJzIwMCcsICctbWV0YWxfYmluZGluZycsICctaW1hZScsICc8aW5maWxlLm1hZT4nLCAnLW9tYWUnLCAnPG91dGZpbGUubWFlPic=

> <r_lp_tautomer_probability>
1

> <r_epik_Ionization_Penalty>
4.55442

> <r_epik_Ionization_Penalty_Charging>
4.5081

> <r_epik_Ionization_Penalty_Neutral>
0.0463156

> <r_epik_State_Penalty>
4.50781

> <r_epik_Charging_Adjusted_Penalty>
9.01591

> <i_epik_Tot_Q>
-1

> <i_epik_Tot_abs_Q>
1

> <r_epik_Metal_State_Penalty>
0.823335

> <b_epik_Metal_Only>
1

> <s_lp_Force_Field>
OPLS_2005

> <r_lp_Energy>
8.86437

> <b_lp_Chiralities_Consistent>
1

> <s_lp_Variant>
AV-unprocessed.smi:1749-6

> <Gold.Version>
5.8.1

> <Gold.Id.Protein>
6NUR|6NUR_protein|mol2

> <Gold.PLP.Fitness>
44.6223

> <Gold.PLP.PLP>
-35.2420

> <Gold.PLP.part.hbond>
-2.0000

> <Gold.PLP.part.metal>
0.0000

> <Gold.PLP.part.buried>
-1.9089

> <Gold.PLP.part.nonpolar>
-30.9345

> <Gold.PLP.part.repulsive>
0.3304

> <Gold.PLP.ligand.clash>
0.0000

> <Gold.PLP.ligand.torsion>
1.3253

> <Gold.PLP.Chemscore.Hbond>
3.0000

> <Gold.PLP.Chemscore.CHOScore>
1.0049

> <Gold.PLP.Chemscore.Metal>
0.0000

> <Gold.Chemscore.Hbonds>
donor molecule, donor type, donor heavy atom, donor atom, acceptor molecule, acceptor atom, score
      P1  H  7989  7998       L1    12  1.00
      P1  H  7997  8008       L1    10  2.00
      L1  C    14    29       P1  7948  0.85
      L1  C    14    29       P1  7949  0.15

> <Gold.PLP.Chemscore.Internal.Correction>
0.0163

> <Gold.Rescore>
     Score         DG    S(hbond)    S(metal)    S(lipo)     H(rot)  DE(clash)    DE(int)     intcor
     17.80     -19.71       1.83        0.00      91.14       1.00       0.71       1.19       ----

> <Gold.Chemscore.Fitness>
17.7993

> <Gold.Chemscore.DG>
-19.7061

> <Gold.Chemscore.ZeroCoef>
-5.4800

> <Gold.Chemscore.Hbond>
1.8331

> <Gold.Chemscore.Metal>
0.0000

> <Gold.Chemscore.Lipo>
91.1431

> <Gold.Chemscore.Internal_Hbond>
0.0000

> <Gold.Chemscore.DEClash>
0.7131

> <Gold.Chemscore.DEInternal>
1.1938

> <Gold.Chemscore.Rot>
1.0000

> <Gold.Chemscore.Internal.Correction>
   9.000000E+99

> <Gold.Chemscore.Hbonds>
donor molecule, donor type, donor heavy atom, donor atom, acceptor molecule, acceptor atom, score
      P1  H  7989  7998       L1    12  0.26
      P1  H  7997  8008       L1    10  0.80

> <Gold.Chemscore.Hbond.Weighted>
-6.1224

> <Gold.Chemscore.Metal.Weighted>
-0.0000

> <Gold.Chemscore.Lipo.Weighted>
-10.6637

> <Gold.Chemscore.Internal_Hbond.Weighted>
0.0000

> <Gold.Chemscore.DEClash.Weighted>
0.7131

> <Gold.Chemscore.DEInternal.Weighted>
1.1938

> <Gold.Chemscore.Rot.Weighted>
2.5600

> <Gold.Chemscore.Internal.Correction.Weighted>
   9.000000E+99

> <Gold.Protein.RotatedTorsions>
[ 6907 6896 6895 6894 ] final  130.67 input  -60.11 | X-H torsion
[ 7974 7965 7964 7962 ] final  -24.64 input  175.53 | X-H torsion
[ 8008 7997 7996 7995 ] final  -45.85 input   59.86 | X-H torsion
[ 10167 10162 10161 10158 ] final  -90.13 input  -65.29 | X-H torsion
[ 10718 10713 10712 10709 ] final   80.02 input   66.30 | X-H torsion
[ 10763 10752 10751 10750 ] final -133.39 input  -60.55 | X-H torsion
[ 11005 11000 10999 10996 ] final -105.00 input  -57.11 | X-H torsion

> <Gold.Protein.ActiveResidues>
 VAL166  LYS551  ARG553  GLY616  TRP617  ASP618  TYR619  PRO620  LYS621  CYS622 
 ASP623  PHE694  ASN695  SER759  ASP760  ASP761  ALA762  ILE779  LEU786  VAL792 
 PHE793  MET794  SER795  GLU796  ALA797  LYS798  CYS799  TRP800  GLU811  SER814 

> <Gold.Protein.RotatedAtoms>
  152.3503  133.6172  159.5939 H   0  0  0  0  0  0  0  0  0  0  0  0  # atno 6907 bound_to 6896
  150.7534  133.9584  159.3516 H   0  0  0  0  0  0  0  0  0  0  0  0  # atno 6908 bound_to 6896
  151.7437  135.0849  160.0371 H   0  0  0  0  0  0  0  0  0  0  0  0  # atno 6909 bound_to 6896
  146.1542  140.4779  142.8598 H   0  0  0  0  0  0  0  0  0  0  0  0  # atno 7974 bound_to 7965
  154.4003  140.1386  156.3914 H   0  0  0  0  0  0  0  0  0  0  0  0  # atno 8008 bound_to 7997
  155.7910  140.3479  155.5329 H   0  0  0  0  0  0  0  0  0  0  0  0  # atno 8009 bound_to 7997
  155.8579  140.0952  157.1623 H   0  0  0  0  0  0  0  0  0  0  0  0  # atno 8010 bound_to 7997
  140.3580  143.2856  151.9648 H   0  0  0  0  0  0  0  0  0  0  0  0  # atno 10167 bound_to 10162
  157.6794  130.9940  150.2017 H   0  0  0  0  0  0  0  0  0  0  0  0  # atno 10718 bound_to 10713
  154.8733  135.3767  154.4564 H   0  0  0  0  0  0  0  0  0  0  0  0  # atno 10763 bound_to 10752
  153.5236  135.7028  153.5724 H   0  0  0  0  0  0  0  0  0  0  0  0  # atno 10764 bound_to 10752
  153.3960  135.3960  155.1921 H   0  0  0  0  0  0  0  0  0  0  0  0  # atno 10765 bound_to 10752
  141.1074  133.8771  157.1681 H   0  0  0  0  0  0  0  0  0  0  0  0  # atno 11005 bound_to 11000
  144.7941  140.6090  143.6521 LP  0  0  0  0  0  0  0  0  0  0  0  0  # atno 17320 bound_to 7965
  145.4750  139.1500  143.3793 LP  0  0  0  0  0  0  0  0  0  0  0  0  # atno 17321 bound_to 7965
  139.4817  144.6018  151.7592 LP  0  0  0  0  0  0  0  0  0  0  0  0  # atno 17342 bound_to 10162
  140.5155  144.0960  150.6007 LP  0  0  0  0  0  0  0  0  0  0  0  0  # atno 17343 bound_to 10162
  156.2707  130.3721  149.8035 LP  0  0  0  0  0  0  0  0  0  0  0  0  # atno 17370 bound_to 10713
  156.5753  130.8442  151.3368 LP  0  0  0  0  0  0  0  0  0  0  0  0  # atno 17371 bound_to 10713
  139.9950  135.0050  157.0063 LP  0  0  0  0  0  0  0  0  0  0  0  0  # atno 17394 bound_to 11000
  140.4866  134.1235  155.7225 LP  0  0  0  0  0  0  0  0  0  0  0  0  # atno 17395 bound_to 11000

$$$$
