AV-unprocessed.smi:1601|AV-procd|sdf|6431|dock3
  -GOLD-   22720 7 73D 1   1.00000     0.00000
 Structure written by MMmdl.
 41 42  0  0  0  0  0  0  0  0  1 V2000
  153.6988  140.2554  160.4915 C   0  0  0  0  0  0  0  0  0  0  0  0
  152.7648  140.4648  159.2716 C   0  0  2  0  0  0  0  0  0  0  0  0
  153.1838  139.4819  158.1437 C   0  0  0  0  0  0  0  0  0  0  0  0
  152.0429  139.0029  157.3716 N   0  0  0  0  0  0  0  0  0  0  0  0
  151.8590  139.2255  156.0619 C   0  0  0  0  0  0  0  0  0  0  0  0
  152.6406  139.8847  155.3755 O   0  0  0  0  0  0  0  0  0  0  0  0
  150.5941  138.6172  155.4336 C   0  0  2  0  0  0  0  0  0  0  0  0
  150.9811  137.5522  154.3837 C   0  0  0  0  0  0  0  0  0  0  0  0
  149.7091  139.6600  154.9027 N   0  0  0  0  0  0  0  0  0  0  0  0
  148.4712  139.5214  154.2978 C   0  0  0  0  0  0  0  0  0  0  0  0
  148.0603  140.7591  153.8940 C   0  0  0  0  0  0  0  0  0  0  0  0
  149.1380  141.6075  154.2650 C   0  0  0  0  0  0  0  0  0  0  0  0
  150.1259  140.9477  154.8450 N   0  0  0  0  0  0  0  0  0  0  0  0
  152.7132  141.8783  158.8296 N   0  0  0  0  0  0  0  0  0  0  0  0
  151.6224  142.1406  157.8837 C   0  0  0  0  0  0  0  0  0  0  0  0
  151.5484  143.6150  157.4494 C   0  0  0  0  0  0  0  0  0  0  0  0
  151.4131  144.4458  158.5938 O   0  0  0  0  0  0  0  0  0  0  0  0
  152.4939  144.2822  159.5015 C   0  0  0  0  0  0  0  0  0  0  0  0
  152.5728  142.8134  159.9520 C   0  0  0  0  0  0  0  0  0  0  0  0
  153.7772  139.2094  160.7855 H   0  0  0  0  0  0  0  0  0  0  0  0
  153.3395  140.7706  161.3811 H   0  0  0  0  0  0  0  0  0  0  0  0
  154.7076  140.6112  160.2799 H   0  0  0  0  0  0  0  0  0  0  0  0
  151.7609  140.1754  159.5864 H   0  0  0  0  0  0  0  0  0  0  0  0
  153.8482  139.9569  157.4232 H   0  0  0  0  0  0  0  0  0  0  0  0
  153.7241  138.6352  158.5709 H   0  0  0  0  0  0  0  0  0  0  0  0
  151.3535  138.4544  157.8649 H   0  0  0  0  0  0  0  0  0  0  0  0
  150.0366  138.1100  156.2229 H   0  0  0  0  0  0  0  0  0  0  0  0
  151.7027  136.8412  154.7881 H   0  0  0  0  0  0  0  0  0  0  0  0
  151.4247  138.0043  153.4954 H   0  0  0  0  0  0  0  0  0  0  0  0
  150.1118  136.9756  154.0658 H   0  0  0  0  0  0  0  0  0  0  0  0
  147.9825  138.5626  154.2054 H   0  0  0  0  0  0  0  0  0  0  0  0
  147.1364  141.0165  153.3981 H   0  0  0  0  0  0  0  0  0  0  0  0
  149.2367  142.6734  154.1214 H   0  0  0  0  0  0  0  0  0  0  0  0
  151.7479  141.5523  156.9769 H   0  0  0  0  0  0  0  0  0  0  0  0
  150.6697  141.8462  158.3264 H   0  0  0  0  0  0  0  0  0  0  0  0
  152.4399  143.8979  156.8870 H   0  0  0  0  0  0  0  0  0  0  0  0
  150.6930  143.7731  156.7926 H   0  0  0  0  0  0  0  0  0  0  0  0
  153.4274  144.5939  159.0299 H   0  0  0  0  0  0  0  0  0  0  0  0
  152.3371  144.9331  160.3616 H   0  0  0  0  0  0  0  0  0  0  0  0
  151.6819  142.5648  160.5307 H   0  0  0  0  0  0  0  0  0  0  0  0
  153.4220  142.7339  160.6281 H   0  0  0  0  0  0  0  0  0  0  0  0
  1  2  1  0  0  0  0
  1 20  1  0  0  0  0
  1 21  1  0  0  0  0
  1 22  1  0  0  0  0
  2  3  1  0  0  0  0
  2 14  1  0  0  0  0
  2 23  1  0  0  0  0
  3  4  1  0  0  0  0
  3 24  1  0  0  0  0
  3 25  1  0  0  0  0
  4  5  1  0  0  0  0
  4 26  1  0  0  0  0
  5  6  2  0  0  0  0
  5  7  1  0  0  0  0
  7  8  1  0  0  0  0
  7  9  1  0  0  0  0
  7 27  1  0  0  0  0
  8 28  1  0  0  0  0
  8 29  1  0  0  0  0
  8 30  1  0  0  0  0
  9 13  1  0  0  0  0
  9 10  1  0  0  0  0
 10 11  2  0  0  0  0
 10 31  1  0  0  0  0
 11 12  1  0  0  0  0
 11 32  1  0  0  0  0
 12 13  2  0  0  0  0
 12 33  1  0  0  0  0
 14 19  1  0  0  0  0
 14 15  1  0  0  0  0
 15 16  1  0  0  0  0
 15 34  1  0  0  0  0
 15 35  1  0  0  0  0
 16 17  1  0  0  0  0
 16 36  1  0  0  0  0
 16 37  1  0  0  0  0
 17 18  1  0  0  0  0
 18 19  1  0  0  0  0
 18 38  1  0  0  0  0
 18 39  1  0  0  0  0
 19 40  1  0  0  0  0
 19 41  1  0  0  0  0
M  END
> <s_m_source_file>
AV-unprocessed.smi

> <i_m_source_file_index>
1601

> <i_lp_mmshare_version>
43012

> <i_f3d_flags>
0

> <s_epik_input>
W0NIMl0xW0NIMl1PW0NIMl1bQ0gyXU4xW0NASF0oW0NIM10pW0NIMl1bTkhdQyg9TylbQ0BIXShbQ0gzXSluMltjSF1bY0hdW2NIXW4y

> <s_epik_cmdline>
J2VwaWtfcHl0aG9uJywgJy1waCcsICc3LjAnLCAnLXRuJywgJzgnLCAnLW1hJywgJzIwMCcsICctbWV0YWxfYmluZGluZycsICctaW1hZScsICc8aW5maWxlLm1hZT4nLCAnLW9tYWUnLCAnPG91dGZpbGUubWFlPic=

> <r_lp_tautomer_probability>
1

> <r_epik_Ionization_Penalty>
0.203323

> <r_epik_Ionization_Penalty_Charging>
0

> <r_epik_Ionization_Penalty_Neutral>
0.203323

> <r_epik_State_Penalty>
0.193192

> <r_epik_Charging_Adjusted_Penalty>
0.193192

> <i_epik_Tot_Q>
0

> <i_epik_Tot_abs_Q>
0

> <r_epik_Metal_State_Penalty>
0.193187

> <b_epik_Metal_Only>
0

> <s_lp_Force_Field>
OPLS_2005

> <r_lp_Energy>
34.8704

> <b_lp_Chiralities_Consistent>
1

> <s_lp_Variant>
AV-unprocessed.smi:1601-1

> <Gold.Version>
5.8.1

> <Gold.Id.Protein>
6NUR|6NUR_protein|mol2

> <Gold.PLP.Fitness>
42.4291

> <Gold.PLP.PLP>
-35.4067

> <Gold.PLP.part.hbond>
-2.8592

> <Gold.PLP.part.metal>
0.0000

> <Gold.PLP.part.buried>
0.0914

> <Gold.PLP.part.nonpolar>
-32.2566

> <Gold.PLP.part.repulsive>
0.2854

> <Gold.PLP.ligand.clash>
0.0000

> <Gold.PLP.ligand.torsion>
0.6240

> <Gold.PLP.Chemscore.Hbond>
1.6903

> <Gold.PLP.Chemscore.CHOScore>
1.0000

> <Gold.PLP.Chemscore.Metal>
0.0000

> <Gold.Chemscore.Hbonds>
donor molecule, donor type, donor heavy atom, donor atom, acceptor molecule, acceptor atom, score
      P1  H  7989  7998       L1    13  0.70
      P1  H  7997  8010       L1     6  1.00
      L1  C    12    33       P1  8028  0.93

> <Gold.PLP.Chemscore.Internal.Correction>
0.1994

> <Gold.Rescore>
     Score         DG    S(hbond)    S(metal)    S(lipo)     H(rot)  DE(clash)    DE(int)     intcor
     13.91     -15.99       1.03        0.00      99.43       1.79       0.11       1.97       ----

> <Gold.Chemscore.Fitness>
13.9092

> <Gold.Chemscore.DG>
-15.9892

> <Gold.Chemscore.ZeroCoef>
-5.4800

> <Gold.Chemscore.Hbond>
1.0333

> <Gold.Chemscore.Metal>
0.0000

> <Gold.Chemscore.Lipo>
99.4275

> <Gold.Chemscore.Internal_Hbond>
0.0000

> <Gold.Chemscore.DEClash>
0.1108

> <Gold.Chemscore.DEInternal>
1.9692

> <Gold.Chemscore.Rot>
1.7872

> <Gold.Chemscore.Internal.Correction>
   9.000000E+99

> <Gold.Chemscore.Hbonds>
donor molecule, donor type, donor heavy atom, donor atom, acceptor molecule, acceptor atom, score
      P1  H  7989  7998       L1    13  0.17
      P1  H  7997  8010       L1     6  0.98

> <Gold.Chemscore.Hbond.Weighted>
-3.4514

> <Gold.Chemscore.Metal.Weighted>
-0.0000

> <Gold.Chemscore.Lipo.Weighted>
-11.6330

> <Gold.Chemscore.Internal_Hbond.Weighted>
0.0000

> <Gold.Chemscore.DEClash.Weighted>
0.1108

> <Gold.Chemscore.DEInternal.Weighted>
1.9692

> <Gold.Chemscore.Rot.Weighted>
4.5752

> <Gold.Chemscore.Internal.Correction.Weighted>
   9.000000E+99

> <Gold.Protein.RotatedTorsions>
[ 6907 6896 6895 6894 ] final -114.87 input  -60.11 | X-H torsion
[ 7974 7965 7964 7962 ] final   74.17 input  175.53 | X-H torsion
[ 8008 7997 7996 7995 ] final  101.00 input   59.86 | X-H torsion
[ 10167 10162 10161 10158 ] final  122.05 input  -65.29 | X-H torsion
[ 10718 10713 10712 10709 ] final  -41.54 input   66.30 | X-H torsion
[ 10763 10752 10751 10750 ] final  125.04 input  -60.55 | X-H torsion
[ 11005 11000 10999 10996 ] final  -51.80 input  -57.11 | X-H torsion

> <Gold.Protein.ActiveResidues>
 VAL166  LYS551  ARG553  GLY616  TRP617  ASP618  TYR619  PRO620  LYS621  CYS622 
 ASP623  PHE694  ASN695  SER759  ASP760  ASP761  ALA762  ILE779  LEU786  VAL792 
 PHE793  MET794  SER795  GLU796  ALA797  LYS798  CYS799  TRP800  GLU811  SER814 

> <Gold.Protein.RotatedAtoms>
  150.7934  133.8739  159.3266 H   0  0  0  0  0  0  0  0  0  0  0  0  # atno 6907 bound_to 6896
  151.6571  135.0992  160.0181 H   0  0  0  0  0  0  0  0  0  0  0  0  # atno 6908 bound_to 6896
  152.4012  133.6782  159.6353 H   0  0  0  0  0  0  0  0  0  0  0  0  # atno 6909 bound_to 6896
  145.7317  139.2686  143.1537 H   0  0  0  0  0  0  0  0  0  0  0  0  # atno 7974 bound_to 7965
  156.1257  140.3204  155.8274 H   0  0  0  0  0  0  0  0  0  0  0  0  # atno 8008 bound_to 7997
  155.4423  140.0526  157.3026 H   0  0  0  0  0  0  0  0  0  0  0  0  # atno 8009 bound_to 7997
  154.4861  140.2073  155.9666 H   0  0  0  0  0  0  0  0  0  0  0  0  # atno 8010 bound_to 7997
  139.5882  144.7015  151.3356 H   0  0  0  0  0  0  0  0  0  0  0  0  # atno 10167 bound_to 10162
  156.2692  130.4205  149.8456 H   0  0  0  0  0  0  0  0  0  0  0  0  # atno 10718 bound_to 10713
  153.6710  135.3330  155.3153 H   0  0  0  0  0  0  0  0  0  0  0  0  # atno 10763 bound_to 10752
  154.8491  135.4386  154.1705 H   0  0  0  0  0  0  0  0  0  0  0  0  # atno 10764 bound_to 10752
  153.2697  135.6999  153.7570 H   0  0  0  0  0  0  0  0  0  0  0  0  # atno 10765 bound_to 10752
  141.0890  133.6636  156.3930 H   0  0  0  0  0  0  0  0  0  0  0  0  # atno 11005 bound_to 11000
  146.0531  140.8048  142.9771 LP  0  0  0  0  0  0  0  0  0  0  0  0  # atno 17320 bound_to 7965
  144.6891  140.3083  143.7252 LP  0  0  0  0  0  0  0  0  0  0  0  0  # atno 17321 bound_to 7965
  140.7150  143.7290  150.7638 LP  0  0  0  0  0  0  0  0  0  0  0  0  # atno 17342 bound_to 10162
  140.0840  143.4941  152.2515 LP  0  0  0  0  0  0  0  0  0  0  0  0  # atno 17343 bound_to 10162
  156.5944  130.8520  151.3416 LP  0  0  0  0  0  0  0  0  0  0  0  0  # atno 17370 bound_to 10713
  157.7278  130.9648  150.1715 LP  0  0  0  0  0  0  0  0  0  0  0  0  # atno 17371 bound_to 10713
  140.5296  134.6226  157.5345 LP  0  0  0  0  0  0  0  0  0  0  0  0  # atno 17394 bound_to 11000
  139.9713  134.7288  156.0036 LP  0  0  0  0  0  0  0  0  0  0  0  0  # atno 17395 bound_to 11000

$$$$
