AV-unprocessed.smi:1362|AV-procd|sdf|5560|dock4
  -GOLD-   22720 5153D 1   1.00000     0.00000
 Structure written by MMmdl.
 39 39  0  0  0  0  0  0  0  0  1 V2000
  146.2615  138.1217  152.5519 C   0  0  0  0  0  0  0  0  0  0  0  0
  147.1552  139.1587  153.1965 C   0  0  0  0  0  0  0  0  0  0  0  0
  146.5335  140.3800  153.3962 N   0  0  0  0  0  0  0  0  0  0  0  0
  147.2705  141.3943  153.9814 C   0  0  0  0  0  0  0  0  0  0  0  0
  146.5125  142.6979  154.1626 C   0  0  0  0  0  0  0  0  0  0  0  0
  148.5628  141.2011  154.3489 C   0  0  0  0  0  0  0  0  0  0  0  0
  149.4147  142.2938  154.9921 C   0  0  0  0  0  0  0  0  0  0  0  0
  149.9117  141.9816  156.4034 C   0  0  0  0  0  0  0  0  0  0  0  0
  149.8520  140.8325  156.8398 O   0  0  0  0  0  0  0  0  0  0  0  0
  150.3946  143.0197  157.1036 N   0  0  0  0  0  0  0  0  0  0  0  0
  150.9025  142.9672  158.4732 C   0  0  2  0  0  0  0  0  0  0  0  0
  150.0923  143.9548  159.3335 C   0  0  0  0  0  0  0  0  0  0  0  0
  152.4286  143.2469  158.4864 C   0  0  0  0  0  0  0  0  0  0  0  0
  153.0634  142.9461  159.8583 C   0  0  0  0  0  0  0  0  0  0  0  0
  152.7646  144.6911  158.0728 C   0  0  0  0  0  0  0  0  0  0  0  0
  149.1755  139.8739  154.1037 C   0  0  0  0  0  0  0  0  0  0  0  0
  150.3472  139.6416  154.3993 O   0  0  0  0  0  0  0  0  0  0  0  0
  148.3831  138.8777  153.5106 N   0  0  0  0  0  0  0  0  0  0  0  0
  145.5753  140.5667  153.1378 H   0  0  0  0  0  0  0  0  0  0  0  0
  146.7727  137.1614  152.4710 H   0  0  0  0  0  0  0  0  0  0  0  0
  145.9732  138.4405  151.5499 H   0  0  0  0  0  0  0  0  0  0  0  0
  145.3573  137.9771  153.1440 H   0  0  0  0  0  0  0  0  0  0  0  0
  146.4517  142.9605  155.2188 H   0  0  0  0  0  0  0  0  0  0  0  0
  145.4943  142.6276  153.7778 H   0  0  0  0  0  0  0  0  0  0  0  0
  147.0136  143.5078  153.6327 H   0  0  0  0  0  0  0  0  0  0  0  0
  148.8753  143.2419  155.0087 H   0  0  0  0  0  0  0  0  0  0  0  0
  150.2814  142.4851  154.3592 H   0  0  0  0  0  0  0  0  0  0  0  0
  150.4042  143.9239  156.6538 H   0  0  0  0  0  0  0  0  0  0  0  0
  150.7450  141.9628  158.8708 H   0  0  0  0  0  0  0  0  0  0  0  0
  150.3426  143.8705  160.3903 H   0  0  0  0  0  0  0  0  0  0  0  0
  149.0220  143.7635  159.2480 H   0  0  0  0  0  0  0  0  0  0  0  0
  150.2690  144.9862  159.0265 H   0  0  0  0  0  0  0  0  0  0  0  0
  152.9003  142.5830  157.7604 H   0  0  0  0  0  0  0  0  0  0  0  0
  152.6063  143.5482  160.6442 H   0  0  0  0  0  0  0  0  0  0  0  0
  154.1317  143.1643  159.8536 H   0  0  0  0  0  0  0  0  0  0  0  0
  152.9559  141.8977  160.1368 H   0  0  0  0  0  0  0  0  0  0  0  0
  152.2639  145.4147  158.7168 H   0  0  0  0  0  0  0  0  0  0  0  0
  152.4718  144.8968  157.0438 H   0  0  0  0  0  0  0  0  0  0  0  0
  153.8369  144.8779  158.1373 H   0  0  0  0  0  0  0  0  0  0  0  0
  1 20  1  0  0  0  0
  1 21  1  0  0  0  0
  1 22  1  0  0  0  0
  1  2  1  0  0  0  0
  2  3  1  0  0  0  0
  2 18  2  0  0  0  0
  3  4  1  0  0  0  0
  3 19  1  0  0  0  0
  4  6  2  0  0  0  0
  4  5  1  0  0  0  0
  5 23  1  0  0  0  0
  5 24  1  0  0  0  0
  5 25  1  0  0  0  0
  6 16  1  0  0  0  0
  6  7  1  0  0  0  0
  7  8  1  0  0  0  0
  7 26  1  0  0  0  0
  7 27  1  0  0  0  0
  8  9  2  0  0  0  0
  8 10  1  0  0  0  0
 10 11  1  0  0  0  0
 10 28  1  0  0  0  0
 11 12  1  0  0  0  0
 11 13  1  0  0  0  0
 11 29  1  0  0  0  0
 12 30  1  0  0  0  0
 12 31  1  0  0  0  0
 12 32  1  0  0  0  0
 13 14  1  0  0  0  0
 13 15  1  0  0  0  0
 13 33  1  0  0  0  0
 14 34  1  0  0  0  0
 14 35  1  0  0  0  0
 14 36  1  0  0  0  0
 15 37  1  0  0  0  0
 15 38  1  0  0  0  0
 15 39  1  0  0  0  0
 16 17  2  0  0  0  0
 16 18  1  0  0  0  0
M  END
> <s_m_source_file>
AV-unprocessed.smi

> <i_m_source_file_index>
1362

> <i_lp_mmshare_version>
43012

> <i_f3d_flags>
0

> <s_epik_input>
W0NIM11jMW5jKFtDSDNdKWMoYyg9TylbbkhdMSlbQ0gyXUMoPU8pW05IXVtDQEhdKFtDSDNdKVtDSF0oW0NIM10pW0NIM10=

> <s_epik_cmdline>
J2VwaWtfcHl0aG9uJywgJy1waCcsICc3LjAnLCAnLXRuJywgJzgnLCAnLW1hJywgJzIwMCcsICctbWV0YWxfYmluZGluZycsICctaW1hZScsICc8aW5maWxlLm1hZT4nLCAnLW9tYWUnLCAnPG91dGZpbGUubWFlPic=

> <r_lp_tautomer_probability>
0.156392

> <r_epik_Ionization_Penalty>
0.0140737

> <r_epik_Ionization_Penalty_Charging>
0.0139511

> <r_epik_Ionization_Penalty_Neutral>
0.000122633

> <r_epik_State_Penalty>
1.53034

> <r_epik_Charging_Adjusted_Penalty>
1.54429

> <i_epik_Tot_Q>
0

> <i_epik_Tot_abs_Q>
0

> <r_epik_Metal_State_Penalty>
1.70655

> <b_epik_Metal_Only>
0

> <s_lp_Force_Field>
OPLS_2005

> <r_lp_Energy>
10.2097

> <b_lp_Chiralities_Consistent>
1

> <s_lp_Variant>
AV-unprocessed.smi:1362-3

> <Gold.Version>
5.8.1

> <Gold.Id.Protein>
6NUR|6NUR_protein|mol2

> <Gold.PLP.Fitness>
42.6582

> <Gold.PLP.PLP>
-35.6008

> <Gold.PLP.part.hbond>
-3.0000

> <Gold.PLP.part.metal>
0.0000

> <Gold.PLP.part.buried>
1.5908

> <Gold.PLP.part.nonpolar>
-35.4329

> <Gold.PLP.part.repulsive>
1.8058

> <Gold.PLP.ligand.clash>
0.0000

> <Gold.PLP.ligand.torsion>
0.2768

> <Gold.PLP.Chemscore.Hbond>
2.5280

> <Gold.PLP.Chemscore.CHOScore>
0.0000

> <Gold.PLP.Chemscore.Metal>
0.0000

> <Gold.Chemscore.Hbonds>
donor molecule, donor type, donor heavy atom, donor atom, acceptor molecule, acceptor atom, score
      L1  H     3    19       P1 10175  1.00
      L1  H    10    28       P1  8028  0.53
      P1  H  7989  7998       L1    17  1.00

> <Gold.PLP.Chemscore.Internal.Correction>
0.0271

> <Gold.Rescore>
     Score         DG    S(hbond)    S(metal)    S(lipo)     H(rot)  DE(clash)    DE(int)     intcor
     15.14     -20.01       2.49        0.00      90.20       1.69       2.51       2.36       ----

> <Gold.Chemscore.Fitness>
15.1365

> <Gold.Chemscore.DG>
-20.0102

> <Gold.Chemscore.ZeroCoef>
-5.4800

> <Gold.Chemscore.Hbond>
2.4871

> <Gold.Chemscore.Metal>
0.0000

> <Gold.Chemscore.Lipo>
90.2028

> <Gold.Chemscore.Internal_Hbond>
0.0000

> <Gold.Chemscore.DEClash>
2.5130

> <Gold.Chemscore.DEInternal>
2.3607

> <Gold.Chemscore.Rot>
1.6916

> <Gold.Chemscore.Internal.Correction>
   9.000000E+99

> <Gold.Chemscore.Hbonds>
donor molecule, donor type, donor heavy atom, donor atom, acceptor molecule, acceptor atom, score
      L1  H     3    19       P1 10175  0.82
      L1  H    10    28       P1  8028  0.51
      P1  H  7989  7998       L1    17  0.80

> <Gold.Chemscore.Hbond.Weighted>
-8.3070

> <Gold.Chemscore.Metal.Weighted>
-0.0000

> <Gold.Chemscore.Lipo.Weighted>
-10.5537

> <Gold.Chemscore.Internal_Hbond.Weighted>
0.0000

> <Gold.Chemscore.DEClash.Weighted>
2.5130

> <Gold.Chemscore.DEInternal.Weighted>
2.3607

> <Gold.Chemscore.Rot.Weighted>
4.3305

> <Gold.Chemscore.Internal.Correction.Weighted>
   9.000000E+99

> <Gold.Protein.RotatedTorsions>
[ 6907 6896 6895 6894 ] final   54.93 input  -60.11 | X-H torsion
[ 7974 7965 7964 7962 ] final  -26.33 input  175.53 | X-H torsion
[ 8008 7997 7996 7995 ] final  152.55 input   59.86 | X-H torsion
[ 10167 10162 10161 10158 ] final  -29.71 input  -65.29 | X-H torsion
[ 10718 10713 10712 10709 ] final  -54.47 input   66.30 | X-H torsion
[ 10763 10752 10751 10750 ] final  -77.26 input  -60.55 | X-H torsion
[ 11005 11000 10999 10996 ] final  -79.83 input  -57.11 | X-H torsion

> <Gold.Protein.ActiveResidues>
 VAL166  LYS551  ARG553  GLY616  TRP617  ASP618  TYR619  PRO620  LYS621  CYS622 
 ASP623  PHE694  ASN695  SER759  ASP760  ASP761  ALA762  ILE779  LEU786  VAL792 
 PHE793  MET794  SER795  GLU796  ALA797  LYS798  CYS799  TRP800  GLU811  SER814 

> <Gold.Protein.RotatedAtoms>
  152.3488  134.7035  160.0242 H   0  0  0  0  0  0  0  0  0  0  0  0  # atno 6907 bound_to 6896
  151.7396  133.3316  159.3370 H   0  0  0  0  0  0  0  0  0  0  0  0  # atno 6908 bound_to 6896
  150.7526  134.6224  159.6187 H   0  0  0  0  0  0  0  0  0  0  0  0  # atno 6909 bound_to 6896
  146.1432  140.5005  142.8643 H   0  0  0  0  0  0  0  0  0  0  0  0  # atno 7974 bound_to 7965
  156.2624  140.2018  156.6350 H   0  0  0  0  0  0  0  0  0  0  0  0  # atno 8008 bound_to 7997
  154.6653  140.0556  157.0131 H   0  0  0  0  0  0  0  0  0  0  0  0  # atno 8009 bound_to 7997
  155.1216  140.3225  155.4499 H   0  0  0  0  0  0  0  0  0  0  0  0  # atno 8010 bound_to 7997
  140.7257  143.3907  151.1435 H   0  0  0  0  0  0  0  0  0  0  0  0  # atno 10167 bound_to 10162
  156.1448  130.4153  150.0042 H   0  0  0  0  0  0  0  0  0  0  0  0  # atno 10718 bound_to 10713
  154.5106  135.5770  153.6602 H   0  0  0  0  0  0  0  0  0  0  0  0  # atno 10763 bound_to 10752
  152.9896  135.6158  154.2883 H   0  0  0  0  0  0  0  0  0  0  0  0  # atno 10764 bound_to 10752
  154.2798  135.2851  155.2682 H   0  0  0  0  0  0  0  0  0  0  0  0  # atno 10765 bound_to 10752
  141.1668  133.7123  156.8182 H   0  0  0  0  0  0  0  0  0  0  0  0  # atno 11005 bound_to 11000
  144.7816  140.5853  143.6601 LP  0  0  0  0  0  0  0  0  0  0  0  0  # atno 17320 bound_to 7965
  145.4998  139.1484  143.3664 LP  0  0  0  0  0  0  0  0  0  0  0  0  # atno 17321 bound_to 7965
  139.7511  143.8777  152.3077 LP  0  0  0  0  0  0  0  0  0  0  0  0  # atno 17342 bound_to 10162
  139.8631  144.7107  150.9076 LP  0  0  0  0  0  0  0  0  0  0  0  0  # atno 17343 bound_to 10162
  156.7917  130.9258  151.3646 LP  0  0  0  0  0  0  0  0  0  0  0  0  # atno 17370 bound_to 10713
  157.6607  130.8964  149.9824 LP  0  0  0  0  0  0  0  0  0  0  0  0  # atno 17371 bound_to 10713
  140.2138  134.8808  157.3304 LP  0  0  0  0  0  0  0  0  0  0  0  0  # atno 17394 bound_to 11000
  140.2059  134.4198  155.7638 LP  0  0  0  0  0  0  0  0  0  0  0  0  # atno 17395 bound_to 11000

$$$$
