AV-unprocessed.smi:2318|AV-procd|sdf|9276|dock9
  -GOLD-   2272012503D 1   1.00000     0.00000
 Structure written by MMmdl.
 37 38  0  0  0  0  0  0  0  0  1 V2000
  153.9011  137.7746  156.8755 C   0  0  0  0  0  0  0  0  0  0  0  0
  152.7707  137.8741  155.9775 N   0  0  0  0  0  0  0  0  0  0  0  0
  152.3063  138.9814  155.2962 C   0  0  0  0  0  0  0  0  0  0  0  0
  151.2142  138.5897  154.5748 C   0  0  0  0  0  0  0  0  0  0  0  0
  151.0940  137.2075  154.8875 C   0  0  0  0  0  0  0  0  0  0  0  0
  150.0560  136.4259  154.3194 N   0  0  0  0  0  0  0  0  0  0  0  0
  149.3076  135.4898  154.9275 C   0  0  0  0  0  0  0  0  0  0  0  0
  149.4171  135.1497  156.1060 O   0  0  0  0  0  0  0  0  0  0  0  0
  148.4095  134.9644  154.0816 N   0  0  0  0  0  0  0  0  0  0  0  0
  147.4441  133.9091  154.3963 C   0  0  1  0  0  0  0  0  0  0  0  0
  146.3908  133.8096  153.2620 C   0  0  0  0  0  0  0  0  0  0  0  0
  146.9684  133.4328  151.8915 C   0  0  0  0  0  0  0  0  0  0  0  0
  145.8754  133.8103  150.8920 C   0  0  0  0  0  0  0  0  0  0  0  0
  145.1292  134.9946  151.5187 C   0  0  0  0  0  0  0  0  0  0  0  0
  145.6354  135.1125  152.9631 C   0  0  0  0  0  0  0  0  0  0  0  0
  148.2170  132.5945  154.6497 C   0  0  0  0  0  0  0  0  0  0  0  0
  148.8242  132.6494  155.8359 F   0  0  0  0  0  0  0  0  0  0  0  0
  147.3923  131.5482  154.6648 F   0  0  0  0  0  0  0  0  0  0  0  0
  149.1404  132.4040  153.7065 F   0  0  0  0  0  0  0  0  0  0  0  0
  152.0241  136.7775  155.7291 N   0  0  0  0  0  0  0  0  0  0  0  0
  154.4769  138.7004  156.8565 H   0  0  0  0  0  0  0  0  0  0  0  0
  154.5463  136.9502  156.5701 H   0  0  0  0  0  0  0  0  0  0  0  0
  153.5481  137.5963  157.8915 H   0  0  0  0  0  0  0  0  0  0  0  0
  152.7863  139.9452  155.3807 H   0  0  0  0  0  0  0  0  0  0  0  0
  150.6003  139.1968  153.9258 H   0  0  0  0  0  0  0  0  0  0  0  0
  149.8612  136.6001  153.3447 H   0  0  0  0  0  0  0  0  0  0  0  0
  148.3983  135.3105  153.1333 H   0  0  0  0  0  0  0  0  0  0  0  0
  146.9217  134.1588  155.3216 H   0  0  0  0  0  0  0  0  0  0  0  0
  145.6552  133.0490  153.5289 H   0  0  0  0  0  0  0  0  0  0  0  0
  147.8656  134.0204  151.6910 H   0  0  0  0  0  0  0  0  0  0  0  0
  147.2405  132.3791  151.8219 H   0  0  0  0  0  0  0  0  0  0  0  0
  146.2832  134.0483  149.9091 H   0  0  0  0  0  0  0  0  0  0  0  0
  145.1891  132.9717  150.7681 H   0  0  0  0  0  0  0  0  0  0  0  0
  145.3200  135.9178  150.9704 H   0  0  0  0  0  0  0  0  0  0  0  0
  144.0531  134.8183  151.4945 H   0  0  0  0  0  0  0  0  0  0  0  0
  144.8181  135.2856  153.6637 H   0  0  0  0  0  0  0  0  0  0  0  0
  146.3158  135.9621  153.0360 H   0  0  0  0  0  0  0  0  0  0  0  0
  1  2  1  0  0  0  0
  1 21  1  0  0  0  0
  1 22  1  0  0  0  0
  1 23  1  0  0  0  0
  2 20  1  0  0  0  0
  2  3  1  0  0  0  0
  3  4  2  0  0  0  0
  3 24  1  0  0  0  0
  4  5  1  0  0  0  0
  4 25  1  0  0  0  0
  5  6  1  0  0  0  0
  5 20  2  0  0  0  0
  6  7  1  0  0  0  0
  6 26  1  0  0  0  0
  7  8  2  0  0  0  0
  7  9  1  0  0  0  0
  9 10  1  0  0  0  0
  9 27  1  0  0  0  0
 10 11  1  0  0  0  0
 10 16  1  0  0  0  0
 10 28  1  0  0  0  0
 11 15  1  0  0  0  0
 11 12  1  0  0  0  0
 11 29  1  0  0  0  0
 12 13  1  0  0  0  0
 12 30  1  0  0  0  0
 12 31  1  0  0  0  0
 13 14  1  0  0  0  0
 13 32  1  0  0  0  0
 13 33  1  0  0  0  0
 14 15  1  0  0  0  0
 14 34  1  0  0  0  0
 14 35  1  0  0  0  0
 15 36  1  0  0  0  0
 15 37  1  0  0  0  0
 16 17  1  0  0  0  0
 16 18  1  0  0  0  0
 16 19  1  0  0  0  0
M  END
> <s_m_source_file>
AV-unprocessed.smi

> <i_m_source_file_index>
2318

> <i_lp_mmshare_version>
43012

> <i_f3d_flags>
0

> <s_epik_input>
W0NIM11uMVtjSF1bY0hdYyhuMSlbTkhdQyg9TylbTkhdW0NAQEhdKEMoRikoRilGKVtDSF0yW0NIMl1bQ0gyXVtDSDJdW0NIMl0y

> <s_epik_cmdline>
J2VwaWtfcHl0aG9uJywgJy1waCcsICc3LjAnLCAnLXRuJywgJzgnLCAnLW1hJywgJzIwMCcsICctbWV0YWxfYmluZGluZycsICctaW1hZScsICc8aW5maWxlLm1hZT4nLCAnLW9tYWUnLCAnPG91dGZpbGUubWFlPic=

> <r_lp_tautomer_probability>
1

> <r_epik_Ionization_Penalty>
2.39546e-05

> <r_epik_Ionization_Penalty_Charging>
0

> <r_epik_Ionization_Penalty_Neutral>
2.39546e-05

> <r_epik_State_Penalty>
-0

> <r_epik_Charging_Adjusted_Penalty>
0

> <i_epik_Tot_Q>
0

> <i_epik_Tot_abs_Q>
0

> <r_epik_Metal_State_Penalty>
-0

> <b_epik_Metal_Only>
0

> <s_lp_Force_Field>
OPLS_2005

> <r_lp_Energy>
23.5829

> <b_lp_Chiralities_Consistent>
1

> <s_lp_Variant>
AV-unprocessed.smi:2318-2

> <Gold.Version>
5.8.1

> <Gold.Id.Protein>
6NUR|6NUR_protein|mol2

> <Gold.PLP.Fitness>
37.1763

> <Gold.PLP.PLP>
-29.4316

> <Gold.PLP.part.hbond>
-3.6350

> <Gold.PLP.part.metal>
0.0000

> <Gold.PLP.part.buried>
-3.1091

> <Gold.PLP.part.nonpolar>
-23.7424

> <Gold.PLP.part.repulsive>
0.1038

> <Gold.PLP.ligand.clash>
0.0000

> <Gold.PLP.ligand.torsion>
0.7579

> <Gold.PLP.Chemscore.Hbond>
3.0000

> <Gold.PLP.Chemscore.CHOScore>
0.0000

> <Gold.PLP.Chemscore.Metal>
0.0000

> <Gold.Chemscore.Hbonds>
donor molecule, donor type, donor heavy atom, donor atom, acceptor molecule, acceptor atom, score
      L1  H     6    26       P1  7948  0.90
      L1  H     9    27       P1  7948  1.00
      P1  H 10752 10765       L1    20  1.00

> <Gold.PLP.Chemscore.Internal.Correction>
0.2605

> <Gold.Rescore>
     Score         DG    S(hbond)    S(metal)    S(lipo)     H(rot)  DE(clash)    DE(int)     intcor
     13.54     -16.38       2.64        0.00      46.30       1.30       0.06       2.78       ----

> <Gold.Chemscore.Fitness>
13.5375

> <Gold.Chemscore.DG>
-16.3813

> <Gold.Chemscore.ZeroCoef>
-5.4800

> <Gold.Chemscore.Hbond>
2.6388

> <Gold.Chemscore.Metal>
0.0000

> <Gold.Chemscore.Lipo>
46.2952

> <Gold.Chemscore.Internal_Hbond>
0.0000

> <Gold.Chemscore.DEClash>
0.0625

> <Gold.Chemscore.DEInternal>
2.7814

> <Gold.Chemscore.Rot>
1.3003

> <Gold.Chemscore.Internal.Correction>
   9.000000E+99

> <Gold.Chemscore.Hbonds>
donor molecule, donor type, donor heavy atom, donor atom, acceptor molecule, acceptor atom, score
      L1  H     6    26       P1  7948  0.17
      L1  H     9    27       P1  7948  0.95
      P1  H 10752 10765       L1    20  0.32

> <Gold.Chemscore.Hbond.Weighted>
-8.8135

> <Gold.Chemscore.Metal.Weighted>
-0.0000

> <Gold.Chemscore.Lipo.Weighted>
-5.4165

> <Gold.Chemscore.Internal_Hbond.Weighted>
0.0000

> <Gold.Chemscore.DEClash.Weighted>
0.0625

> <Gold.Chemscore.DEInternal.Weighted>
2.7814

> <Gold.Chemscore.Rot.Weighted>
3.3287

> <Gold.Chemscore.Internal.Correction.Weighted>
   9.000000E+99

> <Gold.Protein.RotatedTorsions>
[ 6907 6896 6895 6894 ] final -147.38 input  -60.11 | X-H torsion
[ 7974 7965 7964 7962 ] final  120.76 input  175.53 | X-H torsion
[ 8008 7997 7996 7995 ] final -100.65 input   59.86 | X-H torsion
[ 10167 10162 10161 10158 ] final  -42.03 input  -65.29 | X-H torsion
[ 10718 10713 10712 10709 ] final  136.66 input   66.30 | X-H torsion
[ 10763 10752 10751 10750 ] final -172.61 input  -60.55 | X-H torsion
[ 11005 11000 10999 10996 ] final  171.71 input  -57.11 | X-H torsion

> <Gold.Protein.ActiveResidues>
 VAL166  LYS551  ARG553  GLY616  TRP617  ASP618  TYR619  PRO620  LYS621  CYS622 
 ASP623  PHE694  ASN695  SER759  ASP760  ASP761  ALA762  ILE779  LEU786  VAL792 
 PHE793  MET794  SER795  GLU796  ALA797  LYS798  CYS799  TRP800  GLU811  SER814 

> <Gold.Protein.RotatedAtoms>
  151.1549  133.4883  159.2594 H   0  0  0  0  0  0  0  0  0  0  0  0  # atno 6907 bound_to 6896
  151.1515  135.0229  159.8680 H   0  0  0  0  0  0  0  0  0  0  0  0  # atno 6908 bound_to 6896
  152.5463  134.1433  159.8541 H   0  0  0  0  0  0  0  0  0  0  0  0  # atno 6909 bound_to 6896
  145.1274  139.3349  143.4683 H   0  0  0  0  0  0  0  0  0  0  0  0  # atno 7974 bound_to 7965
  154.8316  140.0439  157.1481 H   0  0  0  0  0  0  0  0  0  0  0  0  # atno 8008 bound_to 7997
  154.9146  140.3018  155.5228 H   0  0  0  0  0  0  0  0  0  0  0  0  # atno 8009 bound_to 7997
  156.2987  140.2352  156.4189 H   0  0  0  0  0  0  0  0  0  0  0  0  # atno 8010 bound_to 7997
  140.6983  143.3060  151.3151 H   0  0  0  0  0  0  0  0  0  0  0  0  # atno 10167 bound_to 10162
  157.4444  131.1060  151.0107 H   0  0  0  0  0  0  0  0  0  0  0  0  # atno 10718 bound_to 10713
  154.6173  135.2871  155.0365 H   0  0  0  0  0  0  0  0  0  0  0  0  # atno 10763 bound_to 10752
  154.1573  135.6494  153.4981 H   0  0  0  0  0  0  0  0  0  0  0  0  # atno 10764 bound_to 10752
  153.0220  135.5370  154.6949 H   0  0  0  0  0  0  0  0  0  0  0  0  # atno 10765 bound_to 10752
  140.3219  134.7430  157.4070 H   0  0  0  0  0  0  0  0  0  0  0  0  # atno 11005 bound_to 11000
  146.3516  140.1258  142.8598 LP  0  0  0  0  0  0  0  0  0  0  0  0  # atno 17320 bound_to 7965
  145.0673  140.9130  143.4903 LP  0  0  0  0  0  0  0  0  0  0  0  0  # atno 17321 bound_to 7965
  139.6466  144.0439  152.2595 LP  0  0  0  0  0  0  0  0  0  0  0  0  # atno 17342 bound_to 10162
  139.9962  144.6326  150.7770 LP  0  0  0  0  0  0  0  0  0  0  0  0  # atno 17343 bound_to 10162
  157.0958  130.5961  149.5449 LP  0  0  0  0  0  0  0  0  0  0  0  0  # atno 17370 bound_to 10713
  155.9961  130.5030  150.7485 LP  0  0  0  0  0  0  0  0  0  0  0  0  # atno 17371 bound_to 10713
  140.0935  134.5569  155.8421 LP  0  0  0  0  0  0  0  0  0  0  0  0  # atno 17394 bound_to 11000
  141.2084  133.6674  156.6372 LP  0  0  0  0  0  0  0  0  0  0  0  0  # atno 17395 bound_to 11000

$$$$
