AV-unprocessed.smi:1363|AV-procd|sdf|5565|dock7
  -GOLD-   22720 5163D 1   1.00000     0.00000
 Structure written by MMmdl.
 44 45  0  0  0  0  0  0  0  0  1 V2000
  148.0392  134.1754  158.3073 C   0  0  0  0  0  0  0  0  0  0  0  0
  148.8800  135.0520  157.4047 C   0  0  0  0  0  0  0  0  0  0  0  0
  148.1358  135.9055  156.6073 N   0  0  0  0  0  0  0  0  0  0  0  0
  148.8184  136.7558  155.7555 C   0  0  0  0  0  0  0  0  0  0  0  0
  147.9289  137.6616  154.9218 C   0  0  0  0  0  0  0  0  0  0  0  0
  150.1744  136.7512  155.6965 C   0  0  0  0  0  0  0  0  0  0  0  0
  150.9635  137.6762  154.7709 C   0  0  0  0  0  0  0  0  0  0  0  0
  151.8367  138.7274  155.4608 C   0  0  0  0  0  0  0  0  0  0  0  0
  152.9540  138.9973  155.0198 O   0  0  0  0  0  0  0  0  0  0  0  0
  151.3082  139.3192  156.5423 N   0  0  0  0  0  0  0  0  0  0  0  0
  151.9556  140.3626  157.3282 C   0  0  0  0  0  0  0  0  0  0  0  0
  151.2835  141.7320  157.1040 C   0  0  0  0  0  0  0  0  0  0  0  0
  151.7080  142.8441  158.0580 C   0  0  0  0  0  0  0  0  0  0  0  0
  151.6291  144.1620  157.7744 C   0  0  0  0  0  0  0  0  0  0  0  0
  152.0232  145.2683  158.7373 C   0  0  0  0  0  0  0  0  0  0  0  0
  152.1783  144.7635  160.1806 C   0  0  0  0  0  0  0  0  0  0  0  0
  152.9455  143.4373  160.2181 C   0  0  0  0  0  0  0  0  0  0  0  0
  152.2222  142.3488  159.4050 C   0  0  0  0  0  0  0  0  0  0  0  0
  150.9157  135.8058  156.5645 C   0  0  0  0  0  0  0  0  0  0  0  0
  152.1440  135.7399  156.5441 O   0  0  0  0  0  0  0  0  0  0  0  0
  150.1758  134.9723  157.4190 N   0  0  0  0  0  0  0  0  0  0  0  0
  147.1267  135.9412  156.6194 H   0  0  0  0  0  0  0  0  0  0  0  0
  148.6587  133.4443  158.8283 H   0  0  0  0  0  0  0  0  0  0  0  0
  147.2915  133.6347  157.7263 H   0  0  0  0  0  0  0  0  0  0  0  0
  147.5263  134.7825  159.0538 H   0  0  0  0  0  0  0  0  0  0  0  0
  148.1354  138.7088  155.1435 H   0  0  0  0  0  0  0  0  0  0  0  0
  146.8719  137.4803  155.1210 H   0  0  0  0  0  0  0  0  0  0  0  0
  148.1014  137.4928  153.8585 H   0  0  0  0  0  0  0  0  0  0  0  0
  150.2977  138.1891  154.0764 H   0  0  0  0  0  0  0  0  0  0  0  0
  151.6005  137.0582  154.1372 H   0  0  0  0  0  0  0  0  0  0  0  0
  150.3850  139.0344  156.8356 H   0  0  0  0  0  0  0  0  0  0  0  0
  151.8825  140.0748  158.3774 H   0  0  0  0  0  0  0  0  0  0  0  0
  153.0185  140.4064  157.0835 H   0  0  0  0  0  0  0  0  0  0  0  0
  151.4846  142.0737  156.0878 H   0  0  0  0  0  0  0  0  0  0  0  0
  150.2016  141.6168  157.1822 H   0  0  0  0  0  0  0  0  0  0  0  0
  151.2755  144.5017  156.8131 H   0  0  0  0  0  0  0  0  0  0  0  0
  152.9604  145.7015  158.3867 H   0  0  0  0  0  0  0  0  0  0  0  0
  151.2740  146.0597  158.7007 H   0  0  0  0  0  0  0  0  0  0  0  0
  152.6850  145.5146  160.7872 H   0  0  0  0  0  0  0  0  0  0  0  0
  151.1927  144.6197  160.6254 H   0  0  0  0  0  0  0  0  0  0  0  0
  153.9458  143.5913  159.8109 H   0  0  0  0  0  0  0  0  0  0  0  0
  153.0800  143.1049  161.2479 H   0  0  0  0  0  0  0  0  0  0  0  0
  151.3701  141.9689  159.9696 H   0  0  0  0  0  0  0  0  0  0  0  0
  152.8972  141.5063  159.2517 H   0  0  0  0  0  0  0  0  0  0  0  0
  1 23  1  0  0  0  0
  1 24  1  0  0  0  0
  1 25  1  0  0  0  0
  1  2  1  0  0  0  0
  2  3  1  0  0  0  0
  2 21  2  0  0  0  0
  3  4  1  0  0  0  0
  3 22  1  0  0  0  0
  4  6  2  0  0  0  0
  4  5  1  0  0  0  0
  5 26  1  0  0  0  0
  5 27  1  0  0  0  0
  5 28  1  0  0  0  0
  6 19  1  0  0  0  0
  6  7  1  0  0  0  0
  7  8  1  0  0  0  0
  7 29  1  0  0  0  0
  7 30  1  0  0  0  0
  8  9  2  0  0  0  0
  8 10  1  0  0  0  0
 10 11  1  0  0  0  0
 10 31  1  0  0  0  0
 11 12  1  0  0  0  0
 11 32  1  0  0  0  0
 11 33  1  0  0  0  0
 12 13  1  0  0  0  0
 12 34  1  0  0  0  0
 12 35  1  0  0  0  0
 13 18  1  0  0  0  0
 13 14  2  0  0  0  0
 14 15  1  0  0  0  0
 14 36  1  0  0  0  0
 15 16  1  0  0  0  0
 15 37  1  0  0  0  0
 15 38  1  0  0  0  0
 16 17  1  0  0  0  0
 16 39  1  0  0  0  0
 16 40  1  0  0  0  0
 17 18  1  0  0  0  0
 17 41  1  0  0  0  0
 17 42  1  0  0  0  0
 18 43  1  0  0  0  0
 18 44  1  0  0  0  0
 19 20  2  0  0  0  0
 19 21  1  0  0  0  0
M  END
> <s_m_source_file>
AV-unprocessed.smi

> <i_m_source_file_index>
1363

> <i_lp_mmshare_version>
43012

> <i_f3d_flags>
0

> <s_epik_input>
W0NIM11jMW5jKFtDSDNdKWMoYyg9TylbbkhdMSlbQ0gyXUMoPU8pW05IXVtDSDJdW0NIMl1DMj1bQ0hdW0NIMl1bQ0gyXVtDSDJdW0NIMl0y

> <s_epik_cmdline>
J2VwaWtfcHl0aG9uJywgJy1waCcsICc3LjAnLCAnLXRuJywgJzgnLCAnLW1hJywgJzIwMCcsICctbWV0YWxfYmluZGluZycsICctaW1hZScsICc8aW5maWxlLm1hZT4nLCAnLW9tYWUnLCAnPG91dGZpbGUubWFlPic=

> <r_lp_tautomer_probability>
0.156392

> <r_epik_Ionization_Penalty>
0.0140998

> <r_epik_Ionization_Penalty_Charging>
0.0139776

> <r_epik_Ionization_Penalty_Neutral>
0.000122158

> <r_epik_State_Penalty>
1.53009

> <r_epik_Charging_Adjusted_Penalty>
1.54407

> <i_epik_Tot_Q>
0

> <i_epik_Tot_abs_Q>
0

> <r_epik_Metal_State_Penalty>
1.7066

> <b_epik_Metal_Only>
0

> <s_lp_Force_Field>
OPLS_2005

> <r_lp_Energy>
12.7953

> <b_lp_Chiralities_Consistent>
1

> <s_lp_Variant>
AV-unprocessed.smi:1363-2

> <Gold.Version>
5.8.1

> <Gold.Id.Protein>
6NUR|6NUR_protein|mol2

> <Gold.PLP.Fitness>
45.1992

> <Gold.PLP.PLP>
-38.9172

> <Gold.PLP.part.hbond>
-3.0000

> <Gold.PLP.part.metal>
0.0000

> <Gold.PLP.part.buried>
-6.4713

> <Gold.PLP.part.nonpolar>
-30.6440

> <Gold.PLP.part.repulsive>
0.0826

> <Gold.PLP.ligand.clash>
0.0000

> <Gold.PLP.ligand.torsion>
0.7585

> <Gold.PLP.Chemscore.Hbond>
2.5868

> <Gold.PLP.Chemscore.CHOScore>
0.0000

> <Gold.PLP.Chemscore.Metal>
0.0000

> <Gold.Chemscore.Hbonds>
donor molecule, donor type, donor heavy atom, donor atom, acceptor molecule, acceptor atom, score
      P1  H  6896  6909       L1    21  0.49
      P1  H  7997  8008       L1     9  0.71
      P1  H 10752 10765       L1    20  1.00

> <Gold.PLP.Chemscore.Internal.Correction>
0.0385

> <Gold.Rescore>
     Score         DG    S(hbond)    S(metal)    S(lipo)     H(rot)  DE(clash)    DE(int)     intcor
     20.19     -20.97       2.58        0.00      99.48       1.86       0.04       0.74       ----

> <Gold.Chemscore.Fitness>
20.1853

> <Gold.Chemscore.DG>
-20.9691

> <Gold.Chemscore.ZeroCoef>
-5.4800

> <Gold.Chemscore.Hbond>
2.5809

> <Gold.Chemscore.Metal>
0.0000

> <Gold.Chemscore.Lipo>
99.4761

> <Gold.Chemscore.Internal_Hbond>
0.0000

> <Gold.Chemscore.DEClash>
0.0402

> <Gold.Chemscore.DEInternal>
0.7436

> <Gold.Chemscore.Rot>
1.8631

> <Gold.Chemscore.Internal.Correction>
   9.000000E+99

> <Gold.Chemscore.Hbonds>
donor molecule, donor type, donor heavy atom, donor atom, acceptor molecule, acceptor atom, score
      P1  H  6896  6909       L1    21  0.25
      P1  H  7997  8008       L1     9  0.71
      P1  H 10752 10765       L1    20  1.00

> <Gold.Chemscore.Hbond.Weighted>
-8.6201

> <Gold.Chemscore.Metal.Weighted>
-0.0000

> <Gold.Chemscore.Lipo.Weighted>
-11.6387

> <Gold.Chemscore.Internal_Hbond.Weighted>
0.0000

> <Gold.Chemscore.DEClash.Weighted>
0.0402

> <Gold.Chemscore.DEInternal.Weighted>
0.7436

> <Gold.Chemscore.Rot.Weighted>
4.7697

> <Gold.Chemscore.Internal.Correction.Weighted>
   9.000000E+99

> <Gold.Protein.RotatedTorsions>
[ 6907 6896 6895 6894 ] final   27.15 input  -60.11 | X-H torsion
[ 7974 7965 7964 7962 ] final  129.54 input  175.53 | X-H torsion
[ 8008 7997 7996 7995 ] final  -33.84 input   59.86 | X-H torsion
[ 10167 10162 10161 10158 ] final   96.81 input  -65.29 | X-H torsion
[ 10718 10713 10712 10709 ] final   79.02 input   66.30 | X-H torsion
[ 10763 10752 10751 10750 ] final -143.46 input  -60.55 | X-H torsion
[ 11005 11000 10999 10996 ] final  175.23 input  -57.11 | X-H torsion

> <Gold.Protein.ActiveResidues>
 VAL166  LYS551  ARG553  GLY616  TRP617  ASP618  TYR619  PRO620  LYS621  CYS622 
 ASP623  PHE694  ASN695  SER759  ASP760  ASP761  ALA762  ILE779  LEU786  VAL792 
 PHE793  MET794  SER795  GLU796  ALA797  LYS798  CYS799  TRP800  GLU811  SER814 

> <Gold.Protein.RotatedAtoms>
  151.9981  134.9943  160.0563 H   0  0  0  0  0  0  0  0  0  0  0  0  # atno 6907 bound_to 6896
  152.1545  133.4538  159.4838 H   0  0  0  0  0  0  0  0  0  0  0  0  # atno 6908 bound_to 6896
  150.6880  134.2065  159.4385 H   0  0  0  0  0  0  0  0  0  0  0  0  # atno 6909 bound_to 6896
  145.0275  139.4076  143.5166 H   0  0  0  0  0  0  0  0  0  0  0  0  # atno 7974 bound_to 7965
  154.4137  140.1700  156.1953 H   0  0  0  0  0  0  0  0  0  0  0  0  # atno 8008 bound_to 7997
  155.9569  140.3396  155.6433 H   0  0  0  0  0  0  0  0  0  0  0  0  # atno 8009 bound_to 7997
  155.6798  140.0721  157.2479 H   0  0  0  0  0  0  0  0  0  0  0  0  # atno 8010 bound_to 7997
  139.7859  144.6871  150.9958 H   0  0  0  0  0  0  0  0  0  0  0  0  # atno 10167 bound_to 10162
  157.6763  130.9895  150.1871 H   0  0  0  0  0  0  0  0  0  0  0  0  # atno 10718 bound_to 10713
  154.8469  135.3467  154.6190 H   0  0  0  0  0  0  0  0  0  0  0  0  # atno 10763 bound_to 10752
  153.6799  135.6980  153.5125 H   0  0  0  0  0  0  0  0  0  0  0  0  # atno 10764 bound_to 10752
  153.2676  135.4303  155.0912 H   0  0  0  0  0  0  0  0  0  0  0  0  # atno 10765 bound_to 10752
  140.3599  134.7122  157.4324 H   0  0  0  0  0  0  0  0  0  0  0  0  # atno 11005 bound_to 11000
  146.3494  139.9807  142.8696 LP  0  0  0  0  0  0  0  0  0  0  0  0  # atno 17320 bound_to 7965
  145.1814  140.9769  143.4264 LP  0  0  0  0  0  0  0  0  0  0  0  0  # atno 17321 bound_to 7965
  140.7819  143.4432  151.0520 LP  0  0  0  0  0  0  0  0  0  0  0  0  # atno 17342 bound_to 10162
  139.8111  143.7949  152.3171 LP  0  0  0  0  0  0  0  0  0  0  0  0  # atno 17343 bound_to 10162
  156.2591  130.3709  149.8150 LP  0  0  0  0  0  0  0  0  0  0  0  0  # atno 17370 bound_to 10713
  156.5901  130.8502  151.3405 LP  0  0  0  0  0  0  0  0  0  0  0  0  # atno 17371 bound_to 10713
  140.0635  134.5962  155.8722 LP  0  0  0  0  0  0  0  0  0  0  0  0  # atno 17394 bound_to 11000
  141.1987  133.6603  156.5806 LP  0  0  0  0  0  0  0  0  0  0  0  0  # atno 17395 bound_to 11000

$$$$
