AV-unprocessed.smi:261|AV-procd|sdf|1984|dock7
  -GOLD-   2262021163D 1   1.00000     0.00000
 Structure written by MMmdl.
 51 54  0  0  0  0  0  0  0  0  1 V2000
  143.7861  132.6958  148.3771 C   0  0  0  0  0  0  0  0  0  0  0  0
  144.0921  133.9182  149.0277 O   0  0  0  0  0  0  0  0  0  0  0  0
  144.8227  133.7507  150.2338 C   0  0  2  0  0  0  0  0  0  0  0  0
  144.0214  133.0574  151.3400 C   0  0  0  0  0  0  0  0  0  0  0  0
  144.6771  133.5377  152.6459 C   0  0  1  0  0  0  0  0  0  0  0  0
  145.8016  132.5919  153.1038 C   0  0  0  0  0  0  0  0  0  0  0  0
  145.5745  131.8826  154.2117 N   0  0  0  0  0  0  0  0  0  0  0  0
  146.8492  132.4897  152.4674 O   0  0  0  0  0  0  0  0  0  0  0  0
  145.1872  134.8664  152.2980 N   0  0  0  0  0  0  0  0  0  0  0  0
  145.4373  135.8410  153.2157 C   0  0  0  0  0  0  0  0  0  0  0  0
  145.1148  135.6017  154.5149 N   0  0  0  0  0  0  0  0  0  0  0  0
  145.3432  136.5195  155.4571 C   0  0  0  0  0  0  0  0  0  0  0  0
  145.8783  137.7328  155.3250 N   0  0  0  0  0  0  0  0  0  0  0  0
  146.2065  137.9868  154.0266 C   0  0  0  0  0  0  0  0  0  0  0  0
  146.0231  137.1091  152.9181 C   0  0  0  0  0  0  0  0  0  0  0  0
  146.4828  137.7285  151.7600 N   0  0  0  0  0  0  0  0  0  0  0  0
  146.9178  138.8911  152.1600 C   0  0  0  0  0  0  0  0  0  0  0  0
  146.7960  139.1270  153.5091 N   0  0  0  0  0  0  0  0  0  0  0  0
  147.2037  140.3242  154.2260 C   0  0  0  0  0  0  0  0  0  0  0  0
  148.7308  140.5602  154.2420 C   0  0  2  0  0  0  0  0  0  0  0  0
  149.1397  141.2875  153.0993 O   0  0  0  0  0  0  0  0  0  0  0  0
  149.5930  139.2881  154.4148 C   0  0  2  0  0  0  0  0  0  0  0  0
  149.3360  138.4720  155.6796 C   0  0  0  0  0  0  0  0  0  0  0  0
  150.5702  137.5930  155.7376 C   0  0  0  0  0  0  0  0  0  0  0  0
  151.6505  138.4359  155.0502 C   0  0  0  0  0  0  0  0  0  0  0  0
  150.9853  139.5589  154.4807 O   0  0  0  0  0  0  0  0  0  0  0  0
  145.1513  135.1058  150.8616 C   0  0  0  0  0  0  0  0  0  0  0  0
  145.7533  133.2098  150.0508 H   0  0  0  0  0  0  0  0  0  0  0  0
  143.9156  133.6049  153.4250 H   0  0  0  0  0  0  0  0  0  0  0  0
  143.2586  132.9015  147.4457 H   0  0  0  0  0  0  0  0  0  0  0  0
  143.1429  132.0648  148.9908 H   0  0  0  0  0  0  0  0  0  0  0  0
  144.6925  132.1404  148.1333 H   0  0  0  0  0  0  0  0  0  0  0  0
  142.9853  133.3982  151.3109 H   0  0  0  0  0  0  0  0  0  0  0  0
  144.0097  131.9717  151.2337 H   0  0  0  0  0  0  0  0  0  0  0  0
  146.2753  131.2408  154.5521 H   0  0  0  0  0  0  0  0  0  0  0  0
  144.6970  131.9860  154.7005 H   0  0  0  0  0  0  0  0  0  0  0  0
  145.0573  136.2406  156.4604 H   0  0  0  0  0  0  0  0  0  0  0  0
  147.3481  139.6099  151.4782 H   0  0  0  0  0  0  0  0  0  0  0  0
  146.6963  141.1792  153.7777 H   0  0  0  0  0  0  0  0  0  0  0  0
  146.8327  140.2562  155.2493 H   0  0  0  0  0  0  0  0  0  0  0  0
  148.9421  141.2078  155.0936 H   0  0  0  0  0  0  0  0  0  0  0  0
  148.9178  140.7866  152.3297 H   0  0  0  0  0  0  0  0  0  0  0  0
  149.4322  138.6425  153.5492 H   0  0  0  0  0  0  0  0  0  0  0  0
  149.3021  139.1135  156.5608 H   0  0  0  0  0  0  0  0  0  0  0  0
  148.4082  137.9010  155.6366 H   0  0  0  0  0  0  0  0  0  0  0  0
  150.8374  137.3165  156.7578 H   0  0  0  0  0  0  0  0  0  0  0  0
  150.4015  136.6749  155.1733 H   0  0  0  0  0  0  0  0  0  0  0  0
  152.4051  138.7820  155.7568 H   0  0  0  0  0  0  0  0  0  0  0  0
  152.1542  137.8648  154.2694 H   0  0  0  0  0  0  0  0  0  0  0  0
  146.1012  135.4867  150.4856 H   0  0  0  0  0  0  0  0  0  0  0  0
  144.3694  135.8345  150.6417 H   0  0  0  0  0  0  0  0  0  0  0  0
  1  2  1  0  0  0  0
  1 30  1  0  0  0  0
  1 31  1  0  0  0  0
  1 32  1  0  0  0  0
  2  3  1  0  0  0  0
  3 28  1  0  0  0  0
  3 27  1  0  0  0  0
  3  4  1  0  0  0  0
  4  5  1  0  0  0  0
  4 33  1  0  0  0  0
  4 34  1  0  0  0  0
  5 29  1  0  0  0  0
  5  6  1  0  0  0  0
  5  9  1  0  0  0  0
  6  7  1  0  0  0  0
  6  8  2  0  0  0  0
  7 35  1  0  0  0  0
  7 36  1  0  0  0  0
  9 10  1  0  0  0  0
  9 27  1  0  0  0  0
 10 15  1  0  0  0  0
 10 11  2  0  0  0  0
 11 12  1  0  0  0  0
 12 13  2  0  0  0  0
 12 37  1  0  0  0  0
 13 14  1  0  0  0  0
 14 18  1  0  0  0  0
 14 15  2  0  0  0  0
 15 16  1  0  0  0  0
 16 17  2  0  0  0  0
 17 18  1  0  0  0  0
 17 38  1  0  0  0  0
 18 19  1  0  0  0  0
 19 20  1  0  0  0  0
 19 39  1  0  0  0  0
 19 40  1  0  0  0  0
 20 21  1  0  0  0  0
 20 22  1  0  0  0  0
 20 41  1  0  0  0  0
 21 42  1  0  0  0  0
 22 26  1  0  0  0  0
 22 23  1  0  0  0  0
 22 43  1  0  0  0  0
 23 24  1  0  0  0  0
 23 44  1  0  0  0  0
 23 45  1  0  0  0  0
 24 25  1  0  0  0  0
 24 46  1  0  0  0  0
 24 47  1  0  0  0  0
 25 26  1  0  0  0  0
 25 48  1  0  0  0  0
 25 49  1  0  0  0  0
 27 50  1  0  0  0  0
 27 51  1  0  0  0  0
M  END
> <s_m_source_file>
AV-unprocessed.smi

> <i_m_source_file_index>
261

> <i_lp_mmshare_version>
43012

> <i_f3d_flags>
0

> <s_epik_input>
W0NIM11PW0NASF0xW0NIMl1bQ0BASF0oQyg9TylbTkgyXSlOKFtDSDJdMSljKG5bY0hdbjIpYyhjMjMpbltjSF1uM1tDSDJdW0NASF0oW09IXSlbQ0BASF00W0NIMl1bQ0gyXVtDSDJdTzQ=

> <s_epik_cmdline>
J2VwaWtfcHl0aG9uJywgJy1waCcsICc3LjAnLCAnLXRuJywgJzgnLCAnLW1hJywgJzIwMCcsICctbWV0YWxfYmluZGluZycsICctaW1hZScsICc8aW5maWxlLm1hZT4nLCAnLW9tYWUnLCAnPG91dGZpbGUubWFlPic=

> <r_lp_tautomer_probability>
1

> <r_epik_Ionization_Penalty>
0.000713824

> <r_epik_Ionization_Penalty_Charging>
0

> <r_epik_Ionization_Penalty_Neutral>
0.000713824

> <r_epik_State_Penalty>
0.000402132

> <r_epik_Charging_Adjusted_Penalty>
0.000402132

> <i_epik_Tot_Q>
0

> <i_epik_Tot_abs_Q>
0

> <r_epik_Metal_State_Penalty>
-0

> <b_epik_Metal_Only>
0

> <s_lp_Force_Field>
OPLS_2005

> <r_lp_Energy>
44.2831

> <b_lp_Chiralities_Consistent>
1

> <s_lp_Variant>
AV-unprocessed.smi:261-2

> <Gold.Version>
5.8.1

> <Gold.Id.Protein>
6NUR|6NUR_protein|mol2

> <Gold.PLP.Fitness>
45.3211

> <Gold.PLP.PLP>
-32.9710

> <Gold.PLP.part.hbond>
-4.2684

> <Gold.PLP.part.metal>
0.0000

> <Gold.PLP.part.buried>
-4.1508

> <Gold.PLP.part.nonpolar>
-29.7985

> <Gold.PLP.part.repulsive>
5.4579

> <Gold.PLP.ligand.clash>
0.0000

> <Gold.PLP.ligand.torsion>
0.6101

> <Gold.PLP.Chemscore.Hbond>
3.5191

> <Gold.PLP.Chemscore.CHOScore>
0.9475

> <Gold.PLP.Chemscore.Metal>
0.0000

> <Gold.Chemscore.Hbonds>
donor molecule, donor type, donor heavy atom, donor atom, acceptor molecule, acceptor atom, score
      L1  H     7    36       P1 10957  1.00
      L1  H    21    42       P1  7957  0.80
      P1  H  7989  7998       L1    26  1.00
      P1  H  8011  8017       L1    21  0.66
      L1  C    17    38       P1  7957  0.95

> <Gold.PLP.Chemscore.Internal.Correction>
0.1705

> <Gold.Rescore>
     Score         DG    S(hbond)    S(metal)    S(lipo)     H(rot)  DE(clash)    DE(int)     intcor
      9.63     -12.52       2.09        0.00      70.15       3.18       1.68       1.22       ----

> <Gold.Chemscore.Fitness>
9.6255

> <Gold.Chemscore.DG>
-12.5222

> <Gold.Chemscore.ZeroCoef>
-5.4800

> <Gold.Chemscore.Hbond>
2.0907

> <Gold.Chemscore.Metal>
0.0000

> <Gold.Chemscore.Lipo>
70.1539

> <Gold.Chemscore.Internal_Hbond>
0.0000

> <Gold.Chemscore.DEClash>
1.6770

> <Gold.Chemscore.DEInternal>
1.2197

> <Gold.Chemscore.Rot>
3.1831

> <Gold.Chemscore.Internal.Correction>
   9.000000E+99

> <Gold.Chemscore.Hbonds>
donor molecule, donor type, donor heavy atom, donor atom, acceptor molecule, acceptor atom, score
      L1  H     7    36       P1 10957  0.23
      L1  H    21    42       P1  7957  0.75
      P1  H  7989  7998       L1    26  0.97
      P1  H  8011  8017       L1    21  0.06

> <Gold.Chemscore.Hbond.Weighted>
-6.9828

> <Gold.Chemscore.Metal.Weighted>
-0.0000

> <Gold.Chemscore.Lipo.Weighted>
-8.2080

> <Gold.Chemscore.Internal_Hbond.Weighted>
0.0000

> <Gold.Chemscore.DEClash.Weighted>
1.6770

> <Gold.Chemscore.DEInternal.Weighted>
1.2197

> <Gold.Chemscore.Rot.Weighted>
8.1486

> <Gold.Chemscore.Internal.Correction.Weighted>
   9.000000E+99

> <Gold.Protein.RotatedTorsions>
[ 6907 6896 6895 6894 ] final  166.69 input  -60.11 | X-H torsion
[ 7974 7965 7964 7962 ] final  -45.00 input  175.53 | X-H torsion
[ 8008 7997 7996 7995 ] final  148.44 input   59.86 | X-H torsion
[ 10167 10162 10161 10158 ] final   75.89 input  -65.29 | X-H torsion
[ 10718 10713 10712 10709 ] final  -63.68 input   66.30 | X-H torsion
[ 10763 10752 10751 10750 ] final  166.89 input  -60.55 | X-H torsion
[ 11005 11000 10999 10996 ] final   97.40 input  -57.11 | X-H torsion

> <Gold.Protein.ActiveResidues>
 VAL166  LYS551  ARG553  GLY616  TRP617  ASP618  TYR619  PRO620  LYS621  CYS622 
 ASP623  PHE694  ASN695  SER759  ASP760  ASP761  ALA762  ILE779  LEU786  VAL792 
 PHE793  MET794  SER795  GLU796  ALA797  LYS798  CYS799  TRP800  GLU811  SER814 

> <Gold.Protein.RotatedAtoms>
  151.8749  133.3483  159.3746 H   0  0  0  0  0  0  0  0  0  0  0  0  # atno 6907 bound_to 6896
  150.7143  134.5076  159.5601 H   0  0  0  0  0  0  0  0  0  0  0  0  # atno 6908 bound_to 6896
  152.2616  134.8028  160.0480 H   0  0  0  0  0  0  0  0  0  0  0  0  # atno 6909 bound_to 6896
  145.9865  140.7227  142.9338 H   0  0  0  0  0  0  0  0  0  0  0  0  # atno 7974 bound_to 7965
  156.2791  140.2128  156.5698 H   0  0  0  0  0  0  0  0  0  0  0  0  # atno 8008 bound_to 7997
  154.7145  140.0509  157.0604 H   0  0  0  0  0  0  0  0  0  0  0  0  # atno 8009 bound_to 7997
  155.0561  140.3161  155.4679 H   0  0  0  0  0  0  0  0  0  0  0  0  # atno 8010 bound_to 7997
  139.9982  144.5706  150.7760 H   0  0  0  0  0  0  0  0  0  0  0  0  # atno 10167 bound_to 10162
  156.0776  130.4224  150.1311 H   0  0  0  0  0  0  0  0  0  0  0  0  # atno 10718 bound_to 10713
  154.3456  135.2753  155.2399 H   0  0  0  0  0  0  0  0  0  0  0  0  # atno 10763 bound_to 10752
  154.4650  135.5897  153.6286 H   0  0  0  0  0  0  0  0  0  0  0  0  # atno 10764 bound_to 10752
  152.9854  135.6074  154.3662 H   0  0  0  0  0  0  0  0  0  0  0  0  # atno 10765 bound_to 10752
  139.8776  134.8999  156.4301 H   0  0  0  0  0  0  0  0  0  0  0  0  # atno 11005 bound_to 11000
  144.6876  140.2997  143.7265 LP  0  0  0  0  0  0  0  0  0  0  0  0  # atno 17320 bound_to 7965
  145.7693  139.1851  143.2221 LP  0  0  0  0  0  0  0  0  0  0  0  0  # atno 17321 bound_to 7965
  140.7429  143.2838  151.3521 LP  0  0  0  0  0  0  0  0  0  0  0  0  # atno 17342 bound_to 10162
  139.6291  144.0756  152.2460 LP  0  0  0  0  0  0  0  0  0  0  0  0  # atno 17343 bound_to 10162
  156.9349  130.9726  151.3526 LP  0  0  0  0  0  0  0  0  0  0  0  0  # atno 17370 bound_to 10713
  157.5879  130.8422  149.8616 LP  0  0  0  0  0  0  0  0  0  0  0  0  # atno 17371 bound_to 10713
  140.9072  133.7737  155.9749 LP  0  0  0  0  0  0  0  0  0  0  0  0  # atno 17394 bound_to 11000
  140.8586  134.2868  157.5244 LP  0  0  0  0  0  0  0  0  0  0  0  0  # atno 17395 bound_to 11000

$$$$
