#       Name:                AV-unprocessed.smi:1851
#       Creating user name   scv26
#       Creation time:       Fri Mar 27 09:23:21 2020


#       File generated by GOLD software.
#

@<TRIPOS>MOLECULE
AV-unprocessed.smi:1851
    44    46     1
SMALL
NO_CHARGES


@<TRIPOS>ATOM
      1 ****        -2.9627   3.4111  -3.5364 O.2            1 S1                 0.0000
      2 ****        -3.0038   3.8792  -2.3998 C.2            1 S1                 0.0000
      3 ****        -2.2012   3.4966  -1.3965 N.am           1 S1                 0.0000
      4 ****        -1.1290   2.5125  -1.5129 C.3            1 S1                 0.0000
      5 ****        -1.5838   1.0861  -1.4191 C.2            1 S1                 0.0000
      6 ****        -2.8665   0.6246  -1.4918 N.pl3          1 S1                 1.0000
      7 ****        -2.8809  -0.7641  -1.3573 C.ar           1 S1                 0.0000
      8 ****        -3.9365  -1.6707  -1.3630 C.ar           1 S1                 0.0000
      9 ****        -3.6028  -3.0310  -1.1960 C.ar           1 S1                 0.0000
     10 ****        -2.2644  -3.4441  -1.0317 C.ar           1 S1                 0.0000
     11 ****        -1.2027  -2.5154  -1.0298 C.ar           1 S1                 0.0000
     12 ****        -1.5420  -1.1732  -1.1969 C.ar           1 S1                 0.0000
     13 ****        -0.7791  -0.0019  -1.2478 N.pl3          1 S1                 0.0000
     14 ****         0.6806  -0.0917  -1.1176 C.3            1 S1                 0.0000
     15 ****         1.1239  -0.1542   0.3489 C.3            1 S1                 0.0000
     16 ****         2.5419  -0.2195   0.3850 O.3            1 S1                 0.0000
     17 ****         3.1610  -0.2896   1.6143 C.ar           1 S1                 0.0000
     18 ****         4.5697  -0.3568   1.6172 C.ar           1 S1                 0.0000
     19 ****         5.2857  -0.4314   2.8274 C.ar           1 S1                 0.0000
     20 ****         4.5953  -0.4397   4.0536 C.ar           1 S1                 0.0000
     21 ****         5.4699  -0.5310   5.5380 Cl             1 S1                 0.0000
     22 ****         3.1895  -0.3728   4.0657 C.ar           1 S1                 0.0000
     23 ****         2.4737  -0.2978   2.8548 C.ar           1 S1                 0.0000
     24 ****        -3.7030   4.6623  -2.0685 H              1 S1                 0.0000
     25 ****        -2.3193   3.9413  -0.4974 H              1 S1                 0.0000
     26 ****        -0.5874   2.6524  -2.4497 H              1 S1                 0.0000
     27 ****        -0.4141   2.7025  -0.7120 H              1 S1                 0.0000
     28 ****        -4.9623  -1.3563  -1.4881 H              1 S1                 0.0000
     29 ****        -4.3889  -3.7723  -1.1932 H              1 S1                 0.0000
     30 ****        -2.0469  -4.4947  -0.9048 H              1 S1                 0.0000
     31 ****        -0.1809  -2.8412  -0.9025 H              1 S1                 0.0000
     32 ****         1.0314  -0.9622  -1.6730 H              1 S1                 0.0000
     33 ****         1.1151   0.7815  -1.6050 H              1 S1                 0.0000
     34 ****         0.7730   0.7329   0.8787 H              1 S1                 0.0000
     35 ****         0.6938  -1.0334   0.8311 H              1 S1                 0.0000
     36 ****         5.1078  -0.3513   0.6806 H              1 S1                 0.0000
     37 ****         6.3646  -0.4821   2.8122 H              1 S1                 0.0000
     38 ****         2.6568  -0.3785   5.0053 H              1 S1                 0.0000
     39 ****         1.3968  -0.2475   2.9055 H              1 S1                 0.0000
     40 ****        -3.6715   1.2222  -1.6287 H              1 S1                 0.0000
     41 ****        -2.2989   2.6972  -3.7594 LP             1 S1                 0.0000
     42 ****        -3.5931   3.7444  -4.2375 LP             1 S1                 0.0000
     43 ****         2.8879   0.5984  -0.0746 LP             1 S1                 0.0000
     44 ****         2.8142  -1.0320  -0.1305 LP             1 S1                 0.0000
@<TRIPOS>BOND
    1    1    2 2     
    2    2    3 am    
    3    2   24 1     
    4    3    4 1     
    5    3   25 1     
    6    4    5 1     
    7    4   26 1     
    8    4   27 1     
    9    5   13 1     
   10    5    6 2     
   11    6    7 1     
   12    6   40 1     
   13    7   12 ar    
   14    7    8 ar    
   15    8    9 ar    
   16    8   28 1     
   17    9   10 ar    
   18    9   29 1     
   19   10   11 ar    
   20   10   30 1     
   21   11   12 ar    
   22   11   31 1     
   23   12   13 1     
   24   13   14 1     
   25   14   15 1     
   26   14   32 1     
   27   14   33 1     
   28   15   16 1     
   29   15   34 1     
   30   15   35 1     
   31   16   17 1     
   32   17   23 ar    
   33   17   18 ar    
   34   18   19 ar    
   35   18   36 1     
   36   19   20 ar    
   37   19   37 1     
   38   20   21 1     
   39   20   22 ar    
   40   22   23 ar    
   41   22   38 1     
   42   23   39 1     
   43    1   41 1     
   44    1   42 1     
   45   16   43 1     
   46   16   44 1     
@<TRIPOS>SUBSTRUCTURE
      1 S1             1
@<TRIPOS>SET
LONE_PAIRS      STATIC     ATOMS    <user>   **** ""
4 41 42 43 44
DONOR_HYDROGENS      STATIC     ATOMS    <user>   **** ""
2 25 40
ATOM$BLUE        STATIC     ATOMS    COLORGROUP SYSTEM
4 41 42 43 44
ATOM$RED        STATIC     ATOMS    COLORGROUP SYSTEM
2 25 40
