AV-unprocessed.smi:2132|AV-procd|sdf|8691|dock7
  -GOLD-   2272011443D 1   1.00000     0.00000
 Structure written by MMmdl.
 38 39  0  0  0  0  0  0  0  0  1 V2000
  156.6273  141.3355  164.9497 C   0  0  0  0  0  0  0  0  0  0  0  0
  156.3926  141.0783  163.5767 O   0  0  0  0  0  0  0  0  0  0  0  0
  155.0230  140.8417  163.2942 C   0  0  0  0  0  0  0  0  0  0  0  0
  154.8845  140.3450  161.8487 C   0  0  0  0  0  0  0  0  0  0  0  0
  154.0109  141.2126  161.0684 N   0  0  0  0  0  0  0  0  0  0  0  0
  153.6907  141.0330  159.7768 C   0  0  0  0  0  0  0  0  0  0  0  0
  154.1283  140.1076  159.0928 O   0  0  0  0  0  0  0  0  0  0  0  0
  152.8092  142.0890  159.1612 C   0  0  0  0  0  0  0  0  0  0  0  0
  152.8093  143.3808  159.7344 C   0  0  0  0  0  0  0  0  0  0  0  0
  151.9898  144.3848  159.1897 C   0  0  0  0  0  0  0  0  0  0  0  0
  151.1962  144.0625  158.0761 C   0  0  0  0  0  0  0  0  0  0  0  0
  151.1954  142.8434  157.5012 N   0  0  0  0  0  0  0  0  0  0  0  0
  151.9868  141.8686  158.0141 C   0  0  0  0  0  0  0  0  0  0  0  0
  151.9843  140.6385  157.3262 N   0  0  0  0  0  0  0  0  0  0  0  0
  151.3252  140.6860  156.0271 C   0  0  0  0  0  0  0  0  0  0  0  0
  151.6335  139.4015  155.2390 C   0  0  0  0  0  0  0  0  0  0  0  0
  151.2561  138.2625  156.0085 O   0  0  0  0  0  0  0  0  0  0  0  0
  151.9634  138.1898  157.2437 C   0  0  0  0  0  0  0  0  0  0  0  0
  151.6561  139.4383  158.0877 C   0  0  0  0  0  0  0  0  0  0  0  0
  157.6901  141.5143  165.1121 H   0  0  0  0  0  0  0  0  0  0  0  0
  156.3315  140.4856  165.5661 H   0  0  0  0  0  0  0  0  0  0  0  0
  156.0820  142.2184  165.2851 H   0  0  0  0  0  0  0  0  0  0  0  0
  154.6079  140.1119  163.9916 H   0  0  0  0  0  0  0  0  0  0  0  0
  154.4590  141.7673  163.4183 H   0  0  0  0  0  0  0  0  0  0  0  0
  155.8664  140.2824  161.3770 H   0  0  0  0  0  0  0  0  0  0  0  0
  154.4724  139.3357  161.8377 H   0  0  0  0  0  0  0  0  0  0  0  0
  153.6250  142.0156  161.5437 H   0  0  0  0  0  0  0  0  0  0  0  0
  153.4232  143.6037  160.5952 H   0  0  0  0  0  0  0  0  0  0  0  0
  151.9682  145.3762  159.6172 H   0  0  0  0  0  0  0  0  0  0  0  0
  150.5505  144.8044  157.6302 H   0  0  0  0  0  0  0  0  0  0  0  0
  150.2494  140.7852  156.1764 H   0  0  0  0  0  0  0  0  0  0  0  0
  151.6502  141.5578  155.4588 H   0  0  0  0  0  0  0  0  0  0  0  0
  151.0811  139.3951  154.2994 H   0  0  0  0  0  0  0  0  0  0  0  0
  152.6937  139.3471  154.9865 H   0  0  0  0  0  0  0  0  0  0  0  0
  151.6572  137.2900  157.7772 H   0  0  0  0  0  0  0  0  0  0  0  0
  153.0350  138.1016  157.0562 H   0  0  0  0  0  0  0  0  0  0  0  0
  152.2316  139.4167  159.0139 H   0  0  0  0  0  0  0  0  0  0  0  0
  150.5995  139.4500  158.3586 H   0  0  0  0  0  0  0  0  0  0  0  0
  1  2  1  0  0  0  0
  1 20  1  0  0  0  0
  1 21  1  0  0  0  0
  1 22  1  0  0  0  0
  2  3  1  0  0  0  0
  3  4  1  0  0  0  0
  3 23  1  0  0  0  0
  3 24  1  0  0  0  0
  4  5  1  0  0  0  0
  4 25  1  0  0  0  0
  4 26  1  0  0  0  0
  5  6  1  0  0  0  0
  5 27  1  0  0  0  0
  6  7  2  0  0  0  0
  6  8  1  0  0  0  0
  8 13  1  0  0  0  0
  8  9  2  0  0  0  0
  9 10  1  0  0  0  0
  9 28  1  0  0  0  0
 10 11  2  0  0  0  0
 10 29  1  0  0  0  0
 11 12  1  0  0  0  0
 11 30  1  0  0  0  0
 12 13  2  0  0  0  0
 13 14  1  0  0  0  0
 14 19  1  0  0  0  0
 14 15  1  0  0  0  0
 15 16  1  0  0  0  0
 15 31  1  0  0  0  0
 15 32  1  0  0  0  0
 16 17  1  0  0  0  0
 16 33  1  0  0  0  0
 16 34  1  0  0  0  0
 17 18  1  0  0  0  0
 18 19  1  0  0  0  0
 18 35  1  0  0  0  0
 18 36  1  0  0  0  0
 19 37  1  0  0  0  0
 19 38  1  0  0  0  0
M  END
> <s_m_source_file>
AV-unprocessed.smi

> <i_m_source_file_index>
2132

> <i_lp_mmshare_version>
43012

> <i_f3d_flags>
0

> <s_epik_input>
W0NIM11PW0NIMl1bQ0gyXVtOSF1DKD1PKWMxW2NIXVtjSF1bY0hdbmMxTjJbQ0gyXVtDSDJdT1tDSDJdW0NIMl0y

> <s_epik_cmdline>
J2VwaWtfcHl0aG9uJywgJy1waCcsICc3LjAnLCAnLXRuJywgJzgnLCAnLW1hJywgJzIwMCcsICctbWV0YWxfYmluZGluZycsICctaW1hZScsICc8aW5maWxlLm1hZT4nLCAnLW9tYWUnLCAnPG91dGZpbGUubWFlPic=

> <r_lp_tautomer_probability>
1

> <r_epik_Ionization_Penalty>
1.38099e-05

> <r_epik_Ionization_Penalty_Charging>
0

> <r_epik_Ionization_Penalty_Neutral>
1.38099e-05

> <r_epik_State_Penalty>
-0

> <r_epik_Charging_Adjusted_Penalty>
0

> <i_epik_Tot_Q>
0

> <i_epik_Tot_abs_Q>
0

> <r_epik_Metal_State_Penalty>
-0

> <b_epik_Metal_Only>
0

> <s_lp_Force_Field>
OPLS_2005

> <r_lp_Energy>
24.8445

> <b_lp_Chiralities_Consistent>
1

> <s_lp_Variant>
AV-unprocessed.smi:2132-1

> <Gold.Version>
5.8.1

> <Gold.Id.Protein>
6NUR|6NUR_protein|mol2

> <Gold.PLP.Fitness>
39.6502

> <Gold.PLP.PLP>
-35.0348

> <Gold.PLP.part.hbond>
-1.8587

> <Gold.PLP.part.metal>
0.0000

> <Gold.PLP.part.buried>
-2.9762

> <Gold.PLP.part.nonpolar>
-30.2330

> <Gold.PLP.part.repulsive>
0.1133

> <Gold.PLP.ligand.clash>
0.0000

> <Gold.PLP.ligand.torsion>
0.8193

> <Gold.PLP.Chemscore.Hbond>
0.9760

> <Gold.PLP.Chemscore.CHOScore>
1.0238

> <Gold.PLP.Chemscore.Metal>
0.0000

> <Gold.Chemscore.Hbonds>
donor molecule, donor type, donor heavy atom, donor atom, acceptor molecule, acceptor atom, score
      P1  H  7997  8008       L1     7  0.96
      L1  C    11    30       P1  8028  0.98
      L1  C    11    30       P1  8029  0.02

> <Gold.PLP.Chemscore.Internal.Correction>
0.2547

> <Gold.Rescore>
     Score         DG    S(hbond)    S(metal)    S(lipo)     H(rot)  DE(clash)    DE(int)     intcor
     11.30     -14.95       0.97        0.00      88.63       1.62       0.11       3.54       ----

> <Gold.Chemscore.Fitness>
11.2959

> <Gold.Chemscore.DG>
-14.9495

> <Gold.Chemscore.ZeroCoef>
-5.4800

> <Gold.Chemscore.Hbond>
0.9729

> <Gold.Chemscore.Metal>
0.0000

> <Gold.Chemscore.Lipo>
88.6301

> <Gold.Chemscore.Internal_Hbond>
0.0000

> <Gold.Chemscore.DEClash>
0.1141

> <Gold.Chemscore.DEInternal>
3.5394

> <Gold.Chemscore.Rot>
1.6209

> <Gold.Chemscore.Internal.Correction>
   9.000000E+99

> <Gold.Chemscore.Hbonds>
donor molecule, donor type, donor heavy atom, donor atom, acceptor molecule, acceptor atom, score
      P1  H  7997  8008       L1     7  0.89

> <Gold.Chemscore.Hbond.Weighted>
-3.2493

> <Gold.Chemscore.Metal.Weighted>
-0.0000

> <Gold.Chemscore.Lipo.Weighted>
-10.3697

> <Gold.Chemscore.Internal_Hbond.Weighted>
0.0000

> <Gold.Chemscore.DEClash.Weighted>
0.1141

> <Gold.Chemscore.DEInternal.Weighted>
3.5394

> <Gold.Chemscore.Rot.Weighted>
4.1496

> <Gold.Chemscore.Internal.Correction.Weighted>
   9.000000E+99

> <Gold.Protein.RotatedTorsions>
[ 6907 6896 6895 6894 ] final -118.89 input  -60.11 | X-H torsion
[ 7974 7965 7964 7962 ] final   80.38 input  175.53 | X-H torsion
[ 8008 7997 7996 7995 ] final -115.50 input   59.86 | X-H torsion
[ 10167 10162 10161 10158 ] final  131.82 input  -65.29 | X-H torsion
[ 10718 10713 10712 10709 ] final  -28.67 input   66.30 | X-H torsion
[ 10763 10752 10751 10750 ] final -149.45 input  -60.55 | X-H torsion
[ 11005 11000 10999 10996 ] final  -68.70 input  -57.11 | X-H torsion

> <Gold.Protein.ActiveResidues>
 VAL166  LYS551  ARG553  GLY616  TRP617  ASP618  TYR619  PRO620  LYS621  CYS622 
 ASP623  PHE694  ASN695  SER759  ASP760  ASP761  ALA762  ILE779  LEU786  VAL792 
 PHE793  MET794  SER795  GLU796  ALA797  LYS798  CYS799  TRP800  GLU811  SER814 

> <Gold.Protein.RotatedAtoms>
  150.8258  133.8175  159.3119 H   0  0  0  0  0  0  0  0  0  0  0  0  # atno 6907 bound_to 6896
  151.5919  135.1051  160.0050 H   0  0  0  0  0  0  0  0  0  0  0  0  # atno 6908 bound_to 6896
  152.4343  133.7291  159.6634 H   0  0  0  0  0  0  0  0  0  0  0  0  # atno 6909 bound_to 6896
  145.6519  139.2450  143.1972 H   0  0  0  0  0  0  0  0  0  0  0  0  # atno 7974 bound_to 7965
  155.0531  140.0393  157.2550 H   0  0  0  0  0  0  0  0  0  0  0  0  # atno 8008 bound_to 7997
  154.7121  140.2695  155.6595 H   0  0  0  0  0  0  0  0  0  0  0  0  # atno 8009 bound_to 7997
  156.2792  140.2719  156.1766 H   0  0  0  0  0  0  0  0  0  0  0  0  # atno 8010 bound_to 7997
  139.5367  144.6689  151.4763 H   0  0  0  0  0  0  0  0  0  0  0  0  # atno 10167 bound_to 10162
  156.4222  130.4428  149.7176 H   0  0  0  0  0  0  0  0  0  0  0  0  # atno 10718 bound_to 10713
  154.8176  135.3309  154.7130 H   0  0  0  0  0  0  0  0  0  0  0  0  # atno 10763 bound_to 10752
  153.7768  135.6921  153.4900 H   0  0  0  0  0  0  0  0  0  0  0  0  # atno 10764 bound_to 10752
  153.2007  135.4517  155.0211 H   0  0  0  0  0  0  0  0  0  0  0  0  # atno 10765 bound_to 10752
  141.1538  133.6747  156.6487 H   0  0  0  0  0  0  0  0  0  0  0  0  # atno 11005 bound_to 11000
  146.1196  140.7325  142.9464 LP  0  0  0  0  0  0  0  0  0  0  0  0  # atno 17320 bound_to 7965
  144.7119  140.4071  143.7074 LP  0  0  0  0  0  0  0  0  0  0  0  0  # atno 17321 bound_to 7965
  140.6577  143.8565  150.6853 LP  0  0  0  0  0  0  0  0  0  0  0  0  # atno 17342 bound_to 10162
  140.1950  143.4006  152.1835 LP  0  0  0  0  0  0  0  0  0  0  0  0  # atno 17343 bound_to 10162
  156.4112  130.7723  151.2736 LP  0  0  0  0  0  0  0  0  0  0  0  0  # atno 17370 bound_to 10713
  157.7508  131.0211  150.3735 LP  0  0  0  0  0  0  0  0  0  0  0  0  # atno 17371 bound_to 10713
  140.3337  134.7907  157.4346 LP  0  0  0  0  0  0  0  0  0  0  0  0  # atno 17394 bound_to 11000
  140.0995  134.5492  155.8366 LP  0  0  0  0  0  0  0  0  0  0  0  0  # atno 17395 bound_to 11000

$$$$
