AV-unprocessed.smi:2554|AV-procd|sdf|10020|dock3
  -GOLD-   2272014 63D 1   1.00000     0.00000
 Structure written by MMmdl.
 21 21  0  0  0  0  0  0  0  0  2 V2000
  146.1682  130.2568  151.7547 C   0  0  0  0  0  0  0  0  0  0  0  0
  145.9703  131.7167  151.4868 C   0  0  0  0  0  0  0  0  0  0  0  0
  146.8843  132.6623  151.9580 N   0  0  0  0  0  0  0  0  0  0  0  0
  146.3999  133.8230  151.5349 C   0  0  0  0  0  0  0  0  0  0  0  0
  145.2674  133.6978  150.8385 N   0  0  0  0  0  0  0  0  0  0  0  0
  144.9591  132.3479  150.7907 C   0  0  0  0  0  0  0  0  0  0  0  0
  143.7585  131.8101  150.0837 C   0  0  0  0  0  0  0  0  0  0  0  0
  143.6513  132.3027  148.6347 C   0  0  0  0  0  0  0  0  0  0  0  0
  142.3402  131.9743  148.0512 N   0  3  0  0  0  0  0  0  0  0  0  0
  144.7345  134.4515  150.4286 H   0  0  0  0  0  0  0  0  0  0  0  0
  145.3719  129.6546  151.3173 H   0  0  0  0  0  0  0  0  0  0  0  0
  146.1845  130.0530  152.8255 H   0  0  0  0  0  0  0  0  0  0  0  0
  147.1121  129.9060  151.3375 H   0  0  0  0  0  0  0  0  0  0  0  0
  146.8750  134.7728  151.7324 H   0  0  0  0  0  0  0  0  0  0  0  0
  142.8602  132.0946  150.6336 H   0  0  0  0  0  0  0  0  0  0  0  0
  143.7878  130.7199  150.1010 H   0  0  0  0  0  0  0  0  0  0  0  0
  143.7952  133.3827  148.5889 H   0  0  0  0  0  0  0  0  0  0  0  0
  144.4301  131.8481  148.0215 H   0  0  0  0  0  0  0  0  0  0  0  0
  142.4096  131.9783  147.0433 H   0  0  0  0  0  0  0  0  0  0  0  0
  141.6586  132.6599  148.3440 H   0  0  0  0  0  0  0  0  0  0  0  0
  142.0519  131.0582  148.3639 H   0  0  0  0  0  0  0  0  0  0  0  0
  1 11  1  0  0  0  0
  1 12  1  0  0  0  0
  1 13  1  0  0  0  0
  1  2  1  0  0  0  0
  2  6  2  0  0  0  0
  2  3  1  0  0  0  0
  3  4  2  0  0  0  0
  4  5  1  0  0  0  0
  4 14  1  0  0  0  0
  5  6  1  0  0  0  0
  5 10  1  0  0  0  0
  6  7  1  0  0  0  0
  7  8  1  0  0  0  0
  7 15  1  0  0  0  0
  7 16  1  0  0  0  0
  8  9  1  0  0  0  0
  8 17  1  0  0  0  0
  8 18  1  0  0  0  0
  9 19  1  0  0  0  0
  9 20  1  0  0  0  0
  9 21  1  0  0  0  0
M  CHG  1   9   1
M  END
> <s_m_source_file>
AV-unprocessed.smi

> <i_m_source_file_index>
2554

> <i_lp_mmshare_version>
43012

> <i_f3d_flags>
0

> <s_epik_input>
W0NIM11jMVtuSF1bY0hdbmMxW0NIMl1bQ0gyXVtOSDJd

> <s_epik_cmdline>
J2VwaWtfcHl0aG9uJywgJy1waCcsICc3LjAnLCAnLXRuJywgJzgnLCAnLW1hJywgJzIwMCcsICctbWV0YWxfYmluZGluZycsICctaW1hZScsICc8aW5maWxlLm1hZT4nLCAnLW9tYWUnLCAnPG91dGZpbGUubWFlPic=

> <r_lp_tautomer_probability>
0.5

> <r_epik_Ionization_Penalty>
0.309087

> <r_epik_Ionization_Penalty_Charging>
0.309086

> <r_epik_Ionization_Penalty_Neutral>
3.24025e-07

> <r_epik_State_Penalty>
0.652852

> <r_epik_Charging_Adjusted_Penalty>
0.961938

> <i_epik_Tot_Q>
1

> <i_epik_Tot_abs_Q>
1

> <r_epik_Metal_State_Penalty>
0.386365

> <b_epik_Metal_Only>
0

> <s_lp_Force_Field>
OPLS_2005

> <r_lp_Energy>
3.85871

> <b_lp_Chiralities_Consistent>
1

> <s_lp_Variant>
AV-unprocessed.smi:2554-2

> <Gold.Version>
5.8.1

> <Gold.Id.Protein>
6NUR|6NUR_protein|mol2

> <Gold.PLP.Fitness>
37.2486

> <Gold.PLP.PLP>
-22.4507

> <Gold.PLP.part.hbond>
-3.0000

> <Gold.PLP.part.metal>
0.0000

> <Gold.PLP.part.buried>
-4.3624

> <Gold.PLP.part.nonpolar>
-15.9686

> <Gold.PLP.part.repulsive>
0.4027

> <Gold.PLP.ligand.clash>
0.0000

> <Gold.PLP.ligand.torsion>
0.0881

> <Gold.PLP.Chemscore.Hbond>
3.9913

> <Gold.PLP.Chemscore.CHOScore>
1.0000

> <Gold.PLP.Chemscore.Metal>
0.0000

> <Gold.Chemscore.Hbonds>
donor molecule, donor type, donor heavy atom, donor atom, acceptor molecule, acceptor atom, score
      L1  H     9    19       P1 10195  0.74
      L1  H     9    20       P1 10186  1.17
      L1  H     9    21       P1 10952  0.75
      L1  C     4    14       P1  7948  1.00

> <Gold.PLP.Chemscore.Internal.Correction>
0.0004

> <Gold.Rescore>
     Score         DG    S(hbond)    S(metal)    S(lipo)     H(rot)  DE(clash)    DE(int)     intcor
     17.62     -17.64       2.95        0.00      51.28       1.45       0.01       0.01       ----

> <Gold.Chemscore.Fitness>
17.6153

> <Gold.Chemscore.DG>
-17.6405

> <Gold.Chemscore.ZeroCoef>
-5.4800

> <Gold.Chemscore.Hbond>
2.9527

> <Gold.Chemscore.Metal>
0.0000

> <Gold.Chemscore.Lipo>
51.2782

> <Gold.Chemscore.Internal_Hbond>
0.0000

> <Gold.Chemscore.DEClash>
0.0149

> <Gold.Chemscore.DEInternal>
0.0103

> <Gold.Chemscore.Rot>
1.4458

> <Gold.Chemscore.Internal.Correction>
   9.000000E+99

> <Gold.Chemscore.Hbonds>
donor molecule, donor type, donor heavy atom, donor atom, acceptor molecule, acceptor atom, score
      L1  H     9    19       P1 10195  0.68
      L1  H     9    20       P1 10186  0.57
      L1  H     9    21       P1 10952  0.74

> <Gold.Chemscore.Hbond.Weighted>
-9.8621

> <Gold.Chemscore.Metal.Weighted>
-0.0000

> <Gold.Chemscore.Lipo.Weighted>
-5.9995

> <Gold.Chemscore.Internal_Hbond.Weighted>
0.0000

> <Gold.Chemscore.DEClash.Weighted>
0.0149

> <Gold.Chemscore.DEInternal.Weighted>
0.0103

> <Gold.Chemscore.Rot.Weighted>
3.7012

> <Gold.Chemscore.Internal.Correction.Weighted>
   9.000000E+99

> <Gold.Protein.RotatedTorsions>
[ 6907 6896 6895 6894 ] final  114.14 input  -60.11 | X-H torsion
[ 7974 7965 7964 7962 ] final  178.13 input  175.53 | X-H torsion
[ 8008 7997 7996 7995 ] final  -15.49 input   59.86 | X-H torsion
[ 10167 10162 10161 10158 ] final  -83.31 input  -65.29 | X-H torsion
[ 10718 10713 10712 10709 ] final -177.06 input   66.30 | X-H torsion
[ 10763 10752 10751 10750 ] final   64.34 input  -60.55 | X-H torsion
[ 11005 11000 10999 10996 ] final -177.08 input  -57.11 | X-H torsion

> <Gold.Protein.ActiveResidues>
 VAL166  LYS551  ARG553  GLY616  TRP617  ASP618  TYR619  PRO620  LYS621  CYS622 
 ASP623  PHE694  ASN695  SER759  ASP760  ASP761  ALA762  ILE779  LEU786  VAL792 
 PHE793  MET794  SER795  GLU796  ALA797  LYS798  CYS799  TRP800  GLU811  SER814 

> <Gold.Protein.RotatedAtoms>
  152.4820  133.8278  159.7087 H   0  0  0  0  0  0  0  0  0  0  0  0  # atno 6907 bound_to 6896
  150.8877  133.7276  159.2920 H   0  0  0  0  0  0  0  0  0  0  0  0  # atno 6908 bound_to 6896
  151.4759  135.1052  159.9816 H   0  0  0  0  0  0  0  0  0  0  0  0  # atno 6909 bound_to 6896
  144.7160  140.0351  143.6438 H   0  0  0  0  0  0  0  0  0  0  0  0  # atno 7974 bound_to 7965
  154.5126  140.2195  155.9126 H   0  0  0  0  0  0  0  0  0  0  0  0  # atno 8008 bound_to 7997
  156.1571  140.3150  155.8710 H   0  0  0  0  0  0  0  0  0  0  0  0  # atno 8009 bound_to 7997
  155.3826  140.0473  157.3034 H   0  0  0  0  0  0  0  0  0  0  0  0  # atno 8010 bound_to 7997
  140.4238  143.2574  151.8853 H   0  0  0  0  0  0  0  0  0  0  0  0  # atno 10167 bound_to 10162
  156.8239  130.9629  151.3110 H   0  0  0  0  0  0  0  0  0  0  0  0  # atno 10718 bound_to 10713
  153.0052  135.5396  154.6494 H   0  0  0  0  0  0  0  0  0  0  0  0  # atno 10763 bound_to 10752
  154.5730  135.2843  155.0811 H   0  0  0  0  0  0  0  0  0  0  0  0  # atno 10764 bound_to 10752
  154.1969  135.6490  153.5128 H   0  0  0  0  0  0  0  0  0  0  0  0  # atno 10765 bound_to 10752
  140.4449  134.6397  157.4775 H   0  0  0  0  0  0  0  0  0  0  0  0  # atno 11005 bound_to 11000
  146.0070  139.3138  143.0893 LP  0  0  0  0  0  0  0  0  0  0  0  0  # atno 17320 bound_to 7965
  145.8726  140.9411  143.0642 LP  0  0  0  0  0  0  0  0  0  0  0  0  # atno 17321 bound_to 7965
  139.4783  144.5409  151.8530 LP  0  0  0  0  0  0  0  0  0  0  0  0  # atno 17342 bound_to 10162
  140.4504  144.1863  150.5897 LP  0  0  0  0  0  0  0  0  0  0  0  0  # atno 17343 bound_to 10162
  157.6442  130.8831  149.9507 LP  0  0  0  0  0  0  0  0  0  0  0  0  # atno 17370 bound_to 10713
  156.0973  130.3658  150.0283 LP  0  0  0  0  0  0  0  0  0  0  0  0  # atno 17371 bound_to 10713
  140.0045  134.6785  155.9477 LP  0  0  0  0  0  0  0  0  0  0  0  0  # atno 17394 bound_to 11000
  141.1689  133.6537  156.4580 LP  0  0  0  0  0  0  0  0  0  0  0  0  # atno 17395 bound_to 11000

$$$$
