AV-unprocessed.smi:1699|AV-procd|sdf|6818|dock4
  -GOLD-   22720 7593D 1   1.00000     0.00000
 Structure written by MMmdl.
 37 38  0  0  0  0  0  0  0  0  1 V2000
  145.1799  144.9794  158.2171 C   0  0  0  0  0  0  0  0  0  0  0  0
  145.1995  144.5568  159.6774 C   0  0  0  0  0  0  0  0  0  0  0  0
  143.9813  144.2707  160.3294 C   0  0  0  0  0  0  0  0  0  0  0  0
  144.0005  143.8805  161.6792 C   0  0  0  0  0  0  0  0  0  0  0  0
  145.2461  143.7907  162.3239 C   0  0  0  0  0  0  0  0  0  0  0  0
  146.4149  144.0620  161.7085 N   0  0  0  0  0  0  0  0  0  0  0  0
  146.4140  144.4410  160.4057 C   0  0  0  0  0  0  0  0  0  0  0  0
  147.6086  144.7451  159.6933 N   0  0  0  0  0  0  0  0  0  0  0  0
  148.8835  144.5917  160.0922 C   0  0  0  0  0  0  0  0  0  0  0  0
  149.2404  144.1309  161.1768 O   0  0  0  0  0  0  0  0  0  0  0  0
  149.7381  145.0140  159.1481 N   0  0  0  0  0  0  0  0  0  0  0  0
  151.1974  144.9938  159.2413 C   0  0  1  0  0  0  0  0  0  0  0  0
  151.6325  145.9550  160.3573 C   0  0  0  0  0  0  0  0  0  0  0  0
  151.7063  143.5583  159.4905 C   0  0  1  0  0  0  0  0  0  0  0  0
  153.1828  143.3256  159.1609 C   0  0  0  0  0  0  0  0  0  0  0  0
  153.5056  142.1300  160.0259 C   0  0  0  0  0  0  0  0  0  0  0  0
  152.7108  142.4404  161.2902 C   0  0  0  0  0  0  0  0  0  0  0  0
  151.5923  143.2189  160.8713 O   0  0  0  0  0  0  0  0  0  0  0  0
  144.1621  145.0131  157.8271 H   0  0  0  0  0  0  0  0  0  0  0  0
  145.7489  144.2758  157.6088 H   0  0  0  0  0  0  0  0  0  0  0  0
  145.6160  145.9719  158.1000 H   0  0  0  0  0  0  0  0  0  0  0  0
  143.0409  144.3487  159.8038 H   0  0  0  0  0  0  0  0  0  0  0  0
  143.0852  143.6554  162.2064 H   0  0  0  0  0  0  0  0  0  0  0  0
  145.3066  143.4929  163.3601 H   0  0  0  0  0  0  0  0  0  0  0  0
  147.4738  145.1312  158.7710 H   0  0  0  0  0  0  0  0  0  0  0  0
  149.3499  145.3793  158.2911 H   0  0  0  0  0  0  0  0  0  0  0  0
  151.6328  145.3570  158.3085 H   0  0  0  0  0  0  0  0  0  0  0  0
  152.7189  145.9993  160.4378 H   0  0  0  0  0  0  0  0  0  0  0  0
  151.2400  145.6442  161.3260 H   0  0  0  0  0  0  0  0  0  0  0  0
  151.2783  146.9680  160.1631 H   0  0  0  0  0  0  0  0  0  0  0  0
  151.1038  142.8445  158.9260 H   0  0  0  0  0  0  0  0  0  0  0  0
  153.3607  143.1457  158.1003 H   0  0  0  0  0  0  0  0  0  0  0  0
  153.7865  144.1804  159.4696 H   0  0  0  0  0  0  0  0  0  0  0  0
  153.1313  141.2181  159.5589 H   0  0  0  0  0  0  0  0  0  0  0  0
  154.5731  142.0081  160.2118 H   0  0  0  0  0  0  0  0  0  0  0  0
  152.3948  141.5377  161.8132 H   0  0  0  0  0  0  0  0  0  0  0  0
  153.3086  143.0388  161.9786 H   0  0  0  0  0  0  0  0  0  0  0  0
  1  2  1  0  0  0  0
  1 19  1  0  0  0  0
  1 20  1  0  0  0  0
  1 21  1  0  0  0  0
  2  7  1  0  0  0  0
  2  3  2  0  0  0  0
  3  4  1  0  0  0  0
  3 22  1  0  0  0  0
  4  5  2  0  0  0  0
  4 23  1  0  0  0  0
  5  6  1  0  0  0  0
  5 24  1  0  0  0  0
  6  7  2  0  0  0  0
  7  8  1  0  0  0  0
  8  9  1  0  0  0  0
  8 25  1  0  0  0  0
  9 10  2  0  0  0  0
  9 11  1  0  0  0  0
 11 12  1  0  0  0  0
 11 26  1  0  0  0  0
 12 13  1  0  0  0  0
 12 14  1  0  0  0  0
 12 27  1  0  0  0  0
 13 28  1  0  0  0  0
 13 29  1  0  0  0  0
 13 30  1  0  0  0  0
 14 18  1  0  0  0  0
 14 15  1  0  0  0  0
 14 31  1  0  0  0  0
 15 16  1  0  0  0  0
 15 32  1  0  0  0  0
 15 33  1  0  0  0  0
 16 17  1  0  0  0  0
 16 34  1  0  0  0  0
 16 35  1  0  0  0  0
 17 18  1  0  0  0  0
 17 36  1  0  0  0  0
 17 37  1  0  0  0  0
M  END
> <s_m_source_file>
AV-unprocessed.smi

> <i_m_source_file_index>
1699

> <i_lp_mmshare_version>
43012

> <i_f3d_flags>
0

> <s_epik_input>
W0NIM11jMVtjSF1bY0hdW2NIXW5jMVtOSF1DKD1PKVtOSF1bQ0BIXShbQ0gzXSlbQ0BASF0yW0NIMl1bQ0gyXVtDSDJdTzI=

> <s_epik_cmdline>
J2VwaWtfcHl0aG9uJywgJy1waCcsICc3LjAnLCAnLXRuJywgJzgnLCAnLW1hJywgJzIwMCcsICctbWV0YWxfYmluZGluZycsICctaW1hZScsICc8aW5maWxlLm1hZT4nLCAnLW9tYWUnLCAnPG91dGZpbGUubWFlPic=

> <r_lp_tautomer_probability>
1

> <r_epik_Ionization_Penalty>
5.52788e-05

> <r_epik_Ionization_Penalty_Charging>
0

> <r_epik_Ionization_Penalty_Neutral>
5.52788e-05

> <r_epik_State_Penalty>
-0

> <r_epik_Charging_Adjusted_Penalty>
0

> <i_epik_Tot_Q>
0

> <i_epik_Tot_abs_Q>
0

> <r_epik_Metal_State_Penalty>
-0

> <b_epik_Metal_Only>
0

> <s_lp_Force_Field>
OPLS_2005

> <r_lp_Energy>
20.3495

> <b_lp_Chiralities_Consistent>
1

> <s_lp_Variant>
AV-unprocessed.smi:1699-4

> <Gold.Version>
5.8.1

> <Gold.Id.Protein>
6NUR|6NUR_protein|mol2

> <Gold.PLP.Fitness>
44.2635

> <Gold.PLP.PLP>
-37.5749

> <Gold.PLP.part.hbond>
-4.0000

> <Gold.PLP.part.metal>
0.0000

> <Gold.PLP.part.buried>
-4.0006

> <Gold.PLP.part.nonpolar>
-31.5962

> <Gold.PLP.part.repulsive>
0.7169

> <Gold.PLP.ligand.clash>
0.0000

> <Gold.PLP.ligand.torsion>
0.3820

> <Gold.PLP.Chemscore.Hbond>
2.4800

> <Gold.PLP.Chemscore.CHOScore>
0.0000

> <Gold.PLP.Chemscore.Metal>
0.0000

> <Gold.Chemscore.Hbonds>
donor molecule, donor type, donor heavy atom, donor atom, acceptor molecule, acceptor atom, score
      L1  H     8    25       P1  8029  1.00
      L1  H    11    26       P1  8029  1.00
      P1  H  6933  6944       L1    10  0.46

> <Gold.PLP.Chemscore.Internal.Correction>
0.0127

> <Gold.Rescore>
     Score         DG    S(hbond)    S(metal)    S(lipo)     H(rot)  DE(clash)    DE(int)     intcor
     17.49     -21.93       2.40        0.00      98.85       1.22       0.19       4.25       ----

> <Gold.Chemscore.Fitness>
17.4927

> <Gold.Chemscore.DG>
-21.9307

> <Gold.Chemscore.ZeroCoef>
-5.4800

> <Gold.Chemscore.Hbond>
2.3979

> <Gold.Chemscore.Metal>
0.0000

> <Gold.Chemscore.Lipo>
98.8456

> <Gold.Chemscore.Internal_Hbond>
0.0000

> <Gold.Chemscore.DEClash>
0.1881

> <Gold.Chemscore.DEInternal>
4.2499

> <Gold.Chemscore.Rot>
1.2200

> <Gold.Chemscore.Internal.Correction>
   9.000000E+99

> <Gold.Chemscore.Hbonds>
donor molecule, donor type, donor heavy atom, donor atom, acceptor molecule, acceptor atom, score
      L1  H     8    25       P1  8029  0.99
      L1  H    11    26       P1  8029  0.72
      P1  H  6933  6944       L1    10  0.39

> <Gold.Chemscore.Hbond.Weighted>
-8.0090

> <Gold.Chemscore.Metal.Weighted>
-0.0000

> <Gold.Chemscore.Lipo.Weighted>
-11.5649

> <Gold.Chemscore.Internal_Hbond.Weighted>
0.0000

> <Gold.Chemscore.DEClash.Weighted>
0.1881

> <Gold.Chemscore.DEInternal.Weighted>
4.2499

> <Gold.Chemscore.Rot.Weighted>
3.1232

> <Gold.Chemscore.Internal.Correction.Weighted>
   9.000000E+99

> <Gold.Protein.RotatedTorsions>
[ 6907 6896 6895 6894 ] final  -58.72 input  -60.11 | X-H torsion
[ 7974 7965 7964 7962 ] final -143.37 input  175.53 | X-H torsion
[ 8008 7997 7996 7995 ] final  111.88 input   59.86 | X-H torsion
[ 10167 10162 10161 10158 ] final -117.27 input  -65.29 | X-H torsion
[ 10718 10713 10712 10709 ] final   63.19 input   66.30 | X-H torsion
[ 10763 10752 10751 10750 ] final -140.01 input  -60.55 | X-H torsion
[ 11005 11000 10999 10996 ] final   12.42 input  -57.11 | X-H torsion

> <Gold.Protein.ActiveResidues>
 VAL166  LYS551  ARG553  GLY616  TRP617  ASP618  TYR619  PRO620  LYS621  CYS622 
 ASP623  PHE694  ASN695  SER759  ASP760  ASP761  ALA762  ILE779  LEU786  VAL792 
 PHE793  MET794  SER795  GLU796  ALA797  LYS798  CYS799  TRP800  GLU811  SER814 

> <Gold.Protein.RotatedAtoms>
  150.7985  134.7062  159.6577 H   0  0  0  0  0  0  0  0  0  0  0  0  # atno 6907 bound_to 6896
  152.4100  134.6137  160.0042 H   0  0  0  0  0  0  0  0  0  0  0  0  # atno 6908 bound_to 6896
  151.6383  133.3290  159.3160 H   0  0  0  0  0  0  0  0  0  0  0  0  # atno 6909 bound_to 6896
  144.8374  140.5842  143.5475 H   0  0  0  0  0  0  0  0  0  0  0  0  # atno 7974 bound_to 7965
  156.2155  140.3010  155.9829 H   0  0  0  0  0  0  0  0  0  0  0  0  # atno 8008 bound_to 7997
  155.2617  140.0430  157.3015 H   0  0  0  0  0  0  0  0  0  0  0  0  # atno 8009 bound_to 7997
  154.5761  140.2362  155.8129 H   0  0  0  0  0  0  0  0  0  0  0  0  # atno 8010 bound_to 7997
  140.0701  143.4885  152.1984 H   0  0  0  0  0  0  0  0  0  0  0  0  # atno 10167 bound_to 10162
  157.5954  130.9092  149.9685 H   0  0  0  0  0  0  0  0  0  0  0  0  # atno 10718 bound_to 10713
  154.8592  135.3565  154.5639 H   0  0  0  0  0  0  0  0  0  0  0  0  # atno 10763 bound_to 10752
  153.6253  135.7004  153.5300 H   0  0  0  0  0  0  0  0  0  0  0  0  # atno 10764 bound_to 10752
  153.3094  135.4183  155.1282 H   0  0  0  0  0  0  0  0  0  0  0  0  # atno 10765 bound_to 10752
  140.4922  134.0829  155.7774 H   0  0  0  0  0  0  0  0  0  0  0  0  # atno 11005 bound_to 11000
  145.4765  139.1499  143.3785 LP  0  0  0  0  0  0  0  0  0  0  0  0  # atno 17320 bound_to 7965
  146.2671  140.4900  142.8829 LP  0  0  0  0  0  0  0  0  0  0  0  0  # atno 17321 bound_to 7965
  139.5841  144.7523  151.3565 LP  0  0  0  0  0  0  0  0  0  0  0  0  # atno 17342 bound_to 10162
  140.7130  143.7342  150.7601 LP  0  0  0  0  0  0  0  0  0  0  0  0  # atno 17343 bound_to 10162
  156.1016  130.3655  150.0208 LP  0  0  0  0  0  0  0  0  0  0  0  0  # atno 17370 bound_to 10713
  156.8323  130.9396  151.3636 LP  0  0  0  0  0  0  0  0  0  0  0  0  # atno 17371 bound_to 10713
  141.1478  133.9023  157.2173 LP  0  0  0  0  0  0  0  0  0  0  0  0  # atno 17394 bound_to 11000
  139.9762  135.0113  156.9637 LP  0  0  0  0  0  0  0  0  0  0  0  0  # atno 17395 bound_to 11000

$$$$
