AV-unprocessed.smi:2673|AV-procd|sdf|10355|dock10
  -GOLD-   2272014383D 1   1.00000     0.00000
 Structure written by MMmdl.
 31 32  0  0  0  0  0  0  0  0  2 V2000
  149.7659  136.1795  159.2754 O   0  0  0  0  0  0  0  0  0  0  0  0
  148.8647  136.8730  158.8000 C   0  0  0  0  0  0  0  0  0  0  0  0
  148.9991  137.7674  157.7943 N   0  5  0  0  0  0  0  0  0  0  0  0
  149.8378  137.5133  156.7763 C   0  0  0  0  0  0  0  0  0  0  0  0
  150.9037  136.7070  156.9062 N   0  0  0  0  0  0  0  0  0  0  0  0
  151.6395  136.5819  155.7356 N   0  0  0  0  0  0  0  0  0  0  0  0
  151.1122  137.3082  154.7504 C   0  0  0  0  0  0  0  0  0  0  0  0
  149.6703  138.2116  155.1631 S   0  0  0  0  0  0  0  0  0  0  0  0
  147.6068  136.7865  159.2672 N   0  0  0  0  0  0  0  0  0  0  0  0
  147.0258  135.9464  160.3309 C   0  0  0  0  0  0  0  0  0  0  0  0
  145.5020  136.2764  160.3163 C   0  0  0  0  0  0  0  0  0  0  0  0
  144.8096  135.5763  161.2125 F   0  0  0  0  0  0  0  0  0  0  0  0
  145.3067  137.5709  160.5749 F   0  0  0  0  0  0  0  0  0  0  0  0
  144.9849  136.0186  159.1134 F   0  0  0  0  0  0  0  0  0  0  0  0
  147.2760  134.4403  160.0057 C   0  0  0  0  0  0  0  0  0  0  0  0
  146.9641  133.4803  161.1673 C   0  0  0  0  0  0  0  0  0  0  0  0
  147.6973  133.8947  162.4494 C   0  0  0  0  0  0  0  0  0  0  0  0
  147.3511  135.3363  162.8425 C   0  0  0  0  0  0  0  0  0  0  0  0
  147.6670  136.3218  161.7034 C   0  0  0  0  0  0  0  0  0  0  0  0
  151.5759  137.3139  153.7754 H   0  0  0  0  0  0  0  0  0  0  0  0
  146.9443  137.3977  158.8125 H   0  0  0  0  0  0  0  0  0  0  0  0
  146.7098  134.1437  159.1226 H   0  0  0  0  0  0  0  0  0  0  0  0
  148.3199  134.2749  159.7447 H   0  0  0  0  0  0  0  0  0  0  0  0
  145.8913  133.4349  161.3499 H   0  0  0  0  0  0  0  0  0  0  0  0
  147.2598  132.4683  160.8900 H   0  0  0  0  0  0  0  0  0  0  0  0
  147.4394  133.2150  163.2619 H   0  0  0  0  0  0  0  0  0  0  0  0
  148.7741  133.8051  162.3000 H   0  0  0  0  0  0  0  0  0  0  0  0
  146.3020  135.4024  163.1278 H   0  0  0  0  0  0  0  0  0  0  0  0
  147.9171  135.6172  163.7312 H   0  0  0  0  0  0  0  0  0  0  0  0
  148.7519  136.3567  161.6192 H   0  0  0  0  0  0  0  0  0  0  0  0
  147.3705  137.3288  161.9974 H   0  0  0  0  0  0  0  0  0  0  0  0
  1  2  2  0  0  0  0
  2  3  1  0  0  0  0
  2  9  1  0  0  0  0
  3  4  1  0  0  0  0
  4  8  1  0  0  0  0
  4  5  2  0  0  0  0
  5  6  1  0  0  0  0
  6  7  2  0  0  0  0
  7  8  1  0  0  0  0
  7 20  1  0  0  0  0
  9 10  1  0  0  0  0
  9 21  1  0  0  0  0
 10 19  1  0  0  0  0
 10 11  1  0  0  0  0
 10 15  1  0  0  0  0
 11 12  1  0  0  0  0
 11 13  1  0  0  0  0
 11 14  1  0  0  0  0
 15 16  1  0  0  0  0
 15 22  1  0  0  0  0
 15 23  1  0  0  0  0
 16 17  1  0  0  0  0
 16 24  1  0  0  0  0
 16 25  1  0  0  0  0
 17 18  1  0  0  0  0
 17 26  1  0  0  0  0
 17 27  1  0  0  0  0
 18 19  1  0  0  0  0
 18 28  1  0  0  0  0
 18 29  1  0  0  0  0
 19 30  1  0  0  0  0
 19 31  1  0  0  0  0
M  CHG  1   3  -1
M  END
> <s_m_source_file>
AV-unprocessed.smi

> <i_m_source_file_index>
2673

> <i_lp_mmshare_version>
43012

> <i_f3d_flags>
0

> <s_epik_input>
czFbY0hdbm5jMVtOSF1DKD1PKVtOSF1DMihDKEYpKEYpRilbQ0gyXVtDSDJdW0NIMl1bQ0gyXVtDSDJdMg==

> <s_epik_cmdline>
J2VwaWtfcHl0aG9uJywgJy1waCcsICc3LjAnLCAnLXRuJywgJzgnLCAnLW1hJywgJzIwMCcsICctbWV0YWxfYmluZGluZycsICctaW1hZScsICc8aW5maWxlLm1hZT4nLCAnLW9tYWUnLCAnPG91dGZpbGUubWFlPic=

> <r_epik_Ionization_Penalty>
0.0924979

> <r_epik_Ionization_Penalty_Charging>
0.057676

> <r_epik_Ionization_Penalty_Neutral>
0.0348219

> <r_epik_State_Penalty>
0.0765232

> <r_epik_Charging_Adjusted_Penalty>
0.134199

> <i_epik_Tot_Q>
-1

> <i_epik_Tot_abs_Q>
1

> <r_epik_Metal_State_Penalty>
0.0698334

> <b_epik_Metal_Only>
0

> <s_lp_Force_Field>
OPLS_2005

> <r_lp_Energy>
15.8773

> <b_lp_Chiralities_Consistent>
1

> <s_lp_Variant>
AV-unprocessed.smi:2673-1

> <Gold.Version>
5.8.1

> <Gold.Id.Protein>
6NUR|6NUR_protein|mol2

> <Gold.PLP.Fitness>
32.8768

> <Gold.PLP.PLP>
-24.7156

> <Gold.PLP.part.hbond>
-2.0000

> <Gold.PLP.part.metal>
0.0000

> <Gold.PLP.part.buried>
-3.8500

> <Gold.PLP.part.nonpolar>
-19.0644

> <Gold.PLP.part.repulsive>
0.1861

> <Gold.PLP.ligand.clash>
0.0000

> <Gold.PLP.ligand.torsion>
0.4270

> <Gold.PLP.Chemscore.Hbond>
2.0000

> <Gold.PLP.Chemscore.CHOScore>
1.0000

> <Gold.PLP.Chemscore.Metal>
0.0000

> <Gold.Chemscore.Hbonds>
donor molecule, donor type, donor heavy atom, donor atom, acceptor molecule, acceptor atom, score
      P1  H  6896  6907       L1     1  1.00
      P1  H 10752 10764       L1     6  1.00
      L1  C     7    20       P1  7949  0.65

> <Gold.PLP.Chemscore.Internal.Correction>
0.0152

> <Gold.Rescore>
     Score         DG    S(hbond)    S(metal)    S(lipo)     H(rot)  DE(clash)    DE(int)     intcor
     12.21     -15.80       1.80        0.00      58.65       1.00       0.08       3.52       ----

> <Gold.Chemscore.Fitness>
12.2087

> <Gold.Chemscore.DG>
-15.8023

> <Gold.Chemscore.ZeroCoef>
-5.4800

> <Gold.Chemscore.Hbond>
1.8024

> <Gold.Chemscore.Metal>
0.0000

> <Gold.Chemscore.Lipo>
58.6516

> <Gold.Chemscore.Internal_Hbond>
0.0000

> <Gold.Chemscore.DEClash>
0.0779

> <Gold.Chemscore.DEInternal>
3.5157

> <Gold.Chemscore.Rot>
1.0000

> <Gold.Chemscore.Internal.Correction>
   9.000000E+99

> <Gold.Chemscore.Hbonds>
donor molecule, donor type, donor heavy atom, donor atom, acceptor molecule, acceptor atom, score
      P1  H  6896  6907       L1     1  1.00
      P1  H 10752 10764       L1     6  0.64

> <Gold.Chemscore.Hbond.Weighted>
-6.0201

> <Gold.Chemscore.Metal.Weighted>
-0.0000

> <Gold.Chemscore.Lipo.Weighted>
-6.8622

> <Gold.Chemscore.Internal_Hbond.Weighted>
0.0000

> <Gold.Chemscore.DEClash.Weighted>
0.0779

> <Gold.Chemscore.DEInternal.Weighted>
3.5157

> <Gold.Chemscore.Rot.Weighted>
2.5600

> <Gold.Chemscore.Internal.Correction.Weighted>
   9.000000E+99

> <Gold.Protein.RotatedTorsions>
[ 6907 6896 6895 6894 ] final  -46.62 input  -60.11 | X-H torsion
[ 7974 7965 7964 7962 ] final  -70.18 input  175.53 | X-H torsion
[ 8008 7997 7996 7995 ] final  -49.89 input   59.86 | X-H torsion
[ 10167 10162 10161 10158 ] final  106.71 input  -65.29 | X-H torsion
[ 10718 10713 10712 10709 ] final  -31.46 input   66.30 | X-H torsion
[ 10763 10752 10751 10750 ] final  -35.26 input  -60.55 | X-H torsion
[ 11005 11000 10999 10996 ] final -126.74 input  -57.11 | X-H torsion

> <Gold.Protein.ActiveResidues>
 VAL166  LYS551  ARG553  GLY616  TRP617  ASP618  TYR619  PRO620  LYS621  CYS622 
 ASP623  PHE694  ASN695  SER759  ASP760  ASP761  ALA762  ILE779  LEU786  VAL792 
 PHE793  MET794  SER795  GLU796  ALA797  LYS798  CYS799  TRP800  GLU811  SER814 

> <Gold.Protein.RotatedAtoms>
  150.9093  134.8509  159.7414 H   0  0  0  0  0  0  0  0  0  0  0  0  # atno 6907 bound_to 6896
  152.4936  134.4383  159.9545 H   0  0  0  0  0  0  0  0  0  0  0  0  # atno 6908 bound_to 6896
  151.4427  133.3599  159.2819 H   0  0  0  0  0  0  0  0  0  0  0  0  # atno 6909 bound_to 6896
  145.6942  140.9141  143.0765 H   0  0  0  0  0  0  0  0  0  0  0  0  # atno 7974 bound_to 7965
  154.4052  140.1286  156.4576 H   0  0  0  0  0  0  0  0  0  0  0  0  # atno 8008 bound_to 7997
  155.7304  140.3491  155.5037 H   0  0  0  0  0  0  0  0  0  0  0  0  # atno 8009 bound_to 7997
  155.9132  140.1039  157.1254 H   0  0  0  0  0  0  0  0  0  0  0  0  # atno 8010 bound_to 7997
  139.6987  144.7097  151.1223 H   0  0  0  0  0  0  0  0  0  0  0  0  # atno 10167 bound_to 10162
  156.3870  130.4366  149.7424 H   0  0  0  0  0  0  0  0  0  0  0  0  # atno 10718 bound_to 10713
  153.8603  135.6840  153.4783 H   0  0  0  0  0  0  0  0  0  0  0  0  # atno 10763 bound_to 10752
  153.1346  135.4683  154.9400 H   0  0  0  0  0  0  0  0  0  0  0  0  # atno 10764 bound_to 10752
  154.7762  135.3254  154.8037 H   0  0  0  0  0  0  0  0  0  0  0  0  # atno 10765 bound_to 10752
  140.9656  134.0876  157.3923 H   0  0  0  0  0  0  0  0  0  0  0  0  # atno 11005 bound_to 11000
  144.6987  139.8862  143.7450 LP  0  0  0  0  0  0  0  0  0  0  0  0  # atno 17320 bound_to 7965
  146.0854  139.3843  143.0438 LP  0  0  0  0  0  0  0  0  0  0  0  0  # atno 17321 bound_to 7965
  140.7703  143.5455  150.9263 LP  0  0  0  0  0  0  0  0  0  0  0  0  # atno 17342 bound_to 10162
  139.9136  143.6690  152.3110 LP  0  0  0  0  0  0  0  0  0  0  0  0  # atno 17343 bound_to 10162
  156.4492  130.7898  151.2920 LP  0  0  0  0  0  0  0  0  0  0  0  0  # atno 17370 bound_to 10713
  157.7496  131.0101  150.3292 LP  0  0  0  0  0  0  0  0  0  0  0  0  # atno 17371 bound_to 10713
  139.8893  135.0104  156.6673 LP  0  0  0  0  0  0  0  0  0  0  0  0  # atno 17394 bound_to 11000
  140.7403  133.8983  155.8273 LP  0  0  0  0  0  0  0  0  0  0  0  0  # atno 17395 bound_to 11000

$$$$
