AV-unprocessed.smi:1007|AV-procd|sdf|4404|dock5
  -GOLD-   22720 2343D 1   1.00000     0.00000
 Structure written by MMmdl.
 57 59  0  0  0  0  0  0  0  0  3 V2000
  147.1956  137.0574  163.0510 C   0  0  0  0  0  0  0  0  0  0  0  0
  147.4458  137.3653  161.6907 O   0  0  0  0  0  0  0  0  0  0  0  0
  147.8007  136.2219  160.9309 C   0  0  0  0  0  0  0  0  0  0  0  0
  147.5797  136.5267  159.4415 C   0  0  0  0  0  0  0  0  0  0  0  0
  148.7633  136.1915  158.6105 N   0  3  0  0  0  0  0  0  0  0  0  0
  149.8243  137.2338  158.6329 C   0  0  0  0  0  0  0  0  0  0  0  0
  151.0340  136.7832  157.7893 C   0  0  0  0  0  0  0  0  0  0  0  0
  150.6891  136.4629  156.4015 N   0  0  0  0  0  0  0  0  0  0  0  0
  150.3388  137.6214  155.5712 C   0  0  0  0  0  0  0  0  0  0  0  0
  151.5020  138.5795  155.2491 C   0  0  2  0  0  0  0  0  0  0  0  0
  152.5643  137.8131  154.7178 O   0  0  0  0  0  0  0  0  0  0  0  0
  152.0070  139.3401  156.4920 C   0  0  0  0  0  0  0  0  0  0  0  0
  151.4841  140.7099  156.5651 N   0  0  0  0  0  0  0  0  0  0  0  0
  150.6937  141.3940  155.6943 C   0  0  0  0  0  0  0  0  0  0  0  0
  150.4761  142.6302  156.2232 N   0  3  0  0  0  0  0  0  0  0  0  0
  151.1376  142.7359  157.4489 C   0  0  0  0  0  0  0  0  0  0  0  0
  151.2135  143.7852  158.3572 C   0  0  0  0  0  0  0  0  0  0  0  0
  151.9753  143.5708  159.5284 C   0  0  0  0  0  0  0  0  0  0  0  0
  152.0747  144.6959  160.5445 C   0  0  0  0  0  0  0  0  0  0  0  0
  152.6335  142.3341  159.7557 C   0  0  0  0  0  0  0  0  0  0  0  0
  153.4514  142.1152  161.0172 C   0  0  0  0  0  0  0  0  0  0  0  0
  152.5447  141.2795  158.8192 C   0  0  0  0  0  0  0  0  0  0  0  0
  151.7879  141.5072  157.6728 C   0  0  0  0  0  0  0  0  0  0  0  0
  149.6455  135.4381  156.4096 C   0  0  0  0  0  0  0  0  0  0  0  0
  148.3942  135.8485  157.2130 C   0  0  0  0  0  0  0  0  0  0  0  0
  146.9264  137.9664  163.5890 H   0  0  0  0  0  0  0  0  0  0  0  0
  148.0796  136.6333  163.5290 H   0  0  0  0  0  0  0  0  0  0  0  0
  146.3704  136.3509  163.1503 H   0  0  0  0  0  0  0  0  0  0  0  0
  148.8534  135.9886  161.0979 H   0  0  0  0  0  0  0  0  0  0  0  0
  147.2279  135.3515  161.2513 H   0  0  0  0  0  0  0  0  0  0  0  0
  146.7186  135.9493  159.1020 H   0  0  0  0  0  0  0  0  0  0  0  0
  147.3195  137.5769  159.3017 H   0  0  0  0  0  0  0  0  0  0  0  0
  149.4268  138.1818  158.2686 H   0  0  0  0  0  0  0  0  0  0  0  0
  150.1568  137.4085  159.6552 H   0  0  0  0  0  0  0  0  0  0  0  0
  151.8173  137.5385  157.8272 H   0  0  0  0  0  0  0  0  0  0  0  0
  151.4692  135.8975  158.2545 H   0  0  0  0  0  0  0  0  0  0  0  0
  149.9305  137.2642  154.6245 H   0  0  0  0  0  0  0  0  0  0  0  0
  149.5337  138.1866  156.0403 H   0  0  0  0  0  0  0  0  0  0  0  0
  151.2074  139.2854  154.4735 H   0  0  0  0  0  0  0  0  0  0  0  0
  153.1144  138.3777  154.1961 H   0  0  0  0  0  0  0  0  0  0  0  0
  151.7352  138.8209  157.4117 H   0  0  0  0  0  0  0  0  0  0  0  0
  153.0962  139.4023  156.4840 H   0  0  0  0  0  0  0  0  0  0  0  0
  150.3041  141.0209  154.7580 H   0  0  0  0  0  0  0  0  0  0  0  0
  150.7104  144.7240  158.1774 H   0  0  0  0  0  0  0  0  0  0  0  0
  153.1124  145.0027  160.6760 H   0  0  0  0  0  0  0  0  0  0  0  0
  151.6825  144.3756  161.5100 H   0  0  0  0  0  0  0  0  0  0  0  0
  151.5060  145.5709  160.2284 H   0  0  0  0  0  0  0  0  0  0  0  0
  153.9028  141.1227  161.0331 H   0  0  0  0  0  0  0  0  0  0  0  0
  152.8223  142.2095  161.9026 H   0  0  0  0  0  0  0  0  0  0  0  0
  154.2566  142.8473  161.0841 H   0  0  0  0  0  0  0  0  0  0  0  0
  153.0447  140.3378  158.9903 H   0  0  0  0  0  0  0  0  0  0  0  0
  149.3629  135.1880  155.3861 H   0  0  0  0  0  0  0  0  0  0  0  0
  150.0527  134.5202  156.8362 H   0  0  0  0  0  0  0  0  0  0  0  0
  147.6853  135.0198  157.2177 H   0  0  0  0  0  0  0  0  0  0  0  0
  147.8874  136.6923  156.7432 H   0  0  0  0  0  0  0  0  0  0  0  0
  149.1644  135.3529  159.0065 H   0  0  0  0  0  0  0  0  0  0  0  0
  149.9141  143.3452  155.7795 H   0  0  0  0  0  0  0  0  0  0  0  0
  1  2  1  0  0  0  0
  1 26  1  0  0  0  0
  1 27  1  0  0  0  0
  1 28  1  0  0  0  0
  2  3  1  0  0  0  0
  3  4  1  0  0  0  0
  3 29  1  0  0  0  0
  3 30  1  0  0  0  0
  4  5  1  0  0  0  0
  4 31  1  0  0  0  0
  4 32  1  0  0  0  0
  5 25  1  0  0  0  0
  5  6  1  0  0  0  0
  5 56  1  0  0  0  0
  6  7  1  0  0  0  0
  6 33  1  0  0  0  0
  6 34  1  0  0  0  0
  7  8  1  0  0  0  0
  7 35  1  0  0  0  0
  7 36  1  0  0  0  0
  8  9  1  0  0  0  0
  8 24  1  0  0  0  0
  9 10  1  0  0  0  0
  9 37  1  0  0  0  0
  9 38  1  0  0  0  0
 10 11  1  0  0  0  0
 10 12  1  0  0  0  0
 10 39  1  0  0  0  0
 11 40  1  0  0  0  0
 12 13  1  0  0  0  0
 12 41  1  0  0  0  0
 12 42  1  0  0  0  0
 13 23  1  0  0  0  0
 13 14  1  0  0  0  0
 14 15  2  0  0  0  0
 14 43  1  0  0  0  0
 15 16  1  0  0  0  0
 15 57  1  0  0  0  0
 16 23  2  0  0  0  0
 16 17  1  0  0  0  0
 17 18  2  0  0  0  0
 17 44  1  0  0  0  0
 18 19  1  0  0  0  0
 18 20  1  0  0  0  0
 19 45  1  0  0  0  0
 19 46  1  0  0  0  0
 19 47  1  0  0  0  0
 20 21  1  0  0  0  0
 20 22  2  0  0  0  0
 21 48  1  0  0  0  0
 21 49  1  0  0  0  0
 21 50  1  0  0  0  0
 22 23  1  0  0  0  0
 22 51  1  0  0  0  0
 24 25  1  0  0  0  0
 24 52  1  0  0  0  0
 24 53  1  0  0  0  0
 25 54  1  0  0  0  0
 25 55  1  0  0  0  0
M  CHG  1   5   1
M  CHG  1  15   1
M  END
> <s_m_source_file>
AV-unprocessed.smi

> <i_m_source_file_index>
1007

> <i_lp_mmshare_version>
43012

> <i_f3d_flags>
0

> <s_epik_input>
W0NIM11PW0NIMl1bQ0gyXU4xW0NIMl1bQ0gyXU4oW0NIMl1bQ0gyXTEpW0NIMl1bQ0BIXShbT0hdKVtDSDJdbihbY0hdbjIpYyhjMjMpW2NIXWMoW0NIM10pYyhbY0hdMylbQ0gzXQ==

> <s_epik_cmdline>
J2VwaWtfcHl0aG9uJywgJy1waCcsICc3LjAnLCAnLXRuJywgJzgnLCAnLW1hJywgJzIwMCcsICctbWV0YWxfYmluZGluZycsICctaW1hZScsICc8aW5maWxlLm1hZT4nLCAnLW9tYWUnLCAnPG91dGZpbGUubWFlPic=

> <r_epik_Ionization_Penalty>
1.34507

> <r_epik_Ionization_Penalty_Charging>
1.29906

> <r_epik_Ionization_Penalty_Neutral>
0.0460038

> <r_epik_State_Penalty>
2.55679

> <r_epik_Charging_Adjusted_Penalty>
3.85586

> <i_epik_Tot_Q>
2

> <i_epik_Tot_abs_Q>
2

> <r_epik_Metal_State_Penalty>
6.56928

> <b_epik_Metal_Only>
0

> <s_lp_Force_Field>
OPLS_2005

> <r_lp_Energy>
40.0573

> <b_lp_Chiralities_Consistent>
1

> <s_lp_Variant>
AV-unprocessed.smi:1007-7

> <Gold.Version>
5.8.1

> <Gold.Id.Protein>
6NUR|6NUR_protein|mol2

> <Gold.PLP.Fitness>
59.4934

> <Gold.PLP.PLP>
-50.3225

> <Gold.PLP.part.hbond>
-4.0000

> <Gold.PLP.part.metal>
0.0000

> <Gold.PLP.part.buried>
-6.9903

> <Gold.PLP.part.nonpolar>
-40.3336

> <Gold.PLP.part.repulsive>
0.2170

> <Gold.PLP.ligand.clash>
0.0000

> <Gold.PLP.ligand.torsion>
1.3829

> <Gold.PLP.Chemscore.Hbond>
3.9288

> <Gold.PLP.Chemscore.CHOScore>
0.0000

> <Gold.PLP.Chemscore.Metal>
0.0000

> <Gold.Chemscore.Hbonds>
donor molecule, donor type, donor heavy atom, donor atom, acceptor molecule, acceptor atom, score
      L1  H    15    57       P1  8028  2.00
      P1  H  6931  6943       L1     2  0.76
      P1  H  6934  6947       L1     2  0.77
      P1  H 10752 10765       L1    11  0.30

> <Gold.PLP.Chemscore.Internal.Correction>
0.1503

> <Gold.Rescore>
     Score         DG    S(hbond)    S(metal)    S(lipo)     H(rot)  DE(clash)    DE(int)     intcor
     19.17     -21.56       2.28        0.00     130.10       2.64       0.06       2.33       ----

> <Gold.Chemscore.Fitness>
19.1697

> <Gold.Chemscore.DG>
-21.5563

> <Gold.Chemscore.ZeroCoef>
-5.4800

> <Gold.Chemscore.Hbond>
2.2817

> <Gold.Chemscore.Metal>
0.0000

> <Gold.Chemscore.Lipo>
130.1026

> <Gold.Chemscore.Internal_Hbond>
0.0000

> <Gold.Chemscore.DEClash>
0.0592

> <Gold.Chemscore.DEInternal>
2.3275

> <Gold.Chemscore.Rot>
2.6432

> <Gold.Chemscore.Internal.Correction>
   9.000000E+99

> <Gold.Chemscore.Hbonds>
donor molecule, donor type, donor heavy atom, donor atom, acceptor molecule, acceptor atom, score
      L1  H    15    57       P1  8028  0.99
      P1  H  6931  6943       L1     2  0.07
      P1  H  6934  6947       L1     2  0.77
      P1  H 10752 10765       L1    11  0.25

> <Gold.Chemscore.Hbond.Weighted>
-7.6208

> <Gold.Chemscore.Metal.Weighted>
-0.0000

> <Gold.Chemscore.Lipo.Weighted>
-15.2220

> <Gold.Chemscore.Internal_Hbond.Weighted>
0.0000

> <Gold.Chemscore.DEClash.Weighted>
0.0592

> <Gold.Chemscore.DEInternal.Weighted>
2.3275

> <Gold.Chemscore.Rot.Weighted>
6.7665

> <Gold.Chemscore.Internal.Correction.Weighted>
   9.000000E+99

> <Gold.Protein.RotatedTorsions>
[ 6907 6896 6895 6894 ] final  -82.44 input  -60.11 | X-H torsion
[ 7974 7965 7964 7962 ] final  130.84 input  175.53 | X-H torsion
[ 8008 7997 7996 7995 ] final   33.53 input   59.86 | X-H torsion
[ 10167 10162 10161 10158 ] final   90.45 input  -65.29 | X-H torsion
[ 10718 10713 10712 10709 ] final   94.09 input   66.30 | X-H torsion
[ 10763 10752 10751 10750 ] final  168.97 input  -60.55 | X-H torsion
[ 11005 11000 10999 10996 ] final  -94.01 input  -57.11 | X-H torsion

> <Gold.Protein.ActiveResidues>
 VAL166  LYS551  ARG553  GLY616  TRP617  ASP618  TYR619  PRO620  LYS621  CYS622 
 ASP623  PHE694  ASN695  SER759  ASP760  ASP761  ALA762  ILE779  LEU786  VAL792 
 PHE793  MET794  SER795  GLU796  ALA797  LYS798  CYS799  TRP800  GLU811  SER814 

> <Gold.Protein.RotatedAtoms>
  150.6897  134.3664  159.4972 H   0  0  0  0  0  0  0  0  0  0  0  0  # atno 6907 bound_to 6896
  152.1486  134.9003  160.0558 H   0  0  0  0  0  0  0  0  0  0  0  0  # atno 6908 bound_to 6896
  152.0109  133.3826  159.4256 H   0  0  0  0  0  0  0  0  0  0  0  0  # atno 6909 bound_to 6896
  145.0136  139.4197  143.5232 H   0  0  0  0  0  0  0  0  0  0  0  0  # atno 7974 bound_to 7965
  155.1400  140.3265  155.4454 H   0  0  0  0  0  0  0  0  0  0  0  0  # atno 8008 bound_to 7997
  156.2607  140.1995  156.6466 H   0  0  0  0  0  0  0  0  0  0  0  0  # atno 8009 bound_to 7997
  154.6549  140.0554  156.9984 H   0  0  0  0  0  0  0  0  0  0  0  0  # atno 8010 bound_to 7997
  139.8472  144.6612  150.9212 H   0  0  0  0  0  0  0  0  0  0  0  0  # atno 10167 bound_to 10162
  157.6950  131.0500  150.4133 H   0  0  0  0  0  0  0  0  0  0  0  0  # atno 10718 bound_to 10713
  154.3763  135.2753  155.2237 H   0  0  0  0  0  0  0  0  0  0  0  0  # atno 10763 bound_to 10752
  154.4363  135.5965  153.6104 H   0  0  0  0  0  0  0  0  0  0  0  0  # atno 10764 bound_to 10752
  152.9836  135.6008  154.4000 H   0  0  0  0  0  0  0  0  0  0  0  0  # atno 10765 bound_to 10752
  141.1482  133.7926  157.0239 H   0  0  0  0  0  0  0  0  0  0  0  0  # atno 11005 bound_to 11000
  146.3474  139.9595  142.8719 LP  0  0  0  0  0  0  0  0  0  0  0  0  # atno 17320 bound_to 7965
  145.1989  140.9845  143.4167 LP  0  0  0  0  0  0  0  0  0  0  0  0  # atno 17321 bound_to 7965
  140.7791  143.3859  151.1394 LP  0  0  0  0  0  0  0  0  0  0  0  0  # atno 17342 bound_to 10162
  139.7501  143.8792  152.3074 LP  0  0  0  0  0  0  0  0  0  0  0  0  # atno 17343 bound_to 10162
  156.4515  130.4012  149.6633 LP  0  0  0  0  0  0  0  0  0  0  0  0  # atno 17370 bound_to 10713
  156.3781  130.7565  151.2555 LP  0  0  0  0  0  0  0  0  0  0  0  0  # atno 17371 bound_to 10713
  140.0798  134.9655  157.1605 LP  0  0  0  0  0  0  0  0  0  0  0  0  # atno 17394 bound_to 11000
  140.3593  134.2512  155.7189 LP  0  0  0  0  0  0  0  0  0  0  0  0  # atno 17395 bound_to 11000

$$$$
