#       Name:                AV-unprocessed.smi:2328
#       Creating user name   scv26
#       Creation time:       Fri Mar 27 12:52:11 2020


#       File generated by GOLD software.
#

@<TRIPOS>MOLECULE
AV-unprocessed.smi:2328
    45    45     1
SMALL
NO_CHARGES


@<TRIPOS>ATOM
      1 ****         1.0668   1.1034   3.0996 C.3            1 S1                 0.0000
      2 ****         1.5878  -0.3341   2.9176 C.3            1 S1                 0.0000
      3 ****         0.7240  -1.2735   2.0083 C.3            1 S1                 0.0000
      4 ****         0.4866  -0.6277   0.6976 N.am           1 S1                 0.0000
      5 ****         1.3065  -0.1327  -0.2540 C.2            1 S1                 0.0000
      6 ****         2.5244  -0.1857  -0.0907 O.2            1 S1                 0.0000
      7 ****         0.7480   0.4945  -1.5443 C.3            1 S1                 0.0000
      8 ****         1.6521   1.5999  -2.0634 C.ar           1 S1                 0.0000
      9 ****         2.6193   1.3427  -3.0571 C.ar           1 S1                 0.0000
     10 ****         3.4348   2.4019  -3.4997 C.ar           1 S1                 0.0000
     11 ****         3.2470   3.6766  -2.9290 C.ar           1 S1                 0.0000
     12 ****         2.3229   3.9352  -1.9787 N.ar           1 S1                 0.0000
     13 ****         1.5455   2.9140  -1.5596 C.ar           1 S1                 0.0000
     14 ****         1.4420  -2.6469   1.8461 C.2            1 S1                 0.0000
     15 ****         1.3173  -3.3059   0.6878 N.am           1 S1                 0.0000
     16 ****         2.1149  -3.1136   2.7638 O.2            1 S1                 0.0000
     17 ****        -0.6983  -1.5001   2.6484 C.3            1 S1                 0.0000
     18 ****        -0.6961  -2.0747   4.0830 C.3            1 S1                 0.0000
     19 ****        -1.6622  -2.3409   1.7779 C.3            1 S1                 0.0000
     20 ****         1.7560   1.6802   3.7166 H              1 S1                 0.0000
     21 ****         0.0987   1.1241   3.5984 H              1 S1                 0.0000
     22 ****         0.9698   1.6272   2.1490 H              1 S1                 0.0000
     23 ****         2.6064  -0.2703   2.5396 H              1 S1                 0.0000
     24 ****         1.7141  -0.7722   3.9069 H              1 S1                 0.0000
     25 ****        -0.4941  -0.5228   0.4824 H              1 S1                 0.0000
     26 ****         0.6484  -0.2831  -2.3020 H              1 S1                 0.0000
     27 ****        -0.2395   0.9249  -1.3969 H              1 S1                 0.0000
     28 ****         2.7382   0.3521  -3.4710 H              1 S1                 0.0000
     29 ****         4.1875   2.2410  -4.2574 H              1 S1                 0.0000
     30 ****         3.8553   4.5111  -3.2450 H              1 S1                 0.0000
     31 ****         0.8180   3.1519  -0.7974 H              1 S1                 0.0000
     32 ****         1.7770  -4.1965   0.5645 H              1 S1                 0.0000
     33 ****         0.7654  -2.9092  -0.0590 H              1 S1                 0.0000
     34 ****        -1.1740  -0.5221   2.7208 H              1 S1                 0.0000
     35 ****        -0.2284  -3.0578   4.1327 H              1 S1                 0.0000
     36 ****        -1.7153  -2.1876   4.4534 H              1 S1                 0.0000
     37 ****        -0.1866  -1.4212   4.7896 H              1 S1                 0.0000
     38 ****        -1.3350  -3.3772   1.6941 H              1 S1                 0.0000
     39 ****        -1.7682  -1.9410   0.7698 H              1 S1                 0.0000
     40 ****        -2.6614  -2.3564   2.2142 H              1 S1                 0.0000
     41 ****         2.9000  -0.5931   0.7418 LP             1 S1                 0.0000
     42 ****         3.1390   0.1785  -0.7904 LP             1 S1                 0.0000
     43 ****         2.2178   4.8537  -1.5976 LP             1 S1                 0.0000
     44 ****         2.2050  -2.6108   3.6235 LP             1 S1                 0.0000
     45 ****         2.5719  -3.9958   2.6502 LP             1 S1                 0.0000
@<TRIPOS>BOND
    1    1    2 1     
    2    1   20 1     
    3    1   21 1     
    4    1   22 1     
    5    2    3 1     
    6    2   23 1     
    7    2   24 1     
    8    3    4 1     
    9    3   14 1     
   10    3   17 1     
   11    4    5 am    
   12    4   25 1     
   13    5    6 2     
   14    5    7 1     
   15    7    8 1     
   16    7   26 1     
   17    7   27 1     
   18    8   13 ar    
   19    8    9 ar    
   20    9   10 ar    
   21    9   28 1     
   22   10   11 ar    
   23   10   29 1     
   24   11   12 ar    
   25   11   30 1     
   26   12   13 ar    
   27   13   31 1     
   28   14   15 am    
   29   14   16 2     
   30   15   32 1     
   31   15   33 1     
   32   17   18 1     
   33   17   19 1     
   34   17   34 1     
   35   18   35 1     
   36   18   36 1     
   37   18   37 1     
   38   19   38 1     
   39   19   39 1     
   40   19   40 1     
   41    6   41 1     
   42    6   42 1     
   43   12   43 1     
   44   16   44 1     
   45   16   45 1     
@<TRIPOS>SUBSTRUCTURE
      1 S1             1
@<TRIPOS>SET
LONE_PAIRS      STATIC     ATOMS    <user>   **** ""
5 41 42 43 44 45
DONOR_HYDROGENS      STATIC     ATOMS    <user>   **** ""
3 25 32 33
ATOM$BLUE        STATIC     ATOMS    COLORGROUP SYSTEM
5 41 42 43 44 45
ATOM$RED        STATIC     ATOMS    COLORGROUP SYSTEM
3 25 32 33
