AV-unprocessed.smi:2229|AV-procd|sdf|9027|dock8
  -GOLD-   2272012233D 1   1.00000     0.00000
 Structure written by MMmdl.
 44 45  0  0  0  0  0  0  0  0  1 V2000
  152.1350  144.7435  159.2926 C   0  0  0  0  0  0  0  0  0  0  0  0
  151.7640  143.5571  160.1956 C   0  0  0  0  0  0  0  0  0  0  0  0
  152.4806  143.6746  161.5522 C   0  0  0  0  0  0  0  0  0  0  0  0
  152.0579  142.2196  159.4857 C   0  0  0  0  0  0  0  0  0  0  0  0
  151.3263  142.0491  158.1427 C   0  0  0  0  0  0  0  0  0  0  0  0
  151.8419  140.8572  157.3161 C   0  0  2  0  0  0  0  0  0  0  0  0
  151.2081  140.6978  155.9330 C   0  0  0  0  0  0  0  0  0  0  0  0
  151.5467  139.2608  155.5389 C   0  0  0  0  0  0  0  0  0  0  0  0
  151.5366  138.4637  156.8496 C   0  0  0  0  0  0  0  0  0  0  0  0
  151.5996  139.4978  157.9913 C   0  0  1  0  0  0  0  0  0  0  0  0
  152.6621  139.2178  158.9485 N   0  0  0  0  0  0  0  0  0  0  0  0
  152.8274  138.0685  159.6222 C   0  0  0  0  0  0  0  0  0  0  0  0
  152.1293  137.0749  159.4264 O   0  0  0  0  0  0  0  0  0  0  0  0
  153.9264  138.0151  160.6969 C   0  0  0  0  0  0  0  0  0  0  0  0
  154.7132  139.2463  160.8366 N   0  0  0  0  0  0  0  0  0  0  0  0
  154.7567  139.9906  161.9965 C   0  0  0  0  0  0  0  0  0  0  0  0
  155.5157  141.0259  161.8759 N   0  0  0  0  0  0  0  0  0  0  0  0
  155.9542  140.9231  160.5986 N   0  0  0  0  0  0  0  0  0  0  0  0
  155.4853  139.8607  159.9427 C   0  0  0  0  0  0  0  0  0  0  0  0
  155.7245  139.5259  158.7841 O   0  0  0  0  0  0  0  0  0  0  0  0
  156.5814  141.6255  160.2335 H   0  0  0  0  0  0  0  0  0  0  0  0
  153.2020  144.7516  159.0675 H   0  0  0  0  0  0  0  0  0  0  0  0
  151.8885  145.6930  159.7687 H   0  0  0  0  0  0  0  0  0  0  0  0
  151.5952  144.7038  158.3460 H   0  0  0  0  0  0  0  0  0  0  0  0
  150.6901  143.6145  160.3778 H   0  0  0  0  0  0  0  0  0  0  0  0
  153.5603  143.5720  161.4406 H   0  0  0  0  0  0  0  0  0  0  0  0
  152.1442  142.9147  162.2568 H   0  0  0  0  0  0  0  0  0  0  0  0
  152.2866  144.6433  162.0139 H   0  0  0  0  0  0  0  0  0  0  0  0
  153.1309  142.1458  159.3056 H   0  0  0  0  0  0  0  0  0  0  0  0
  151.8065  141.3914  160.1498 H   0  0  0  0  0  0  0  0  0  0  0  0
  150.2638  141.8951  158.3299 H   0  0  0  0  0  0  0  0  0  0  0  0
  151.4024  142.9662  157.5578 H   0  0  0  0  0  0  0  0  0  0  0  0
  152.9170  140.9786  157.1674 H   0  0  0  0  0  0  0  0  0  0  0  0
  150.1258  140.8173  155.9989 H   0  0  0  0  0  0  0  0  0  0  0  0
  151.5822  141.4238  155.2106 H   0  0  0  0  0  0  0  0  0  0  0  0
  150.8523  138.8584  154.8008 H   0  0  0  0  0  0  0  0  0  0  0  0
  152.5454  139.2303  155.1017 H   0  0  0  0  0  0  0  0  0  0  0  0
  150.6223  137.8752  156.9341 H   0  0  0  0  0  0  0  0  0  0  0  0
  152.3716  137.7620  156.8741 H   0  0  0  0  0  0  0  0  0  0  0  0
  150.6348  139.5186  158.5027 H   0  0  0  0  0  0  0  0  0  0  0  0
  153.2847  139.9823  159.1663 H   0  0  0  0  0  0  0  0  0  0  0  0
  153.4583  137.7939  161.6573 H   0  0  0  0  0  0  0  0  0  0  0  0
  154.5790  137.1690  160.4764 H   0  0  0  0  0  0  0  0  0  0  0  0
  154.1854  139.6675  162.8685 H   0  0  0  0  0  0  0  0  0  0  0  0
  1  2  1  0  0  0  0
  1 22  1  0  0  0  0
  1 23  1  0  0  0  0
  1 24  1  0  0  0  0
  2  3  1  0  0  0  0
  2  4  1  0  0  0  0
  2 25  1  0  0  0  0
  3 26  1  0  0  0  0
  3 27  1  0  0  0  0
  3 28  1  0  0  0  0
  4  5  1  0  0  0  0
  4 29  1  0  0  0  0
  4 30  1  0  0  0  0
  5  6  1  0  0  0  0
  5 31  1  0  0  0  0
  5 32  1  0  0  0  0
  6 10  1  0  0  0  0
  6  7  1  0  0  0  0
  6 33  1  0  0  0  0
  7  8  1  0  0  0  0
  7 34  1  0  0  0  0
  7 35  1  0  0  0  0
  8  9  1  0  0  0  0
  8 36  1  0  0  0  0
  8 37  1  0  0  0  0
  9 10  1  0  0  0  0
  9 38  1  0  0  0  0
  9 39  1  0  0  0  0
 10 11  1  0  0  0  0
 10 40  1  0  0  0  0
 11 12  1  0  0  0  0
 11 41  1  0  0  0  0
 12 13  2  0  0  0  0
 12 14  1  0  0  0  0
 14 15  1  0  0  0  0
 14 42  1  0  0  0  0
 14 43  1  0  0  0  0
 15 19  1  0  0  0  0
 15 16  1  0  0  0  0
 16 17  2  0  0  0  0
 16 44  1  0  0  0  0
 17 18  1  0  0  0  0
 18 21  1  0  0  0  0
 18 19  1  0  0  0  0
 19 20  2  0  0  0  0
M  END
> <s_m_source_file>
AV-unprocessed.smi

> <i_m_source_file_index>
2229

> <i_lp_mmshare_version>
43012

> <i_f3d_flags>
0

> <s_epik_input>
W0NIM11bQ0hdKFtDSDNdKVtDSDJdW0NIMl1bQ0BASF0xW0NIMl1bQ0gyXVtDSDJdW0NASF0xW05IXUMoPU8pW0NIMl1uMltjSF1uW25IXWMyPU8=

> <s_epik_cmdline>
J2VwaWtfcHl0aG9uJywgJy1waCcsICc3LjAnLCAnLXRuJywgJzgnLCAnLW1hJywgJzIwMCcsICctbWV0YWxfYmluZGluZycsICctaW1hZScsICc8aW5maWxlLm1hZT4nLCAnLW9tYWUnLCAnPG91dGZpbGUubWFlPic=

> <r_lp_tautomer_probability>
1

> <r_epik_Ionization_Penalty>
4.14174e-05

> <r_epik_Ionization_Penalty_Charging>
4.13165e-05

> <r_epik_Ionization_Penalty_Neutral>
1.00911e-07

> <r_epik_State_Penalty>
-0

> <r_epik_Charging_Adjusted_Penalty>
4.13165e-05

> <i_epik_Tot_Q>
0

> <i_epik_Tot_abs_Q>
0

> <r_epik_Metal_State_Penalty>
0.0399369

> <b_epik_Metal_Only>
0

> <s_lp_Force_Field>
OPLS_2005

> <r_lp_Energy>
36.5056

> <b_lp_Chiralities_Consistent>
1

> <s_lp_Variant>
AV-unprocessed.smi:2229-1

> <Gold.Version>
5.8.1

> <Gold.Id.Protein>
6NUR|6NUR_protein|mol2

> <Gold.PLP.Fitness>
45.4860

> <Gold.PLP.PLP>
-39.6460

> <Gold.PLP.part.hbond>
-3.9839

> <Gold.PLP.part.metal>
0.0000

> <Gold.PLP.part.buried>
-5.0425

> <Gold.PLP.part.nonpolar>
-30.0745

> <Gold.PLP.part.repulsive>
0.1383

> <Gold.PLP.ligand.clash>
0.0000

> <Gold.PLP.ligand.torsion>
0.0788

> <Gold.PLP.Chemscore.Hbond>
1.9913

> <Gold.PLP.Chemscore.CHOScore>
0.0000

> <Gold.PLP.Chemscore.Metal>
0.0000

> <Gold.Chemscore.Hbonds>
donor molecule, donor type, donor heavy atom, donor atom, acceptor molecule, acceptor atom, score
      P1  H  6896  6907       L1    13  0.89
      P1  H  7997  8009       L1    20  1.00

> <Gold.PLP.Chemscore.Internal.Correction>
0.0238

> <Gold.Rescore>
     Score         DG    S(hbond)    S(metal)    S(lipo)     H(rot)  DE(clash)    DE(int)     intcor
     11.77     -15.42       1.84        0.00      89.97       2.64       2.16       1.48       ----

> <Gold.Chemscore.Fitness>
11.7723

> <Gold.Chemscore.DG>
-15.4154

> <Gold.Chemscore.ZeroCoef>
-5.4800

> <Gold.Chemscore.Hbond>
1.8439

> <Gold.Chemscore.Metal>
0.0000

> <Gold.Chemscore.Lipo>
89.9732

> <Gold.Chemscore.Internal_Hbond>
0.0000

> <Gold.Chemscore.DEClash>
2.1603

> <Gold.Chemscore.DEInternal>
1.4828

> <Gold.Chemscore.Rot>
2.6368

> <Gold.Chemscore.Internal.Correction>
   9.000000E+99

> <Gold.Chemscore.Hbonds>
donor molecule, donor type, donor heavy atom, donor atom, acceptor molecule, acceptor atom, score
      P1  H  6896  6907       L1    13  0.85
      P1  H  7997  8009       L1    20  0.95

> <Gold.Chemscore.Hbond.Weighted>
-6.1586

> <Gold.Chemscore.Metal.Weighted>
-0.0000

> <Gold.Chemscore.Lipo.Weighted>
-10.5269

> <Gold.Chemscore.Internal_Hbond.Weighted>
0.0000

> <Gold.Chemscore.DEClash.Weighted>
2.1603

> <Gold.Chemscore.DEInternal.Weighted>
1.4828

> <Gold.Chemscore.Rot.Weighted>
6.7501

> <Gold.Chemscore.Internal.Correction.Weighted>
   9.000000E+99

> <Gold.Protein.RotatedTorsions>
[ 6907 6896 6895 6894 ] final   -4.88 input  -60.11 | X-H torsion
[ 7974 7965 7964 7962 ] final  -78.23 input  175.53 | X-H torsion
[ 8008 7997 7996 7995 ] final  114.64 input   59.86 | X-H torsion
[ 10167 10162 10161 10158 ] final   83.32 input  -65.29 | X-H torsion
[ 10718 10713 10712 10709 ] final -165.65 input   66.30 | X-H torsion
[ 10763 10752 10751 10750 ] final   67.76 input  -60.55 | X-H torsion
[ 11005 11000 10999 10996 ] final   39.71 input  -57.11 | X-H torsion

> <Gold.Protein.ActiveResidues>
 VAL166  LYS551  ARG553  GLY616  TRP617  ASP618  TYR619  PRO620  LYS621  CYS622 
 ASP623  PHE694  ASN695  SER759  ASP760  ASP761  ALA762  ILE779  LEU786  VAL792 
 PHE793  MET794  SER795  GLU796  ALA797  LYS798  CYS799  TRP800  GLU811  SER814 

> <Gold.Protein.RotatedAtoms>
  151.4905  135.1057  159.9801 H   0  0  0  0  0  0  0  0  0  0  0  0  # atno 6907 bound_to 6896
  152.4743  133.8097  159.7007 H   0  0  0  0  0  0  0  0  0  0  0  0  # atno 6908 bound_to 6896
  150.8771  133.7362  159.2969 H   0  0  0  0  0  0  0  0  0  0  0  0  # atno 6909 bound_to 6896
  145.5893  140.9433  143.1301 H   0  0  0  0  0  0  0  0  0  0  0  0  # atno 7974 bound_to 7965
  156.2333  140.2955  156.0246 H   0  0  0  0  0  0  0  0  0  0  0  0  # atno 8008 bound_to 7997
  155.2163  140.0414  157.2958 H   0  0  0  0  0  0  0  0  0  0  0  0  # atno 8009 bound_to 7997
  154.6034  140.2433  155.7770 H   0  0  0  0  0  0  0  0  0  0  0  0  # atno 8010 bound_to 7997
  139.9196  144.6221  150.8454 H   0  0  0  0  0  0  0  0  0  0  0  0  # atno 10167 bound_to 10162
  156.6565  130.9028  151.3022 H   0  0  0  0  0  0  0  0  0  0  0  0  # atno 10718 bound_to 10713
  153.0202  135.5272  154.7029 H   0  0  0  0  0  0  0  0  0  0  0  0  # atno 10763 bound_to 10752
  154.6133  135.2880  155.0411 H   0  0  0  0  0  0  0  0  0  0  0  0  # atno 10764 bound_to 10752
  154.1424  135.6576  153.4997 H   0  0  0  0  0  0  0  0  0  0  0  0  # atno 10765 bound_to 10752
  140.2002  134.3880  155.8100 H   0  0  0  0  0  0  0  0  0  0  0  0  # atno 11005 bound_to 11000
  144.7359  139.7589  143.7329 LP  0  0  0  0  0  0  0  0  0  0  0  0  # atno 17320 bound_to 7965
  146.1659  139.4790  142.9958 LP  0  0  0  0  0  0  0  0  0  0  0  0  # atno 17321 bound_to 7965
  140.7665  143.3306  151.2418 LP  0  0  0  0  0  0  0  0  0  0  0  0  # atno 17342 bound_to 10162
  139.6873  143.9752  152.2841 LP  0  0  0  0  0  0  0  0  0  0  0  0  # atno 17343 bound_to 10162
  157.7124  130.9456  150.1134 LP  0  0  0  0  0  0  0  0  0  0  0  0  # atno 17370 bound_to 10713
  156.2044  130.3662  149.8748 LP  0  0  0  0  0  0  0  0  0  0  0  0  # atno 17371 bound_to 10713
  141.2227  133.7090  156.8244 LP  0  0  0  0  0  0  0  0  0  0  0  0  # atno 17394 bound_to 11000
  140.2063  134.8860  157.3225 LP  0  0  0  0  0  0  0  0  0  0  0  0  # atno 17395 bound_to 11000

$$$$
