AV-unprocessed.smi:340|AV-procd|sdf|2381|dock3
  -GOLD-   2262022303D 1   1.00000     0.00000
 Structure written by MMmdl.
 34 35  0  0  0  0  0  0  0  0  2 V2000
  149.2355  133.7032  154.8615 C   0  0  0  0  0  0  0  0  0  0  0  0
  149.6161  134.7634  156.3127 S   0  0  0  0  0  0  0  0  0  0  0  0
  148.3593  135.4536  156.6454 O   0  0  0  0  0  0  0  0  0  0  0  0
  150.1785  133.8621  157.3315 O   0  0  0  0  0  0  0  0  0  0  0  0
  150.7256  135.7562  155.6731 N   0  5  0  0  0  0  0  0  0  0  0  0
  150.2976  137.0174  155.0957 C   0  0  0  0  0  0  0  0  0  0  0  0
  150.7664  138.2012  155.9292 C   0  0  0  0  0  0  0  0  0  0  0  0
  150.0180  138.6542  157.0386 C   0  0  0  0  0  0  0  0  0  0  0  0
  150.4942  139.7541  157.7793 C   0  0  0  0  0  0  0  0  0  0  0  0
  151.7041  140.3638  157.3886 C   0  0  0  0  0  0  0  0  0  0  0  0
  152.1844  141.4549  158.1260 N   0  0  0  0  0  0  0  0  0  0  0  0
  152.4871  141.1275  159.5138 C   0  0  0  0  0  0  0  0  0  0  0  0
  153.1196  142.3422  160.2147 C   0  0  0  0  0  0  0  0  0  0  0  0
  152.2538  143.4680  160.0967 O   0  0  0  0  0  0  0  0  0  0  0  0
  152.0233  143.8257  158.7368 C   0  0  0  0  0  0  0  0  0  0  0  0
  151.3583  142.6495  158.0022 C   0  0  0  0  0  0  0  0  0  0  0  0
  152.4267  139.9366  156.3259 N   0  0  0  0  0  0  0  0  0  0  0  0
  151.9661  138.8818  155.6187 C   0  0  0  0  0  0  0  0  0  0  0  0
  148.4821  132.9674  155.1406 H   0  0  0  0  0  0  0  0  0  0  0  0
  150.1412  133.1911  154.5378 H   0  0  0  0  0  0  0  0  0  0  0  0
  148.8558  134.3220  154.0489 H   0  0  0  0  0  0  0  0  0  0  0  0
  150.6777  137.1485  154.0821 H   0  0  0  0  0  0  0  0  0  0  0  0
  149.2119  137.0738  155.0096 H   0  0  0  0  0  0  0  0  0  0  0  0
  149.0927  138.1776  157.3329 H   0  0  0  0  0  0  0  0  0  0  0  0
  149.9409  140.1181  158.6327 H   0  0  0  0  0  0  0  0  0  0  0  0
  151.5728  140.8360  160.0329 H   0  0  0  0  0  0  0  0  0  0  0  0
  153.1671  140.2756  159.5532 H   0  0  0  0  0  0  0  0  0  0  0  0
  153.2796  142.1259  161.2709 H   0  0  0  0  0  0  0  0  0  0  0  0
  154.0955  142.5745  159.7853 H   0  0  0  0  0  0  0  0  0  0  0  0
  151.3779  144.7035  158.7036 H   0  0  0  0  0  0  0  0  0  0  0  0
  152.9637  144.1020  158.2572 H   0  0  0  0  0  0  0  0  0  0  0  0
  151.2188  142.8947  156.9486 H   0  0  0  0  0  0  0  0  0  0  0  0
  150.3698  142.4628  158.4244 H   0  0  0  0  0  0  0  0  0  0  0  0
  152.5869  138.5841  154.7847 H   0  0  0  0  0  0  0  0  0  0  0  0
  1  2  1  0  0  0  0
  1 19  1  0  0  0  0
  1 20  1  0  0  0  0
  1 21  1  0  0  0  0
  2  3  2  0  0  0  0
  2  4  2  0  0  0  0
  2  5  1  0  0  0  0
  5  6  1  0  0  0  0
  6  7  1  0  0  0  0
  6 22  1  0  0  0  0
  6 23  1  0  0  0  0
  7 18  1  0  0  0  0
  7  8  2  0  0  0  0
  8  9  1  0  0  0  0
  8 24  1  0  0  0  0
  9 10  2  0  0  0  0
  9 25  1  0  0  0  0
 10 11  1  0  0  0  0
 10 17  1  0  0  0  0
 11 16  1  0  0  0  0
 11 12  1  0  0  0  0
 12 13  1  0  0  0  0
 12 26  1  0  0  0  0
 12 27  1  0  0  0  0
 13 14  1  0  0  0  0
 13 28  1  0  0  0  0
 13 29  1  0  0  0  0
 14 15  1  0  0  0  0
 15 16  1  0  0  0  0
 15 30  1  0  0  0  0
 15 31  1  0  0  0  0
 16 32  1  0  0  0  0
 16 33  1  0  0  0  0
 17 18  2  0  0  0  0
 18 34  1  0  0  0  0
M  CHG  1   5  -1
M  END
> <s_m_source_file>
AV-unprocessed.smi

> <i_m_source_file_index>
340

> <i_lp_mmshare_version>
43012

> <i_f3d_flags>
0

> <s_epik_input>
W0NIM11TKD1PKSg9TylbTkhdW0NIMl1jMVtjSF1bY0hdYyhuW2NIXTEpTjJbQ0gyXVtDSDJdT1tDSDJdW0NIMl0y

> <s_epik_cmdline>
J2VwaWtfcHl0aG9uJywgJy1waCcsICc3LjAnLCAnLXRuJywgJzgnLCAnLW1hJywgJzIwMCcsICctbWV0YWxfYmluZGluZycsICctaW1hZScsICc8aW5maWxlLm1hZT4nLCAnLW9tYWUnLCAnPG91dGZpbGUubWFlPic=

> <r_lp_tautomer_probability>
1

> <r_epik_Ionization_Penalty>
5.97683

> <r_epik_Ionization_Penalty_Charging>
5.90424

> <r_epik_Ionization_Penalty_Neutral>
0.0725937

> <r_epik_State_Penalty>
5.9092

> <r_epik_Charging_Adjusted_Penalty>
11.8134

> <i_epik_Tot_Q>
-1

> <i_epik_Tot_abs_Q>
1

> <r_epik_Metal_State_Penalty>
1.87112

> <b_epik_Metal_Only>
1

> <s_lp_Force_Field>
OPLS_2005

> <r_lp_Energy>
14.5027

> <b_lp_Chiralities_Consistent>
1

> <s_lp_Variant>
AV-unprocessed.smi:340-2

> <Gold.Version>
5.8.1

> <Gold.Id.Protein>
6NUR|6NUR_protein|mol2

> <Gold.PLP.Fitness>
39.1688

> <Gold.PLP.PLP>
-28.7181

> <Gold.PLP.part.hbond>
-3.0000

> <Gold.PLP.part.metal>
0.0000

> <Gold.PLP.part.buried>
-4.5739

> <Gold.PLP.part.nonpolar>
-21.6023

> <Gold.PLP.part.repulsive>
0.1120

> <Gold.PLP.ligand.clash>
0.0000

> <Gold.PLP.ligand.torsion>
0.9376

> <Gold.PLP.Chemscore.Hbond>
3.7520

> <Gold.PLP.Chemscore.CHOScore>
0.0000

> <Gold.PLP.Chemscore.Metal>
0.0000

> <Gold.Chemscore.Hbonds>
donor molecule, donor type, donor heavy atom, donor atom, acceptor molecule, acceptor atom, score
      P1  H  6896  6908       L1     4  0.84
      P1  H  7997  8008       L1    17  1.00

> <Gold.PLP.Chemscore.Internal.Correction>
1.0699

> <Gold.Rescore>
     Score         DG    S(hbond)    S(metal)    S(lipo)     H(rot)  DE(clash)    DE(int)     intcor
     16.37     -17.31       2.38        0.00      67.12       1.54       0.03       0.92       ----

> <Gold.Chemscore.Fitness>
16.3652

> <Gold.Chemscore.DG>
-17.3135

> <Gold.Chemscore.ZeroCoef>
-5.4800

> <Gold.Chemscore.Hbond>
2.3756

> <Gold.Chemscore.Metal>
0.0000

> <Gold.Chemscore.Lipo>
67.1234

> <Gold.Chemscore.Internal_Hbond>
0.0000

> <Gold.Chemscore.DEClash>
0.0270

> <Gold.Chemscore.DEInternal>
0.9213

> <Gold.Chemscore.Rot>
1.5448

> <Gold.Chemscore.Internal.Correction>
   9.000000E+99

> <Gold.Chemscore.Hbonds>
donor molecule, donor type, donor heavy atom, donor atom, acceptor molecule, acceptor atom, score
      P1  H  6896  6908       L1     4  0.78
      P1  H  7997  8008       L1    17  0.88
      P1  H 10752 10765       L1     5  0.02

> <Gold.Chemscore.Hbond.Weighted>
-7.9346

> <Gold.Chemscore.Metal.Weighted>
-0.0000

> <Gold.Chemscore.Lipo.Weighted>
-7.8534

> <Gold.Chemscore.Internal_Hbond.Weighted>
0.0000

> <Gold.Chemscore.DEClash.Weighted>
0.0270

> <Gold.Chemscore.DEInternal.Weighted>
0.9213

> <Gold.Chemscore.Rot.Weighted>
3.9546

> <Gold.Chemscore.Internal.Correction.Weighted>
   9.000000E+99

> <Gold.Protein.RotatedTorsions>
[ 6907 6896 6895 6894 ] final  107.16 input  -60.11 | X-H torsion
[ 7974 7965 7964 7962 ] final -121.61 input  175.53 | X-H torsion
[ 8008 7997 7996 7995 ] final  -46.41 input   59.86 | X-H torsion
[ 10167 10162 10161 10158 ] final   75.02 input  -65.29 | X-H torsion
[ 10718 10713 10712 10709 ] final  109.94 input   66.30 | X-H torsion
[ 10763 10752 10751 10750 ] final -160.89 input  -60.55 | X-H torsion
[ 11005 11000 10999 10996 ] final  157.22 input  -57.11 | X-H torsion

> <Gold.Protein.ActiveResidues>
 VAL166  LYS551  ARG553  GLY616  TRP617  ASP618  TYR619  PRO620  LYS621  CYS622 
 ASP623  PHE694  ASN695  SER759  ASP760  ASP761  ALA762  ILE779  LEU786  VAL792 
 PHE793  MET794  SER795  GLU796  ALA797  LYS798  CYS799  TRP800  GLU811  SER814 

> <Gold.Protein.RotatedAtoms>
  152.5165  133.9274  159.7563 H   0  0  0  0  0  0  0  0  0  0  0  0  # atno 6907 bound_to 6896
  150.9632  133.6414  159.2757 H   0  0  0  0  0  0  0  0  0  0  0  0  # atno 6908 bound_to 6896
  151.3651  135.0917  159.9500 H   0  0  0  0  0  0  0  0  0  0  0  0  # atno 6909 bound_to 6896
  145.0384  140.8125  143.4281 H   0  0  0  0  0  0  0  0  0  0  0  0  # atno 7974 bound_to 7965
  154.4007  140.1372  156.4007 H   0  0  0  0  0  0  0  0  0  0  0  0  # atno 8008 bound_to 7997
  155.7827  140.3481  155.5286 H   0  0  0  0  0  0  0  0  0  0  0  0  # atno 8009 bound_to 7997
  155.8658  140.0964  157.1574 H   0  0  0  0  0  0  0  0  0  0  0  0  # atno 8010 bound_to 7997
  140.0074  144.5640  150.7686 H   0  0  0  0  0  0  0  0  0  0  0  0  # atno 10167 bound_to 10162
  157.6518  131.0923  150.6528 H   0  0  0  0  0  0  0  0  0  0  0  0  # atno 10718 bound_to 10713
  154.7351  135.3055  154.8824 H   0  0  0  0  0  0  0  0  0  0  0  0  # atno 10763 bound_to 10752
  153.9655  135.6748  153.4750 H   0  0  0  0  0  0  0  0  0  0  0  0  # atno 10764 bound_to 10752
  153.0955  135.4938  154.8693 H   0  0  0  0  0  0  0  0  0  0  0  0  # atno 10765 bound_to 10752
  140.1749  134.8517  157.2734 H   0  0  0  0  0  0  0  0  0  0  0  0  # atno 11005 bound_to 11000
  145.1679  139.2421  143.5357 LP  0  0  0  0  0  0  0  0  0  0  0  0  # atno 17320 bound_to 7965
  146.3507  140.1423  142.8594 LP  0  0  0  0  0  0  0  0  0  0  0  0  # atno 17321 bound_to 7965
  140.7395  143.2792  151.3650 LP  0  0  0  0  0  0  0  0  0  0  0  0  # atno 17342 bound_to 10162
  139.6229  144.0872  152.2407 LP  0  0  0  0  0  0  0  0  0  0  0  0  # atno 17343 bound_to 10162
  156.6838  130.4575  149.5620 LP  0  0  0  0  0  0  0  0  0  0  0  0  # atno 17370 bound_to 10713
  156.1910  130.6560  151.1061 LP  0  0  0  0  0  0  0  0  0  0  0  0  # atno 17371 bound_to 10713
  140.2335  134.3881  155.7511 LP  0  0  0  0  0  0  0  0  0  0  0  0  # atno 17394 bound_to 11000
  141.2220  133.7227  156.8677 LP  0  0  0  0  0  0  0  0  0  0  0  0  # atno 17395 bound_to 11000

$$$$
