AV-unprocessed.smi:2656|AV-procd|sdf|10306|dock6
  -GOLD-   2272014323D 1   1.00000     0.00000
 Structure written by MMmdl.
 44 45  0  0  0  0  0  0  0  0  2 V2000
  144.7098  134.4987  155.6523 C   0  0  0  0  0  0  0  0  0  0  0  0
  144.5669  134.6442  154.2009 N   0  0  0  0  0  0  0  0  0  0  0  0
  143.3235  135.3125  153.7984 C   0  0  0  0  0  0  0  0  0  0  0  0
  145.4371  134.2186  153.2448 C   0  0  0  0  0  0  0  0  0  0  0  0
  146.4563  133.6082  153.5770 O   0  0  0  0  0  0  0  0  0  0  0  0
  145.2075  134.4924  151.7169 C   0  0  0  0  0  0  0  0  0  0  0  0
  145.1704  136.0118  151.3572 C   0  0  0  0  0  0  0  0  0  0  0  0
  146.3264  136.7601  151.8537 N   0  0  0  0  0  0  0  0  0  0  0  0
  146.2776  137.9177  152.5279 C   0  0  0  0  0  0  0  0  0  0  0  0
  145.2284  138.4789  152.8423 O   0  0  0  0  0  0  0  0  0  0  0  0
  147.5123  138.3828  152.7847 N   0  0  0  0  0  0  0  0  0  0  0  0
  147.8812  139.5893  153.4394 C   0  0  0  0  0  0  0  0  0  0  0  0
  147.0378  140.7098  153.2700 C   0  0  0  0  0  0  0  0  0  0  0  0
  147.3697  141.9305  153.8924 C   0  0  0  0  0  0  0  0  0  0  0  0
  148.4940  142.0230  154.6345 N   0  3  0  0  0  0  0  0  0  0  0  0
  149.3396  140.9851  154.8114 C   0  0  0  0  0  0  0  0  0  0  0  0
  149.0599  139.7391  154.2141 C   0  0  0  0  0  0  0  0  0  0  0  0
  146.3116  133.8096  150.8598 C   0  0  0  0  0  0  0  0  0  0  0  0
  145.9243  132.3351  150.6942 C   0  0  0  0  0  0  0  0  0  0  0  0
  144.4160  132.2753  150.9451 C   0  0  0  0  0  0  0  0  0  0  0  0
  143.9710  133.7216  151.1969 C   0  0  0  0  0  0  0  0  0  0  0  0
  145.7390  134.5305  155.9976 H   0  0  0  0  0  0  0  0  0  0  0  0
  144.2649  133.5583  155.9783 H   0  0  0  0  0  0  0  0  0  0  0  0
  144.2007  135.3027  156.1849 H   0  0  0  0  0  0  0  0  0  0  0  0
  143.5415  136.2826  153.3499 H   0  0  0  0  0  0  0  0  0  0  0  0
  142.6436  135.4812  154.6343 H   0  0  0  0  0  0  0  0  0  0  0  0
  142.7768  134.7141  153.0674 H   0  0  0  0  0  0  0  0  0  0  0  0
  145.0885  136.1418  150.2767 H   0  0  0  0  0  0  0  0  0  0  0  0
  144.2723  136.4935  151.7346 H   0  0  0  0  0  0  0  0  0  0  0  0
  147.2348  136.3741  151.6422 H   0  0  0  0  0  0  0  0  0  0  0  0
  148.2754  137.8497  152.3941 H   0  0  0  0  0  0  0  0  0  0  0  0
  146.1384  140.6358  152.6755 H   0  0  0  0  0  0  0  0  0  0  0  0
  146.7745  142.8290  153.8186 H   0  0  0  0  0  0  0  0  0  0  0  0
  150.2121  141.1818  155.4174 H   0  0  0  0  0  0  0  0  0  0  0  0
  149.7590  138.9285  154.3525 H   0  0  0  0  0  0  0  0  0  0  0  0
  146.3412  134.2566  149.8652 H   0  0  0  0  0  0  0  0  0  0  0  0
  147.3178  133.9250  151.2651 H   0  0  0  0  0  0  0  0  0  0  0  0
  146.1868  131.9673  149.7017 H   0  0  0  0  0  0  0  0  0  0  0  0
  146.4498  131.7145  151.4207 H   0  0  0  0  0  0  0  0  0  0  0  0
  143.8780  131.8308  150.1072 H   0  0  0  0  0  0  0  0  0  0  0  0
  144.2143  131.6623  151.8245 H   0  0  0  0  0  0  0  0  0  0  0  0
  143.1149  133.7365  151.8686 H   0  0  0  0  0  0  0  0  0  0  0  0
  143.6364  134.1605  150.2558 H   0  0  0  0  0  0  0  0  0  0  0  0
  148.7164  142.9157  155.0763 H   0  0  0  0  0  0  0  0  0  0  0  0
  1  2  1  0  0  0  0
  1 22  1  0  0  0  0
  1 23  1  0  0  0  0
  1 24  1  0  0  0  0
  2  3  1  0  0  0  0
  2  4  1  0  0  0  0
  3 25  1  0  0  0  0
  3 26  1  0  0  0  0
  3 27  1  0  0  0  0
  4  5  2  0  0  0  0
  4  6  1  0  0  0  0
  6 21  1  0  0  0  0
  6  7  1  0  0  0  0
  6 18  1  0  0  0  0
  7  8  1  0  0  0  0
  7 28  1  0  0  0  0
  7 29  1  0  0  0  0
  8  9  1  0  0  0  0
  8 30  1  0  0  0  0
  9 10  2  0  0  0  0
  9 11  1  0  0  0  0
 11 12  1  0  0  0  0
 11 31  1  0  0  0  0
 12 17  1  0  0  0  0
 12 13  2  0  0  0  0
 13 14  1  0  0  0  0
 13 32  1  0  0  0  0
 14 15  2  0  0  0  0
 14 33  1  0  0  0  0
 15 16  1  0  0  0  0
 15 44  1  0  0  0  0
 16 17  2  0  0  0  0
 16 34  1  0  0  0  0
 17 35  1  0  0  0  0
 18 19  1  0  0  0  0
 18 36  1  0  0  0  0
 18 37  1  0  0  0  0
 19 20  1  0  0  0  0
 19 38  1  0  0  0  0
 19 39  1  0  0  0  0
 20 21  1  0  0  0  0
 20 40  1  0  0  0  0
 20 41  1  0  0  0  0
 21 42  1  0  0  0  0
 21 43  1  0  0  0  0
M  CHG  1  15   1
M  END
> <s_m_source_file>
AV-unprocessed.smi

> <i_m_source_file_index>
2656

> <i_lp_mmshare_version>
43012

> <i_f3d_flags>
0

> <s_epik_input>
W0NIMl0xW0NIMl1bQ0gyXVtDSDJdQzEoQyg9TylOKFtDSDNdKVtDSDNdKVtDSDJdW05IXUMoPU8pW05IXWMyW2NIXVtjSF1uW2NIXVtjSF0y

> <s_epik_cmdline>
J2VwaWtfcHl0aG9uJywgJy1waCcsICc3LjAnLCAnLXRuJywgJzgnLCAnLW1hJywgJzIwMCcsICctbWV0YWxfYmluZGluZycsICctaW1hZScsICc8aW5maWxlLm1hZT4nLCAnLW9tYWUnLCAnPG91dGZpbGUubWFlPic=

> <r_epik_Ionization_Penalty>
1.05774

> <r_epik_Ionization_Penalty_Charging>
1.05772

> <r_epik_Ionization_Penalty_Neutral>
1.88023e-05

> <r_epik_State_Penalty>
1.11116

> <r_epik_Charging_Adjusted_Penalty>
2.16887

> <i_epik_Tot_Q>
1

> <i_epik_Tot_abs_Q>
1

> <r_epik_Metal_State_Penalty>
1.20442

> <b_epik_Metal_Only>
0

> <s_lp_Force_Field>
OPLS_2005

> <r_lp_Energy>
45.9804

> <b_lp_Chiralities_Consistent>
1

> <s_lp_Variant>
AV-unprocessed.smi:2656-2

> <Gold.Version>
5.8.1

> <Gold.Id.Protein>
6NUR|6NUR_protein|mol2

> <Gold.PLP.Fitness>
44.2955

> <Gold.PLP.PLP>
-32.9662

> <Gold.PLP.part.hbond>
-3.8601

> <Gold.PLP.part.metal>
0.0000

> <Gold.PLP.part.buried>
-2.8347

> <Gold.PLP.part.nonpolar>
-30.1811

> <Gold.PLP.part.repulsive>
3.7610

> <Gold.PLP.ligand.clash>
0.0000

> <Gold.PLP.ligand.torsion>
0.3850

> <Gold.PLP.Chemscore.Hbond>
3.9760

> <Gold.PLP.Chemscore.CHOScore>
0.0000

> <Gold.PLP.Chemscore.Metal>
0.0000

> <Gold.Chemscore.Hbonds>
donor molecule, donor type, donor heavy atom, donor atom, acceptor molecule, acceptor atom, score
      L1  H     8    30       P1  7948  1.00
      L1  H    11    31       P1  7948  1.00
      L1  H    15    44       P1  8028  2.00

> <Gold.PLP.Chemscore.Internal.Correction>
0.1714

> <Gold.Rescore>
     Score         DG    S(hbond)    S(metal)    S(lipo)     H(rot)  DE(clash)    DE(int)     intcor
     17.37     -20.64       2.94        0.00      79.45       1.54       1.59       1.68       ----

> <Gold.Chemscore.Fitness>
17.3667

> <Gold.Chemscore.DG>
-20.6397

> <Gold.Chemscore.ZeroCoef>
-5.4800

> <Gold.Chemscore.Hbond>
2.9367

> <Gold.Chemscore.Metal>
0.0000

> <Gold.Chemscore.Lipo>
79.4451

> <Gold.Chemscore.Internal_Hbond>
0.0000

> <Gold.Chemscore.DEClash>
1.5946

> <Gold.Chemscore.DEInternal>
1.6783

> <Gold.Chemscore.Rot>
1.5406

> <Gold.Chemscore.Internal.Correction>
   9.000000E+99

> <Gold.Chemscore.Hbonds>
donor molecule, donor type, donor heavy atom, donor atom, acceptor molecule, acceptor atom, score
      L1  H     8    30       P1  7948  0.98
      L1  H    11    31       P1  7948  0.94
      L1  H    15    44       P1  8028  1.00

> <Gold.Chemscore.Hbond.Weighted>
-9.8086

> <Gold.Chemscore.Metal.Weighted>
-0.0000

> <Gold.Chemscore.Lipo.Weighted>
-9.2951

> <Gold.Chemscore.Internal_Hbond.Weighted>
0.0000

> <Gold.Chemscore.DEClash.Weighted>
1.5946

> <Gold.Chemscore.DEInternal.Weighted>
1.6783

> <Gold.Chemscore.Rot.Weighted>
3.9440

> <Gold.Chemscore.Internal.Correction.Weighted>
   9.000000E+99

> <Gold.Protein.RotatedTorsions>
[ 6907 6896 6895 6894 ] final   36.43 input  -60.11 | X-H torsion
[ 7974 7965 7964 7962 ] final  -56.13 input  175.53 | X-H torsion
[ 8008 7997 7996 7995 ] final  -20.47 input   59.86 | X-H torsion
[ 10167 10162 10161 10158 ] final  -33.88 input  -65.29 | X-H torsion
[ 10718 10713 10712 10709 ] final   64.85 input   66.30 | X-H torsion
[ 10763 10752 10751 10750 ] final  155.96 input  -60.55 | X-H torsion
[ 11005 11000 10999 10996 ] final  122.95 input  -57.11 | X-H torsion

> <Gold.Protein.ActiveResidues>
 VAL166  LYS551  ARG553  GLY616  TRP617  ASP618  TYR619  PRO620  LYS621  CYS622 
 ASP623  PHE694  ASN695  SER759  ASP760  ASP761  ALA762  ILE779  LEU786  VAL792 
 PHE793  MET794  SER795  GLU796  ALA797  LYS798  CYS799  TRP800  GLU811  SER814 

> <Gold.Protein.RotatedAtoms>
  152.1296  134.9145  160.0559 H   0  0  0  0  0  0  0  0  0  0  0  0  # atno 6907 bound_to 6896
  152.0254  133.3910  159.4283 H   0  0  0  0  0  0  0  0  0  0  0  0  # atno 6908 bound_to 6896
  150.6855  134.3501  159.4949 H   0  0  0  0  0  0  0  0  0  0  0  0  # atno 6909 bound_to 6896
  145.8662  140.8249  142.9911 H   0  0  0  0  0  0  0  0  0  0  0  0  # atno 7974 bound_to 7965
  154.4767  140.2061  155.9860 H   0  0  0  0  0  0  0  0  0  0  0  0  # atno 8008 bound_to 7997
  156.1101  140.3230  155.8030 H   0  0  0  0  0  0  0  0  0  0  0  0  # atno 8009 bound_to 7997
  155.4650  140.0527  157.2977 H   0  0  0  0  0  0  0  0  0  0  0  0  # atno 8010 bound_to 7997
  140.7196  143.3588  151.2004 H   0  0  0  0  0  0  0  0  0  0  0  0  # atno 10167 bound_to 10162
  157.6067  130.9182  149.9900 H   0  0  0  0  0  0  0  0  0  0  0  0  # atno 10718 bound_to 10713
  154.1768  135.2801  155.3064 H   0  0  0  0  0  0  0  0  0  0  0  0  # atno 10763 bound_to 10752
  154.6033  135.5522  153.7400 H   0  0  0  0  0  0  0  0  0  0  0  0  # atno 10764 bound_to 10752
  153.0149  135.6397  154.1907 H   0  0  0  0  0  0  0  0  0  0  0  0  # atno 10765 bound_to 10752
  139.9291  134.9641  156.8186 H   0  0  0  0  0  0  0  0  0  0  0  0  # atno 11005 bound_to 11000
  144.6726  140.1170  143.7452 LP  0  0  0  0  0  0  0  0  0  0  0  0  # atno 17320 bound_to 7965
  145.9190  139.2534  143.1392 LP  0  0  0  0  0  0  0  0  0  0  0  0  # atno 17321 bound_to 7965
  139.7136  143.9337  152.2957 LP  0  0  0  0  0  0  0  0  0  0  0  0  # atno 17342 bound_to 10162
  139.9070  144.6878  150.8603 LP  0  0  0  0  0  0  0  0  0  0  0  0  # atno 17343 bound_to 10162
  156.1156  130.3648  149.9974 LP  0  0  0  0  0  0  0  0  0  0  0  0  # atno 17370 bound_to 10713
  156.8064  130.9309  151.3645 LP  0  0  0  0  0  0  0  0  0  0  0  0  # atno 17371 bound_to 10713
  140.6253  133.9956  155.7637 LP  0  0  0  0  0  0  0  0  0  0  0  0  # atno 17394 bound_to 11000
  141.0868  133.9978  157.3301 LP  0  0  0  0  0  0  0  0  0  0  0  0  # atno 17395 bound_to 11000

$$$$
