AV-unprocessed.smi:2505|AV-procd|sdf|9855|dock9
  -GOLD-   2272013483D 1   1.00000     0.00000
 Structure written by MMmdl.
 48 52  0  0  0  0  0  0  0  0  1 V2000
  147.5031  136.5178  155.9026 O   0  0  0  0  0  0  0  0  0  0  0  0
  147.9794  136.4015  154.7757 C   0  0  0  0  0  0  0  0  0  0  0  0
  148.9870  137.1489  154.2857 N   0  0  0  0  0  0  0  0  0  0  0  0
  149.7287  138.1708  154.9346 C   0  0  0  0  0  0  0  0  0  0  0  0
  150.6401  139.0480  154.2966 C   0  0  0  0  0  0  0  0  0  0  0  0
  151.2977  140.0082  154.9825 N   0  0  0  0  0  0  0  0  0  0  0  0
  151.0549  140.0914  156.2934 C   0  0  0  0  0  0  0  0  0  0  0  0
  151.7605  141.1808  157.0398 C   0  0  0  0  0  0  0  0  0  0  0  0
  151.6156  141.3124  158.5423 C   0  0  0  0  0  0  0  0  0  0  0  0
  150.9864  142.3369  157.6401 C   0  0  0  0  0  0  0  0  0  0  0  0
  150.2025  139.3386  156.9945 N   0  0  0  0  0  0  0  0  0  0  0  0
  149.5396  138.3772  156.3169 C   0  0  0  0  0  0  0  0  0  0  0  0
  147.4786  135.5183  153.8953 N   0  0  0  0  0  0  0  0  0  0  0  0
  146.3851  134.5614  154.1074 C   0  0  2  0  0  0  0  0  0  0  0  0
  146.8605  133.0995  154.2943 C   0  0  2  0  0  0  0  0  0  0  0  0
  148.3023  132.7206  154.5348 C   0  0  0  0  0  0  0  0  0  0  0  0
  148.8015  132.3641  153.1314 C   0  0  0  0  0  0  0  0  0  0  0  0
  147.8799  132.9923  152.2432 O   0  0  0  0  0  0  0  0  0  0  0  0
  146.5795  132.8828  152.8160 C   0  0  2  0  0  0  0  0  0  0  0  0
  145.7052  134.1524  152.7794 C   0  0  0  0  0  0  0  0  0  0  0  0
  145.8072  135.0507  151.5460 C   0  0  0  0  0  0  0  0  0  0  0  0
  144.7692  134.5438  150.5434 C   0  0  0  0  0  0  0  0  0  0  0  0
  143.6950  133.8473  151.3838 C   0  0  0  0  0  0  0  0  0  0  0  0
  144.1986  133.8998  152.8300 C   0  0  0  0  0  0  0  0  0  0  0  0
  149.2160  136.9962  153.3144 H   0  0  0  0  0  0  0  0  0  0  0  0
  150.8411  139.0138  153.2375 H   0  0  0  0  0  0  0  0  0  0  0  0
  152.7349  141.3919  156.6035 H   0  0  0  0  0  0  0  0  0  0  0  0
  150.9503  140.6179  159.0519 H   0  0  0  0  0  0  0  0  0  0  0  0
  152.4966  141.6120  159.1061 H   0  0  0  0  0  0  0  0  0  0  0  0
  151.4459  143.3223  157.6000 H   0  0  0  0  0  0  0  0  0  0  0  0
  149.9018  142.3247  157.5501 H   0  0  0  0  0  0  0  0  0  0  0  0
  148.8531  137.7669  156.8857 H   0  0  0  0  0  0  0  0  0  0  0  0
  147.8599  135.5464  152.9605 H   0  0  0  0  0  0  0  0  0  0  0  0
  145.6590  134.8751  154.8594 H   0  0  0  0  0  0  0  0  0  0  0  0
  146.1537  132.5422  154.9109 H   0  0  0  0  0  0  0  0  0  0  0  0
  148.8804  133.5373  154.9645 H   0  0  0  0  0  0  0  0  0  0  0  0
  148.3964  131.8696  155.2099 H   0  0  0  0  0  0  0  0  0  0  0  0
  149.8224  132.7006  152.9509 H   0  0  0  0  0  0  0  0  0  0  0  0
  148.7640  131.2851  152.9746 H   0  0  0  0  0  0  0  0  0  0  0  0
  146.0780  131.9412  152.5882 H   0  0  0  0  0  0  0  0  0  0  0  0
  145.5716  136.0809  151.8173 H   0  0  0  0  0  0  0  0  0  0  0  0
  146.8065  135.0618  151.1097 H   0  0  0  0  0  0  0  0  0  0  0  0
  144.3614  135.3538  149.9380 H   0  0  0  0  0  0  0  0  0  0  0  0
  145.2287  133.8242  149.8645 H   0  0  0  0  0  0  0  0  0  0  0  0
  142.7239  134.3339  151.2867 H   0  0  0  0  0  0  0  0  0  0  0  0
  143.5788  132.8134  151.0566 H   0  0  0  0  0  0  0  0  0  0  0  0
  143.9448  132.9879  153.3716 H   0  0  0  0  0  0  0  0  0  0  0  0
  143.7031  134.7197  153.3518 H   0  0  0  0  0  0  0  0  0  0  0  0
  1  2  2  0  0  0  0
  2  3  1  0  0  0  0
  2 13  1  0  0  0  0
  3  4  1  0  0  0  0
  3 25  1  0  0  0  0
  4 12  1  0  0  0  0
  4  5  2  0  0  0  0
  5  6  1  0  0  0  0
  5 26  1  0  0  0  0
  6  7  2  0  0  0  0
  7  8  1  0  0  0  0
  7 11  1  0  0  0  0
  8 10  1  0  0  0  0
  8  9  1  0  0  0  0
  8 27  1  0  0  0  0
  9 10  1  0  0  0  0
  9 28  1  0  0  0  0
  9 29  1  0  0  0  0
 10 30  1  0  0  0  0
 10 31  1  0  0  0  0
 11 12  2  0  0  0  0
 12 32  1  0  0  0  0
 13 14  1  0  0  0  0
 13 33  1  0  0  0  0
 14 20  1  0  0  0  0
 14 15  1  0  0  0  0
 14 34  1  0  0  0  0
 15 19  1  0  0  0  0
 15 16  1  0  0  0  0
 15 35  1  0  0  0  0
 16 17  1  0  0  0  0
 16 36  1  0  0  0  0
 16 37  1  0  0  0  0
 17 18  1  0  0  0  0
 17 38  1  0  0  0  0
 17 39  1  0  0  0  0
 18 19  1  0  0  0  0
 19 20  1  0  0  0  0
 19 40  1  0  0  0  0
 20 24  1  0  0  0  0
 20 21  1  0  0  0  0
 21 22  1  0  0  0  0
 21 41  1  0  0  0  0
 21 42  1  0  0  0  0
 22 23  1  0  0  0  0
 22 43  1  0  0  0  0
 22 44  1  0  0  0  0
 23 24  1  0  0  0  0
 23 45  1  0  0  0  0
 23 46  1  0  0  0  0
 24 47  1  0  0  0  0
 24 48  1  0  0  0  0
M  END
> <s_m_source_file>
AV-unprocessed.smi

> <i_m_source_file_index>
2505

> <i_lp_mmshare_version>
43012

> <i_f3d_flags>
0

> <s_epik_input>
W0NIMl0xW0NIMl1bQ0hdMWMobltjSF0yKW5bY0hdYzJbTkhdQyg9TylbTkhdW0NAQEhdM1tDQEBIXShbQ0gyXVtDSDJdTzQpW0NASF00QzM1W0NIMl1bQ0gyXVtDSDJdW0NIMl01

> <s_epik_cmdline>
J2VwaWtfcHl0aG9uJywgJy1waCcsICc3LjAnLCAnLXRuJywgJzgnLCAnLW1hJywgJzIwMCcsICctbWV0YWxfYmluZGluZycsICctaW1hZScsICc8aW5maWxlLm1hZT4nLCAnLW9tYWUnLCAnPG91dGZpbGUubWFlPic=

> <r_lp_tautomer_probability>
1

> <r_epik_Ionization_Penalty>
2.6075e-05

> <r_epik_Ionization_Penalty_Charging>
0

> <r_epik_Ionization_Penalty_Neutral>
2.6075e-05

> <r_epik_State_Penalty>
-0

> <r_epik_Charging_Adjusted_Penalty>
0

> <i_epik_Tot_Q>
0

> <i_epik_Tot_abs_Q>
0

> <r_epik_Metal_State_Penalty>
-0

> <b_epik_Metal_Only>
0

> <s_lp_Force_Field>
OPLS_2005

> <r_lp_Energy>
63.7277

> <b_lp_Chiralities_Consistent>
1

> <s_lp_Variant>
AV-unprocessed.smi:2505-3

> <Gold.Version>
5.8.1

> <Gold.Id.Protein>
6NUR|6NUR_protein|mol2

> <Gold.PLP.Fitness>
40.7962

> <Gold.PLP.PLP>
-30.3999

> <Gold.PLP.part.hbond>
-3.0000

> <Gold.PLP.part.metal>
0.0000

> <Gold.PLP.part.buried>
-3.0207

> <Gold.PLP.part.nonpolar>
-25.0696

> <Gold.PLP.part.repulsive>
0.3575

> <Gold.PLP.ligand.clash>
0.0000

> <Gold.PLP.ligand.torsion>
0.3472

> <Gold.PLP.Chemscore.Hbond>
2.5920

> <Gold.PLP.Chemscore.CHOScore>
1.0000

> <Gold.PLP.Chemscore.Metal>
0.0000

> <Gold.Chemscore.Hbonds>
donor molecule, donor type, donor heavy atom, donor atom, acceptor molecule, acceptor atom, score
      L1  H     3    25       P1  7948  1.00
      L1  H    13    33       P1  7948  0.99
      P1  H  7989  7998       L1     6  0.55
      L1  C     5    26       P1  7957  0.82

> <Gold.PLP.Chemscore.Internal.Correction>
0.3147

> <Gold.Rescore>
     Score         DG    S(hbond)    S(metal)    S(lipo)     H(rot)  DE(clash)    DE(int)     intcor
     16.06     -17.96       1.95        0.00      76.79       1.17       0.05       1.85       ----

> <Gold.Chemscore.Fitness>
16.0592

> <Gold.Chemscore.DG>
-17.9591

> <Gold.Chemscore.ZeroCoef>
-5.4800

> <Gold.Chemscore.Hbond>
1.9465

> <Gold.Chemscore.Metal>
0.0000

> <Gold.Chemscore.Lipo>
76.7872

> <Gold.Chemscore.Internal_Hbond>
0.0000

> <Gold.Chemscore.DEClash>
0.0515

> <Gold.Chemscore.DEInternal>
1.8484

> <Gold.Chemscore.Rot>
1.1744

> <Gold.Chemscore.Internal.Correction>
   9.000000E+99

> <Gold.Chemscore.Hbonds>
donor molecule, donor type, donor heavy atom, donor atom, acceptor molecule, acceptor atom, score
      L1  H     3    25       P1  7948  0.95
      L1  H    13    33       P1  7948  0.94
      P1  H  7989  7998       L1     6  0.03

> <Gold.Chemscore.Hbond.Weighted>
-6.5015

> <Gold.Chemscore.Metal.Weighted>
-0.0000

> <Gold.Chemscore.Lipo.Weighted>
-8.9841

> <Gold.Chemscore.Internal_Hbond.Weighted>
0.0000

> <Gold.Chemscore.DEClash.Weighted>
0.0515

> <Gold.Chemscore.DEInternal.Weighted>
1.8484

> <Gold.Chemscore.Rot.Weighted>
3.0064

> <Gold.Chemscore.Internal.Correction.Weighted>
   9.000000E+99

> <Gold.Protein.RotatedTorsions>
[ 6907 6896 6895 6894 ] final   40.96 input  -60.11 | X-H torsion
[ 7974 7965 7964 7962 ] final  -83.89 input  175.53 | X-H torsion
[ 8008 7997 7996 7995 ] final  -14.48 input   59.86 | X-H torsion
[ 10167 10162 10161 10158 ] final -147.00 input  -65.29 | X-H torsion
[ 10718 10713 10712 10709 ] final -136.25 input   66.30 | X-H torsion
[ 10763 10752 10751 10750 ] final -170.44 input  -60.55 | X-H torsion
[ 11005 11000 10999 10996 ] final -151.63 input  -57.11 | X-H torsion

> <Gold.Protein.ActiveResidues>
 VAL166  LYS551  ARG553  GLY616  TRP617  ASP618  TYR619  PRO620  LYS621  CYS622 
 ASP623  PHE694  ASN695  SER759  ASP760  ASP761  ALA762  ILE779  LEU786  VAL792 
 PHE793  MET794  SER795  GLU796  ALA797  LYS798  CYS799  TRP800  GLU811  SER814 

> <Gold.Protein.RotatedAtoms>
  152.1891  134.8687  160.0518 H   0  0  0  0  0  0  0  0  0  0  0  0  # atno 6907 bound_to 6896
  151.9583  133.3682  159.4034 H   0  0  0  0  0  0  0  0  0  0  0  0  # atno 6908 bound_to 6896
  150.6932  134.4191  159.5241 H   0  0  0  0  0  0  0  0  0  0  0  0  # atno 6909 bound_to 6896
  145.5139  140.9537  143.1692 H   0  0  0  0  0  0  0  0  0  0  0  0  # atno 7974 bound_to 7965
  154.5206  140.2222  155.8982 H   0  0  0  0  0  0  0  0  0  0  0  0  # atno 8008 bound_to 7997
  156.1658  140.3132  155.8851 H   0  0  0  0  0  0  0  0  0  0  0  0  # atno 8009 bound_to 7997
  155.3659  140.0464  157.3036 H   0  0  0  0  0  0  0  0  0  0  0  0  # atno 8010 bound_to 7997
  139.7662  143.8304  152.2616 H   0  0  0  0  0  0  0  0  0  0  0  0  # atno 10167 bound_to 10162
  156.2750  130.7287  151.1267 H   0  0  0  0  0  0  0  0  0  0  0  0  # atno 10718 bound_to 10713
  154.6414  135.2899  155.0098 H   0  0  0  0  0  0  0  0  0  0  0  0  # atno 10763 bound_to 10752
  154.1223  135.6546  153.4909 H   0  0  0  0  0  0  0  0  0  0  0  0  # atno 10764 bound_to 10752
  153.0328  135.5291  154.7283 H   0  0  0  0  0  0  0  0  0  0  0  0  # atno 10765 bound_to 10752
  140.7275  134.3658  157.5173 H   0  0  0  0  0  0  0  0  0  0  0  0  # atno 11005 bound_to 11000
  144.7712  139.6730  143.7194 LP  0  0  0  0  0  0  0  0  0  0  0  0  # atno 17320 bound_to 7965
  146.2149  139.5531  142.9657 LP  0  0  0  0  0  0  0  0  0  0  0  0  # atno 17321 bound_to 7965
  139.8325  144.7247  150.9432 LP  0  0  0  0  0  0  0  0  0  0  0  0  # atno 17342 bound_to 10162
  140.7811  143.4057  151.1076 LP  0  0  0  0  0  0  0  0  0  0  0  0  # atno 17343 bound_to 10162
  157.7296  131.0623  150.5765 LP  0  0  0  0  0  0  0  0  0  0  0  0  # atno 17370 bound_to 10713
  156.5865  130.4318  149.5955 LP  0  0  0  0  0  0  0  0  0  0  0  0  # atno 17371 bound_to 10713
  139.8834  134.8996  156.2770 LP  0  0  0  0  0  0  0  0  0  0  0  0  # atno 17394 bound_to 11000
  140.9950  133.7186  156.0872 LP  0  0  0  0  0  0  0  0  0  0  0  0  # atno 17395 bound_to 11000

$$$$
