AV-unprocessed.smi:335|AV-procd|sdf|2370|dock5
  -GOLD-   2262022283D 1   1.00000     0.00000
 Structure written by MMmdl.
 42 44  0  0  0  0  0  0  0  0  1 V2000
  146.1004  143.9660  153.0133 C   0  0  0  0  0  0  0  0  0  0  0  0
  145.8854  142.9501  153.9769 O   0  0  0  0  0  0  0  0  0  0  0  0
  147.0916  142.5102  154.5799 C   0  0  0  0  0  0  0  0  0  0  0  0
  147.9835  141.8441  153.5190 C   0  0  0  0  0  0  0  0  0  0  0  0
  148.8133  140.7789  154.0934 N   0  0  0  0  0  0  0  0  0  0  0  0
  149.7287  141.2220  155.0335 N   0  0  0  0  0  0  0  0  0  0  0  0
  150.5035  140.3785  155.6356 C   0  0  0  0  0  0  0  0  0  0  0  0
  151.4983  140.8142  156.6544 C   0  0  0  0  0  0  0  0  0  0  0  0
  152.4805  140.1265  156.9388 O   0  0  0  0  0  0  0  0  0  0  0  0
  151.2433  142.0019  157.2331 N   0  0  0  0  0  0  0  0  0  0  0  0
  152.0535  142.6441  158.2623 C   0  0  0  0  0  0  0  0  0  0  0  0
  152.3704  141.7048  159.4134 C   0  0  0  0  0  0  0  0  0  0  0  0
  152.7494  142.2298  160.7781 C   0  0  0  0  0  0  0  0  0  0  0  0
  153.7823  141.5339  159.9211 C   0  0  0  0  0  0  0  0  0  0  0  0
  151.3972  143.9110  158.7791 C   0  0  0  0  0  0  0  0  0  0  0  0
  151.6765  145.2500  158.1392 C   0  0  0  0  0  0  0  0  0  0  0  0
  152.1866  144.9555  159.5322 C   0  0  0  0  0  0  0  0  0  0  0  0
  150.4324  138.9583  155.3358 C   0  0  0  0  0  0  0  0  0  0  0  0
  149.5407  138.5419  154.4101 C   0  0  0  0  0  0  0  0  0  0  0  0
  148.6526  139.4749  153.7152 C   0  0  0  0  0  0  0  0  0  0  0  0
  147.8313  139.1195  152.8702 O   0  0  0  0  0  0  0  0  0  0  0  0
  145.1467  144.2714  152.5831 H   0  0  0  0  0  0  0  0  0  0  0  0
  146.7363  143.6104  152.2015 H   0  0  0  0  0  0  0  0  0  0  0  0
  146.5643  144.8448  153.4631 H   0  0  0  0  0  0  0  0  0  0  0  0
  147.6110  143.3467  155.0499 H   0  0  0  0  0  0  0  0  0  0  0  0
  146.8626  141.7904  155.3670 H   0  0  0  0  0  0  0  0  0  0  0  0
  147.3624  141.4383  152.7189 H   0  0  0  0  0  0  0  0  0  0  0  0
  148.6099  142.6005  153.0425 H   0  0  0  0  0  0  0  0  0  0  0  0
  150.4132  142.4960  156.9383 H   0  0  0  0  0  0  0  0  0  0  0  0
  153.0027  142.9447  157.8141 H   0  0  0  0  0  0  0  0  0  0  0  0
  151.7594  140.8038  159.4138 H   0  0  0  0  0  0  0  0  0  0  0  0
  152.8505  143.3060  160.9033 H   0  0  0  0  0  0  0  0  0  0  0  0
  152.3699  141.6931  161.6450 H   0  0  0  0  0  0  0  0  0  0  0  0
  154.0901  140.5323  160.2138 H   0  0  0  0  0  0  0  0  0  0  0  0
  154.5612  142.1500  159.4766 H   0  0  0  0  0  0  0  0  0  0  0  0
  150.3753  143.7590  159.1225 H   0  0  0  0  0  0  0  0  0  0  0  0
  152.4076  145.2843  157.3338 H   0  0  0  0  0  0  0  0  0  0  0  0
  150.8439  145.9439  158.0431 H   0  0  0  0  0  0  0  0  0  0  0  0
  151.6939  145.4524  160.3654 H   0  0  0  0  0  0  0  0  0  0  0  0
  153.2577  144.8030  159.6481 H   0  0  0  0  0  0  0  0  0  0  0  0
  151.0751  138.2470  155.8338 H   0  0  0  0  0  0  0  0  0  0  0  0
  149.4788  137.4893  154.1756 H   0  0  0  0  0  0  0  0  0  0  0  0
  1  2  1  0  0  0  0
  1 22  1  0  0  0  0
  1 23  1  0  0  0  0
  1 24  1  0  0  0  0
  2  3  1  0  0  0  0
  3  4  1  0  0  0  0
  3 25  1  0  0  0  0
  3 26  1  0  0  0  0
  4  5  1  0  0  0  0
  4 27  1  0  0  0  0
  4 28  1  0  0  0  0
  5 20  1  0  0  0  0
  5  6  1  0  0  0  0
  6  7  2  0  0  0  0
  7  8  1  0  0  0  0
  7 18  1  0  0  0  0
  8  9  2  0  0  0  0
  8 10  1  0  0  0  0
 10 11  1  0  0  0  0
 10 29  1  0  0  0  0
 11 12  1  0  0  0  0
 11 15  1  0  0  0  0
 11 30  1  0  0  0  0
 12 14  1  0  0  0  0
 12 13  1  0  0  0  0
 12 31  1  0  0  0  0
 13 14  1  0  0  0  0
 13 32  1  0  0  0  0
 13 33  1  0  0  0  0
 14 34  1  0  0  0  0
 14 35  1  0  0  0  0
 15 17  1  0  0  0  0
 15 16  1  0  0  0  0
 15 36  1  0  0  0  0
 16 17  1  0  0  0  0
 16 37  1  0  0  0  0
 16 38  1  0  0  0  0
 17 39  1  0  0  0  0
 17 40  1  0  0  0  0
 18 19  2  0  0  0  0
 18 41  1  0  0  0  0
 19 20  1  0  0  0  0
 19 42  1  0  0  0  0
 20 21  2  0  0  0  0
M  END
> <s_m_source_file>
AV-unprocessed.smi

> <i_m_source_file_index>
335

> <i_lp_mmshare_version>
43012

> <i_f3d_flags>
0

> <s_epik_input>
W0NIM11PW0NIMl1bQ0gyXW4xbmMoW2NIXVtjSF1jMT1PKUMoPU8pW05IXVtDSF0oW0NIXTJbQ0gyXVtDSDJdMilbQ0hdM1tDSDJdW0NIMl0z

> <s_epik_cmdline>
J2VwaWtfcHl0aG9uJywgJy1waCcsICc3LjAnLCAnLXRuJywgJzgnLCAnLW1hJywgJzIwMCcsICctbWV0YWxfYmluZGluZycsICctaW1hZScsICc8aW5maWxlLm1hZT4nLCAnLW9tYWUnLCAnPG91dGZpbGUubWFlPic=

> <r_lp_tautomer_probability>
1

> <r_epik_Ionization_Penalty>
5.73468e-07

> <r_epik_Ionization_Penalty_Charging>
6.67133e-09

> <r_epik_Ionization_Penalty_Neutral>
5.66797e-07

> <r_epik_State_Penalty>
-0

> <r_epik_Charging_Adjusted_Penalty>
6.67133e-09

> <i_epik_Tot_Q>
0

> <i_epik_Tot_abs_Q>
0

> <r_epik_Metal_State_Penalty>
-0

> <b_epik_Metal_Only>
0

> <s_lp_Force_Field>
OPLS_2005

> <r_lp_Energy>
44.174

> <b_lp_Chiralities_Consistent>
1

> <s_lp_Variant>
AV-unprocessed.smi:335-1

> <Gold.Version>
5.8.1

> <Gold.Id.Protein>
6NUR|6NUR_protein|mol2

> <Gold.PLP.Fitness>
46.2748

> <Gold.PLP.PLP>
-44.9455

> <Gold.PLP.part.hbond>
-1.0000

> <Gold.PLP.part.metal>
0.0000

> <Gold.PLP.part.buried>
-5.0634

> <Gold.PLP.part.nonpolar>
-39.0216

> <Gold.PLP.part.repulsive>
1.8604

> <Gold.PLP.ligand.clash>
0.0000

> <Gold.PLP.ligand.torsion>
1.9736

> <Gold.PLP.Chemscore.Hbond>
1.0000

> <Gold.PLP.Chemscore.CHOScore>
0.0000

> <Gold.PLP.Chemscore.Metal>
0.0000

> <Gold.Chemscore.Hbonds>
donor molecule, donor type, donor heavy atom, donor atom, acceptor molecule, acceptor atom, score
      P1  H  7997  8008       L1     9  1.00

> <Gold.PLP.Chemscore.Internal.Correction>
2.2765

> <Gold.Rescore>
     Score         DG    S(hbond)    S(metal)    S(lipo)     H(rot)  DE(clash)    DE(int)     intcor
     14.42     -17.97       0.98        0.00     119.19       1.85       1.70       1.85       ----

> <Gold.Chemscore.Fitness>
14.4178

> <Gold.Chemscore.DG>
-17.9677

> <Gold.Chemscore.ZeroCoef>
-5.4800

> <Gold.Chemscore.Hbond>
0.9783

> <Gold.Chemscore.Metal>
0.0000

> <Gold.Chemscore.Lipo>
119.1924

> <Gold.Chemscore.Internal_Hbond>
0.0000

> <Gold.Chemscore.DEClash>
1.7027

> <Gold.Chemscore.DEInternal>
1.8472

> <Gold.Chemscore.Rot>
1.8458

> <Gold.Chemscore.Internal.Correction>
   9.000000E+99

> <Gold.Chemscore.Hbonds>
donor molecule, donor type, donor heavy atom, donor atom, acceptor molecule, acceptor atom, score
      P1  H  7997  8008       L1     9  0.95

> <Gold.Chemscore.Hbond.Weighted>
-3.2674

> <Gold.Chemscore.Metal.Weighted>
-0.0000

> <Gold.Chemscore.Lipo.Weighted>
-13.9455

> <Gold.Chemscore.Internal_Hbond.Weighted>
0.0000

> <Gold.Chemscore.DEClash.Weighted>
1.7027

> <Gold.Chemscore.DEInternal.Weighted>
1.8472

> <Gold.Chemscore.Rot.Weighted>
4.7252

> <Gold.Chemscore.Internal.Correction.Weighted>
   9.000000E+99

> <Gold.Protein.RotatedTorsions>
[ 6907 6896 6895 6894 ] final  119.82 input  -60.11 | X-H torsion
[ 7974 7965 7964 7962 ] final   27.32 input  175.53 | X-H torsion
[ 8008 7997 7996 7995 ] final  -43.78 input   59.86 | X-H torsion
[ 10167 10162 10161 10158 ] final  106.65 input  -65.29 | X-H torsion
[ 10718 10713 10712 10709 ] final  -46.99 input   66.30 | X-H torsion
[ 10763 10752 10751 10750 ] final   21.51 input  -60.55 | X-H torsion
[ 11005 11000 10999 10996 ] final  160.00 input  -57.11 | X-H torsion

> <Gold.Protein.ActiveResidues>
 VAL166  LYS551  ARG553  GLY616  TRP617  ASP618  TYR619  PRO620  LYS621  CYS622 
 ASP623  PHE694  ASN695  SER759  ASP760  ASP761  ALA762  ILE779  LEU786  VAL792 
 PHE793  MET794  SER795  GLU796  ALA797  LYS798  CYS799  TRP800  GLU811  SER814 

> <Gold.Protein.RotatedAtoms>
  152.4444  133.7508  159.6692 H   0  0  0  0  0  0  0  0  0  0  0  0  # atno 6907 bound_to 6896
  150.8341  133.8033  159.3093 H   0  0  0  0  0  0  0  0  0  0  0  0  # atno 6908 bound_to 6896
  151.5678  135.1066  160.0039 H   0  0  0  0  0  0  0  0  0  0  0  0  # atno 6909 bound_to 6896
  146.1790  139.7207  142.8914 H   0  0  0  0  0  0  0  0  0  0  0  0  # atno 7974 bound_to 7965
  154.3997  140.1439  156.3576 H   0  0  0  0  0  0  0  0  0  0  0  0  # atno 8008 bound_to 7997
  155.8211  140.3469  155.5494 H   0  0  0  0  0  0  0  0  0  0  0  0  # atno 8009 bound_to 7997
  155.8287  140.0909  157.1796 H   0  0  0  0  0  0  0  0  0  0  0  0  # atno 8010 bound_to 7997
  139.6992  144.7097  151.1214 H   0  0  0  0  0  0  0  0  0  0  0  0  # atno 10167 bound_to 10162
  156.2129  130.4161  149.9092 H   0  0  0  0  0  0  0  0  0  0  0  0  # atno 10718 bound_to 10713
  153.0990  135.6667  153.9709 H   0  0  0  0  0  0  0  0  0  0  0  0  # atno 10763 bound_to 10752
  153.9285  135.3006  155.3447 H   0  0  0  0  0  0  0  0  0  0  0  0  # atno 10764 bound_to 10752
  154.7410  135.5080  153.9197 H   0  0  0  0  0  0  0  0  0  0  0  0  # atno 10765 bound_to 10752
  140.2016  134.8333  157.3024 H   0  0  0  0  0  0  0  0  0  0  0  0  # atno 11005 bound_to 11000
  145.4129  141.0398  143.3007 LP  0  0  0  0  0  0  0  0  0  0  0  0  # atno 17320 bound_to 7965
  144.8284  139.5671  143.6955 LP  0  0  0  0  0  0  0  0  0  0  0  0  # atno 17321 bound_to 7965
  140.7705  143.5448  150.9271 LP  0  0  0  0  0  0  0  0  0  0  0  0  # atno 17342 bound_to 10162
  139.9129  143.6698  152.3112 LP  0  0  0  0  0  0  0  0  0  0  0  0  # atno 17343 bound_to 10162
  156.6764  130.8841  151.3569 LP  0  0  0  0  0  0  0  0  0  0  0  0  # atno 17370 bound_to 10713
  157.7048  130.9372  150.0896 LP  0  0  0  0  0  0  0  0  0  0  0  0  # atno 17371 bound_to 10713
  140.2047  134.4211  155.7644 LP  0  0  0  0  0  0  0  0  0  0  0  0  # atno 17394 bound_to 11000
  141.2227  133.7089  156.8241 LP  0  0  0  0  0  0  0  0  0  0  0  0  # atno 17395 bound_to 11000

$$$$
