AV-unprocessed.smi:2556|AV-procd|sdf|10023|dock4
  -GOLD-   2272014 63D 1   1.00000     0.00000
 Structure written by MMmdl.
 35 37  0  0  0  0  0  0  0  0  1 V2000
  155.4379  135.4768  162.6643 C   0  0  0  0  0  0  0  0  0  0  0  0
  155.7696  136.8921  162.4887 N   0  0  0  0  0  0  0  0  0  0  0  0
  156.7985  137.4882  163.1760 C   0  0  0  0  0  0  0  0  0  0  0  0
  157.5072  136.8756  163.9741 O   0  0  0  0  0  0  0  0  0  0  0  0
  157.0281  138.8185  162.9499 N   0  0  0  0  0  0  0  0  0  0  0  0
  156.3507  139.6427  162.1136 C   0  0  0  0  0  0  0  0  0  0  0  0
  156.6198  140.8329  161.9665 O   0  0  0  0  0  0  0  0  0  0  0  0
  155.2624  138.9644  161.4009 C   0  0  0  0  0  0  0  0  0  0  0  0
  154.9812  137.6466  161.5761 C   0  0  0  0  0  0  0  0  0  0  0  0
  153.9106  137.2504  160.7826 N   0  0  0  0  0  0  0  0  0  0  0  0
  153.5965  138.3842  160.1530 C   0  0  0  0  0  0  0  0  0  0  0  0
  154.3544  139.4556  160.4654 N   0  0  0  0  0  0  0  0  0  0  0  0
  154.2133  140.7967  159.9196 C   0  0  0  0  0  0  0  0  0  0  0  0
  152.8108  141.0570  159.3337 C   0  0  2  0  0  0  0  0  0  0  0  0
  152.7215  140.5350  158.0222 O   0  0  0  0  0  0  0  0  0  0  0  0
  152.4588  142.5351  159.3850 C   0  0  0  0  0  0  0  0  0  0  0  0
  152.4961  143.2287  160.6137 C   0  0  0  0  0  0  0  0  0  0  0  0
  152.1797  144.6004  160.6641 C   0  0  0  0  0  0  0  0  0  0  0  0
  151.8269  145.2865  159.4862 C   0  0  0  0  0  0  0  0  0  0  0  0
  151.7917  144.6007  158.2571 C   0  0  0  0  0  0  0  0  0  0  0  0
  152.1069  143.2289  158.2062 C   0  0  0  0  0  0  0  0  0  0  0  0
  157.7902  139.2336  163.4655 H   0  0  0  0  0  0  0  0  0  0  0  0
  156.1155  134.9403  163.3292 H   0  0  0  0  0  0  0  0  0  0  0  0
  155.4587  134.9665  161.7008 H   0  0  0  0  0  0  0  0  0  0  0  0
  154.4317  135.3797  163.0730 H   0  0  0  0  0  0  0  0  0  0  0  0
  152.7871  138.4379  159.4395 H   0  0  0  0  0  0  0  0  0  0  0  0
  154.4104  141.5061  160.7245 H   0  0  0  0  0  0  0  0  0  0  0  0
  154.9894  140.9687  159.1744 H   0  0  0  0  0  0  0  0  0  0  0  0
  152.0791  140.5115  159.9311 H   0  0  0  0  0  0  0  0  0  0  0  0
  151.8670  140.7417  157.6755 H   0  0  0  0  0  0  0  0  0  0  0  0
  152.7681  142.7126  161.5231 H   0  0  0  0  0  0  0  0  0  0  0  0
  152.2090  145.1269  161.6067 H   0  0  0  0  0  0  0  0  0  0  0  0
  151.5855  146.3384  159.5253 H   0  0  0  0  0  0  0  0  0  0  0  0
  151.5245  145.1271  157.3527 H   0  0  0  0  0  0  0  0  0  0  0  0
  152.0809  142.7108  157.2585 H   0  0  0  0  0  0  0  0  0  0  0  0
  1  2  1  0  0  0  0
  1 23  1  0  0  0  0
  1 24  1  0  0  0  0
  1 25  1  0  0  0  0
  2  9  1  0  0  0  0
  2  3  1  0  0  0  0
  3  4  2  0  0  0  0
  3  5  1  0  0  0  0
  5 22  1  0  0  0  0
  5  6  1  0  0  0  0
  6  7  2  0  0  0  0
  6  8  1  0  0  0  0
  8 12  1  0  0  0  0
  8  9  2  0  0  0  0
  9 10  1  0  0  0  0
 10 11  2  0  0  0  0
 11 12  1  0  0  0  0
 11 26  1  0  0  0  0
 12 13  1  0  0  0  0
 13 14  1  0  0  0  0
 13 27  1  0  0  0  0
 13 28  1  0  0  0  0
 14 15  1  0  0  0  0
 14 16  1  0  0  0  0
 14 29  1  0  0  0  0
 15 30  1  0  0  0  0
 16 21  1  0  0  0  0
 16 17  2  0  0  0  0
 17 18  1  0  0  0  0
 17 31  1  0  0  0  0
 18 19  2  0  0  0  0
 18 32  1  0  0  0  0
 19 20  1  0  0  0  0
 19 33  1  0  0  0  0
 20 21  2  0  0  0  0
 20 34  1  0  0  0  0
 21 35  1  0  0  0  0
M  END
> <s_m_source_file>
AV-unprocessed.smi

> <i_m_source_file_index>
2556

> <i_lp_mmshare_version>
43012

> <i_f3d_flags>
0

> <s_epik_input>
Tz1jMVtuSF1jKD1PKW4oW0NIM10pYyhjMTIpbltjSF1uMltDSDJdW0NASF0oW09IXSljM1tjSF1bY0hdW2NIXVtjSF1bY0hdMw==

> <s_epik_cmdline>
J2VwaWtfcHl0aG9uJywgJy1waCcsICc3LjAnLCAnLXRuJywgJzgnLCAnLW1hJywgJzIwMCcsICctbWV0YWxfYmluZGluZycsICctaW1hZScsICc8aW5maWxlLm1hZT4nLCAnLW9tYWUnLCAnPG91dGZpbGUubWFlPic=

> <r_lp_tautomer_probability>
1

> <r_epik_Ionization_Penalty>
0.000177505

> <r_epik_Ionization_Penalty_Charging>
0.000176585

> <r_epik_Ionization_Penalty_Neutral>
9.19728e-07

> <r_epik_State_Penalty>
-0

> <r_epik_Charging_Adjusted_Penalty>
0.000176585

> <i_epik_Tot_Q>
0

> <i_epik_Tot_abs_Q>
0

> <r_epik_Metal_State_Penalty>
0.122509

> <b_epik_Metal_Only>
0

> <s_lp_Force_Field>
OPLS_2005

> <r_lp_Energy>
28.9299

> <b_lp_Chiralities_Consistent>
1

> <s_lp_Variant>
AV-unprocessed.smi:2556-1

> <Gold.Version>
5.8.1

> <Gold.Id.Protein>
6NUR|6NUR_protein|mol2

> <Gold.PLP.Fitness>
46.8630

> <Gold.PLP.PLP>
-45.6347

> <Gold.PLP.part.hbond>
-2.0000

> <Gold.PLP.part.metal>
0.0000

> <Gold.PLP.part.buried>
-4.3587

> <Gold.PLP.part.nonpolar>
-39.0842

> <Gold.PLP.part.repulsive>
0.0940

> <Gold.PLP.ligand.clash>
0.0000

> <Gold.PLP.ligand.torsion>
0.5874

> <Gold.PLP.Chemscore.Hbond>
0.7930

> <Gold.PLP.Chemscore.CHOScore>
0.0000

> <Gold.PLP.Chemscore.Metal>
0.0000

> <Gold.Chemscore.Hbonds>
donor molecule, donor type, donor heavy atom, donor atom, acceptor molecule, acceptor atom, score
      P1  H  7997  8008       L1    15  0.54

> <Gold.PLP.Chemscore.Internal.Correction>
0.0241

> <Gold.Rescore>
     Score         DG    S(hbond)    S(metal)    S(lipo)     H(rot)  DE(clash)    DE(int)     intcor
     11.10     -13.58       0.54        0.00     104.28       2.31       1.69       0.78       ----

> <Gold.Chemscore.Fitness>
11.1035

> <Gold.Chemscore.DG>
-13.5790

> <Gold.Chemscore.ZeroCoef>
-5.4800

> <Gold.Chemscore.Hbond>
0.5436

> <Gold.Chemscore.Metal>
0.0000

> <Gold.Chemscore.Lipo>
104.2792

> <Gold.Chemscore.Internal_Hbond>
0.0000

> <Gold.Chemscore.DEClash>
1.6916

> <Gold.Chemscore.DEInternal>
0.7838

> <Gold.Chemscore.Rot>
2.3115

> <Gold.Chemscore.Internal.Correction>
   9.000000E+99

> <Gold.Chemscore.Hbonds>
donor molecule, donor type, donor heavy atom, donor atom, acceptor molecule, acceptor atom, score
      P1  H  7997  8008       L1    15  0.51

> <Gold.Chemscore.Hbond.Weighted>
-1.8157

> <Gold.Chemscore.Metal.Weighted>
-0.0000

> <Gold.Chemscore.Lipo.Weighted>
-12.2007

> <Gold.Chemscore.Internal_Hbond.Weighted>
0.0000

> <Gold.Chemscore.DEClash.Weighted>
1.6916

> <Gold.Chemscore.DEInternal.Weighted>
0.7838

> <Gold.Chemscore.Rot.Weighted>
5.9174

> <Gold.Chemscore.Internal.Correction.Weighted>
   9.000000E+99

> <Gold.Protein.RotatedTorsions>
[ 6907 6896 6895 6894 ] final  143.80 input  -60.11 | X-H torsion
[ 7974 7965 7964 7962 ] final   34.72 input  175.53 | X-H torsion
[ 8008 7997 7996 7995 ] final  -83.88 input   59.86 | X-H torsion
[ 10167 10162 10161 10158 ] final  160.82 input  -65.29 | X-H torsion
[ 10718 10713 10712 10709 ] final   70.65 input   66.30 | X-H torsion
[ 10763 10752 10751 10750 ] final  -35.65 input  -60.55 | X-H torsion
[ 11005 11000 10999 10996 ] final  -44.80 input  -57.11 | X-H torsion

> <Gold.Protein.ActiveResidues>
 VAL166  LYS551  ARG553  GLY616  TRP617  ASP618  TYR619  PRO620  LYS621  CYS622 
 ASP623  PHE694  ASN695  SER759  ASP760  ASP761  ALA762  ILE779  LEU786  VAL792 
 PHE793  MET794  SER795  GLU796  ALA797  LYS798  CYS799  TRP800  GLU811  SER814 

> <Gold.Protein.RotatedAtoms>
  152.2018  133.4846  159.5062 H   0  0  0  0  0  0  0  0  0  0  0  0  # atno 6907 bound_to 6896
  150.6971  134.1581  159.4175 H   0  0  0  0  0  0  0  0  0  0  0  0  # atno 6908 bound_to 6896
  151.9498  135.0174  160.0592 H   0  0  0  0  0  0  0  0  0  0  0  0  # atno 6909 bound_to 6896
  146.1333  139.6234  142.9212 H   0  0  0  0  0  0  0  0  0  0  0  0  # atno 7974 bound_to 7965
  154.6238  140.0612  156.9648 H   0  0  0  0  0  0  0  0  0  0  0  0  # atno 8008 bound_to 7997
  155.1774  140.3296  155.4363 H   0  0  0  0  0  0  0  0  0  0  0  0  # atno 8009 bound_to 7997
  156.2446  140.1903  156.6873 H   0  0  0  0  0  0  0  0  0  0  0  0  # atno 8010 bound_to 7997
  139.4843  144.4596  151.8722 H   0  0  0  0  0  0  0  0  0  0  0  0  # atno 10167 bound_to 10162
  157.6411  130.9488  150.0680 H   0  0  0  0  0  0  0  0  0  0  0  0  # atno 10718 bound_to 10713
  153.8668  135.6835  153.4778 H   0  0  0  0  0  0  0  0  0  0  0  0  # atno 10763 bound_to 10752
  153.1310  135.4698  154.9346 H   0  0  0  0  0  0  0  0  0  0  0  0  # atno 10764 bound_to 10752
  154.7733  135.3245  154.8095 H   0  0  0  0  0  0  0  0  0  0  0  0  # atno 10765 bound_to 10752
  141.0474  133.6756  156.2923 H   0  0  0  0  0  0  0  0  0  0  0  0  # atno 11005 bound_to 11000
  145.5211  141.0432  143.2435 LP  0  0  0  0  0  0  0  0  0  0  0  0  # atno 17320 bound_to 7965
  144.7713  139.6727  143.7193 LP  0  0  0  0  0  0  0  0  0  0  0  0  # atno 17321 bound_to 7965
  140.4058  144.2434  150.5891 LP  0  0  0  0  0  0  0  0  0  0  0  0  # atno 17342 bound_to 10162
  140.5014  143.2317  151.8673 LP  0  0  0  0  0  0  0  0  0  0  0  0  # atno 17343 bound_to 10162
  156.1692  130.3646  149.9188 LP  0  0  0  0  0  0  0  0  0  0  0  0  # atno 17370 bound_to 10713
  156.7168  130.8991  151.3614 LP  0  0  0  0  0  0  0  0  0  0  0  0  # atno 17371 bound_to 10713
  140.6121  134.5448  157.5535 LP  0  0  0  0  0  0  0  0  0  0  0  0  # atno 17394 bound_to 11000
  139.9322  134.7941  156.0898 LP  0  0  0  0  0  0  0  0  0  0  0  0  # atno 17395 bound_to 11000

$$$$
