AV-unprocessed.smi:1376|AV-procd|sdf|5592|dock4
  -GOLD-   22720 5193D 1   1.00000     0.00000
 Structure written by MMmdl.
 42 43  0  0  0  0  0  0  0  0  1 V2000
  151.5105  140.9386  157.5595 O   0  0  0  0  0  0  0  0  0  0  0  0
  151.1351  142.0978  157.3779 C   0  0  0  0  0  0  0  0  0  0  0  0
  151.9674  143.2855  157.8826 C   0  0  0  0  0  0  0  0  0  0  0  0
  152.2173  143.2487  159.3331 N   0  0  0  0  0  0  0  0  0  0  0  0
  152.7540  142.0571  159.8601 C   0  0  0  0  0  0  0  0  0  0  0  0
  153.0144  141.9138  161.1690 C   0  0  0  0  0  0  0  0  0  0  0  0
  152.7304  143.0240  162.0470 C   0  0  0  0  0  0  0  0  0  0  0  0
  152.2126  144.1667  161.5540 C   0  0  0  0  0  0  0  0  0  0  0  0
  151.9226  144.3262  160.1241 C   0  0  0  0  0  0  0  0  0  0  0  0
  151.4439  145.3642  159.6662 O   0  0  0  0  0  0  0  0  0  0  0  0
  150.0064  142.4092  156.7228 N   0  0  0  0  0  0  0  0  0  0  0  0
  149.0714  141.4449  156.1510 C   0  0  2  0  0  0  0  0  0  0  0  0
  149.2259  141.3824  154.6183 C   0  0  0  0  0  0  0  0  0  0  0  0
  148.2005  140.4245  153.9925 C   0  0  0  0  0  0  0  0  0  0  0  0
  146.7668  140.8051  154.3925 C   0  0  0  0  0  0  0  0  0  0  0  0
  146.6043  140.8527  155.9213 C   0  0  2  0  0  0  0  0  0  0  0  0
  145.2724  141.2697  156.1920 O   0  0  0  0  0  0  0  0  0  0  0  0
  144.2663  140.3751  155.7361 C   0  0  0  0  0  0  0  0  0  0  0  0
  142.8862  140.9955  155.9855 C   0  0  0  0  0  0  0  0  0  0  0  0
  142.6998  141.1403  157.2969 F   0  0  0  0  0  0  0  0  0  0  0  0
  142.8077  142.1938  155.4073 F   0  0  0  0  0  0  0  0  0  0  0  0
  141.9306  140.2018  155.5027 F   0  0  0  0  0  0  0  0  0  0  0  0
  147.6306  141.8233  156.5425 C   0  0  0  0  0  0  0  0  0  0  0  0
  152.9108  143.2960  157.3350 H   0  0  0  0  0  0  0  0  0  0  0  0
  151.4693  144.2176  157.6090 H   0  0  0  0  0  0  0  0  0  0  0  0
  152.9297  141.2727  159.1382 H   0  0  0  0  0  0  0  0  0  0  0  0
  153.4204  140.9905  161.5556 H   0  0  0  0  0  0  0  0  0  0  0  0
  152.9324  142.9374  163.1043 H   0  0  0  0  0  0  0  0  0  0  0  0
  152.0053  144.9866  162.2262 H   0  0  0  0  0  0  0  0  0  0  0  0
  149.7774  143.3864  156.6122 H   0  0  0  0  0  0  0  0  0  0  0  0
  149.2815  140.4572  156.5661 H   0  0  0  0  0  0  0  0  0  0  0  0
  149.0973  142.3787  154.1926 H   0  0  0  0  0  0  0  0  0  0  0  0
  150.2340  141.0614  154.3529 H   0  0  0  0  0  0  0  0  0  0  0  0
  148.2982  140.4336  152.9069 H   0  0  0  0  0  0  0  0  0  0  0  0
  148.4108  139.4035  154.3135 H   0  0  0  0  0  0  0  0  0  0  0  0
  146.5158  141.7770  153.9654 H   0  0  0  0  0  0  0  0  0  0  0  0
  146.0628  140.0897  153.9659 H   0  0  0  0  0  0  0  0  0  0  0  0
  146.7642  139.8461  156.3126 H   0  0  0  0  0  0  0  0  0  0  0  0
  144.3929  140.1791  154.6701 H   0  0  0  0  0  0  0  0  0  0  0  0
  144.3361  139.4187  156.2544 H   0  0  0  0  0  0  0  0  0  0  0  0
  147.5444  141.8251  157.6289 H   0  0  0  0  0  0  0  0  0  0  0  0
  147.4126  142.8404  156.2128 H   0  0  0  0  0  0  0  0  0  0  0  0
  1  2  2  0  0  0  0
  2  3  1  0  0  0  0
  2 11  1  0  0  0  0
  3  4  1  0  0  0  0
  3 24  1  0  0  0  0
  3 25  1  0  0  0  0
  4  9  1  0  0  0  0
  4  5  1  0  0  0  0
  5  6  2  0  0  0  0
  5 26  1  0  0  0  0
  6  7  1  0  0  0  0
  6 27  1  0  0  0  0
  7  8  2  0  0  0  0
  7 28  1  0  0  0  0
  8  9  1  0  0  0  0
  8 29  1  0  0  0  0
  9 10  2  0  0  0  0
 11 12  1  0  0  0  0
 11 30  1  0  0  0  0
 12 23  1  0  0  0  0
 12 13  1  0  0  0  0
 12 31  1  0  0  0  0
 13 14  1  0  0  0  0
 13 32  1  0  0  0  0
 13 33  1  0  0  0  0
 14 15  1  0  0  0  0
 14 34  1  0  0  0  0
 14 35  1  0  0  0  0
 15 16  1  0  0  0  0
 15 36  1  0  0  0  0
 15 37  1  0  0  0  0
 16 17  1  0  0  0  0
 16 23  1  0  0  0  0
 16 38  1  0  0  0  0
 17 18  1  0  0  0  0
 18 19  1  0  0  0  0
 18 39  1  0  0  0  0
 18 40  1  0  0  0  0
 19 20  1  0  0  0  0
 19 21  1  0  0  0  0
 19 22  1  0  0  0  0
 23 41  1  0  0  0  0
 23 42  1  0  0  0  0
M  END
> <s_m_source_file>
AV-unprocessed.smi

> <i_m_source_file_index>
1376

> <i_lp_mmshare_version>
43012

> <i_f3d_flags>
0

> <s_epik_input>
Tz1jMVtjSF1bY0hdW2NIXVtjSF1uMVtDSDJdQyg9TylbTkhdW0NAQEhdMltDSDJdW0NIMl1bQ0gyXVtDQEhdKFtDSDJdMilPW0NIMl1DKEYpKEYpRg==

> <s_epik_cmdline>
J2VwaWtfcHl0aG9uJywgJy1waCcsICc3LjAnLCAnLXRuJywgJzgnLCAnLW1hJywgJzIwMCcsICctbWV0YWxfYmluZGluZycsICctaW1hZScsICc8aW5maWxlLm1hZT4nLCAnLW9tYWUnLCAnPG91dGZpbGUubWFlPic=

> <r_lp_tautomer_probability>
1

> <r_epik_Ionization_Penalty>
4.08567e-07

> <r_epik_Ionization_Penalty_Charging>
3.90028e-07

> <r_epik_Ionization_Penalty_Neutral>
1.85393e-08

> <r_epik_State_Penalty>
-0

> <r_epik_Charging_Adjusted_Penalty>
3.90028e-07

> <i_epik_Tot_Q>
0

> <i_epik_Tot_abs_Q>
0

> <r_epik_Metal_State_Penalty>
-0

> <b_epik_Metal_Only>
0

> <s_lp_Force_Field>
OPLS_2005

> <r_lp_Energy>
18.479

> <b_lp_Chiralities_Consistent>
1

> <s_lp_Variant>
AV-unprocessed.smi:1376-3

> <Gold.Version>
5.8.1

> <Gold.Id.Protein>
6NUR|6NUR_protein|mol2

> <Gold.PLP.Fitness>
45.2435

> <Gold.PLP.PLP>
-42.8061

> <Gold.PLP.part.hbond>
-1.0000

> <Gold.PLP.part.metal>
0.0000

> <Gold.PLP.part.buried>
-6.6253

> <Gold.PLP.part.nonpolar>
-35.9725

> <Gold.PLP.part.repulsive>
0.2353

> <Gold.PLP.ligand.clash>
0.0000

> <Gold.PLP.ligand.torsion>
0.2691

> <Gold.PLP.Chemscore.Hbond>
0.9760

> <Gold.PLP.Chemscore.CHOScore>
0.0000

> <Gold.PLP.Chemscore.Metal>
0.0000

> <Gold.Chemscore.Hbonds>
donor molecule, donor type, donor heavy atom, donor atom, acceptor molecule, acceptor atom, score
      L1  H    11    30       P1  8028  0.99

> <Gold.PLP.Chemscore.Internal.Correction>
0.0476

> <Gold.Rescore>
     Score         DG    S(hbond)    S(metal)    S(lipo)     H(rot)  DE(clash)    DE(int)     intcor
     12.24     -13.66       0.99        0.00      89.39       2.18       0.18       1.24       ----

> <Gold.Chemscore.Fitness>
12.2422

> <Gold.Chemscore.DG>
-13.6598

> <Gold.Chemscore.ZeroCoef>
-5.4800

> <Gold.Chemscore.Hbond>
0.9884

> <Gold.Chemscore.Metal>
0.0000

> <Gold.Chemscore.Lipo>
89.3897

> <Gold.Chemscore.Internal_Hbond>
0.0000

> <Gold.Chemscore.DEClash>
0.1773

> <Gold.Chemscore.DEInternal>
1.2404

> <Gold.Chemscore.Rot>
2.1797

> <Gold.Chemscore.Internal.Correction>
   9.000000E+99

> <Gold.Chemscore.Hbonds>
donor molecule, donor type, donor heavy atom, donor atom, acceptor molecule, acceptor atom, score
      L1  H    11    30       P1  8028  0.94

> <Gold.Chemscore.Hbond.Weighted>
-3.3014

> <Gold.Chemscore.Metal.Weighted>
-0.0000

> <Gold.Chemscore.Lipo.Weighted>
-10.4586

> <Gold.Chemscore.Internal_Hbond.Weighted>
0.0000

> <Gold.Chemscore.DEClash.Weighted>
0.1773

> <Gold.Chemscore.DEInternal.Weighted>
1.2404

> <Gold.Chemscore.Rot.Weighted>
5.5802

> <Gold.Chemscore.Internal.Correction.Weighted>
   9.000000E+99

> <Gold.Protein.RotatedTorsions>
[ 6907 6896 6895 6894 ] final   95.83 input  -60.11 | X-H torsion
[ 7974 7965 7964 7962 ] final  110.83 input  175.53 | X-H torsion
[ 8008 7997 7996 7995 ] final  123.45 input   59.86 | X-H torsion
[ 10167 10162 10161 10158 ] final -159.47 input  -65.29 | X-H torsion
[ 10718 10713 10712 10709 ] final  -18.13 input   66.30 | X-H torsion
[ 10763 10752 10751 10750 ] final -101.45 input  -60.55 | X-H torsion
[ 11005 11000 10999 10996 ] final  -99.22 input  -57.11 | X-H torsion

> <Gold.Protein.ActiveResidues>
 VAL166  LYS551  ARG553  GLY616  TRP617  ASP618  TYR619  PRO620  LYS621  CYS622 
 ASP623  PHE694  ASN695  SER759  ASP760  ASP761  ALA762  ILE779  LEU786  VAL792 
 PHE793  MET794  SER795  GLU796  ALA797  LYS798  CYS799  TRP800  GLU811  SER814 

> <Gold.Protein.RotatedAtoms>
  152.5440  134.0979  159.8304 H   0  0  0  0  0  0  0  0  0  0  0  0  # atno 6907 bound_to 6896
  151.1061  133.5200  159.2615 H   0  0  0  0  0  0  0  0  0  0  0  0  # atno 6908 bound_to 6896
  151.1937  135.0422  159.8897 H   0  0  0  0  0  0  0  0  0  0  0  0  # atno 6909 bound_to 6896
  145.2499  139.2744  143.4073 H   0  0  0  0  0  0  0  0  0  0  0  0  # atno 7974 bound_to 7965
  156.2766  140.2762  156.1629 H   0  0  0  0  0  0  0  0  0  0  0  0  # atno 8008 bound_to 7997
  155.0735  140.0387  157.2634 H   0  0  0  0  0  0  0  0  0  0  0  0  # atno 8009 bound_to 7997
  154.7021  140.2651  155.6715 H   0  0  0  0  0  0  0  0  0  0  0  0  # atno 8010 bound_to 7997
  139.6612  143.9909  152.2227 H   0  0  0  0  0  0  0  0  0  0  0  0  # atno 10167 bound_to 10162
  156.5638  130.4732  149.6394 H   0  0  0  0  0  0  0  0  0  0  0  0  # atno 10718 bound_to 10713
  154.7658  135.4897  153.9552 H   0  0  0  0  0  0  0  0  0  0  0  0  # atno 10763 bound_to 10752
  153.1306  135.6752  153.9192 H   0  0  0  0  0  0  0  0  0  0  0  0  # atno 10764 bound_to 10752
  153.8896  135.3122  155.3426 H   0  0  0  0  0  0  0  0  0  0  0  0  # atno 10765 bound_to 10752
  141.1317  133.8305  157.0943 H   0  0  0  0  0  0  0  0  0  0  0  0  # atno 11005 bound_to 11000
  146.3305  140.2887  142.8614 LP  0  0  0  0  0  0  0  0  0  0  0  0  # atno 17320 bound_to 7965
  144.9512  140.8180  143.5571 LP  0  0  0  0  0  0  0  0  0  0  0  0  # atno 17321 bound_to 7965
  139.9648  144.6533  150.8045 LP  0  0  0  0  0  0  0  0  0  0  0  0  # atno 17342 bound_to 10162
  140.7581  143.3100  151.2869 LP  0  0  0  0  0  0  0  0  0  0  0  0  # atno 17343 bound_to 10162
  156.2775  130.7052  151.1867 LP  0  0  0  0  0  0  0  0  0  0  0  0  # atno 17370 bound_to 10713
  157.7363  131.0564  150.5423 LP  0  0  0  0  0  0  0  0  0  0  0  0  # atno 17371 bound_to 10713
  140.0373  134.9872  157.0895 LP  0  0  0  0  0  0  0  0  0  0  0  0  # atno 17394 bound_to 11000
  140.4190  134.1900  155.7164 LP  0  0  0  0  0  0  0  0  0  0  0  0  # atno 17395 bound_to 11000

$$$$
