AV-unprocessed.smi:2145|AV-procd|sdf|8737|dock3
  -GOLD-   2272011503D 1   1.00000     0.00000
 Structure written by MMmdl.
 45 47  0  0  0  0  0  0  0  0  2 V2000
  145.8383  131.8272  160.7361 C   0  0  0  0  0  0  0  0  0  0  0  0
  146.1313  133.0697  161.5754 C   0  0  0  0  0  0  0  0  0  0  0  0
  145.5579  133.2015  162.6563 O   0  0  0  0  0  0  0  0  0  0  0  0
  147.1041  134.0612  161.0343 C   0  0  0  0  0  0  0  0  0  0  0  0
  147.5759  135.0982  161.8695 C   0  0  0  0  0  0  0  0  0  0  0  0
  148.4952  136.0468  161.3835 C   0  0  0  0  0  0  0  0  0  0  0  0
  148.9664  135.9838  160.0576 C   0  0  0  0  0  0  0  0  0  0  0  0
  149.8662  136.9516  159.6666 O   0  0  0  0  0  0  0  0  0  0  0  0
  150.1813  137.0624  158.2850 C   0  0  0  0  0  0  0  0  0  0  0  0
  150.0036  138.5278  157.8596 C   0  0  1  0  0  0  0  0  0  0  0  0
  148.8776  139.0543  158.5333 O   0  0  0  0  0  0  0  0  0  0  0  0
  151.2415  139.3824  158.1980 C   0  0  0  0  0  0  0  0  0  0  0  0
  151.0202  140.8204  157.9743 N   0  0  0  0  0  0  0  0  0  0  0  0
  150.3069  141.4518  156.9987 C   0  0  0  0  0  0  0  0  0  0  0  0
  149.5563  140.8042  155.8841 C   0  0  0  0  0  0  0  0  0  0  0  0
  150.4057  142.7916  157.2272 N   0  3  0  0  0  0  0  0  0  0  0  0
  151.1877  143.0208  158.3600 C   0  0  0  0  0  0  0  0  0  0  0  0
  151.5651  144.2078  158.9804 C   0  0  0  0  0  0  0  0  0  0  0  0
  152.3719  144.0917  160.1312 C   0  0  0  0  0  0  0  0  0  0  0  0
  152.7716  142.8323  160.6232 C   0  0  0  0  0  0  0  0  0  0  0  0
  152.3833  141.6357  159.9853 C   0  0  0  0  0  0  0  0  0  0  0  0
  151.5865  141.7584  158.8468 C   0  0  0  0  0  0  0  0  0  0  0  0
  148.4935  134.9462  159.2170 C   0  0  0  0  0  0  0  0  0  0  0  0
  147.5725  133.9966  159.7013 C   0  0  0  0  0  0  0  0  0  0  0  0
  145.4188  132.1083  159.7700 H   0  0  0  0  0  0  0  0  0  0  0  0
  145.1201  131.1841  161.2452 H   0  0  0  0  0  0  0  0  0  0  0  0
  146.7508  131.2540  160.5709 H   0  0  0  0  0  0  0  0  0  0  0  0
  147.2385  135.1779  162.8930 H   0  0  0  0  0  0  0  0  0  0  0  0
  148.8441  136.8321  162.0381 H   0  0  0  0  0  0  0  0  0  0  0  0
  151.1942  136.7157  158.0710 H   0  0  0  0  0  0  0  0  0  0  0  0
  149.4870  136.4360  157.7223 H   0  0  0  0  0  0  0  0  0  0  0  0
  149.8247  138.5740  156.7846 H   0  0  0  0  0  0  0  0  0  0  0  0
  148.1138  138.5679  158.2616 H   0  0  0  0  0  0  0  0  0  0  0  0
  151.5687  139.2198  159.2252 H   0  0  0  0  0  0  0  0  0  0  0  0
  152.0795  139.0875  157.5655 H   0  0  0  0  0  0  0  0  0  0  0  0
  149.0392  141.5526  155.2833 H   0  0  0  0  0  0  0  0  0  0  0  0
  148.8173  140.1081  156.2812 H   0  0  0  0  0  0  0  0  0  0  0  0
  150.2423  140.2549  155.2391 H   0  0  0  0  0  0  0  0  0  0  0  0
  151.2578  145.1735  158.6066 H   0  0  0  0  0  0  0  0  0  0  0  0
  152.6887  144.9861  160.6479 H   0  0  0  0  0  0  0  0  0  0  0  0
  153.3875  142.7823  161.5094 H   0  0  0  0  0  0  0  0  0  0  0  0
  152.6898  140.6769  160.3760 H   0  0  0  0  0  0  0  0  0  0  0  0
  148.8210  134.8565  158.1925 H   0  0  0  0  0  0  0  0  0  0  0  0
  147.2375  133.2230  159.0266 H   0  0  0  0  0  0  0  0  0  0  0  0
  149.9673  143.4966  156.6486 H   0  0  0  0  0  0  0  0  0  0  0  0
  1  2  1  0  0  0  0
  1 25  1  0  0  0  0
  1 26  1  0  0  0  0
  1 27  1  0  0  0  0
  2  3  2  0  0  0  0
  2  4  1  0  0  0  0
  4 24  1  0  0  0  0
  4  5  2  0  0  0  0
  5  6  1  0  0  0  0
  5 28  1  0  0  0  0
  6  7  2  0  0  0  0
  6 29  1  0  0  0  0
  7  8  1  0  0  0  0
  7 23  1  0  0  0  0
  8  9  1  0  0  0  0
  9 10  1  0  0  0  0
  9 30  1  0  0  0  0
  9 31  1  0  0  0  0
 10 11  1  0  0  0  0
 10 12  1  0  0  0  0
 10 32  1  0  0  0  0
 11 33  1  0  0  0  0
 12 13  1  0  0  0  0
 12 34  1  0  0  0  0
 12 35  1  0  0  0  0
 13 22  1  0  0  0  0
 13 14  1  0  0  0  0
 14 15  1  0  0  0  0
 14 16  2  0  0  0  0
 15 36  1  0  0  0  0
 15 37  1  0  0  0  0
 15 38  1  0  0  0  0
 16 17  1  0  0  0  0
 16 45  1  0  0  0  0
 17 22  2  0  0  0  0
 17 18  1  0  0  0  0
 18 19  2  0  0  0  0
 18 39  1  0  0  0  0
 19 20  1  0  0  0  0
 19 40  1  0  0  0  0
 20 21  2  0  0  0  0
 20 41  1  0  0  0  0
 21 22  1  0  0  0  0
 21 42  1  0  0  0  0
 23 24  2  0  0  0  0
 23 43  1  0  0  0  0
 24 44  1  0  0  0  0
M  CHG  1  16   1
M  END
> <s_m_source_file>
AV-unprocessed.smi

> <i_m_source_file_index>
2145

> <i_lp_mmshare_version>
43012

> <i_f3d_flags>
0

> <s_epik_input>
W0NIM11DKD1PKWMxW2NIXVtjSF1jKFtjSF1bY0hdMSlPW0NIMl1bQ0BIXShbT0hdKVtDSDJdbihjKG4yKVtDSDNdKWMoYzIzKVtjSF1bY0hdW2NIXVtjSF0z

> <s_epik_cmdline>
J2VwaWtfcHl0aG9uJywgJy1waCcsICc3LjAnLCAnLXRuJywgJzgnLCAnLW1hJywgJzIwMCcsICctbWV0YWxfYmluZGluZycsICctaW1hZScsICc8aW5maWxlLm1hZT4nLCAnLW9tYWUnLCAnPG91dGZpbGUubWFlPic=

> <r_lp_tautomer_probability>
0.99995

> <r_epik_Ionization_Penalty>
1.05477

> <r_epik_Ionization_Penalty_Charging>
1.05477

> <r_epik_Ionization_Penalty_Neutral>
2.3993e-06

> <r_epik_State_Penalty>
1.10796

> <r_epik_Charging_Adjusted_Penalty>
2.16273

> <i_epik_Tot_Q>
1

> <i_epik_Tot_abs_Q>
1

> <r_epik_Metal_State_Penalty>
5.10164

> <b_epik_Metal_Only>
0

> <s_lp_Force_Field>
OPLS_2005

> <r_lp_Energy>
25.5273

> <b_lp_Chiralities_Consistent>
1

> <s_lp_Variant>
AV-unprocessed.smi:2145-4

> <Gold.Version>
5.8.1

> <Gold.Id.Protein>
6NUR|6NUR_protein|mol2

> <Gold.PLP.Fitness>
53.4972

> <Gold.PLP.PLP>
-49.4830

> <Gold.PLP.part.hbond>
-4.0000

> <Gold.PLP.part.metal>
0.0000

> <Gold.PLP.part.buried>
-4.6102

> <Gold.PLP.part.nonpolar>
-42.1786

> <Gold.PLP.part.repulsive>
0.1104

> <Gold.PLP.ligand.clash>
0.0000

> <Gold.PLP.ligand.torsion>
1.1137

> <Gold.PLP.Chemscore.Hbond>
2.0000

> <Gold.PLP.Chemscore.CHOScore>
0.0000

> <Gold.PLP.Chemscore.Metal>
0.0000

> <Gold.Chemscore.Hbonds>
donor molecule, donor type, donor heavy atom, donor atom, acceptor molecule, acceptor atom, score
      L1  H    16    45       P1  8028  2.00

> <Gold.PLP.Chemscore.Internal.Correction>
0.2416

> <Gold.Rescore>
     Score         DG    S(hbond)    S(metal)    S(lipo)     H(rot)  DE(clash)    DE(int)     intcor
     15.63     -17.05       0.99        0.00     121.02       2.30       0.37       1.05       ----

> <Gold.Chemscore.Fitness>
15.6260

> <Gold.Chemscore.DG>
-17.0487

> <Gold.Chemscore.ZeroCoef>
-5.4800

> <Gold.Chemscore.Hbond>
0.9860

> <Gold.Chemscore.Metal>
0.0000

> <Gold.Chemscore.Lipo>
121.0194

> <Gold.Chemscore.Internal_Hbond>
0.0000

> <Gold.Chemscore.DEClash>
0.3708

> <Gold.Chemscore.DEInternal>
1.0519

> <Gold.Chemscore.Rot>
2.2984

> <Gold.Chemscore.Internal.Correction>
   9.000000E+99

> <Gold.Chemscore.Hbonds>
donor molecule, donor type, donor heavy atom, donor atom, acceptor molecule, acceptor atom, score
      L1  H    16    45       P1  8028  1.00

> <Gold.Chemscore.Hbond.Weighted>
-3.2933

> <Gold.Chemscore.Metal.Weighted>
-0.0000

> <Gold.Chemscore.Lipo.Weighted>
-14.1593

> <Gold.Chemscore.Internal_Hbond.Weighted>
0.0000

> <Gold.Chemscore.DEClash.Weighted>
0.3708

> <Gold.Chemscore.DEInternal.Weighted>
1.0519

> <Gold.Chemscore.Rot.Weighted>
5.8839

> <Gold.Chemscore.Internal.Correction.Weighted>
   9.000000E+99

> <Gold.Protein.RotatedTorsions>
[ 6907 6896 6895 6894 ] final -123.45 input  -60.11 | X-H torsion
[ 7974 7965 7964 7962 ] final  -35.73 input  175.53 | X-H torsion
[ 8008 7997 7996 7995 ] final  156.61 input   59.86 | X-H torsion
[ 10167 10162 10161 10158 ] final  151.16 input  -65.29 | X-H torsion
[ 10718 10713 10712 10709 ] final   50.57 input   66.30 | X-H torsion
[ 10763 10752 10751 10750 ] final  -71.32 input  -60.55 | X-H torsion
[ 11005 11000 10999 10996 ] final   18.94 input  -57.11 | X-H torsion

> <Gold.Protein.ActiveResidues>
 VAL166  LYS551  ARG553  GLY616  TRP617  ASP618  TYR619  PRO620  LYS621  CYS622 
 ASP623  PHE694  ASN695  SER759  ASP760  ASP761  ALA762  ILE779  LEU786  VAL792 
 PHE793  MET794  SER795  GLU796  ALA797  LYS798  CYS799  TRP800  GLU811  SER814 

> <Gold.Protein.RotatedAtoms>
  150.8672  133.7557  159.2972 H   0  0  0  0  0  0  0  0  0  0  0  0  # atno 6907 bound_to 6896
  151.5181  135.1065  159.9881 H   0  0  0  0  0  0  0  0  0  0  0  0  # atno 6908 bound_to 6896
  152.4669  133.7899  159.6952 H   0  0  0  0  0  0  0  0  0  0  0  0  # atno 6909 bound_to 6896
  146.0721  140.6194  142.8947 H   0  0  0  0  0  0  0  0  0  0  0  0  # atno 7974 bound_to 7965
  156.2412  140.1907  156.6982 H   0  0  0  0  0  0  0  0  0  0  0  0  # atno 8008 bound_to 7997
  154.6201  140.0610  156.9631 H   0  0  0  0  0  0  0  0  0  0  0  0  # atno 8009 bound_to 7997
  155.1876  140.3281  155.4367 H   0  0  0  0  0  0  0  0  0  0  0  0  # atno 8010 bound_to 7997
  139.4843  144.5463  151.7478 H   0  0  0  0  0  0  0  0  0  0  0  0  # atno 10167 bound_to 10162
  157.4897  130.8368  149.8189 H   0  0  0  0  0  0  0  0  0  0  0  0  # atno 10718 bound_to 10713
  154.4301  135.5966  153.6063 H   0  0  0  0  0  0  0  0  0  0  0  0  # atno 10763 bound_to 10752
  152.9798  135.5973  154.3849 H   0  0  0  0  0  0  0  0  0  0  0  0  # atno 10764 bound_to 10752
  154.3686  135.2841  155.2258 H   0  0  0  0  0  0  0  0  0  0  0  0  # atno 10765 bound_to 10752
  140.4192  134.1536  155.7672 H   0  0  0  0  0  0  0  0  0  0  0  0  # atno 11005 bound_to 11000
  144.7238  140.4461  143.6988 LP  0  0  0  0  0  0  0  0  0  0  0  0  # atno 17320 bound_to 7965
  145.6372  139.1544  143.2936 LP  0  0  0  0  0  0  0  0  0  0  0  0  # atno 17321 bound_to 7965
  140.5010  144.1168  150.5971 LP  0  0  0  0  0  0  0  0  0  0  0  0  # atno 17342 bound_to 10162
  140.4062  143.2679  151.9888 LP  0  0  0  0  0  0  0  0  0  0  0  0  # atno 17343 bound_to 10162
  156.0167  130.3811  150.2090 LP  0  0  0  0  0  0  0  0  0  0  0  0  # atno 17370 bound_to 10713
  157.0278  130.9998  151.3321 LP  0  0  0  0  0  0  0  0  0  0  0  0  # atno 17371 bound_to 10713
  141.1791  133.8453  157.1322 LP  0  0  0  0  0  0  0  0  0  0  0  0  # atno 17394 bound_to 11000
  140.0212  134.9945  157.0595 LP  0  0  0  0  0  0  0  0  0  0  0  0  # atno 17395 bound_to 11000

$$$$
