#       Name:                AV-unprocessed.smi:227
#       Creating user name   scv26
#       Creation time:       Thu Mar 26 20:22:06 2020


#       File generated by GOLD software.
#

@<TRIPOS>MOLECULE
AV-unprocessed.smi:227
    64    68     1
SMALL
NO_CHARGES


@<TRIPOS>ATOM
      1 ****        -2.0268  -2.8699  -1.5126 O.3            1 S1                 0.0000
      2 ****        -2.3979  -1.5288  -1.7580 C.3            1 S1                 0.0000
      3 ****        -1.6773  -0.9607  -3.0055 C.3            1 S1                 0.0000
      4 ****        -0.1398  -0.8911  -2.8290 C.3            1 S1                 0.0000
      5 ****         0.2643  -0.1871  -1.6243 N.pl3          1 S1                 0.0000
      6 ****         0.2279   1.1719  -1.4197 C.2            1 S1                 0.0000
      7 ****         0.6403   1.5661  -0.2467 N.2            1 S1                 0.0000
      8 ****         0.9886   0.3920   0.4130 C.ar           1 S1                 0.0000
      9 ****         1.4998   0.0833   1.7089 C.ar           1 S1                 0.0000
     10 ****         1.7731   1.0075   2.6719 N.3            1 S1                 0.0000
     11 ****         0.9336   2.1821   2.8459 C.3            1 S1                 0.0000
     12 ****        -0.3478   1.6321   3.5027 C.3            1 S1                 0.0000
     13 ****         0.2251   0.5105   4.3837 C.3            1 S1                 0.0000
     14 ****         1.7343   0.6285   4.0793 C.3            1 S1                 0.0000
     15 ****         2.2893   1.8798   4.7910 C.3            1 S1                 0.0000
     16 ****         3.8256   1.8756   4.8855 C.3            1 S1                 0.0000
     17 ****         4.2746   3.0059   5.6026 O.3            1 S1                 0.0000
     18 ****         1.7267   2.9937   3.8839 C.3            1 S1                 0.0000
     19 ****         1.7499  -1.2256   1.9799 N.ar           1 S1                 0.0000
     20 ****         1.4981  -2.1704   1.0705 C.ar           1 S1                 0.0000
     21 ****         1.0081  -2.0304  -0.1612 N.ar           1 S1                 0.0000
     22 ****         0.7694  -0.7202  -0.4513 C.ar           1 S1                 0.0000
     23 ****        -2.0708  -1.7123  -4.3022 C.3            1 S1                 0.0000
     24 ****        -1.5276  -1.1035  -5.5829 C.3            1 S1                 0.0000
     25 ****        -2.4254  -1.7332  -6.6415 C.3            1 S1                 0.0000
     26 ****        -3.6958  -1.8879  -6.0200 O.3            1 S1                 0.0000
     27 ****        -3.5722  -1.7181  -4.6110 C.3            1 S1                 0.0000
     28 ****        -2.4597  -3.1629  -0.7253 H              1 S1                 0.0000
     29 ****        -3.4799  -1.4847  -1.8807 H              1 S1                 0.0000
     30 ****        -2.1748  -0.9356  -0.8712 H              1 S1                 0.0000
     31 ****        -2.0258   0.0676  -3.1147 H              1 S1                 0.0000
     32 ****         0.2854  -1.8953  -2.8082 H              1 S1                 0.0000
     33 ****         0.3212  -0.3815  -3.6750 H              1 S1                 0.0000
     34 ****        -0.1205   1.8648  -2.1719 H              1 S1                 0.0000
     35 ****         0.7415   2.7657   1.9478 H              1 S1                 0.0000
     36 ****        -0.8851   2.3893   4.0747 H              1 S1                 0.0000
     37 ****        -1.0287   1.2246   2.7542 H              1 S1                 0.0000
     38 ****        -0.0064   0.6400   5.4413 H              1 S1                 0.0000
     39 ****        -0.1651  -0.4591   4.0715 H              1 S1                 0.0000
     40 ****         2.2914  -0.2751   4.3303 H              1 S1                 0.0000
     41 ****         1.8776   1.9519   5.7990 H              1 S1                 0.0000
     42 ****         4.1690   0.9807   5.4053 H              1 S1                 0.0000
     43 ****         4.2827   1.8679   3.8953 H              1 S1                 0.0000
     44 ****         4.0061   3.7830   5.1365 H              1 S1                 0.0000
     45 ****         2.5262   3.5531   3.3961 H              1 S1                 0.0000
     46 ****         1.1039   3.7058   4.4264 H              1 S1                 0.0000
     47 ****         1.7217  -3.1828   1.3732 H              1 S1                 0.0000
     48 ****        -1.7251  -2.7457  -4.2440 H              1 S1                 0.0000
     49 ****        -1.6575  -0.0202  -5.5777 H              1 S1                 0.0000
     50 ****        -0.4726  -1.3216  -5.7518 H              1 S1                 0.0000
     51 ****        -2.4931  -1.1293  -7.5466 H              1 S1                 0.0000
     52 ****        -2.0515  -2.7198  -6.9185 H              1 S1                 0.0000
     53 ****        -4.1032  -2.5055  -4.0755 H              1 S1                 0.0000
     54 ****        -4.0273  -0.7636  -4.3434 H              1 S1                 0.0000
     55 ****        -1.0356  -2.9290  -1.3941 LP             1 S1                 0.0000
     56 ****        -2.3050  -3.4430  -2.2834 LP             1 S1                 0.0000
     57 ****         0.6941   2.5023   0.1005 LP             1 S1                 0.0000
     58 ****         2.6686   1.1528   2.2511 LP             1 S1                 0.0000
     59 ****         5.2717   2.9844   5.6763 LP             1 S1                 0.0000
     60 ****         3.8727   3.0060   6.5182 LP             1 S1                 0.0000
     61 ****         2.1265  -1.4834   2.8697 LP             1 S1                 0.0000
     62 ****         0.8378  -2.7884  -0.7908 LP             1 S1                 0.0000
     63 ****        -4.0500  -2.8028  -6.2136 LP             1 S1                 0.0000
     64 ****        -4.3274  -1.2024  -6.3821 LP             1 S1                 0.0000
@<TRIPOS>BOND
    1    1    2 1     
    2    1   28 1     
    3    2    3 1     
    4    2   29 1     
    5    2   30 1     
    6    3    4 1     
    7    3   23 1     
    8    3   31 1     
    9    4    5 1     
   10    4   32 1     
   11    4   33 1     
   12    5   22 1     
   13    5    6 1     
   14    6    7 2     
   15    6   34 1     
   16    7    8 1     
   17    8   22 ar    
   18    8    9 ar    
   19    9   10 1     
   20    9   19 ar    
   21   10   14 1     
   22   10   11 1     
   23   11   18 1     
   24   11   12 1     
   25   11   35 1     
   26   12   13 1     
   27   12   36 1     
   28   12   37 1     
   29   13   14 1     
   30   13   38 1     
   31   13   39 1     
   32   14   15 1     
   33   14   40 1     
   34   15   16 1     
   35   15   18 1     
   36   15   41 1     
   37   16   17 1     
   38   16   42 1     
   39   16   43 1     
   40   17   44 1     
   41   18   45 1     
   42   18   46 1     
   43   19   20 ar    
   44   20   21 ar    
   45   20   47 1     
   46   21   22 ar    
   47   23   27 1     
   48   23   24 1     
   49   23   48 1     
   50   24   25 1     
   51   24   49 1     
   52   24   50 1     
   53   25   26 1     
   54   25   51 1     
   55   25   52 1     
   56   26   27 1     
   57   27   53 1     
   58   27   54 1     
   59    1   55 1     
   60    1   56 1     
   61    7   57 1     
   62   10   58 1     
   63   17   59 1     
   64   17   60 1     
   65   19   61 1     
   66   21   62 1     
   67   26   63 1     
   68   26   64 1     
@<TRIPOS>SUBSTRUCTURE
      1 S1             1
@<TRIPOS>SET
LONE_PAIRS      STATIC     ATOMS    <user>   **** ""
10 55 56 57 58 59 60 61 62 63 64
DONOR_HYDROGENS      STATIC     ATOMS    <user>   **** ""
2 28 44
ATOM$BLUE        STATIC     ATOMS    COLORGROUP SYSTEM
10 55 56 57 58 59 60 61 62 63 64
ATOM$RED        STATIC     ATOMS    COLORGROUP SYSTEM
2 28 44
