AV-unprocessed.smi:2095|AV-procd|sdf|8559|dock4
  -GOLD-   2272011283D 1   1.00000     0.00000
 Structure written by MMmdl.
 42 43  0  0  0  0  0  0  0  0  2 V2000
  151.1131  144.6741  159.7860 C   0  0  0  0  0  0  0  0  0  0  0  0
  151.9616  144.1033  158.6355 C   0  0  1  0  0  0  0  0  0  0  0  0
  153.3192  143.5616  159.1129 C   0  0  0  0  0  0  0  0  0  0  0  0
  153.1485  142.2279  159.8482 C   0  0  0  0  0  0  0  0  0  0  0  0
  152.3809  141.2234  158.9775 C   0  0  0  0  0  0  0  0  0  0  0  0
  151.0485  141.7527  158.5685 N   0  3  2  0  0  0  0  0  0  0  0  0
  150.2045  140.6952  157.9192 C   0  0  1  0  0  0  0  0  0  0  0  0
  150.2609  140.8689  156.3853 C   0  0  0  0  0  0  0  0  0  0  0  0
  150.5665  139.2400  158.3273 C   0  0  0  0  0  0  0  0  0  0  0  0
  149.3923  138.4392  158.6686 N   0  0  0  0  0  0  0  0  0  0  0  0
  149.4142  137.2307  159.2531 C   0  0  0  0  0  0  0  0  0  0  0  0
  150.4538  136.6470  159.5595 O   0  0  0  0  0  0  0  0  0  0  0  0
  148.0559  136.5774  159.5208 C   0  0  0  0  0  0  0  0  0  0  0  0
  147.8887  136.2555  160.9261 N   0  0  0  0  0  0  0  0  0  0  0  0
  147.7505  135.0822  161.5469 C   0  0  0  0  0  0  0  0  0  0  0  0
  147.6209  135.2334  162.8560 N   0  0  0  0  0  0  0  0  0  0  0  0
  147.6889  136.6067  163.0220 N   0  0  0  0  0  0  0  0  0  0  0  0
  147.8488  137.2184  161.8805 N   0  0  0  0  0  0  0  0  0  0  0  0
  151.1976  143.0370  157.8205 C   0  0  0  0  0  0  0  0  0  0  0  0
  150.8228  143.9038  160.5006 H   0  0  0  0  0  0  0  0  0  0  0  0
  150.1983  145.1316  159.4081 H   0  0  0  0  0  0  0  0  0  0  0  0
  151.6606  145.4432  160.3315 H   0  0  0  0  0  0  0  0  0  0  0  0
  152.1663  144.9393  157.9653 H   0  0  0  0  0  0  0  0  0  0  0  0
  153.9710  143.4128  158.2509 H   0  0  0  0  0  0  0  0  0  0  0  0
  153.8203  144.2880  159.7537 H   0  0  0  0  0  0  0  0  0  0  0  0
  154.1271  141.8219  160.1062 H   0  0  0  0  0  0  0  0  0  0  0  0
  152.6227  142.3802  160.7913 H   0  0  0  0  0  0  0  0  0  0  0  0
  152.9637  140.9842  158.0865 H   0  0  0  0  0  0  0  0  0  0  0  0
  152.2759  140.2937  159.5347 H   0  0  0  0  0  0  0  0  0  0  0  0
  149.1742  140.8567  158.2407 H   0  0  0  0  0  0  0  0  0  0  0  0
  149.5551  140.2113  155.8786 H   0  0  0  0  0  0  0  0  0  0  0  0
  151.2567  140.6433  156.0021 H   0  0  0  0  0  0  0  0  0  0  0  0
  150.0120  141.8807  156.0691 H   0  0  0  0  0  0  0  0  0  0  0  0
  151.1485  138.7550  157.5416 H   0  0  0  0  0  0  0  0  0  0  0  0
  151.1888  139.2388  159.2223 H   0  0  0  0  0  0  0  0  0  0  0  0
  148.4910  138.8392  158.4501 H   0  0  0  0  0  0  0  0  0  0  0  0
  147.2415  137.2375  159.2182 H   0  0  0  0  0  0  0  0  0  0  0  0
  147.9699  135.6663  158.9270 H   0  0  0  0  0  0  0  0  0  0  0  0
  147.7434  134.1264  161.0440 H   0  0  0  0  0  0  0  0  0  0  0  0
  150.2268  143.4607  157.5659 H   0  0  0  0  0  0  0  0  0  0  0  0
  151.7178  142.8442  156.8807 H   0  0  0  0  0  0  0  0  0  0  0  0
  150.5627  142.0000  159.4191 H   0  0  0  0  0  0  0  0  0  0  0  0
  1  2  1  0  0  0  0
  1 20  1  0  0  0  0
  1 21  1  0  0  0  0
  1 22  1  0  0  0  0
  2 19  1  0  0  0  0
  2  3  1  0  0  0  0
  2 23  1  0  0  0  0
  3  4  1  0  0  0  0
  3 24  1  0  0  0  0
  3 25  1  0  0  0  0
  4  5  1  0  0  0  0
  4 26  1  0  0  0  0
  4 27  1  0  0  0  0
  5  6  1  0  0  0  0
  5 28  1  0  0  0  0
  5 29  1  0  0  0  0
  6  7  1  0  0  0  0
  6 19  1  0  0  0  0
  6 42  1  0  0  0  0
  7  8  1  0  0  0  0
  7  9  1  0  0  0  0
  7 30  1  0  0  0  0
  8 31  1  0  0  0  0
  8 32  1  0  0  0  0
  8 33  1  0  0  0  0
  9 10  1  0  0  0  0
  9 34  1  0  0  0  0
  9 35  1  0  0  0  0
 10 11  1  0  0  0  0
 10 36  1  0  0  0  0
 11 12  2  0  0  0  0
 11 13  1  0  0  0  0
 13 14  1  0  0  0  0
 13 37  1  0  0  0  0
 13 38  1  0  0  0  0
 14 18  1  0  0  0  0
 14 15  1  0  0  0  0
 15 16  2  0  0  0  0
 15 39  1  0  0  0  0
 16 17  1  0  0  0  0
 17 18  2  0  0  0  0
 19 40  1  0  0  0  0
 19 41  1  0  0  0  0
M  CHG  1   6   1
M  END
> <s_m_source_file>
AV-unprocessed.smi

> <i_m_source_file_index>
2095

> <i_lp_mmshare_version>
43012

> <i_f3d_flags>
0

> <s_epik_input>
W0NIM11bQ0BASF0xW0NIMl1bQ0gyXVtDSDJdTihbQ0gyXTEpW0NASF0oW0NIM10pW0NIMl1bTkhdQyg9TylbQ0gyXW4yW2NIXW5ubjI=

> <s_epik_cmdline>
J2VwaWtfcHl0aG9uJywgJy1waCcsICc3LjAnLCAnLXRuJywgJzgnLCAnLW1hJywgJzIwMCcsICctbWV0YWxfYmluZGluZycsICctaW1hZScsICc8aW5maWxlLm1hZT4nLCAnLW9tYWUnLCAnPG91dGZpbGUubWFlPic=

> <r_lp_tautomer_probability>
1

> <r_epik_Ionization_Penalty>
0.00268321

> <r_epik_Ionization_Penalty_Charging>
0.00267875

> <r_epik_Ionization_Penalty_Neutral>
4.46125e-06

> <r_epik_State_Penalty>
0.00186642

> <r_epik_Charging_Adjusted_Penalty>
0.00454517

> <i_epik_Tot_Q>
1

> <i_epik_Tot_abs_Q>
1

> <r_epik_Metal_State_Penalty>
-0

> <b_epik_Metal_Only>
0

> <s_lp_Force_Field>
OPLS_2005

> <r_lp_Energy>
29.9009

> <b_lp_Chiralities_Consistent>
1

> <s_lp_Variant>
AV-unprocessed.smi:2095-6

> <Gold.Version>
5.8.1

> <Gold.Id.Protein>
6NUR|6NUR_protein|mol2

> <Gold.PLP.Fitness>
42.8963

> <Gold.PLP.PLP>
-37.6612

> <Gold.PLP.part.hbond>
-3.0999

> <Gold.PLP.part.metal>
0.0000

> <Gold.PLP.part.buried>
-6.9991

> <Gold.PLP.part.nonpolar>
-27.6144

> <Gold.PLP.part.repulsive>
0.2609

> <Gold.PLP.ligand.clash>
0.0000

> <Gold.PLP.ligand.torsion>
1.5925

> <Gold.PLP.Chemscore.Hbond>
2.7840

> <Gold.PLP.Chemscore.CHOScore>
0.0000

> <Gold.PLP.Chemscore.Metal>
0.0000

> <Gold.Chemscore.Hbonds>
donor molecule, donor type, donor heavy atom, donor atom, acceptor molecule, acceptor atom, score
      P1  H  6896  6907       L1    12  1.00
      P1  H  6931  6943       L1    18  1.00
      P1  H  6934  6947       L1    18  0.44

> <Gold.PLP.Chemscore.Internal.Correction>
0.0683

> <Gold.Rescore>
     Score         DG    S(hbond)    S(metal)    S(lipo)     H(rot)  DE(clash)    DE(int)     intcor
     15.93     -17.01       2.57        0.00      83.10       2.64       0.04       1.04       ----

> <Gold.Chemscore.Fitness>
15.9316

> <Gold.Chemscore.DG>
-17.0098

> <Gold.Chemscore.ZeroCoef>
-5.4800

> <Gold.Chemscore.Hbond>
2.5676

> <Gold.Chemscore.Metal>
0.0000

> <Gold.Chemscore.Lipo>
83.0984

> <Gold.Chemscore.Internal_Hbond>
0.0000

> <Gold.Chemscore.DEClash>
0.0375

> <Gold.Chemscore.DEInternal>
1.0407

> <Gold.Chemscore.Rot>
2.6439

> <Gold.Chemscore.Internal.Correction>
   9.000000E+99

> <Gold.Chemscore.Hbonds>
donor molecule, donor type, donor heavy atom, donor atom, acceptor molecule, acceptor atom, score
      P1  H  6896  6907       L1    12  1.00
      P1  H  6931  6943       L1    18  0.74
      P1  H  6934  6947       L1    18  0.29

> <Gold.Chemscore.Hbond.Weighted>
-8.5758

> <Gold.Chemscore.Metal.Weighted>
-0.0000

> <Gold.Chemscore.Lipo.Weighted>
-9.7225

> <Gold.Chemscore.Internal_Hbond.Weighted>
0.0000

> <Gold.Chemscore.DEClash.Weighted>
0.0375

> <Gold.Chemscore.DEInternal.Weighted>
1.0407

> <Gold.Chemscore.Rot.Weighted>
6.7685

> <Gold.Chemscore.Internal.Correction.Weighted>
   9.000000E+99

> <Gold.Protein.RotatedTorsions>
[ 6907 6896 6895 6894 ] final  -22.30 input  -60.11 | X-H torsion
[ 7974 7965 7964 7962 ] final   69.44 input  175.53 | X-H torsion
[ 8008 7997 7996 7995 ] final   43.77 input   59.86 | X-H torsion
[ 10167 10162 10161 10158 ] final -160.46 input  -65.29 | X-H torsion
[ 10718 10713 10712 10709 ] final -159.41 input   66.30 | X-H torsion
[ 10763 10752 10751 10750 ] final  140.92 input  -60.55 | X-H torsion
[ 11005 11000 10999 10996 ] final   79.54 input  -57.11 | X-H torsion

> <Gold.Protein.ActiveResidues>
 VAL166  LYS551  ARG553  GLY616  TRP617  ASP618  TYR619  PRO620  LYS621  CYS622 
 ASP623  PHE694  ASN695  SER759  ASP760  ASP761  ALA762  ILE779  LEU786  VAL792 
 PHE793  MET794  SER795  GLU796  ALA797  LYS798  CYS799  TRP800  GLU811  SER814 

> <Gold.Protein.RotatedAtoms>
  151.2206  135.0517  159.8947 H   0  0  0  0  0  0  0  0  0  0  0  0  # atno 6907 bound_to 6896
  152.5415  134.0644  159.8176 H   0  0  0  0  0  0  0  0  0  0  0  0  # atno 6908 bound_to 6896
  151.0810  133.5342  159.2652 H   0  0  0  0  0  0  0  0  0  0  0  0  # atno 6909 bound_to 6896
  145.7904  139.2931  143.1214 H   0  0  0  0  0  0  0  0  0  0  0  0  # atno 7974 bound_to 7965
  155.3082  140.3389  155.4245 H   0  0  0  0  0  0  0  0  0  0  0  0  # atno 8008 bound_to 7997
  156.1968  140.1718  156.8019 H   0  0  0  0  0  0  0  0  0  0  0  0  # atno 8009 bound_to 7997
  154.5509  140.0706  156.8650 H   0  0  0  0  0  0  0  0  0  0  0  0  # atno 8010 bound_to 7997
  139.6538  144.0036  152.2179 H   0  0  0  0  0  0  0  0  0  0  0  0  # atno 10167 bound_to 10162
  156.5678  130.8675  151.2829 H   0  0  0  0  0  0  0  0  0  0  0  0  # atno 10718 bound_to 10713
  153.9306  135.2990  155.3446 H   0  0  0  0  0  0  0  0  0  0  0  0  # atno 10763 bound_to 10752
  154.7528  135.4972  153.9324 H   0  0  0  0  0  0  0  0  0  0  0  0  # atno 10764 bound_to 10752
  153.1093  135.6755  153.9633 H   0  0  0  0  0  0  0  0  0  0  0  0  # atno 10765 bound_to 10752
  139.9169  134.7850  156.1792 H   0  0  0  0  0  0  0  0  0  0  0  0  # atno 11005 bound_to 11000
  145.9983  140.8543  143.0031 LP  0  0  0  0  0  0  0  0  0  0  0  0  # atno 17320 bound_to 7965
  144.6783  140.2315  143.7355 LP  0  0  0  0  0  0  0  0  0  0  0  0  # atno 17321 bound_to 7965
  139.9757  144.6463  150.7947 LP  0  0  0  0  0  0  0  0  0  0  0  0  # atno 17342 bound_to 10162
  140.7550  143.3037  151.3016 LP  0  0  0  0  0  0  0  0  0  0  0  0  # atno 17343 bound_to 10162
  157.7355  130.9763  150.2084 LP  0  0  0  0  0  0  0  0  0  0  0  0  # atno 17370 bound_to 10713
  156.2742  130.3725  149.8001 LP  0  0  0  0  0  0  0  0  0  0  0  0  # atno 17371 bound_to 10713
  141.0653  133.6822  156.2032 LP  0  0  0  0  0  0  0  0  0  0  0  0  # atno 17394 bound_to 11000
  140.6595  134.4982  157.5582 LP  0  0  0  0  0  0  0  0  0  0  0  0  # atno 17395 bound_to 11000

$$$$
