AV-unprocessed.smi:67|AV-procd|sdf|638|dock2
  -GOLD-   2262016533D 1   1.00000     0.00000
 Structure written by MMmdl.
 48 50  0  0  0  0  0  0  0  0  2 V2000
  144.6128  138.1803  153.5312 O   0  0  0  0  0  0  0  0  0  0  0  0
  145.8660  137.6759  153.1110 C   0  0  2  0  0  0  0  0  0  0  0  0
  146.8907  137.8152  154.2684 C   0  0  0  0  0  0  0  0  0  0  0  0
  147.1571  139.2147  154.7082 N   0  3  2  0  0  0  0  0  0  0  0  0
  148.0438  139.9293  153.7514 C   0  0  0  0  0  0  0  0  0  0  0  0
  148.2134  141.4113  154.1271 C   0  0  0  0  0  0  0  0  0  0  0  0
  148.7378  141.5754  155.5664 C   0  0  2  0  0  0  0  0  0  0  0  0
  150.0540  141.0437  155.7044 O   0  0  0  0  0  0  0  0  0  0  0  0
  150.7734  141.2674  156.8607 C   0  0  0  0  0  0  0  0  0  0  0  0
  151.3955  140.1441  157.4418 C   0  0  0  0  0  0  0  0  0  0  0  0
  152.1494  140.2681  158.6232 C   0  0  0  0  0  0  0  0  0  0  0  0
  152.2879  141.5238  159.2417 C   0  0  0  0  0  0  0  0  0  0  0  0
  151.6690  142.6612  158.6807 C   0  0  0  0  0  0  0  0  0  0  0  0
  151.8125  144.0295  159.3304 C   0  0  0  0  0  0  0  0  0  0  0  0
  150.6090  144.5501  159.5721 F   0  0  0  0  0  0  0  0  0  0  0  0
  152.4775  143.9606  160.4842 F   0  0  0  0  0  0  0  0  0  0  0  0
  152.4725  144.8398  158.5039 F   0  0  0  0  0  0  0  0  0  0  0  0
  150.9190  142.5288  157.4919 C   0  0  0  0  0  0  0  0  0  0  0  0
  147.8215  140.8016  156.5238 C   0  0  0  0  0  0  0  0  0  0  0  0
  147.6615  139.3303  156.1030 C   0  0  0  0  0  0  0  0  0  0  0  0
  146.3179  138.3257  151.7872 C   0  0  0  0  0  0  0  0  0  0  0  0
  146.1448  137.2330  150.7342 C   0  0  0  0  0  0  0  0  0  0  0  0
  146.2986  135.9850  151.4614 N   0  0  0  0  0  0  0  0  0  0  0  0
  145.6324  136.1966  152.7376 C   0  0  0  0  0  0  0  0  0  0  0  0
  144.3593  138.8835  152.9525 H   0  0  0  0  0  0  0  0  0  0  0  0
  146.6067  137.1992  155.1234 H   0  0  0  0  0  0  0  0  0  0  0  0
  147.8336  137.4013  153.9071 H   0  0  0  0  0  0  0  0  0  0  0  0
  149.0166  139.4360  153.7190 H   0  0  0  0  0  0  0  0  0  0  0  0
  147.6267  139.8693  152.7454 H   0  0  0  0  0  0  0  0  0  0  0  0
  148.8773  141.8962  153.4122 H   0  0  0  0  0  0  0  0  0  0  0  0
  147.2513  141.9171  154.0354 H   0  0  0  0  0  0  0  0  0  0  0  0
  148.7146  142.6219  155.8710 H   0  0  0  0  0  0  0  0  0  0  0  0
  151.2943  139.1749  156.9756 H   0  0  0  0  0  0  0  0  0  0  0  0
  152.6225  139.3987  159.0553 H   0  0  0  0  0  0  0  0  0  0  0  0
  152.8724  141.6051  160.1460 H   0  0  0  0  0  0  0  0  0  0  0  0
  150.4666  143.4179  157.0820 H   0  0  0  0  0  0  0  0  0  0  0  0
  148.2123  140.8581  157.5405 H   0  0  0  0  0  0  0  0  0  0  0  0
  146.8398  141.2768  156.5480 H   0  0  0  0  0  0  0  0  0  0  0  0
  146.9704  138.8633  156.8008 H   0  0  0  0  0  0  0  0  0  0  0  0
  148.6121  138.8025  156.1951 H   0  0  0  0  0  0  0  0  0  0  0  0
  145.7595  139.2292  151.5386 H   0  0  0  0  0  0  0  0  0  0  0  0
  147.3728  138.5987  151.8283 H   0  0  0  0  0  0  0  0  0  0  0  0
  145.1426  137.2891  150.3069 H   0  0  0  0  0  0  0  0  0  0  0  0
  146.8608  137.3209  149.9167 H   0  0  0  0  0  0  0  0  0  0  0  0
  147.2871  135.8340  151.6344 H   0  0  0  0  0  0  0  0  0  0  0  0
  145.9946  135.5041  153.4978 H   0  0  0  0  0  0  0  0  0  0  0  0
  144.5666  135.9965  152.6122 H   0  0  0  0  0  0  0  0  0  0  0  0
  146.2684  139.6938  154.6795 H   0  0  0  0  0  0  0  0  0  0  0  0
  1  2  1  0  0  0  0
  1 25  1  0  0  0  0
  2 24  1  0  0  0  0
  2  3  1  0  0  0  0
  2 21  1  0  0  0  0
  3  4  1  0  0  0  0
  3 26  1  0  0  0  0
  3 27  1  0  0  0  0
  4 20  1  0  0  0  0
  4  5  1  0  0  0  0
  4 48  1  0  0  0  0
  5  6  1  0  0  0  0
  5 28  1  0  0  0  0
  5 29  1  0  0  0  0
  6  7  1  0  0  0  0
  6 30  1  0  0  0  0
  6 31  1  0  0  0  0
  7  8  1  0  0  0  0
  7 19  1  0  0  0  0
  7 32  1  0  0  0  0
  8  9  1  0  0  0  0
  9 18  1  0  0  0  0
  9 10  2  0  0  0  0
 10 11  1  0  0  0  0
 10 33  1  0  0  0  0
 11 12  2  0  0  0  0
 11 34  1  0  0  0  0
 12 13  1  0  0  0  0
 12 35  1  0  0  0  0
 13 14  1  0  0  0  0
 13 18  2  0  0  0  0
 14 15  1  0  0  0  0
 14 16  1  0  0  0  0
 14 17  1  0  0  0  0
 18 36  1  0  0  0  0
 19 20  1  0  0  0  0
 19 37  1  0  0  0  0
 19 38  1  0  0  0  0
 20 39  1  0  0  0  0
 20 40  1  0  0  0  0
 21 22  1  0  0  0  0
 21 41  1  0  0  0  0
 21 42  1  0  0  0  0
 22 23  1  0  0  0  0
 22 43  1  0  0  0  0
 22 44  1  0  0  0  0
 23 24  1  0  0  0  0
 23 45  1  0  0  0  0
 24 46  1  0  0  0  0
 24 47  1  0  0  0  0
M  CHG  1   4   1
M  END
> <s_m_source_file>
AV-unprocessed.smi

> <i_m_source_file_index>
67

> <i_lp_mmshare_version>
43012

> <i_f3d_flags>
0

> <s_epik_input>
W0NIMl0xW05IXVtDSDJdW0NIMl1bQ0BAXTEoW09IXSlbQ0gyXU4yW0NIMl1bQ0gyXVtDSF0oW0NIMl1bQ0gyXTIpT2MzW2NIXVtjSF1bY0hdYyhDKEYpKEYpRilbY0hdMw==

> <s_epik_cmdline>
J2VwaWtfcHl0aG9uJywgJy1waCcsICc3LjAnLCAnLXRuJywgJzgnLCAnLW1hJywgJzIwMCcsICctbWV0YWxfYmluZGluZycsICctaW1hZScsICc8aW5maWxlLm1hZT4nLCAnLW9tYWUnLCAnPG91dGZpbGUubWFlPic=

> <r_epik_Ionization_Penalty>
2.37709

> <r_epik_Ionization_Penalty_Charging>
0.0305656

> <r_epik_Ionization_Penalty_Neutral>
2.34653

> <r_epik_State_Penalty>
2.56959

> <r_epik_Charging_Adjusted_Penalty>
2.60016

> <i_epik_Tot_Q>
1

> <i_epik_Tot_abs_Q>
1

> <r_epik_Metal_State_Penalty>
2.56925

> <b_epik_Metal_Only>
0

> <s_lp_Force_Field>
OPLS_2005

> <r_lp_Energy>
52.4549

> <b_lp_Chiralities_Consistent>
1

> <s_lp_Variant>
AV-unprocessed.smi:67-10

> <Gold.Version>
5.8.1

> <Gold.Id.Protein>
6NUR|6NUR_protein|mol2

> <Gold.PLP.Fitness>
48.6891

> <Gold.PLP.PLP>
-43.2106

> <Gold.PLP.part.hbond>
-2.0000

> <Gold.PLP.part.metal>
0.0000

> <Gold.PLP.part.buried>
0.4347

> <Gold.PLP.part.nonpolar>
-41.8741

> <Gold.PLP.part.repulsive>
0.0775

> <Gold.PLP.ligand.clash>
0.2977

> <Gold.PLP.ligand.torsion>
0.4375

> <Gold.PLP.Chemscore.Hbond>
2.0000

> <Gold.PLP.Chemscore.CHOScore>
0.0000

> <Gold.PLP.Chemscore.Metal>
0.0000

> <Gold.Chemscore.Hbonds>
donor molecule, donor type, donor heavy atom, donor atom, acceptor molecule, acceptor atom, score
      L1  H     1    25       P1 10175  1.00
      L1  H    23    45       P1  7948  1.00

> <Gold.PLP.Chemscore.Internal.Correction>
0.6513

> <Gold.Rescore>
     Score         DG    S(hbond)    S(metal)    S(lipo)     H(rot)  DE(clash)    DE(int)     intcor
     17.27     -19.34       1.99        0.00     109.15       2.17       1.66       0.41       ----

> <Gold.Chemscore.Fitness>
17.2720

> <Gold.Chemscore.DG>
-19.3394

> <Gold.Chemscore.ZeroCoef>
-5.4800

> <Gold.Chemscore.Hbond>
1.9920

> <Gold.Chemscore.Metal>
0.0000

> <Gold.Chemscore.Lipo>
109.1458

> <Gold.Chemscore.Internal_Hbond>
0.0000

> <Gold.Chemscore.DEClash>
1.6606

> <Gold.Chemscore.DEInternal>
0.4069

> <Gold.Chemscore.Rot>
2.1734

> <Gold.Chemscore.Internal.Correction>
   9.000000E+99

> <Gold.Chemscore.Hbonds>
donor molecule, donor type, donor heavy atom, donor atom, acceptor molecule, acceptor atom, score
      L1  H     1    25       P1 10175  0.99
      L1  H    23    45       P1  7948  0.99

> <Gold.Chemscore.Hbond.Weighted>
-6.6534

> <Gold.Chemscore.Metal.Weighted>
-0.0000

> <Gold.Chemscore.Lipo.Weighted>
-12.7701

> <Gold.Chemscore.Internal_Hbond.Weighted>
0.0000

> <Gold.Chemscore.DEClash.Weighted>
1.6606

> <Gold.Chemscore.DEInternal.Weighted>
0.4069

> <Gold.Chemscore.Rot.Weighted>
5.5640

> <Gold.Chemscore.Internal.Correction.Weighted>
   9.000000E+99

> <Gold.Protein.RotatedTorsions>
[ 6907 6896 6895 6894 ] final  -41.83 input  -60.11 | X-H torsion
[ 7974 7965 7964 7962 ] final   65.37 input  175.53 | X-H torsion
[ 8008 7997 7996 7995 ] final  -61.74 input   59.86 | X-H torsion
[ 10167 10162 10161 10158 ] final   30.73 input  -65.29 | X-H torsion
[ 10718 10713 10712 10709 ] final  149.64 input   66.30 | X-H torsion
[ 10763 10752 10751 10750 ] final  -94.10 input  -60.55 | X-H torsion
[ 11005 11000 10999 10996 ] final   86.21 input  -57.11 | X-H torsion

> <Gold.Protein.ActiveResidues>
 VAL166  LYS551  ARG553  GLY616  TRP617  ASP618  TYR619  PRO620  LYS621  CYS622 
 ASP623  PHE694  ASN695  SER759  ASP760  ASP761  ALA762  ILE779  LEU786  VAL792 
 PHE793  MET794  SER795  GLU796  ALA797  LYS798  CYS799  TRP800  GLU811  SER814 

> <Gold.Protein.RotatedAtoms>
  150.9622  134.9008  159.7737 H   0  0  0  0  0  0  0  0  0  0  0  0  # atno 6907 bound_to 6896
  152.5160  134.3657  159.9310 H   0  0  0  0  0  0  0  0  0  0  0  0  # atno 6908 bound_to 6896
  151.3668  133.3828  159.2730 H   0  0  0  0  0  0  0  0  0  0  0  0  # atno 6909 bound_to 6896
  145.8392  139.3185  143.0941 H   0  0  0  0  0  0  0  0  0  0  0  0  # atno 7974 bound_to 7965
  154.4463  140.1011  156.6479 H   0  0  0  0  0  0  0  0  0  0  0  0  # atno 8008 bound_to 7997
  155.5430  140.3484  155.4432 H   0  0  0  0  0  0  0  0  0  0  0  0  # atno 8009 bound_to 7997
  156.0583  140.1320  156.9960 H   0  0  0  0  0  0  0  0  0  0  0  0  # atno 8010 bound_to 7997
  140.4651  144.0847  150.6222 H   0  0  0  0  0  0  0  0  0  0  0  0  # atno 10167 bound_to 10162
  157.2936  131.0858  151.1443 H   0  0  0  0  0  0  0  0  0  0  0  0  # atno 10718 bound_to 10713
  154.7023  135.5170  153.8544 H   0  0  0  0  0  0  0  0  0  0  0  0  # atno 10763 bound_to 10752
  153.0714  135.6602  154.0249 H   0  0  0  0  0  0  0  0  0  0  0  0  # atno 10764 bound_to 10752
  154.0106  135.3002  155.3372 H   0  0  0  0  0  0  0  0  0  0  0  0  # atno 10765 bound_to 10752
  139.8950  134.8340  156.2689 H   0  0  0  0  0  0  0  0  0  0  0  0  # atno 11005 bound_to 11000
  145.9484  140.8927  143.0272 LP  0  0  0  0  0  0  0  0  0  0  0  0  # atno 17320 bound_to 7965
  144.6734  140.1646  143.7419 LP  0  0  0  0  0  0  0  0  0  0  0  0  # atno 17321 bound_to 7965
  140.4045  143.2687  151.9907 LP  0  0  0  0  0  0  0  0  0  0  0  0  # atno 17342 bound_to 10162
  139.4811  144.5968  151.7675 LP  0  0  0  0  0  0  0  0  0  0  0  0  # atno 17343 bound_to 10162
  157.2830  130.6759  149.6075 LP  0  0  0  0  0  0  0  0  0  0  0  0  # atno 17370 bound_to 10713
  155.9668  130.4444  150.5460 LP  0  0  0  0  0  0  0  0  0  0  0  0  # atno 17371 bound_to 10713
  141.0114  133.7093  156.1117 LP  0  0  0  0  0  0  0  0  0  0  0  0  # atno 17394 bound_to 11000
  140.7362  134.4200  157.5560 LP  0  0  0  0  0  0  0  0  0  0  0  0  # atno 17395 bound_to 11000

$$$$
