AV-unprocessed.smi:1244|AV-procd|sdf|5230|dock4
  -GOLD-   22720 4333D 1   1.00000     0.00000
 Structure written by MMmdl.
 55 57  0  0  0  0  0  0  0  0  2 V2000
  155.5101  137.8441  164.4305 C   0  0  0  0  0  0  0  0  0  0  0  0
  154.2500  137.0793  163.9894 C   0  0  1  0  0  0  0  0  0  0  0  0
  154.1419  136.9234  162.4596 C   0  0  0  0  0  0  0  0  0  0  0  0
  155.0986  135.9575  161.9354 N   0  0  0  0  0  0  0  0  0  0  0  0
  155.0231  135.8560  160.4769 C   0  0  0  0  0  0  0  0  0  0  0  0
  155.2665  137.1790  159.7193 C   0  0  0  0  0  0  0  0  0  0  0  0
  154.0531  137.9859  159.6490 N   0  0  0  0  0  0  0  0  0  0  0  0
  153.9806  139.2913  159.9385 C   0  0  0  0  0  0  0  0  0  0  0  0
  154.8795  139.9288  160.4873 O   0  0  0  0  0  0  0  0  0  0  0  0
  152.8254  139.8167  159.5060 N   0  0  0  0  0  0  0  0  0  0  0  0
  152.5381  141.2003  159.4048 C   0  0  0  0  0  0  0  0  0  0  0  0
  153.1398  142.1071  160.3107 C   0  0  0  0  0  0  0  0  0  0  0  0
  152.8628  143.4831  160.2093 C   0  0  0  0  0  0  0  0  0  0  0  0
  151.9870  143.9256  159.2028 C   0  0  0  0  0  0  0  0  0  0  0  0
  151.4265  143.0319  158.3607 N   0  3  0  0  0  0  0  0  0  0  0  0
  151.6442  141.6936  158.4105 C   0  0  0  0  0  0  0  0  0  0  0  0
  150.9994  140.8765  157.4509 N   0  0  0  0  0  0  0  0  0  0  0  0
  149.9630  141.4493  156.5989 C   0  0  0  0  0  0  0  0  0  0  0  0
  149.8200  140.4924  155.4160 C   0  0  0  0  0  0  0  0  0  0  0  0
  151.2199  139.9086  155.2727 C   0  0  0  0  0  0  0  0  0  0  0  0
  151.7300  139.8449  156.7136 C   0  0  0  0  0  0  0  0  0  0  0  0
  154.9039  134.6779  162.6065 C   0  0  0  0  0  0  0  0  0  0  0  0
  155.0627  134.8103  164.1322 C   0  0  2  0  0  0  0  0  0  0  0  0
  154.7680  133.4944  164.8600 C   0  0  0  0  0  0  0  0  0  0  0  0
  154.1598  135.8009  164.6223 O   0  0  0  0  0  0  0  0  0  0  0  0
  155.5072  138.8594  164.0334 H   0  0  0  0  0  0  0  0  0  0  0  0
  156.4221  137.3625  164.0794 H   0  0  0  0  0  0  0  0  0  0  0  0
  155.5648  137.9132  165.5169 H   0  0  0  0  0  0  0  0  0  0  0  0
  153.3893  137.6543  164.3319 H   0  0  0  0  0  0  0  0  0  0  0  0
  153.1293  136.6071  162.2029 H   0  0  0  0  0  0  0  0  0  0  0  0
  154.2906  137.8939  161.9843 H   0  0  0  0  0  0  0  0  0  0  0  0
  155.7159  135.0937  160.1180 H   0  0  0  0  0  0  0  0  0  0  0  0
  154.0276  135.5019  160.2047 H   0  0  0  0  0  0  0  0  0  0  0  0
  156.0343  137.7660  160.2231 H   0  0  0  0  0  0  0  0  0  0  0  0
  155.6454  136.9779  158.7161 H   0  0  0  0  0  0  0  0  0  0  0  0
  153.2509  137.5503  159.2181 H   0  0  0  0  0  0  0  0  0  0  0  0
  152.2195  139.1969  158.9889 H   0  0  0  0  0  0  0  0  0  0  0  0
  153.8117  141.7545  161.0798 H   0  0  0  0  0  0  0  0  0  0  0  0
  153.3176  144.1867  160.8913 H   0  0  0  0  0  0  0  0  0  0  0  0
  151.7186  144.9602  159.0457 H   0  0  0  0  0  0  0  0  0  0  0  0
  149.0086  141.5442  157.1154 H   0  0  0  0  0  0  0  0  0  0  0  0
  150.2749  142.4387  156.2609 H   0  0  0  0  0  0  0  0  0  0  0  0
  149.1139  139.6984  155.6634 H   0  0  0  0  0  0  0  0  0  0  0  0
  149.4673  140.9866  154.5103 H   0  0  0  0  0  0  0  0  0  0  0  0
  151.2291  138.9378  154.7766 H   0  0  0  0  0  0  0  0  0  0  0  0
  151.8422  140.5902  154.6912 H   0  0  0  0  0  0  0  0  0  0  0  0
  152.8141  139.9484  156.7340 H   0  0  0  0  0  0  0  0  0  0  0  0
  151.4878  138.8787  157.1564 H   0  0  0  0  0  0  0  0  0  0  0  0
  153.9138  134.2840  162.3704 H   0  0  0  0  0  0  0  0  0  0  0  0
  155.6257  133.9473  162.2417 H   0  0  0  0  0  0  0  0  0  0  0  0
  156.0856  135.1083  164.3650 H   0  0  0  0  0  0  0  0  0  0  0  0
  155.4424  132.7036  164.5306 H   0  0  0  0  0  0  0  0  0  0  0  0
  153.7458  133.1620  164.6754 H   0  0  0  0  0  0  0  0  0  0  0  0
  154.8916  133.6092  165.9371 H   0  0  0  0  0  0  0  0  0  0  0  0
  150.7963  143.3869  157.6413 H   0  0  0  0  0  0  0  0  0  0  0  0
  1  2  1  0  0  0  0
  1 26  1  0  0  0  0
  1 27  1  0  0  0  0
  1 28  1  0  0  0  0
  2 25  1  0  0  0  0
  2  3  1  0  0  0  0
  2 29  1  0  0  0  0
  3  4  1  0  0  0  0
  3 30  1  0  0  0  0
  3 31  1  0  0  0  0
  4  5  1  0  0  0  0
  4 22  1  0  0  0  0
  5  6  1  0  0  0  0
  5 32  1  0  0  0  0
  5 33  1  0  0  0  0
  6  7  1  0  0  0  0
  6 34  1  0  0  0  0
  6 35  1  0  0  0  0
  7  8  1  0  0  0  0
  7 36  1  0  0  0  0
  8  9  2  0  0  0  0
  8 10  1  0  0  0  0
 10 11  1  0  0  0  0
 10 37  1  0  0  0  0
 11 16  1  0  0  0  0
 11 12  2  0  0  0  0
 12 13  1  0  0  0  0
 12 38  1  0  0  0  0
 13 14  2  0  0  0  0
 13 39  1  0  0  0  0
 14 15  1  0  0  0  0
 14 40  1  0  0  0  0
 15 16  2  0  0  0  0
 15 55  1  0  0  0  0
 16 17  1  0  0  0  0
 17 21  1  0  0  0  0
 17 18  1  0  0  0  0
 18 19  1  0  0  0  0
 18 41  1  0  0  0  0
 18 42  1  0  0  0  0
 19 20  1  0  0  0  0
 19 43  1  0  0  0  0
 19 44  1  0  0  0  0
 20 21  1  0  0  0  0
 20 45  1  0  0  0  0
 20 46  1  0  0  0  0
 21 47  1  0  0  0  0
 21 48  1  0  0  0  0
 22 23  1  0  0  0  0
 22 49  1  0  0  0  0
 22 50  1  0  0  0  0
 23 24  1  0  0  0  0
 23 25  1  0  0  0  0
 23 51  1  0  0  0  0
 24 52  1  0  0  0  0
 24 53  1  0  0  0  0
 24 54  1  0  0  0  0
M  CHG  1  15   1
M  END
> <s_m_source_file>
AV-unprocessed.smi

> <i_m_source_file_index>
1244

> <i_lp_mmshare_version>
43012

> <i_f3d_flags>
0

> <s_epik_input>
W0NIM11bQ0BASF0xW0NIMl1OKFtDSDJdW0NASF0oTzEpW0NIM10pW0NIMl1bQ0gyXVtOSF1DKD1PKVtOSF1jMltjSF1bY0hdW2NIXW5jMk4zW0NIMl1bQ0gyXVtDSDJdW0NIMl0z

> <s_epik_cmdline>
J2VwaWtfcHl0aG9uJywgJy1waCcsICc3LjAnLCAnLXRuJywgJzgnLCAnLW1hJywgJzIwMCcsICctbWV0YWxfYmluZGluZycsICctaW1hZScsICc8aW5maWxlLm1hZT4nLCAnLW9tYWUnLCAnPG91dGZpbGUubWFlPic=

> <r_epik_Ionization_Penalty>
1.38385

> <r_epik_Ionization_Penalty_Charging>
1.11784

> <r_epik_Ionization_Penalty_Neutral>
0.26601

> <r_epik_State_Penalty>
1.46794

> <r_epik_Charging_Adjusted_Penalty>
2.58578

> <i_epik_Tot_Q>
1

> <i_epik_Tot_abs_Q>
1

> <r_epik_Metal_State_Penalty>
1.54908

> <b_epik_Metal_Only>
0

> <s_lp_Force_Field>
OPLS_2005

> <r_lp_Energy>
60.8331

> <b_lp_Chiralities_Consistent>
1

> <s_lp_Variant>
AV-unprocessed.smi:1244-10

> <Gold.Version>
5.8.1

> <Gold.Id.Protein>
6NUR|6NUR_protein|mol2

> <Gold.PLP.Fitness>
45.5219

> <Gold.PLP.PLP>
-46.0897

> <Gold.PLP.part.hbond>
0.0000

> <Gold.PLP.part.metal>
0.0000

> <Gold.PLP.part.buried>
-4.4979

> <Gold.PLP.part.nonpolar>
-42.4677

> <Gold.PLP.part.repulsive>
0.4398

> <Gold.PLP.ligand.clash>
0.0120

> <Gold.PLP.ligand.torsion>
0.7961

> <Gold.PLP.Chemscore.Hbond>
0.0000

> <Gold.PLP.Chemscore.CHOScore>
0.0000

> <Gold.PLP.Chemscore.Metal>
0.0000

> <Gold.PLP.Chemscore.Internal.Correction>
1.0364

> <Gold.Rescore>
     Score         DG    S(hbond)    S(metal)    S(lipo)     H(rot)  DE(clash)    DE(int)     intcor
     13.23     -16.65       0.00        0.00     126.19       1.40       0.04       3.38       ----

> <Gold.Chemscore.Fitness>
13.2345

> <Gold.Chemscore.DG>
-16.6542

> <Gold.Chemscore.ZeroCoef>
-5.4800

> <Gold.Chemscore.Hbond>
0.0000

> <Gold.Chemscore.Metal>
0.0000

> <Gold.Chemscore.Lipo>
126.1887

> <Gold.Chemscore.Internal_Hbond>
0.0000

> <Gold.Chemscore.DEClash>
0.0428

> <Gold.Chemscore.DEInternal>
3.3769

> <Gold.Chemscore.Rot>
1.4023

> <Gold.Chemscore.Internal.Correction>
   9.000000E+99

> <Gold.Chemscore.Hbond.Weighted>
-0.0000

> <Gold.Chemscore.Metal.Weighted>
-0.0000

> <Gold.Chemscore.Lipo.Weighted>
-14.7641

> <Gold.Chemscore.Internal_Hbond.Weighted>
0.0000

> <Gold.Chemscore.DEClash.Weighted>
0.0428

> <Gold.Chemscore.DEInternal.Weighted>
3.3769

> <Gold.Chemscore.Rot.Weighted>
3.5899

> <Gold.Chemscore.Internal.Correction.Weighted>
   9.000000E+99

> <Gold.Protein.RotatedTorsions>
[ 6907 6896 6895 6894 ] final   -3.07 input  -60.11 | X-H torsion
[ 7974 7965 7964 7962 ] final  -21.12 input  175.53 | X-H torsion
[ 8008 7997 7996 7995 ] final  146.15 input   59.86 | X-H torsion
[ 10167 10162 10161 10158 ] final  -97.85 input  -65.29 | X-H torsion
[ 10718 10713 10712 10709 ] final  -90.18 input   66.30 | X-H torsion
[ 10763 10752 10751 10750 ] final -156.61 input  -60.55 | X-H torsion
[ 11005 11000 10999 10996 ] final   25.35 input  -57.11 | X-H torsion

> <Gold.Protein.ActiveResidues>
 VAL166  LYS551  ARG553  GLY616  TRP617  ASP618  TYR619  PRO620  LYS621  CYS622 
 ASP623  PHE694  ASN695  SER759  ASP760  ASP761  ALA762  ILE779  LEU786  VAL792 
 PHE793  MET794  SER795  GLU796  ALA797  LYS798  CYS799  TRP800  GLU811  SER814 

> <Gold.Protein.RotatedAtoms>
  151.5197  135.1067  159.9875 H   0  0  0  0  0  0  0  0  0  0  0  0  # atno 6907 bound_to 6896
  152.4626  133.7850  159.6881 H   0  0  0  0  0  0  0  0  0  0  0  0  # atno 6908 bound_to 6896
  150.8594  133.7601  159.3022 H   0  0  0  0  0  0  0  0  0  0  0  0  # atno 6909 bound_to 6896
  146.1751  140.4297  142.8517 H   0  0  0  0  0  0  0  0  0  0  0  0  # atno 7974 bound_to 7965
  156.2863  140.2190  156.5331 H   0  0  0  0  0  0  0  0  0  0  0  0  # atno 8008 bound_to 7997
  154.7432  140.0486  157.0852 H   0  0  0  0  0  0  0  0  0  0  0  0  # atno 8009 bound_to 7997
  155.0203  140.3123  155.4799 H   0  0  0  0  0  0  0  0  0  0  0  0  # atno 8010 bound_to 7997
  140.2791  143.3294  152.0459 H   0  0  0  0  0  0  0  0  0  0  0  0  # atno 10167 bound_to 10162
  155.9987  130.4900  150.5284 H   0  0  0  0  0  0  0  0  0  0  0  0  # atno 10718 bound_to 10713
  154.7700  135.3142  154.8209 H   0  0  0  0  0  0  0  0  0  0  0  0  # atno 10763 bound_to 10752
  153.8947  135.6822  153.4763 H   0  0  0  0  0  0  0  0  0  0  0  0  # atno 10764 bound_to 10752
  153.1312  135.4779  154.9286 H   0  0  0  0  0  0  0  0  0  0  0  0  # atno 10765 bound_to 10752
  140.3488  134.2252  155.7682 H   0  0  0  0  0  0  0  0  0  0  0  0  # atno 11005 bound_to 11000
  144.8223  140.6570  143.6345 LP  0  0  0  0  0  0  0  0  0  0  0  0  # atno 17320 bound_to 7965
  145.4235  139.1560  143.4061 LP  0  0  0  0  0  0  0  0  0  0  0  0  # atno 17321 bound_to 7965
  139.4967  144.6604  151.6477 LP  0  0  0  0  0  0  0  0  0  0  0  0  # atno 17342 bound_to 10162
  140.5827  143.9918  150.6277 LP  0  0  0  0  0  0  0  0  0  0  0  0  # atno 17343 bound_to 10162
  157.3237  131.0686  151.1913 LP  0  0  0  0  0  0  0  0  0  0  0  0  # atno 17370 bound_to 10713
  157.2817  130.6753  149.6069 LP  0  0  0  0  0  0  0  0  0  0  0  0  # atno 17371 bound_to 10713
  141.2018  133.7954  157.0422 LP  0  0  0  0  0  0  0  0  0  0  0  0  # atno 17394 bound_to 11000
  140.0720  134.9697  157.1483 LP  0  0  0  0  0  0  0  0  0  0  0  0  # atno 17395 bound_to 11000

$$$$
