AV-unprocessed.smi:1244|AV-procd|sdf|5235|dock4
  -GOLD-   22720 4343D 1   1.00000     0.00000
 Structure written by MMmdl.
 55 57  0  0  0  0  0  0  0  0  4 V2000
  145.6993  137.7427  162.7726 C   0  0  0  0  0  0  0  0  0  0  0  0
  146.7331  136.6039  162.8251 C   0  0  2  0  0  0  0  0  0  0  0  0
  147.6365  136.5356  161.5781 C   0  0  0  0  0  0  0  0  0  0  0  0
  146.8972  135.9999  160.4097 N   0  3  1  0  0  0  0  0  0  0  0  0
  147.7100  135.9961  159.1643 C   0  0  0  0  0  0  0  0  0  0  0  0
  148.2757  137.3927  158.8348 C   0  0  0  0  0  0  0  0  0  0  0  0
  149.7368  137.3662  158.8949 N   0  5  0  0  0  0  0  0  0  0  0  0
  150.5335  138.4659  158.9696 C   0  0  0  0  0  0  0  0  0  0  0  0
  151.6349  138.5646  159.5222 O   0  0  0  0  0  0  0  0  0  0  0  0
  149.9794  139.5278  158.3594 N   0  0  0  0  0  0  0  0  0  0  0  0
  150.4695  140.8595  158.2440 C   0  0  0  0  0  0  0  0  0  0  0  0
  151.5537  141.3182  159.0351 C   0  0  0  0  0  0  0  0  0  0  0  0
  152.0028  142.6463  158.9106 C   0  0  0  0  0  0  0  0  0  0  0  0
  151.3655  143.4956  157.9907 C   0  0  0  0  0  0  0  0  0  0  0  0
  150.3532  143.0230  157.2346 N   0  3  0  0  0  0  0  0  0  0  0  0
  149.8851  141.7509  157.2973 C   0  0  0  0  0  0  0  0  0  0  0  0
  148.8283  141.3961  156.4270 N   0  0  0  0  0  0  0  0  0  0  0  0
  147.4736  141.8766  156.6734 C   0  0  0  0  0  0  0  0  0  0  0  0
  146.7111  141.5925  155.3820 C   0  0  0  0  0  0  0  0  0  0  0  0
  147.7784  141.8152  154.3147 C   0  0  0  0  0  0  0  0  0  0  0  0
  149.0700  141.3401  154.9886 C   0  0  0  0  0  0  0  0  0  0  0  0
  146.3014  134.6811  160.7453 C   0  0  0  0  0  0  0  0  0  0  0  0
  145.3829  134.8059  161.9732 C   0  0  1  0  0  0  0  0  0  0  0  0
  144.8108  133.4505  162.4027 C   0  0  0  0  0  0  0  0  0  0  0  0
  146.1266  135.3345  163.0683 O   0  0  0  0  0  0  0  0  0  0  0  0
  146.1956  138.7121  162.7228 H   0  0  0  0  0  0  0  0  0  0  0  0
  145.0728  137.7397  163.6647 H   0  0  0  0  0  0  0  0  0  0  0  0
  145.0457  137.6700  161.9036 H   0  0  0  0  0  0  0  0  0  0  0  0
  147.3728  136.8009  163.6859 H   0  0  0  0  0  0  0  0  0  0  0  0
  148.0299  137.5279  161.3528 H   0  0  0  0  0  0  0  0  0  0  0  0
  148.4954  135.8930  161.7787 H   0  0  0  0  0  0  0  0  0  0  0  0
  148.5525  135.3125  159.2832 H   0  0  0  0  0  0  0  0  0  0  0  0
  147.1206  135.6045  158.3337 H   0  0  0  0  0  0  0  0  0  0  0  0
  147.9338  137.6872  157.8427 H   0  0  0  0  0  0  0  0  0  0  0  0
  147.8413  138.1248  159.5171 H   0  0  0  0  0  0  0  0  0  0  0  0
  149.0379  139.3824  158.0265 H   0  0  0  0  0  0  0  0  0  0  0  0
  152.0547  140.6668  159.7349 H   0  0  0  0  0  0  0  0  0  0  0  0
  152.8235  143.0062  159.5136 H   0  0  0  0  0  0  0  0  0  0  0  0
  151.6384  144.5283  157.8291 H   0  0  0  0  0  0  0  0  0  0  0  0
  147.0219  141.3740  157.5293 H   0  0  0  0  0  0  0  0  0  0  0  0
  147.4793  142.9502  156.8666 H   0  0  0  0  0  0  0  0  0  0  0  0
  146.3792  140.5533  155.3651 H   0  0  0  0  0  0  0  0  0  0  0  0
  145.8370  142.2314  155.2541 H   0  0  0  0  0  0  0  0  0  0  0  0
  147.5681  141.2878  153.3839 H   0  0  0  0  0  0  0  0  0  0  0  0
  147.8525  142.8798  154.0883 H   0  0  0  0  0  0  0  0  0  0  0  0
  149.9214  141.9530  154.6891 H   0  0  0  0  0  0  0  0  0  0  0  0
  149.2786  140.3070  154.7082 H   0  0  0  0  0  0  0  0  0  0  0  0
  145.7281  134.2990  159.9002 H   0  0  0  0  0  0  0  0  0  0  0  0
  147.0977  133.9607  160.9401 H   0  0  0  0  0  0  0  0  0  0  0  0
  144.5472  135.4661  161.7408 H   0  0  0  0  0  0  0  0  0  0  0  0
  144.2220  133.0014  161.6026 H   0  0  0  0  0  0  0  0  0  0  0  0
  144.1609  133.5596  163.2712 H   0  0  0  0  0  0  0  0  0  0  0  0
  145.6050  132.7516  162.6666 H   0  0  0  0  0  0  0  0  0  0  0  0
  146.1337  136.6396  160.2411 H   0  0  0  0  0  0  0  0  0  0  0  0
  149.9186  143.6600  156.5673 H   0  0  0  0  0  0  0  0  0  0  0  0
  1  2  1  0  0  0  0
  1 26  1  0  0  0  0
  1 27  1  0  0  0  0
  1 28  1  0  0  0  0
  2 25  1  0  0  0  0
  2  3  1  0  0  0  0
  2 29  1  0  0  0  0
  3  4  1  0  0  0  0
  3 30  1  0  0  0  0
  3 31  1  0  0  0  0
  4  5  1  0  0  0  0
  4 22  1  0  0  0  0
  4 54  1  0  0  0  0
  5  6  1  0  0  0  0
  5 32  1  0  0  0  0
  5 33  1  0  0  0  0
  6  7  1  0  0  0  0
  6 34  1  0  0  0  0
  6 35  1  0  0  0  0
  7  8  1  0  0  0  0
  8  9  2  0  0  0  0
  8 10  1  0  0  0  0
 10 11  1  0  0  0  0
 10 36  1  0  0  0  0
 11 16  1  0  0  0  0
 11 12  2  0  0  0  0
 12 13  1  0  0  0  0
 12 37  1  0  0  0  0
 13 14  2  0  0  0  0
 13 38  1  0  0  0  0
 14 15  1  0  0  0  0
 14 39  1  0  0  0  0
 15 16  2  0  0  0  0
 15 55  1  0  0  0  0
 16 17  1  0  0  0  0
 17 21  1  0  0  0  0
 17 18  1  0  0  0  0
 18 19  1  0  0  0  0
 18 40  1  0  0  0  0
 18 41  1  0  0  0  0
 19 20  1  0  0  0  0
 19 42  1  0  0  0  0
 19 43  1  0  0  0  0
 20 21  1  0  0  0  0
 20 44  1  0  0  0  0
 20 45  1  0  0  0  0
 21 46  1  0  0  0  0
 21 47  1  0  0  0  0
 22 23  1  0  0  0  0
 22 48  1  0  0  0  0
 22 49  1  0  0  0  0
 23 24  1  0  0  0  0
 23 25  1  0  0  0  0
 23 50  1  0  0  0  0
 24 51  1  0  0  0  0
 24 52  1  0  0  0  0
 24 53  1  0  0  0  0
M  CHG  1   4   1
M  CHG  1   7  -1
M  CHG  1  15   1
M  END
> <s_m_source_file>
AV-unprocessed.smi

> <i_m_source_file_index>
1244

> <i_lp_mmshare_version>
43012

> <i_f3d_flags>
0

> <s_epik_input>
W0NIM11bQ0BASF0xW0NIMl1OKFtDSDJdW0NASF0oTzEpW0NIM10pW0NIMl1bQ0gyXVtOSF1DKD1PKVtOSF1jMltjSF1bY0hdW2NIXW5jMk4zW0NIMl1bQ0gyXVtDSDJdW0NIMl0z

> <s_epik_cmdline>
J2VwaWtfcHl0aG9uJywgJy1waCcsICc3LjAnLCAnLXRuJywgJzgnLCAnLW1hJywgJzIwMCcsICctbWV0YWxfYmluZGluZycsICctaW1hZScsICc8aW5maWxlLm1hZT4nLCAnLW9tYWUnLCAnPG91dGZpbGUubWFlPic=

> <r_lp_tautomer_probability>
0.999994

> <r_epik_Ionization_Penalty>
8.60539

> <r_epik_Ionization_Penalty_Charging>
8.60539

> <r_epik_Ionization_Penalty_Neutral>
3.60441e-06

> <r_epik_State_Penalty>
8.59967

> <r_epik_Charging_Adjusted_Penalty>
17.2051

> <i_epik_Tot_Q>
1

> <i_epik_Tot_abs_Q>
3

> <r_epik_Metal_State_Penalty>
4.59489

> <b_epik_Metal_Only>
1

> <s_lp_Force_Field>
OPLS_2005

> <r_lp_Energy>
46.9863

> <b_lp_Chiralities_Consistent>
1

> <s_lp_Variant>
AV-unprocessed.smi:1244-15

> <Gold.Version>
5.8.1

> <Gold.Id.Protein>
6NUR|6NUR_protein|mol2

> <Gold.PLP.Fitness>
47.1544

> <Gold.PLP.PLP>
-42.5445

> <Gold.PLP.part.hbond>
-1.0000

> <Gold.PLP.part.metal>
0.0000

> <Gold.PLP.part.buried>
-6.3639

> <Gold.PLP.part.nonpolar>
-35.5870

> <Gold.PLP.part.repulsive>
0.3557

> <Gold.PLP.ligand.clash>
0.0000

> <Gold.PLP.ligand.torsion>
0.9387

> <Gold.PLP.Chemscore.Hbond>
2.0000

> <Gold.PLP.Chemscore.CHOScore>
0.0000

> <Gold.PLP.Chemscore.Metal>
0.0000

> <Gold.Chemscore.Hbonds>
donor molecule, donor type, donor heavy atom, donor atom, acceptor molecule, acceptor atom, score
      L1  H    15    55       P1  8028  2.00

> <Gold.PLP.Chemscore.Internal.Correction>
0.4873

> <Gold.Rescore>
     Score         DG    S(hbond)    S(metal)    S(lipo)     H(rot)  DE(clash)    DE(int)     intcor
     15.27     -17.61       0.98        0.00     110.71       1.60       0.01       2.33       ----

> <Gold.Chemscore.Fitness>
15.2734

> <Gold.Chemscore.DG>
-17.6121

> <Gold.Chemscore.ZeroCoef>
-5.4800

> <Gold.Chemscore.Hbond>
0.9788

> <Gold.Chemscore.Metal>
0.0000

> <Gold.Chemscore.Lipo>
110.7128

> <Gold.Chemscore.Internal_Hbond>
0.0000

> <Gold.Chemscore.DEClash>
0.0057

> <Gold.Chemscore.DEInternal>
2.3330

> <Gold.Chemscore.Rot>
1.5978

> <Gold.Chemscore.Internal.Correction>
   9.000000E+99

> <Gold.Chemscore.Hbonds>
donor molecule, donor type, donor heavy atom, donor atom, acceptor molecule, acceptor atom, score
      L1  H    15    55       P1  8028  1.00

> <Gold.Chemscore.Hbond.Weighted>
-3.2692

> <Gold.Chemscore.Metal.Weighted>
-0.0000

> <Gold.Chemscore.Lipo.Weighted>
-12.9534

> <Gold.Chemscore.Internal_Hbond.Weighted>
0.0000

> <Gold.Chemscore.DEClash.Weighted>
0.0057

> <Gold.Chemscore.DEInternal.Weighted>
2.3330

> <Gold.Chemscore.Rot.Weighted>
4.0905

> <Gold.Chemscore.Internal.Correction.Weighted>
   9.000000E+99

> <Gold.Protein.RotatedTorsions>
[ 6907 6896 6895 6894 ] final  107.89 input  -60.11 | X-H torsion
[ 7974 7965 7964 7962 ] final  113.46 input  175.53 | X-H torsion
[ 8008 7997 7996 7995 ] final -148.54 input   59.86 | X-H torsion
[ 10167 10162 10161 10158 ] final   66.22 input  -65.29 | X-H torsion
[ 10718 10713 10712 10709 ] final   57.83 input   66.30 | X-H torsion
[ 10763 10752 10751 10750 ] final    9.65 input  -60.55 | X-H torsion
[ 11005 11000 10999 10996 ] final   41.04 input  -57.11 | X-H torsion

> <Gold.Protein.ActiveResidues>
 VAL166  LYS551  ARG553  GLY616  TRP617  ASP618  TYR619  PRO620  LYS621  CYS622 
 ASP623  PHE694  ASN695  SER759  ASP760  ASP761  ALA762  ILE779  LEU786  VAL792 
 PHE793  MET794  SER795  GLU796  ALA797  LYS798  CYS799  TRP800  GLU811  SER814 

> <Gold.Protein.RotatedAtoms>
  152.5136  133.9169  159.7515 H   0  0  0  0  0  0  0  0  0  0  0  0  # atno 6907 bound_to 6896
  150.9550  133.6499  159.2772 H   0  0  0  0  0  0  0  0  0  0  0  0  # atno 6908 bound_to 6896
  151.3764  135.0937  159.9535 H   0  0  0  0  0  0  0  0  0  0  0  0  # atno 6909 bound_to 6896
  145.2167  139.2881  143.4240 H   0  0  0  0  0  0  0  0  0  0  0  0  # atno 7974 bound_to 7965
  155.5933  140.0655  157.2753 H   0  0  0  0  0  0  0  0  0  0  0  0  # atno 8008 bound_to 7997
  154.4299  140.1831  156.1144 H   0  0  0  0  0  0  0  0  0  0  0  0  # atno 8009 bound_to 7997
  156.0216  140.3316  155.7048 H   0  0  0  0  0  0  0  0  0  0  0  0  # atno 8010 bound_to 7997
  140.1028  144.4889  150.7027 H   0  0  0  0  0  0  0  0  0  0  0  0  # atno 10167 bound_to 10162
  157.5547  130.8791  149.9017 H   0  0  0  0  0  0  0  0  0  0  0  0  # atno 10718 bound_to 10713
  153.2117  135.6870  153.8106 H   0  0  0  0  0  0  0  0  0  0  0  0  # atno 10763 bound_to 10752
  153.7336  135.3249  155.3291 H   0  0  0  0  0  0  0  0  0  0  0  0  # atno 10764 bound_to 10752
  154.8225  135.4641  154.0927 H   0  0  0  0  0  0  0  0  0  0  0  0  # atno 10765 bound_to 10752
  140.1873  134.4030  155.8166 H   0  0  0  0  0  0  0  0  0  0  0  0  # atno 11005 bound_to 11000
  146.3385  140.2459  142.8597 LP  0  0  0  0  0  0  0  0  0  0  0  0  # atno 17320 bound_to 7965
  144.9804  140.8454  143.5400 LP  0  0  0  0  0  0  0  0  0  0  0  0  # atno 17321 bound_to 7965
  140.6969  143.2409  151.4976 LP  0  0  0  0  0  0  0  0  0  0  0  0  # atno 17342 bound_to 10162
  139.5662  144.2037  152.1768 LP  0  0  0  0  0  0  0  0  0  0  0  0  # atno 17343 bound_to 10162
  156.0608  130.3700  150.0987 LP  0  0  0  0  0  0  0  0  0  0  0  0  # atno 17370 bound_to 10713
  156.9157  130.9666  151.3556 LP  0  0  0  0  0  0  0  0  0  0  0  0  # atno 17371 bound_to 10713
  141.2225  133.7029  156.8034 LP  0  0  0  0  0  0  0  0  0  0  0  0  # atno 17394 bound_to 11000
  140.2200  134.8764  157.3366 LP  0  0  0  0  0  0  0  0  0  0  0  0  # atno 17395 bound_to 11000

$$$$
