AV-unprocessed.smi:2505|AV-procd|sdf|9860|dock4
  -GOLD-   2272013493D 1   1.00000     0.00000
 Structure written by MMmdl.
 48 52  0  0  0  0  0  0  0  0  1 V2000
  141.1444  137.1191  153.9132 O   0  0  0  0  0  0  0  0  0  0  0  0
  141.8761  137.9897  153.4483 C   0  0  0  0  0  0  0  0  0  0  0  0
  142.9290  137.7600  152.6418 N   0  0  0  0  0  0  0  0  0  0  0  0
  143.5427  136.5250  152.3024 C   0  0  0  0  0  0  0  0  0  0  0  0
  144.8011  136.3792  151.6676 C   0  0  0  0  0  0  0  0  0  0  0  0
  145.3047  135.1637  151.3630 N   0  0  0  0  0  0  0  0  0  0  0  0
  144.5571  134.1014  151.6735 C   0  0  0  0  0  0  0  0  0  0  0  0
  145.1432  132.7566  151.3740 C   0  0  0  0  0  0  0  0  0  0  0  0
  145.7269  132.4504  150.0097 C   0  0  0  0  0  0  0  0  0  0  0  0
  144.4421  131.7963  150.4353 C   0  0  0  0  0  0  0  0  0  0  0  0
  143.3633  134.1161  152.2729 N   0  0  0  0  0  0  0  0  0  0  0  0
  142.8521  135.3271  152.5811 C   0  0  0  0  0  0  0  0  0  0  0  0
  141.6548  139.2910  153.6998 N   0  0  0  0  0  0  0  0  0  0  0  0
  140.6036  139.8836  154.5287 C   0  0  1  0  0  0  0  0  0  0  0  0
  140.1468  141.2337  153.9754 C   0  0  2  0  0  0  0  0  0  0  0  0
  140.2742  142.6427  154.4325 C   0  0  0  0  0  0  0  0  0  0  0  0
  138.8028  143.0756  154.2001 C   0  0  0  0  0  0  0  0  0  0  0  0
  138.0680  141.8568  153.9298 O   0  0  0  0  0  0  0  0  0  0  0  0
  138.8161  140.8536  154.5871 C   0  0  1  0  0  0  0  0  0  0  0  0
  139.1385  139.3986  154.1894 C   0  0  0  0  0  0  0  0  0  0  0  0
  138.7900  138.9336  152.7636 C   0  0  0  0  0  0  0  0  0  0  0  0
  138.6401  137.4164  152.8146 C   0  0  0  0  0  0  0  0  0  0  0  0
  138.0626  137.1440  154.1978 C   0  0  0  0  0  0  0  0  0  0  0  0
  138.5364  138.3037  155.0817 C   0  0  0  0  0  0  0  0  0  0  0  0
  143.3774  138.5815  152.2628 H   0  0  0  0  0  0  0  0  0  0  0  0
  145.4163  137.2166  151.3803 H   0  0  0  0  0  0  0  0  0  0  0  0
  145.6431  132.3402  152.2464 H   0  0  0  0  0  0  0  0  0  0  0  0
  145.6657  133.2226  149.2451 H   0  0  0  0  0  0  0  0  0  0  0  0
  146.6208  131.8312  149.9754 H   0  0  0  0  0  0  0  0  0  0  0  0
  144.4751  130.7380  150.6856 H   0  0  0  0  0  0  0  0  0  0  0  0
  143.5258  132.1330  149.9541 H   0  0  0  0  0  0  0  0  0  0  0  0
  141.8819  135.3383  153.0560 H   0  0  0  0  0  0  0  0  0  0  0  0
  142.2752  139.9465  153.2470 H   0  0  0  0  0  0  0  0  0  0  0  0
  140.8372  139.9139  155.5970 H   0  0  0  0  0  0  0  0  0  0  0  0
  140.1249  141.2083  152.8816 H   0  0  0  0  0  0  0  0  0  0  0  0
  140.5583  142.7065  155.4837 H   0  0  0  0  0  0  0  0  0  0  0  0
  140.9805  143.2202  153.8355 H   0  0  0  0  0  0  0  0  0  0  0  0
  138.4008  143.5767  155.0814 H   0  0  0  0  0  0  0  0  0  0  0  0
  138.7074  143.7534  153.3514 H   0  0  0  0  0  0  0  0  0  0  0  0
  138.7719  140.9859  155.6744 H   0  0  0  0  0  0  0  0  0  0  0  0
  137.8436  139.3781  152.4528 H   0  0  0  0  0  0  0  0  0  0  0  0
  139.5292  139.2198  152.0155 H   0  0  0  0  0  0  0  0  0  0  0  0
  138.0131  137.0275  152.0119 H   0  0  0  0  0  0  0  0  0  0  0  0
  139.6198  136.9460  152.7271 H   0  0  0  0  0  0  0  0  0  0  0  0
  136.9732  137.1474  154.1458 H   0  0  0  0  0  0  0  0  0  0  0  0
  138.3703  136.1728  154.5867 H   0  0  0  0  0  0  0  0  0  0  0  0
  139.2678  137.9459  155.8056 H   0  0  0  0  0  0  0  0  0  0  0  0
  137.6989  138.6867  155.6661 H   0  0  0  0  0  0  0  0  0  0  0  0
  1  2  2  0  0  0  0
  2  3  1  0  0  0  0
  2 13  1  0  0  0  0
  3  4  1  0  0  0  0
  3 25  1  0  0  0  0
  4 12  1  0  0  0  0
  4  5  2  0  0  0  0
  5  6  1  0  0  0  0
  5 26  1  0  0  0  0
  6  7  2  0  0  0  0
  7  8  1  0  0  0  0
  7 11  1  0  0  0  0
  8 10  1  0  0  0  0
  8  9  1  0  0  0  0
  8 27  1  0  0  0  0
  9 10  1  0  0  0  0
  9 28  1  0  0  0  0
  9 29  1  0  0  0  0
 10 30  1  0  0  0  0
 10 31  1  0  0  0  0
 11 12  2  0  0  0  0
 12 32  1  0  0  0  0
 13 14  1  0  0  0  0
 13 33  1  0  0  0  0
 14 20  1  0  0  0  0
 14 15  1  0  0  0  0
 14 34  1  0  0  0  0
 15 19  1  0  0  0  0
 15 16  1  0  0  0  0
 15 35  1  0  0  0  0
 16 17  1  0  0  0  0
 16 36  1  0  0  0  0
 16 37  1  0  0  0  0
 17 18  1  0  0  0  0
 17 38  1  0  0  0  0
 17 39  1  0  0  0  0
 18 19  1  0  0  0  0
 19 20  1  0  0  0  0
 19 40  1  0  0  0  0
 20 24  1  0  0  0  0
 20 21  1  0  0  0  0
 21 22  1  0  0  0  0
 21 41  1  0  0  0  0
 21 42  1  0  0  0  0
 22 23  1  0  0  0  0
 22 43  1  0  0  0  0
 22 44  1  0  0  0  0
 23 24  1  0  0  0  0
 23 45  1  0  0  0  0
 23 46  1  0  0  0  0
 24 47  1  0  0  0  0
 24 48  1  0  0  0  0
M  END
> <s_m_source_file>
AV-unprocessed.smi

> <i_m_source_file_index>
2505

> <i_lp_mmshare_version>
43012

> <i_f3d_flags>
0

> <s_epik_input>
W0NIMl0xW0NIMl1bQ0hdMWMobltjSF0yKW5bY0hdYzJbTkhdQyg9TylbTkhdW0NAQEhdM1tDQEBIXShbQ0gyXVtDSDJdTzQpW0NASF00QzM1W0NIMl1bQ0gyXVtDSDJdW0NIMl01

> <s_epik_cmdline>
J2VwaWtfcHl0aG9uJywgJy1waCcsICc3LjAnLCAnLXRuJywgJzgnLCAnLW1hJywgJzIwMCcsICctbWV0YWxfYmluZGluZycsICctaW1hZScsICc8aW5maWxlLm1hZT4nLCAnLW9tYWUnLCAnPG91dGZpbGUubWFlPic=

> <r_lp_tautomer_probability>
1

> <r_epik_Ionization_Penalty>
2.6075e-05

> <r_epik_Ionization_Penalty_Charging>
0

> <r_epik_Ionization_Penalty_Neutral>
2.6075e-05

> <r_epik_State_Penalty>
-0

> <r_epik_Charging_Adjusted_Penalty>
0

> <i_epik_Tot_Q>
0

> <i_epik_Tot_abs_Q>
0

> <r_epik_Metal_State_Penalty>
-0

> <b_epik_Metal_Only>
0

> <s_lp_Force_Field>
OPLS_2005

> <r_lp_Energy>
84.9225

> <b_lp_Chiralities_Consistent>
1

> <s_lp_Variant>
AV-unprocessed.smi:2505-8

> <Gold.Version>
5.8.1

> <Gold.Id.Protein>
6NUR|6NUR_protein|mol2

> <Gold.PLP.Fitness>
43.4773

> <Gold.PLP.PLP>
-36.4689

> <Gold.PLP.part.hbond>
-2.6362

> <Gold.PLP.part.metal>
0.0000

> <Gold.PLP.part.buried>
-5.1969

> <Gold.PLP.part.nonpolar>
-29.7971

> <Gold.PLP.part.repulsive>
0.5099

> <Gold.PLP.ligand.clash>
0.0000

> <Gold.PLP.ligand.torsion>
0.3807

> <Gold.PLP.Chemscore.Hbond>
1.9120

> <Gold.PLP.Chemscore.CHOScore>
0.5442

> <Gold.PLP.Chemscore.Metal>
0.0000

> <Gold.Chemscore.Hbonds>
donor molecule, donor type, donor heavy atom, donor atom, acceptor molecule, acceptor atom, score
      L1  H     3    25       P1 10175  0.91
      L1  H    13    33       P1 10175  1.00
      L1  C     5    26       P1 10171  0.40

> <Gold.PLP.Chemscore.Internal.Correction>
0.4013

> <Gold.Rescore>
     Score         DG    S(hbond)    S(metal)    S(lipo)     H(rot)  DE(clash)    DE(int)     intcor
     17.28     -19.21       1.86        0.00      90.01       1.17       0.16       1.77       ----

> <Gold.Chemscore.Fitness>
17.2763

> <Gold.Chemscore.DG>
-19.2084

> <Gold.Chemscore.ZeroCoef>
-5.4800

> <Gold.Chemscore.Hbond>
1.8575

> <Gold.Chemscore.Metal>
0.0000

> <Gold.Chemscore.Lipo>
90.0068

> <Gold.Chemscore.Internal_Hbond>
0.0000

> <Gold.Chemscore.DEClash>
0.1643

> <Gold.Chemscore.DEInternal>
1.7679

> <Gold.Chemscore.Rot>
1.1744

> <Gold.Chemscore.Internal.Correction>
   9.000000E+99

> <Gold.Chemscore.Hbonds>
donor molecule, donor type, donor heavy atom, donor atom, acceptor molecule, acceptor atom, score
      L1  H     3    25       P1 10175  0.90
      L1  H    13    33       P1 10175  0.73

> <Gold.Chemscore.Hbond.Weighted>
-6.2041

> <Gold.Chemscore.Metal.Weighted>
-0.0000

> <Gold.Chemscore.Lipo.Weighted>
-10.5308

> <Gold.Chemscore.Internal_Hbond.Weighted>
0.0000

> <Gold.Chemscore.DEClash.Weighted>
0.1643

> <Gold.Chemscore.DEInternal.Weighted>
1.7679

> <Gold.Chemscore.Rot.Weighted>
3.0064

> <Gold.Chemscore.Internal.Correction.Weighted>
   9.000000E+99

> <Gold.Protein.RotatedTorsions>
[ 6907 6896 6895 6894 ] final  -47.27 input  -60.11 | X-H torsion
[ 7974 7965 7964 7962 ] final -140.20 input  175.53 | X-H torsion
[ 8008 7997 7996 7995 ] final   74.31 input   59.86 | X-H torsion
[ 10167 10162 10161 10158 ] final  140.06 input  -65.29 | X-H torsion
[ 10718 10713 10712 10709 ] final  111.04 input   66.30 | X-H torsion
[ 10763 10752 10751 10750 ] final   63.73 input  -60.55 | X-H torsion
[ 11005 11000 10999 10996 ] final   34.34 input  -57.11 | X-H torsion

> <Gold.Protein.ActiveResidues>
 VAL166  LYS551  ARG553  GLY616  TRP617  ASP618  TYR619  PRO620  LYS621  CYS622 
 ASP623  PHE694  ASN695  SER759  ASP760  ASP761  ALA762  ILE779  LEU786  VAL792 
 PHE793  MET794  SER795  GLU796  ALA797  LYS798  CYS799  TRP800  GLU811  SER814 

> <Gold.Protein.RotatedAtoms>
  150.9025  134.8438  159.7369 H   0  0  0  0  0  0  0  0  0  0  0  0  # atno 6907 bound_to 6896
  152.4900  134.4481  159.9575 H   0  0  0  0  0  0  0  0  0  0  0  0  # atno 6908 bound_to 6896
  151.4531  133.3573  159.2833 H   0  0  0  0  0  0  0  0  0  0  0  0  # atno 6909 bound_to 6896
  144.8616  140.6228  143.5325 H   0  0  0  0  0  0  0  0  0  0  0  0  # atno 7974 bound_to 7965
  155.7964  140.3477  155.5378 H   0  0  0  0  0  0  0  0  0  0  0  0  # atno 8008 bound_to 7997
  155.8582  140.0967  157.1651 H   0  0  0  0  0  0  0  0  0  0  0  0  # atno 8009 bound_to 7997
  154.4010  140.1363  156.3915 H   0  0  0  0  0  0  0  0  0  0  0  0  # atno 8010 bound_to 7997
  139.5060  144.6257  151.5942 H   0  0  0  0  0  0  0  0  0  0  0  0  # atno 10167 bound_to 10162
  157.6465  131.0943  150.6690 H   0  0  0  0  0  0  0  0  0  0  0  0  # atno 10718 bound_to 10713
  153.0029  135.5418  154.6398 H   0  0  0  0  0  0  0  0  0  0  0  0  # atno 10763 bound_to 10752
  154.5656  135.2837  155.0879 H   0  0  0  0  0  0  0  0  0  0  0  0  # atno 10764 bound_to 10752
  154.2065  135.6475  153.5155 H   0  0  0  0  0  0  0  0  0  0  0  0  # atno 10765 bound_to 10752
  140.2539  134.3271  155.7881 H   0  0  0  0  0  0  0  0  0  0  0  0  # atno 11005 bound_to 11000
  145.4302  139.1550  143.4026 LP  0  0  0  0  0  0  0  0  0  0  0  0  # atno 17320 bound_to 7965
  146.2864  140.4417  142.8756 LP  0  0  0  0  0  0  0  0  0  0  0  0  # atno 17321 bound_to 7965
  140.5973  143.9672  150.6363 LP  0  0  0  0  0  0  0  0  0  0  0  0  # atno 17342 bound_to 10162
  140.2873  143.3348  152.1096 LP  0  0  0  0  0  0  0  0  0  0  0  0  # atno 17343 bound_to 10162
  156.7006  130.4622  149.5574 LP  0  0  0  0  0  0  0  0  0  0  0  0  # atno 17370 bound_to 10713
  156.1798  130.6491  151.0937 LP  0  0  0  0  0  0  0  0  0  0  0  0  # atno 17371 bound_to 10713
  141.2198  133.7369  156.9080 LP  0  0  0  0  0  0  0  0  0  0  0  0  # atno 17394 bound_to 11000
  140.1531  134.9217  157.2618 LP  0  0  0  0  0  0  0  0  0  0  0  0  # atno 17395 bound_to 11000

$$$$
