AV-unprocessed.smi:158|AV-procd|sdf|1330|dock4
  -GOLD-   2262019 23D 1   1.00000     0.00000
 Structure written by MMmdl.
 31 33  0  0  0  0  0  0  0  0  1 V2000
  145.0083  135.5112  150.0320 N   0  0  0  0  0  0  0  0  0  0  0  0
  144.9354  136.0392  151.2616 C   0  0  0  0  0  0  0  0  0  0  0  0
  144.1028  135.4668  152.1619 N   0  0  0  0  0  0  0  0  0  0  0  0
  144.0031  135.9620  153.4020 C   0  0  0  0  0  0  0  0  0  0  0  0
  142.9129  135.1528  154.4648 Cl  0  0  0  0  0  0  0  0  0  0  0  0
  144.6530  137.0152  153.9098 N   0  0  0  0  0  0  0  0  0  0  0  0
  145.4900  137.5962  153.0023 C   0  0  0  0  0  0  0  0  0  0  0  0
  145.6903  137.1678  151.6639 C   0  0  0  0  0  0  0  0  0  0  0  0
  146.6200  137.9875  151.0396 N   0  0  0  0  0  0  0  0  0  0  0  0
  146.9499  138.8490  151.9648 C   0  0  0  0  0  0  0  0  0  0  0  0
  146.3008  138.6974  153.1735 N   0  0  0  0  0  0  0  0  0  0  0  0
  146.4369  139.4918  154.4370 C   0  0  1  0  0  0  0  0  0  0  0  0
  147.6335  139.1148  155.0601 O   0  0  0  0  0  0  0  0  0  0  0  0
  148.6203  140.1478  154.9529 C   0  0  1  0  0  0  0  0  0  0  0  0
  149.9969  139.5542  154.6137 C   0  0  0  0  0  0  0  0  0  0  0  0
  149.8927  138.7002  153.4954 O   0  0  0  0  0  0  0  0  0  0  0  0
  148.0714  141.0786  153.8681 C   0  0  2  0  0  0  0  0  0  0  0  0
  148.5317  142.4114  153.9724 O   0  0  0  0  0  0  0  0  0  0  0  0
  146.5770  140.9784  154.1056 C   0  0  2  0  0  0  0  0  0  0  0  0
  146.2004  141.6739  155.1814 F   0  0  0  0  0  0  0  0  0  0  0  0
  145.5539  139.2323  155.0226 H   0  0  0  0  0  0  0  0  0  0  0  0
  148.6544  140.6859  155.9024 H   0  0  0  0  0  0  0  0  0  0  0  0
  148.3130  140.6916  152.8768 H   0  0  0  0  0  0  0  0  0  0  0  0
  145.9611  141.2889  153.2613 H   0  0  0  0  0  0  0  0  0  0  0  0
  145.6242  135.9219  149.3449 H   0  0  0  0  0  0  0  0  0  0  0  0
  144.4490  134.7045  149.7946 H   0  0  0  0  0  0  0  0  0  0  0  0
  147.6843  139.6182  151.7815 H   0  0  0  0  0  0  0  0  0  0  0  0
  150.7394  140.3299  154.4315 H   0  0  0  0  0  0  0  0  0  0  0  0
  150.3596  138.9536  155.4483 H   0  0  0  0  0  0  0  0  0  0  0  0
  149.6639  139.2195  152.7397 H   0  0  0  0  0  0  0  0  0  0  0  0
  148.4718  142.6814  154.8759 H   0  0  0  0  0  0  0  0  0  0  0  0
  1  2  1  0  0  0  0
  1 25  1  0  0  0  0
  1 26  1  0  0  0  0
  2  8  1  0  0  0  0
  2  3  2  0  0  0  0
  3  4  1  0  0  0  0
  4  5  1  0  0  0  0
  4  6  2  0  0  0  0
  6  7  1  0  0  0  0
  7 11  1  0  0  0  0
  7  8  2  0  0  0  0
  8  9  1  0  0  0  0
  9 10  2  0  0  0  0
 10 11  1  0  0  0  0
 10 27  1  0  0  0  0
 11 12  1  0  0  0  0
 12 21  1  0  0  0  0
 12 19  1  0  0  0  0
 12 13  1  0  0  0  0
 13 14  1  0  0  0  0
 14 22  1  0  0  0  0
 14 15  1  0  0  0  0
 14 17  1  0  0  0  0
 15 16  1  0  0  0  0
 15 28  1  0  0  0  0
 15 29  1  0  0  0  0
 16 30  1  0  0  0  0
 17 23  1  0  0  0  0
 17 18  1  0  0  0  0
 17 19  1  0  0  0  0
 18 31  1  0  0  0  0
 19 24  1  0  0  0  0
 19 20  1  0  0  0  0
M  END
> <s_m_source_file>
AV-unprocessed.smi

> <i_m_source_file_index>
158

> <i_lp_mmshare_version>
43012

> <i_f3d_flags>
0

> <s_epik_input>
Q2xjKG4xKW5jKFtOSDJdKWMoYzEyKW5bY0hdbjJbQ0BASF0zT1tDQEhdKFtDSDJdW09IXSlbQ0BASF0oW09IXSlbQ0BASF0zRg==

> <s_epik_cmdline>
J2VwaWtfcHl0aG9uJywgJy1waCcsICc3LjAnLCAnLXRuJywgJzgnLCAnLW1hJywgJzIwMCcsICctbWV0YWxfYmluZGluZycsICctaW1hZScsICc8aW5maWxlLm1hZT4nLCAnLW9tYWUnLCAnPG91dGZpbGUubWFlPic=

> <r_lp_tautomer_probability>
1

> <r_epik_Ionization_Penalty>
6.51543e-05

> <r_epik_Ionization_Penalty_Charging>
0

> <r_epik_Ionization_Penalty_Neutral>
6.51543e-05

> <r_epik_State_Penalty>
-0

> <r_epik_Charging_Adjusted_Penalty>
0

> <i_epik_Tot_Q>
0

> <i_epik_Tot_abs_Q>
0

> <r_epik_Metal_State_Penalty>
-0

> <b_epik_Metal_Only>
0

> <s_epik_Chemistry_Notes>
This compound contains an acetal/aminal-like group ( X-CH(R)-Y where X, Y are N, S, or O) that may be acid/base labile, releasing an aldehyde.

> <s_lp_Force_Field>
OPLS_2005

> <r_lp_Energy>
30.2805

> <b_lp_Chiralities_Consistent>
1

> <s_lp_Variant>
AV-unprocessed.smi:158-8

> <Gold.Version>
5.8.1

> <Gold.Id.Protein>
6NUR|6NUR_protein|mol2

> <Gold.PLP.Fitness>
37.1795

> <Gold.PLP.PLP>
-26.7031

> <Gold.PLP.part.hbond>
-6.2392

> <Gold.PLP.part.metal>
0.0000

> <Gold.PLP.part.buried>
-0.2092

> <Gold.PLP.part.nonpolar>
-24.1756

> <Gold.PLP.part.repulsive>
1.9959

> <Gold.PLP.ligand.clash>
0.0000

> <Gold.PLP.ligand.torsion>
0.5504

> <Gold.PLP.Chemscore.Hbond>
2.8499

> <Gold.PLP.Chemscore.CHOScore>
1.0000

> <Gold.PLP.Chemscore.Metal>
0.0000

> <Gold.Chemscore.Hbonds>
donor molecule, donor type, donor heavy atom, donor atom, acceptor molecule, acceptor atom, score
      L1  H     1    25       P1  7921  0.36
      L1  H    16    30       P1  7957  1.00
      L1  H    18    31       P1  8028  0.28
      P1  H  7954  7966       L1     9  1.00
      P1  H  8011  8017       L1    18  0.17
      P1  H  8022  8030       L1    18  0.02
      L1  C    10    27       P1  7957  1.00

> <Gold.PLP.Chemscore.Internal.Correction>
0.0276

> <Gold.Rescore>
     Score         DG    S(hbond)    S(metal)    S(lipo)     H(rot)  DE(clash)    DE(int)     intcor
      7.41      -9.43       2.35        0.00      34.96       3.12       1.57       0.46       ----

> <Gold.Chemscore.Fitness>
7.4096

> <Gold.Chemscore.DG>
-9.4328

> <Gold.Chemscore.ZeroCoef>
-5.4800

> <Gold.Chemscore.Hbond>
2.3526

> <Gold.Chemscore.Metal>
0.0000

> <Gold.Chemscore.Lipo>
34.9568

> <Gold.Chemscore.Internal_Hbond>
0.0000

> <Gold.Chemscore.DEClash>
1.5656

> <Gold.Chemscore.DEInternal>
0.4576

> <Gold.Chemscore.Rot>
3.1230

> <Gold.Chemscore.Internal.Correction>
   9.000000E+99

> <Gold.Chemscore.Hbonds>
donor molecule, donor type, donor heavy atom, donor atom, acceptor molecule, acceptor atom, score
      L1  H     1    25       P1  7921  0.34
      L1  H    16    30       P1  7957  0.98
      L1  H    18    31       P1  8028  0.28
      P1  H  7954  7966       L1     9  0.50
      P1  H  8011  8017       L1    18  0.04

> <Gold.Chemscore.Hbond.Weighted>
-7.8578

> <Gold.Chemscore.Metal.Weighted>
-0.0000

> <Gold.Chemscore.Lipo.Weighted>
-4.0899

> <Gold.Chemscore.Internal_Hbond.Weighted>
0.0000

> <Gold.Chemscore.DEClash.Weighted>
1.5656

> <Gold.Chemscore.DEInternal.Weighted>
0.4576

> <Gold.Chemscore.Rot.Weighted>
7.9950

> <Gold.Chemscore.Internal.Correction.Weighted>
   9.000000E+99

> <Gold.Protein.RotatedTorsions>
[ 6907 6896 6895 6894 ] final    6.39 input  -60.11 | X-H torsion
[ 7974 7965 7964 7962 ] final -117.51 input  175.53 | X-H torsion
[ 8008 7997 7996 7995 ] final  108.80 input   59.86 | X-H torsion
[ 10167 10162 10161 10158 ] final   56.38 input  -65.29 | X-H torsion
[ 10718 10713 10712 10709 ] final -124.77 input   66.30 | X-H torsion
[ 10763 10752 10751 10750 ] final  -95.81 input  -60.55 | X-H torsion
[ 11005 11000 10999 10996 ] final -135.07 input  -57.11 | X-H torsion

> <Gold.Protein.ActiveResidues>
 VAL166  LYS551  ARG553  GLY616  TRP617  ASP618  TYR619  PRO620  LYS621  CYS622 
 ASP623  PHE694  ASN695  SER759  ASP760  ASP761  ALA762  ILE779  LEU786  VAL792 
 PHE793  MET794  SER795  GLU796  ALA797  LYS798  CYS799  TRP800  GLU811  SER814 

> <Gold.Protein.RotatedAtoms>
  151.6730  135.0973  160.0201 H   0  0  0  0  0  0  0  0  0  0  0  0  # atno 6907 bound_to 6896
  152.3880  133.6634  159.6223 H   0  0  0  0  0  0  0  0  0  0  0  0  # atno 6908 bound_to 6896
  150.7802  133.8919  159.3357 H   0  0  0  0  0  0  0  0  0  0  0  0  # atno 6909 bound_to 6896
  145.0843  140.8447  143.4020 H   0  0  0  0  0  0  0  0  0  0  0  0  # atno 7974 bound_to 7965
  156.1930  140.3070  155.9371 H   0  0  0  0  0  0  0  0  0  0  0  0  # atno 8008 bound_to 7997
  155.3129  140.0452  157.3053 H   0  0  0  0  0  0  0  0  0  0  0  0  # atno 8009 bound_to 7997
  154.5476  140.2281  155.8547 H   0  0  0  0  0  0  0  0  0  0  0  0  # atno 8010 bound_to 7997
  140.2094  144.3905  150.6495 H   0  0  0  0  0  0  0  0  0  0  0  0  # atno 10167 bound_to 10162
  156.1617  130.6606  151.0058 H   0  0  0  0  0  0  0  0  0  0  0  0  # atno 10718 bound_to 10713
  154.7182  135.5107  153.8771 H   0  0  0  0  0  0  0  0  0  0  0  0  # atno 10763 bound_to 10752
  153.0839  135.6639  153.9997 H   0  0  0  0  0  0  0  0  0  0  0  0  # atno 10764 bound_to 10752
  153.9826  135.3027  155.3398 H   0  0  0  0  0  0  0  0  0  0  0  0  # atno 10765 bound_to 10752
  140.8932  134.1785  157.4513 H   0  0  0  0  0  0  0  0  0  0  0  0  # atno 11005 bound_to 11000
  145.1140  139.2737  143.5622 LP  0  0  0  0  0  0  0  0  0  0  0  0  # atno 17320 bound_to 7965
  146.3531  140.0745  142.8621 LP  0  0  0  0  0  0  0  0  0  0  0  0  # atno 17321 bound_to 7965
  140.6334  143.2191  151.6446 LP  0  0  0  0  0  0  0  0  0  0  0  0  # atno 17342 bound_to 10162
  139.5186  144.3280  152.0852 LP  0  0  0  0  0  0  0  0  0  0  0  0  # atno 17343 bound_to 10162
  157.6737  131.0855  150.7548 LP  0  0  0  0  0  0  0  0  0  0  0  0  # atno 17370 bound_to 10713
  156.7610  130.4798  149.5437 LP  0  0  0  0  0  0  0  0  0  0  0  0  # atno 17371 bound_to 10713
  139.8732  134.9867  156.5336 LP  0  0  0  0  0  0  0  0  0  0  0  0  # atno 17394 bound_to 11000
  140.8322  133.8270  155.8994 LP  0  0  0  0  0  0  0  0  0  0  0  0  # atno 17395 bound_to 11000

$$$$
