AV-unprocessed.smi:1824|AV-procd|sdf|7405|dock4
  -GOLD-   22720 9 83D 1   1.00000     0.00000
 Structure written by MMmdl.
 45 47  0  0  0  0  0  0  0  0  2 V2000
  146.0850  134.1842  154.9309 C   0  0  0  0  0  0  0  0  0  0  0  0
  146.4191  134.9015  153.6185 C   0  0  2  0  0  0  0  0  0  0  0  0
  146.3997  136.4342  153.7722 C   0  0  0  0  0  0  0  0  0  0  0  0
  146.6526  137.0881  152.4647 N   0  3  2  0  0  0  0  0  0  0  0  0
  146.7105  138.5705  152.5396 C   0  0  0  0  0  0  0  0  0  0  0  0
  147.6309  139.0670  153.6718 C   0  0  1  0  0  0  0  0  0  0  0  0
  148.9124  138.4914  153.4999 O   0  0  0  0  0  0  0  0  0  0  0  0
  147.7546  140.6030  153.6802 C   0  0  0  0  0  0  0  0  0  0  0  0
  146.7465  141.2366  154.5120 N   0  0  0  0  0  0  0  0  0  0  0  0
  146.2985  140.8092  155.7082 C   0  0  0  0  0  0  0  0  0  0  0  0
  145.3700  141.5464  156.3104 N   0  0  0  0  0  0  0  0  0  0  0  0
  145.1925  142.5730  155.3988 C   0  0  0  0  0  0  0  0  0  0  0  0
  144.3394  143.6987  155.4395 C   0  0  0  0  0  0  0  0  0  0  0  0
  144.3311  144.6284  154.3790 C   0  0  0  0  0  0  0  0  0  0  0  0
  143.5084  145.7027  154.4349 F   0  0  0  0  0  0  0  0  0  0  0  0
  145.1740  144.4459  153.2627 C   0  0  0  0  0  0  0  0  0  0  0  0
  145.1601  145.3431  152.2487 F   0  0  0  0  0  0  0  0  0  0  0  0
  146.0323  143.3314  153.1995 C   0  0  0  0  0  0  0  0  0  0  0  0
  146.0380  142.4072  154.2604 C   0  0  0  0  0  0  0  0  0  0  0  0
  145.6845  136.6054  151.4523 C   0  0  0  0  0  0  0  0  0  0  0  0
  145.7227  135.0682  151.3600 C   0  0  2  0  0  0  0  0  0  0  0  0
  144.6819  134.5210  150.3769 C   0  0  0  0  0  0  0  0  0  0  0  0
  145.4525  134.5198  152.6455 O   0  0  0  0  0  0  0  0  0  0  0  0
  146.8034  134.4373  155.7109 H   0  0  0  0  0  0  0  0  0  0  0  0
  146.1054  133.1020  154.7997 H   0  0  0  0  0  0  0  0  0  0  0  0
  145.0917  134.4567  155.2886 H   0  0  0  0  0  0  0  0  0  0  0  0
  147.4082  134.5775  153.2894 H   0  0  0  0  0  0  0  0  0  0  0  0
  145.4342  136.7606  154.1621 H   0  0  0  0  0  0  0  0  0  0  0  0
  147.1542  136.7336  154.4991 H   0  0  0  0  0  0  0  0  0  0  0  0
  147.0763  138.9740  151.5938 H   0  0  0  0  0  0  0  0  0  0  0  0
  145.7002  138.9634  152.6649 H   0  0  0  0  0  0  0  0  0  0  0  0
  147.2448  138.7483  154.6395 H   0  0  0  0  0  0  0  0  0  0  0  0
  149.2629  138.7731  152.6684 H   0  0  0  0  0  0  0  0  0  0  0  0
  148.7410  140.9090  154.0312 H   0  0  0  0  0  0  0  0  0  0  0  0
  147.6521  140.9929  152.6665 H   0  0  0  0  0  0  0  0  0  0  0  0
  146.6778  139.9064  156.1646 H   0  0  0  0  0  0  0  0  0  0  0  0
  143.6899  143.8492  156.2889 H   0  0  0  0  0  0  0  0  0  0  0  0
  146.6788  143.1915  152.3463 H   0  0  0  0  0  0  0  0  0  0  0  0
  144.6815  136.9453  151.7166 H   0  0  0  0  0  0  0  0  0  0  0  0
  145.9243  137.0365  150.4795 H   0  0  0  0  0  0  0  0  0  0  0  0
  146.7121  134.7440  151.0321 H   0  0  0  0  0  0  0  0  0  0  0  0
  144.8533  134.9035  149.3705 H   0  0  0  0  0  0  0  0  0  0  0  0
  143.6707  134.8014  150.6741 H   0  0  0  0  0  0  0  0  0  0  0  0
  144.7248  133.4326  150.3298 H   0  0  0  0  0  0  0  0  0  0  0  0
  147.5639  136.7842  152.1514 H   0  0  0  0  0  0  0  0  0  0  0  0
  1  2  1  0  0  0  0
  1 24  1  0  0  0  0
  1 25  1  0  0  0  0
  1 26  1  0  0  0  0
  2 23  1  0  0  0  0
  2  3  1  0  0  0  0
  2 27  1  0  0  0  0
  3  4  1  0  0  0  0
  3 28  1  0  0  0  0
  3 29  1  0  0  0  0
  4  5  1  0  0  0  0
  4 20  1  0  0  0  0
  4 45  1  0  0  0  0
  5  6  1  0  0  0  0
  5 30  1  0  0  0  0
  5 31  1  0  0  0  0
  6  7  1  0  0  0  0
  6  8  1  0  0  0  0
  6 32  1  0  0  0  0
  7 33  1  0  0  0  0
  8  9  1  0  0  0  0
  8 34  1  0  0  0  0
  8 35  1  0  0  0  0
  9 19  1  0  0  0  0
  9 10  1  0  0  0  0
 10 11  2  0  0  0  0
 10 36  1  0  0  0  0
 11 12  1  0  0  0  0
 12 19  2  0  0  0  0
 12 13  1  0  0  0  0
 13 14  2  0  0  0  0
 13 37  1  0  0  0  0
 14 15  1  0  0  0  0
 14 16  1  0  0  0  0
 16 17  1  0  0  0  0
 16 18  2  0  0  0  0
 18 19  1  0  0  0  0
 18 38  1  0  0  0  0
 20 21  1  0  0  0  0
 20 39  1  0  0  0  0
 20 40  1  0  0  0  0
 21 22  1  0  0  0  0
 21 23  1  0  0  0  0
 21 41  1  0  0  0  0
 22 42  1  0  0  0  0
 22 43  1  0  0  0  0
 22 44  1  0  0  0  0
M  CHG  1   4   1
M  END
> <s_m_source_file>
AV-unprocessed.smi

> <i_m_source_file_index>
1824

> <i_lp_mmshare_version>
43012

> <i_f3d_flags>
0

> <s_epik_input>
W0NIM11bQ0BASF0xW0NIMl1OKFtDSDJdW0NASF0oTzEpW0NIM10pW0NIMl1bQ0BIXShbT0hdKVtDSDJdbihbY0hdbjIpYyhjMjMpW2NIXWMoRiljKEYpW2NIXTM=

> <s_epik_cmdline>
J2VwaWtfcHl0aG9uJywgJy1waCcsICc3LjAnLCAnLXRuJywgJzgnLCAnLW1hJywgJzIwMCcsICctbWV0YWxfYmluZGluZycsICctaW1hZScsICc8aW5maWxlLm1hZT4nLCAnLW9tYWUnLCAnPG91dGZpbGUubWFlPic=

> <r_epik_Ionization_Penalty>
0.61967

> <r_epik_Ionization_Penalty_Charging>
0.608065

> <r_epik_Ionization_Penalty_Neutral>
0.0116057

> <r_epik_State_Penalty>
0.664205

> <r_epik_Charging_Adjusted_Penalty>
1.27227

> <i_epik_Tot_Q>
1

> <i_epik_Tot_abs_Q>
1

> <r_epik_Metal_State_Penalty>
0.654947

> <b_epik_Metal_Only>
0

> <s_lp_Force_Field>
OPLS_2005

> <r_lp_Energy>
20.1531

> <b_lp_Chiralities_Consistent>
1

> <s_lp_Variant>
AV-unprocessed.smi:1824-13

> <Gold.Version>
5.8.1

> <Gold.Id.Protein>
6NUR|6NUR_protein|mol2

> <Gold.PLP.Fitness>
48.0696

> <Gold.PLP.PLP>
-40.4863

> <Gold.PLP.part.hbond>
-3.0000

> <Gold.PLP.part.metal>
0.0000

> <Gold.PLP.part.buried>
-4.5495

> <Gold.PLP.part.nonpolar>
-34.6006

> <Gold.PLP.part.repulsive>
0.1635

> <Gold.PLP.ligand.clash>
0.0000

> <Gold.PLP.ligand.torsion>
0.7199

> <Gold.PLP.Chemscore.Hbond>
3.0000

> <Gold.PLP.Chemscore.CHOScore>
0.0000

> <Gold.PLP.Chemscore.Metal>
0.0000

> <Gold.Chemscore.Hbonds>
donor molecule, donor type, donor heavy atom, donor atom, acceptor molecule, acceptor atom, score
      L1  H     4    45       P1  7948  1.89
      L1  H     7    33       P1  7957  1.00

> <Gold.PLP.Chemscore.Internal.Correction>
0.0231

> <Gold.Rescore>
     Score         DG    S(hbond)    S(metal)    S(lipo)     H(rot)  DE(clash)    DE(int)     intcor
     13.95     -14.87       1.97        0.00      75.04       2.33       0.24       0.68       ----

> <Gold.Chemscore.Fitness>
13.9474

> <Gold.Chemscore.DG>
-14.8719

> <Gold.Chemscore.ZeroCoef>
-5.4800

> <Gold.Chemscore.Hbond>
1.9653

> <Gold.Chemscore.Metal>
0.0000

> <Gold.Chemscore.Lipo>
75.0426

> <Gold.Chemscore.Internal_Hbond>
0.0000

> <Gold.Chemscore.DEClash>
0.2422

> <Gold.Chemscore.DEInternal>
0.6823

> <Gold.Chemscore.Rot>
2.3251

> <Gold.Chemscore.Internal.Correction>
   9.000000E+99

> <Gold.Chemscore.Hbonds>
donor molecule, donor type, donor heavy atom, donor atom, acceptor molecule, acceptor atom, score
      L1  H     4    45       P1  7948  0.90
      L1  H     7    33       P1  7957  0.89

> <Gold.Chemscore.Hbond.Weighted>
-6.5642

> <Gold.Chemscore.Metal.Weighted>
-0.0000

> <Gold.Chemscore.Lipo.Weighted>
-8.7800

> <Gold.Chemscore.Internal_Hbond.Weighted>
0.0000

> <Gold.Chemscore.DEClash.Weighted>
0.2422

> <Gold.Chemscore.DEInternal.Weighted>
0.6823

> <Gold.Chemscore.Rot.Weighted>
5.9523

> <Gold.Chemscore.Internal.Correction.Weighted>
   9.000000E+99

> <Gold.Protein.RotatedTorsions>
[ 6907 6896 6895 6894 ] final    8.85 input  -60.11 | X-H torsion
[ 7974 7965 7964 7962 ] final  150.46 input  175.53 | X-H torsion
[ 8008 7997 7996 7995 ] final  -25.58 input   59.86 | X-H torsion
[ 10167 10162 10161 10158 ] final  -97.61 input  -65.29 | X-H torsion
[ 10718 10713 10712 10709 ] final   -4.72 input   66.30 | X-H torsion
[ 10763 10752 10751 10750 ] final   79.87 input  -60.55 | X-H torsion
[ 11005 11000 10999 10996 ] final -109.50 input  -57.11 | X-H torsion

> <Gold.Protein.ActiveResidues>
 VAL166  LYS551  ARG553  GLY616  TRP617  ASP618  TYR619  PRO620  LYS621  CYS622 
 ASP623  PHE694  ASN695  SER759  ASP760  ASP761  ALA762  ILE779  LEU786  VAL792 
 PHE793  MET794  SER795  GLU796  ALA797  LYS798  CYS799  TRP800  GLU811  SER814 

> <Gold.Protein.RotatedAtoms>
  151.7127  135.0909  160.0270 H   0  0  0  0  0  0  0  0  0  0  0  0  # atno 6907 bound_to 6896
  152.3652  133.6343  159.6053 H   0  0  0  0  0  0  0  0  0  0  0  0  # atno 6908 bound_to 6896
  150.7632  133.9276  159.3458 H   0  0  0  0  0  0  0  0  0  0  0  0  # atno 6909 bound_to 6896
  144.8362  139.6412  143.6037 H   0  0  0  0  0  0  0  0  0  0  0  0  # atno 7974 bound_to 7965
  154.4469  140.1923  156.0641 H   0  0  0  0  0  0  0  0  0  0  0  0  # atno 8008 bound_to 7997
  156.0561  140.3302  155.7380 H   0  0  0  0  0  0  0  0  0  0  0  0  # atno 8009 bound_to 7997
  155.5484  140.0592  157.2846 H   0  0  0  0  0  0  0  0  0  0  0  0  # atno 8010 bound_to 7997
  140.2816  143.3278  152.0435 H   0  0  0  0  0  0  0  0  0  0  0  0  # atno 10167 bound_to 10162
  156.7572  130.5258  149.5792 H   0  0  0  0  0  0  0  0  0  0  0  0  # atno 10718 bound_to 10713
  153.0987  135.4824  154.8827 H   0  0  0  0  0  0  0  0  0  0  0  0  # atno 10763 bound_to 10752
  154.7354  135.3070  154.8822 H   0  0  0  0  0  0  0  0  0  0  0  0  # atno 10764 bound_to 10752
  153.9446  135.6830  153.4797 H   0  0  0  0  0  0  0  0  0  0  0  0  # atno 10765 bound_to 10752
  141.0844  133.9164  157.2218 H   0  0  0  0  0  0  0  0  0  0  0  0  # atno 11005 bound_to 11000
  146.2661  139.6522  142.9329 LP  0  0  0  0  0  0  0  0  0  0  0  0  # atno 17320 bound_to 7965
  145.4789  141.0437  143.2657 LP  0  0  0  0  0  0  0  0  0  0  0  0  # atno 17321 bound_to 7965
  139.4961  144.6587  151.6513 LP  0  0  0  0  0  0  0  0  0  0  0  0  # atno 17342 bound_to 10162
  140.5807  143.9951  150.6266 LP  0  0  0  0  0  0  0  0  0  0  0  0  # atno 17343 bound_to 10162
  156.1363  130.6213  151.0404 LP  0  0  0  0  0  0  0  0  0  0  0  0  # atno 17370 bound_to 10713
  157.6751  131.0852  150.7515 LP  0  0  0  0  0  0  0  0  0  0  0  0  # atno 17371 bound_to 10713
  139.9661  135.0141  156.9389 LP  0  0  0  0  0  0  0  0  0  0  0  0  # atno 17394 bound_to 11000
  140.5396  134.0733  155.7338 LP  0  0  0  0  0  0  0  0  0  0  0  0  # atno 17395 bound_to 11000

$$$$
