AV-unprocessed.smi:1487|AV-procd|sdf|6018|dock2
  -GOLD-   22720 6123D 1   1.00000     0.00000
 Structure written by MMmdl.
 49 51  0  0  0  0  0  0  0  0  3 V2000
  152.1832  143.5100  160.4712 C   0  0  0  0  0  0  0  0  0  0  0  0
  151.9478  142.5740  159.2978 C   0  0  0  0  0  0  0  0  0  0  0  0
  151.1200  143.0141  158.2404 C   0  0  0  0  0  0  0  0  0  0  0  0
  150.9262  142.1372  157.1800 C   0  0  0  0  0  0  0  0  0  0  0  0
  150.1815  142.2715  156.0063 N   0  3  0  0  0  0  0  0  0  0  0  0
  150.2969  141.1366  155.2628 C   0  0  0  0  0  0  0  0  0  0  0  0
  151.1028  140.2786  155.9461 N   0  0  0  0  0  0  0  0  0  0  0  0
  151.5460  138.9221  155.5970 C   0  0  0  0  0  0  0  0  0  0  0  0
  150.6748  138.2677  154.5059 C   0  0  1  0  0  0  0  0  0  0  0  0
  151.2892  137.0614  154.0917 O   0  0  0  0  0  0  0  0  0  0  0  0
  149.2573  137.9566  155.0279 C   0  0  0  0  0  0  0  0  0  0  0  0
  148.2628  137.7993  153.9354 N   0  3  2  0  0  0  0  0  0  0  0  0
  147.8828  139.0849  153.2927 C   0  0  0  0  0  0  0  0  0  0  0  0
  146.9941  138.8409  152.0629 C   0  0  0  0  0  0  0  0  0  0  0  0
  145.7417  138.0359  152.4391 C   0  0  0  0  0  0  0  0  0  0  0  0
  146.1186  136.7439  153.1830 C   0  0  1  0  0  0  0  0  0  0  0  0
  146.7227  135.8212  152.2978 O   0  0  0  0  0  0  0  0  0  0  0  0
  147.0688  137.0236  154.3637 C   0  0  0  0  0  0  0  0  0  0  0  0
  151.5202  140.8605  157.1477 C   0  0  0  0  0  0  0  0  0  0  0  0
  152.3362  140.4095  158.1823 C   0  0  0  0  0  0  0  0  0  0  0  0
  152.5482  141.2883  159.2690 C   0  0  0  0  0  0  0  0  0  0  0  0
  153.4391  140.8279  160.4104 C   0  0  0  0  0  0  0  0  0  0  0  0
  151.6715  144.4625  160.3303 H   0  0  0  0  0  0  0  0  0  0  0  0
  153.2469  143.7179  160.5886 H   0  0  0  0  0  0  0  0  0  0  0  0
  151.8124  143.0661  161.3954 H   0  0  0  0  0  0  0  0  0  0  0  0
  150.6597  143.9914  158.2558 H   0  0  0  0  0  0  0  0  0  0  0  0
  149.8296  140.9487  154.3067 H   0  0  0  0  0  0  0  0  0  0  0  0
  152.5811  138.9965  155.2603 H   0  0  0  0  0  0  0  0  0  0  0  0
  151.5603  138.3167  156.5041 H   0  0  0  0  0  0  0  0  0  0  0  0
  150.6295  138.9381  153.6483 H   0  0  0  0  0  0  0  0  0  0  0  0
  151.0764  136.9021  153.1850 H   0  0  0  0  0  0  0  0  0  0  0  0
  149.3046  137.0420  155.6213 H   0  0  0  0  0  0  0  0  0  0  0  0
  148.9192  138.7393  155.7085 H   0  0  0  0  0  0  0  0  0  0  0  0
  147.3608  139.7150  154.0146 H   0  0  0  0  0  0  0  0  0  0  0  0
  148.7712  139.6337  152.9824 H   0  0  0  0  0  0  0  0  0  0  0  0
  146.7031  139.7931  151.6184 H   0  0  0  0  0  0  0  0  0  0  0  0
  147.5627  138.3065  151.3006 H   0  0  0  0  0  0  0  0  0  0  0  0
  145.1067  138.6460  153.0830 H   0  0  0  0  0  0  0  0  0  0  0  0
  145.1508  137.8110  151.5504 H   0  0  0  0  0  0  0  0  0  0  0  0
  145.2113  136.2712  153.5608 H   0  0  0  0  0  0  0  0  0  0  0  0
  147.6592  135.9506  152.3200 H   0  0  0  0  0  0  0  0  0  0  0  0
  147.3759  136.0787  154.8144 H   0  0  0  0  0  0  0  0  0  0  0  0
  146.5417  137.5832  155.1383 H   0  0  0  0  0  0  0  0  0  0  0  0
  152.7938  139.4318  158.1598 H   0  0  0  0  0  0  0  0  0  0  0  0
  153.7964  139.8099  160.2535 H   0  0  0  0  0  0  0  0  0  0  0  0
  152.8947  140.8467  161.3549 H   0  0  0  0  0  0  0  0  0  0  0  0
  154.3109  141.4766  160.4997 H   0  0  0  0  0  0  0  0  0  0  0  0
  148.7082  137.2359  153.2253 H   0  0  0  0  0  0  0  0  0  0  0  0
  149.6341  143.0769  155.7302 H   0  0  0  0  0  0  0  0  0  0  0  0
  1  2  1  0  0  0  0
  1 23  1  0  0  0  0
  1 24  1  0  0  0  0
  1 25  1  0  0  0  0
  2 21  1  0  0  0  0
  2  3  2  0  0  0  0
  3  4  1  0  0  0  0
  3 26  1  0  0  0  0
  4 19  2  0  0  0  0
  4  5  1  0  0  0  0
  5  6  2  0  0  0  0
  5 49  1  0  0  0  0
  6  7  1  0  0  0  0
  6 27  1  0  0  0  0
  7  8  1  0  0  0  0
  7 19  1  0  0  0  0
  8  9  1  0  0  0  0
  8 28  1  0  0  0  0
  8 29  1  0  0  0  0
  9 10  1  0  0  0  0
  9 11  1  0  0  0  0
  9 30  1  0  0  0  0
 10 31  1  0  0  0  0
 11 12  1  0  0  0  0
 11 32  1  0  0  0  0
 11 33  1  0  0  0  0
 12 18  1  0  0  0  0
 12 13  1  0  0  0  0
 12 48  1  0  0  0  0
 13 14  1  0  0  0  0
 13 34  1  0  0  0  0
 13 35  1  0  0  0  0
 14 15  1  0  0  0  0
 14 36  1  0  0  0  0
 14 37  1  0  0  0  0
 15 16  1  0  0  0  0
 15 38  1  0  0  0  0
 15 39  1  0  0  0  0
 16 17  1  0  0  0  0
 16 18  1  0  0  0  0
 16 40  1  0  0  0  0
 17 41  1  0  0  0  0
 18 42  1  0  0  0  0
 18 43  1  0  0  0  0
 19 20  1  0  0  0  0
 20 21  2  0  0  0  0
 20 44  1  0  0  0  0
 21 22  1  0  0  0  0
 22 45  1  0  0  0  0
 22 46  1  0  0  0  0
 22 47  1  0  0  0  0
M  CHG  1   5   1
M  CHG  1  12   1
M  END
> <s_m_source_file>
AV-unprocessed.smi

> <i_m_source_file_index>
1487

> <i_lp_mmshare_version>
43012

> <i_f3d_flags>
0

> <s_epik_input>
W0NIM11jKFtjSF0xKWMoW0NIM10pW2NIXWMoYzEyKW4oW2NIXW4yKVtDSDJdW0NASF0oW09IXSlbQ0gyXU4zW0NIMl1bQ0gyXVtDSDJdW0NAQEhdKFtPSF0pW0NIMl0z

> <s_epik_cmdline>
J2VwaWtfcHl0aG9uJywgJy1waCcsICc3LjAnLCAnLXRuJywgJzgnLCAnLW1hJywgJzIwMCcsICctbWV0YWxfYmluZGluZycsICctaW1hZScsICc8aW5maWxlLm1hZT4nLCAnLW9tYWUnLCAnPG91dGZpbGUubWFlPic=

> <r_epik_Ionization_Penalty>
1.1857

> <r_epik_Ionization_Penalty_Charging>
1.1857

> <r_epik_Ionization_Penalty_Neutral>
1.75578e-06

> <r_epik_State_Penalty>
1.26953

> <r_epik_Charging_Adjusted_Penalty>
2.45524

> <i_epik_Tot_Q>
2

> <i_epik_Tot_abs_Q>
2

> <r_epik_Metal_State_Penalty>
5.28243

> <b_epik_Metal_Only>
0

> <s_lp_Force_Field>
OPLS_2005

> <r_lp_Energy>
32.3445

> <b_lp_Chiralities_Consistent>
1

> <s_lp_Variant>
AV-unprocessed.smi:1487-12

> <Gold.Version>
5.8.1

> <Gold.Id.Protein>
6NUR|6NUR_protein|mol2

> <Gold.PLP.Fitness>
62.7093

> <Gold.PLP.PLP>
-44.0296

> <Gold.PLP.part.hbond>
-4.4357

> <Gold.PLP.part.metal>
0.0000

> <Gold.PLP.part.buried>
-3.0020

> <Gold.PLP.part.nonpolar>
-35.9024

> <Gold.PLP.part.repulsive>
0.1162

> <Gold.PLP.ligand.clash>
0.0000

> <Gold.PLP.ligand.torsion>
0.6382

> <Gold.PLP.Chemscore.Hbond>
6.6338

> <Gold.PLP.Chemscore.CHOScore>
0.0000

> <Gold.PLP.Chemscore.Metal>
0.0000

> <Gold.Chemscore.Hbonds>
donor molecule, donor type, donor heavy atom, donor atom, acceptor molecule, acceptor atom, score
      L1  H     5    49       P1  8028  2.00
      L1  H    10    31       P1  7949  1.00
      L1  H    12    48       P1  7948  2.00
      L1  H    17    41       P1  7948  0.63
      P1  H 10752 10763       L1    10  0.52

> <Gold.PLP.Chemscore.Internal.Correction>
0.0549

> <Gold.Rescore>
     Score         DG    S(hbond)    S(metal)    S(lipo)     H(rot)  DE(clash)    DE(int)     intcor
     22.99     -23.64       3.67        0.00     110.52       2.74       0.05       0.60       ----

> <Gold.Chemscore.Fitness>
22.9929

> <Gold.Chemscore.DG>
-23.6448

> <Gold.Chemscore.ZeroCoef>
-5.4800

> <Gold.Chemscore.Hbond>
3.6659

> <Gold.Chemscore.Metal>
0.0000

> <Gold.Chemscore.Lipo>
110.5206

> <Gold.Chemscore.Internal_Hbond>
0.0000

> <Gold.Chemscore.DEClash>
0.0528

> <Gold.Chemscore.DEInternal>
0.5991

> <Gold.Chemscore.Rot>
2.7384

> <Gold.Chemscore.Internal.Correction>
   9.000000E+99

> <Gold.Chemscore.Hbonds>
donor molecule, donor type, donor heavy atom, donor atom, acceptor molecule, acceptor atom, score
      L1  H     5    49       P1  8028  1.00
      L1  H    10    31       P1  7949  0.39
      L1  H    12    48       P1  7948  1.00
      L1  H    17    41       P1  7948  0.64
      P1  H 10752 10763       L1    10  0.08

> <Gold.Chemscore.Hbond.Weighted>
-12.2442

> <Gold.Chemscore.Metal.Weighted>
-0.0000

> <Gold.Chemscore.Lipo.Weighted>
-12.9309

> <Gold.Chemscore.Internal_Hbond.Weighted>
0.0000

> <Gold.Chemscore.DEClash.Weighted>
0.0528

> <Gold.Chemscore.DEInternal.Weighted>
0.5991

> <Gold.Chemscore.Rot.Weighted>
7.0103

> <Gold.Chemscore.Internal.Correction.Weighted>
   9.000000E+99

> <Gold.Protein.RotatedTorsions>
[ 6907 6896 6895 6894 ] final  -70.07 input  -60.11 | X-H torsion
[ 7974 7965 7964 7962 ] final    7.77 input  175.53 | X-H torsion
[ 8008 7997 7996 7995 ] final   39.23 input   59.86 | X-H torsion
[ 10167 10162 10161 10158 ] final   26.21 input  -65.29 | X-H torsion
[ 10718 10713 10712 10709 ] final  100.63 input   66.30 | X-H torsion
[ 10763 10752 10751 10750 ] final   35.69 input  -60.55 | X-H torsion
[ 11005 11000 10999 10996 ] final  139.96 input  -57.11 | X-H torsion

> <Gold.Protein.ActiveResidues>
 VAL166  LYS551  ARG553  GLY616  TRP617  ASP618  TYR619  PRO620  LYS621  CYS622 
 ASP623  PHE694  ASN695  SER759  ASP760  ASP761  ALA762  ILE779  LEU786  VAL792 
 PHE793  MET794  SER795  GLU796  ALA797  LYS798  CYS799  TRP800  GLU811  SER814 

> <Gold.Protein.RotatedAtoms>
  150.7275  134.5506  159.5792 H   0  0  0  0  0  0  0  0  0  0  0  0  # atno 6907 bound_to 6896
  152.2994  134.7626  160.0370 H   0  0  0  0  0  0  0  0  0  0  0  0  # atno 6908 bound_to 6896
  151.8212  133.3359  159.3621 H   0  0  0  0  0  0  0  0  0  0  0  0  # atno 6909 bound_to 6896
  146.2423  140.0033  142.8414 H   0  0  0  0  0  0  0  0  0  0  0  0  # atno 7974 bound_to 7965
  155.2333  140.3340  155.4301 H   0  0  0  0  0  0  0  0  0  0  0  0  # atno 8008 bound_to 7997
  156.2286  140.1840  156.7346 H   0  0  0  0  0  0  0  0  0  0  0  0  # atno 8009 bound_to 7997
  154.5940  140.0633  156.9263 H   0  0  0  0  0  0  0  0  0  0  0  0  # atno 8010 bound_to 7997
  140.5042  144.0266  150.6345 H   0  0  0  0  0  0  0  0  0  0  0  0  # atno 10167 bound_to 10162
  157.6849  131.0704  150.5130 H   0  0  0  0  0  0  0  0  0  0  0  0  # atno 10718 bound_to 10713
  153.0108  135.6326  154.1867 H   0  0  0  0  0  0  0  0  0  0  0  0  # atno 10763 bound_to 10752
  154.1609  135.2823  155.3110 H   0  0  0  0  0  0  0  0  0  0  0  0  # atno 10764 bound_to 10752
  154.5982  135.5596  153.7408 H   0  0  0  0  0  0  0  0  0  0  0  0  # atno 10765 bound_to 10752
  140.0292  134.9360  157.0629 H   0  0  0  0  0  0  0  0  0  0  0  0  # atno 11005 bound_to 11000
  145.1395  140.9563  143.4497 LP  0  0  0  0  0  0  0  0  0  0  0  0  # atno 17320 bound_to 7965
  145.0310  139.3341  143.6025 LP  0  0  0  0  0  0  0  0  0  0  0  0  # atno 17321 bound_to 7965
  140.3570  143.2930  152.0425 LP  0  0  0  0  0  0  0  0  0  0  0  0  # atno 17342 bound_to 10162
  139.4879  144.6331  151.7029 LP  0  0  0  0  0  0  0  0  0  0  0  0  # atno 17343 bound_to 10162
  156.5446  130.4216  149.6137 LP  0  0  0  0  0  0  0  0  0  0  0  0  # atno 17370 bound_to 10713
  156.2955  130.7148  151.2007 LP  0  0  0  0  0  0  0  0  0  0  0  0  # atno 17371 bound_to 10713
  140.4254  134.1837  155.7166 LP  0  0  0  0  0  0  0  0  0  0  0  0  # atno 17394 bound_to 11000
  141.1821  133.8391  157.1220 LP  0  0  0  0  0  0  0  0  0  0  0  0  # atno 17395 bound_to 11000

$$$$
