AV-unprocessed.smi:2083|AV-procd|sdf|8502|dock6
  -GOLD-   2272011213D 1   1.00000     0.00000
 Structure written by MMmdl.
 44 45  0  0  0  0  0  0  0  0  3 V2000
  150.7281  140.9892  156.4146 C   0  0  0  0  0  0  0  0  0  0  0  0
  151.1590  139.6316  155.9744 C   0  0  0  0  0  0  0  0  0  0  0  0
  150.4686  138.5322  155.5489 C   0  0  0  0  0  0  0  0  0  0  0  0
  151.4959  137.5856  155.2850 C   0  0  0  0  0  0  0  0  0  0  0  0
  151.3188  136.3268  154.8550 N   0  5  0  0  0  0  0  0  0  0  0  0
  150.4089  135.5229  155.4510 C   0  0  0  0  0  0  0  0  0  0  0  0
  150.3667  135.2187  156.6451 O   0  0  0  0  0  0  0  0  0  0  0  0
  149.4882  135.0395  154.6074 N   0  0  0  0  0  0  0  0  0  0  0  0
  148.3896  134.1541  154.9740 C   0  0  0  0  0  0  0  0  0  0  0  0
  147.0115  134.8068  154.7122 C   0  0  2  0  0  0  0  0  0  0  0  0
  145.9375  134.1778  155.6339 C   0  0  0  0  0  0  0  0  0  0  0  0
  146.6855  134.7295  153.2501 N   0  3  1  0  0  0  0  0  0  0  0  0
  146.7709  133.3755  152.6288 C   0  0  0  0  0  0  0  0  0  0  0  0
  146.5596  133.4353  151.1067 C   0  0  0  0  0  0  0  0  0  0  0  0
  145.2326  134.1150  150.7512 C   0  0  0  0  0  0  0  0  0  0  0  0
  145.1248  135.4937  151.4228 C   0  0  2  0  0  0  0  0  0  0  0  0
  146.0257  136.5552  150.7675 C   0  0  0  0  0  0  0  0  0  0  0  0
  145.3743  135.3706  152.9391 C   0  0  0  0  0  0  0  0  0  0  0  0
  152.7019  138.0631  155.5427 N   0  0  0  0  0  0  0  0  0  0  0  0
  152.4951  139.3770  155.9796 O   0  0  0  0  0  0  0  0  0  0  0  0
  150.0604  140.9215  157.2736 H   0  0  0  0  0  0  0  0  0  0  0  0
  150.1975  141.5030  155.6130 H   0  0  0  0  0  0  0  0  0  0  0  0
  151.5842  141.6013  156.6997 H   0  0  0  0  0  0  0  0  0  0  0  0
  149.3999  138.4225  155.4410 H   0  0  0  0  0  0  0  0  0  0  0  0
  149.5575  135.3137  153.6384 H   0  0  0  0  0  0  0  0  0  0  0  0
  148.5113  133.2302  154.4098 H   0  0  0  0  0  0  0  0  0  0  0  0
  148.4740  133.8892  156.0295 H   0  0  0  0  0  0  0  0  0  0  0  0
  147.0706  135.8623  154.9836 H   0  0  0  0  0  0  0  0  0  0  0  0
  146.2175  134.2466  156.6851 H   0  0  0  0  0  0  0  0  0  0  0  0
  145.7868  133.1214  155.4090 H   0  0  0  0  0  0  0  0  0  0  0  0
  144.9779  134.6882  155.5519 H   0  0  0  0  0  0  0  0  0  0  0  0
  147.7524  132.9321  152.7909 H   0  0  0  0  0  0  0  0  0  0  0  0
  146.0345  132.7141  153.0883 H   0  0  0  0  0  0  0  0  0  0  0  0
  147.3881  133.9706  150.6418 H   0  0  0  0  0  0  0  0  0  0  0  0
  146.5798  132.4272  150.6914 H   0  0  0  0  0  0  0  0  0  0  0  0
  145.1276  134.2037  149.6693 H   0  0  0  0  0  0  0  0  0  0  0  0
  144.4084  133.4848  151.0882 H   0  0  0  0  0  0  0  0  0  0  0  0
  144.0987  135.8382  151.2882 H   0  0  0  0  0  0  0  0  0  0  0  0
  147.0842  136.3215  150.8832 H   0  0  0  0  0  0  0  0  0  0  0  0
  145.8567  137.5367  151.2114 H   0  0  0  0  0  0  0  0  0  0  0  0
  145.8190  136.6395  149.7001 H   0  0  0  0  0  0  0  0  0  0  0  0
  144.5779  134.7765  153.3909 H   0  0  0  0  0  0  0  0  0  0  0  0
  145.3027  136.3598  153.3885 H   0  0  0  0  0  0  0  0  0  0  0  0
  147.3939  135.2808  152.7871 H   0  0  0  0  0  0  0  0  0  0  0  0
  1  2  1  0  0  0  0
  1 21  1  0  0  0  0
  1 22  1  0  0  0  0
  1 23  1  0  0  0  0
  2 20  1  0  0  0  0
  2  3  2  0  0  0  0
  3  4  1  0  0  0  0
  3 24  1  0  0  0  0
  4  5  1  0  0  0  0
  4 19  2  0  0  0  0
  5  6  1  0  0  0  0
  6  7  2  0  0  0  0
  6  8  1  0  0  0  0
  8  9  1  0  0  0  0
  8 25  1  0  0  0  0
  9 10  1  0  0  0  0
  9 26  1  0  0  0  0
  9 27  1  0  0  0  0
 10 11  1  0  0  0  0
 10 12  1  0  0  0  0
 10 28  1  0  0  0  0
 11 29  1  0  0  0  0
 11 30  1  0  0  0  0
 11 31  1  0  0  0  0
 12 18  1  0  0  0  0
 12 13  1  0  0  0  0
 12 44  1  0  0  0  0
 13 14  1  0  0  0  0
 13 32  1  0  0  0  0
 13 33  1  0  0  0  0
 14 15  1  0  0  0  0
 14 34  1  0  0  0  0
 14 35  1  0  0  0  0
 15 16  1  0  0  0  0
 15 36  1  0  0  0  0
 15 37  1  0  0  0  0
 16 17  1  0  0  0  0
 16 18  1  0  0  0  0
 16 38  1  0  0  0  0
 17 39  1  0  0  0  0
 17 40  1  0  0  0  0
 17 41  1  0  0  0  0
 18 42  1  0  0  0  0
 18 43  1  0  0  0  0
 19 20  1  0  0  0  0
M  CHG  1   5  -1
M  CHG  1  12   1
M  END
> <s_m_source_file>
AV-unprocessed.smi

> <i_m_source_file_index>
2083

> <i_lp_mmshare_version>
43012

> <i_f3d_flags>
0

> <s_epik_input>
W0NIM11jMVtjSF1jKG5vMSlbTkhdQyg9TylbTkhdW0NIMl1bQ0BIXShbQ0gzXSlOMltDSDJdW0NIMl1bQ0gyXVtDQEBIXShbQ0gzXSlbQ0gyXTI=

> <s_epik_cmdline>
J2VwaWtfcHl0aG9uJywgJy1waCcsICc3LjAnLCAnLXRuJywgJzgnLCAnLW1hJywgJzIwMCcsICctbWV0YWxfYmluZGluZycsICctaW1hZScsICc8aW5maWxlLm1hZT4nLCAnLW9tYWUnLCAnPG91dGZpbGUubWFlPic=

> <r_epik_Ionization_Penalty>
6.22434

> <r_epik_Ionization_Penalty_Charging>
6.22425

> <r_epik_Ionization_Penalty_Neutral>
9.62407e-05

> <r_epik_State_Penalty>
6.22423

> <r_epik_Charging_Adjusted_Penalty>
12.4485

> <i_epik_Tot_Q>
0

> <i_epik_Tot_abs_Q>
2

> <r_epik_Metal_State_Penalty>
2.16764

> <b_epik_Metal_Only>
1

> <s_lp_Force_Field>
OPLS_2005

> <r_lp_Energy>
14.8953

> <b_lp_Chiralities_Consistent>
1

> <s_lp_Variant>
AV-unprocessed.smi:2083-13

> <Gold.Version>
5.8.1

> <Gold.Id.Protein>
6NUR|6NUR_protein|mol2

> <Gold.PLP.Fitness>
45.7510

> <Gold.PLP.PLP>
-31.6094

> <Gold.PLP.part.hbond>
-4.7534

> <Gold.PLP.part.metal>
0.0000

> <Gold.PLP.part.buried>
-3.2882

> <Gold.PLP.part.nonpolar>
-25.2506

> <Gold.PLP.part.repulsive>
1.2751

> <Gold.PLP.ligand.clash>
0.0000

> <Gold.PLP.ligand.torsion>
1.2206

> <Gold.PLP.Chemscore.Hbond>
5.5000

> <Gold.PLP.Chemscore.CHOScore>
0.0000

> <Gold.PLP.Chemscore.Metal>
0.0000

> <Gold.Chemscore.Hbonds>
donor molecule, donor type, donor heavy atom, donor atom, acceptor molecule, acceptor atom, score
      L1  H     8    25       P1  7948  0.72
      L1  H    12    44       P1  7948  2.00
      P1  H  7997  8008       L1    20  1.00
      P1  H 10752 10763       L1     5  2.00

> <Gold.PLP.Chemscore.Internal.Correction>
0.0828

> <Gold.Rescore>
     Score         DG    S(hbond)    S(metal)    S(lipo)     H(rot)  DE(clash)    DE(int)     intcor
     15.88     -17.31       2.62        0.00      59.59       1.52       0.18       1.25       ----

> <Gold.Chemscore.Fitness>
15.8780

> <Gold.Chemscore.DG>
-17.3095

> <Gold.Chemscore.ZeroCoef>
-5.4800

> <Gold.Chemscore.Hbond>
2.6185

> <Gold.Chemscore.Metal>
0.0000

> <Gold.Chemscore.Lipo>
59.5928

> <Gold.Chemscore.Internal_Hbond>
0.0000

> <Gold.Chemscore.DEClash>
0.1824

> <Gold.Chemscore.DEInternal>
1.2490

> <Gold.Chemscore.Rot>
1.5190

> <Gold.Chemscore.Internal.Correction>
   9.000000E+99

> <Gold.Chemscore.Hbonds>
donor molecule, donor type, donor heavy atom, donor atom, acceptor molecule, acceptor atom, score
      L1  H     8    25       P1  7948  0.08
      L1  H    12    44       P1  7948  0.93
      P1  H  7997  8008       L1    20  0.48
      P1  H 10752 10763       L1     5  0.67

> <Gold.Chemscore.Hbond.Weighted>
-8.7457

> <Gold.Chemscore.Metal.Weighted>
-0.0000

> <Gold.Chemscore.Lipo.Weighted>
-6.9724

> <Gold.Chemscore.Internal_Hbond.Weighted>
0.0000

> <Gold.Chemscore.DEClash.Weighted>
0.1824

> <Gold.Chemscore.DEInternal.Weighted>
1.2490

> <Gold.Chemscore.Rot.Weighted>
3.8886

> <Gold.Chemscore.Internal.Correction.Weighted>
   9.000000E+99

> <Gold.Protein.RotatedTorsions>
[ 6907 6896 6895 6894 ] final  -88.03 input  -60.11 | X-H torsion
[ 7974 7965 7964 7962 ] final  -86.49 input  175.53 | X-H torsion
[ 8008 7997 7996 7995 ] final  -39.99 input   59.86 | X-H torsion
[ 10167 10162 10161 10158 ] final -100.52 input  -65.29 | X-H torsion
[ 10718 10713 10712 10709 ] final   -6.87 input   66.30 | X-H torsion
[ 10763 10752 10751 10750 ] final   48.39 input  -60.55 | X-H torsion
[ 11005 11000 10999 10996 ] final -107.84 input  -57.11 | X-H torsion

> <Gold.Protein.ActiveResidues>
 VAL166  LYS551  ARG553  GLY616  TRP617  ASP618  TYR619  PRO620  LYS621  CYS622 
 ASP623  PHE694  ASN695  SER759  ASP760  ASP761  ALA762  ILE779  LEU786  VAL792 
 PHE793  MET794  SER795  GLU796  ALA797  LYS798  CYS799  TRP800  GLU811  SER814 

> <Gold.Protein.RotatedAtoms>
  150.6867  134.2805  159.4624 H   0  0  0  0  0  0  0  0  0  0  0  0  # atno 6907 bound_to 6896
  152.0719  134.9525  160.0583 H   0  0  0  0  0  0  0  0  0  0  0  0  # atno 6908 bound_to 6896
  152.0912  133.4166  159.4581 H   0  0  0  0  0  0  0  0  0  0  0  0  # atno 6909 bound_to 6896
  145.4792  140.9557  143.1874 H   0  0  0  0  0  0  0  0  0  0  0  0  # atno 7974 bound_to 7965
  154.4017  140.1537  156.2954 H   0  0  0  0  0  0  0  0  0  0  0  0  # atno 8008 bound_to 7997
  155.8748  140.3447  155.5824 H   0  0  0  0  0  0  0  0  0  0  0  0  # atno 8009 bound_to 7997
  155.7734  140.0833  157.2087 H   0  0  0  0  0  0  0  0  0  0  0  0  # atno 8010 bound_to 7997
  140.2510  143.3472  152.0714 H   0  0  0  0  0  0  0  0  0  0  0  0  # atno 10167 bound_to 10162
  156.7255  130.5164  149.5858 H   0  0  0  0  0  0  0  0  0  0  0  0  # atno 10718 bound_to 10713
  152.9792  135.5945  154.3918 H   0  0  0  0  0  0  0  0  0  0  0  0  # atno 10763 bound_to 10752
  154.3573  135.2767  155.2341 H   0  0  0  0  0  0  0  0  0  0  0  0  # atno 10764 bound_to 10752
  154.4354  135.6026  153.6150 H   0  0  0  0  0  0  0  0  0  0  0  0  # atno 10765 bound_to 10752
  141.0933  133.9016  157.2024 H   0  0  0  0  0  0  0  0  0  0  0  0  # atno 11005 bound_to 11000
  144.7899  139.6350  143.7118 LP  0  0  0  0  0  0  0  0  0  0  0  0  # atno 17320 bound_to 7965
  146.2351  139.5889  142.9529 LP  0  0  0  0  0  0  0  0  0  0  0  0  # atno 17321 bound_to 7965
  139.5046  144.6779  151.6083 LP  0  0  0  0  0  0  0  0  0  0  0  0  # atno 17342 bound_to 10162
  140.6040  143.9558  150.6406 LP  0  0  0  0  0  0  0  0  0  0  0  0  # atno 17343 bound_to 10162
  156.1565  130.6345  151.0663 LP  0  0  0  0  0  0  0  0  0  0  0  0  # atno 17370 bound_to 10713
  157.6880  131.0819  150.7187 LP  0  0  0  0  0  0  0  0  0  0  0  0  # atno 17371 bound_to 10713
  139.9763  135.0112  156.9640 LP  0  0  0  0  0  0  0  0  0  0  0  0  # atno 17394 bound_to 11000
  140.5201  134.0916  155.7290 LP  0  0  0  0  0  0  0  0  0  0  0  0  # atno 17395 bound_to 11000

$$$$
