AV-unprocessed.smi:738|AV-procd|sdf|3539|dock3
  -GOLD-   22720 0533D 1   1.00000     0.00000
 Structure written by MMmdl.
 35 37  0  0  0  0  0  0  0  0  1 V2000
  151.7192  137.5130  153.7027 N   0  0  0  0  0  0  0  0  0  0  0  0
  150.6996  138.2754  154.1093 C   0  0  0  0  0  0  0  0  0  0  0  0
  149.6035  138.2617  153.5525 O   0  0  0  0  0  0  0  0  0  0  0  0
  150.9413  139.1086  155.3347 C   0  0  0  0  0  0  0  0  0  0  0  0
  152.2354  139.2092  155.8908 C   0  0  0  0  0  0  0  0  0  0  0  0
  152.5168  139.9242  157.0005 N   0  0  0  0  0  0  0  0  0  0  0  0
  151.5058  140.5738  157.6259 C   0  0  0  0  0  0  0  0  0  0  0  0
  151.8133  141.3162  158.7781 N   0  0  0  0  0  0  0  0  0  0  0  0
  152.8324  140.6792  159.6135 C   0  0  0  0  0  0  0  0  0  0  0  0
  153.1041  141.5063  160.8945 C   0  0  0  0  0  0  0  0  0  0  0  0
  153.4010  142.8697  160.5753 O   0  0  0  0  0  0  0  0  0  0  0  0
  152.3250  143.4429  159.8453 C   0  0  1  0  0  0  0  0  0  0  0  0
  152.5005  144.8900  159.3934 C   0  0  0  0  0  0  0  0  0  0  0  0
  151.5729  145.0126  158.1652 C   0  0  0  0  0  0  0  0  0  0  0  0
  151.1786  143.5751  157.7660 C   0  0  0  0  0  0  0  0  0  0  0  0
  152.1814  142.7029  158.5240 C   0  0  2  0  0  0  0  0  0  0  0  0
  150.1724  140.5266  157.1568 C   0  0  0  0  0  0  0  0  0  0  0  0
  148.8968  141.3628  157.9707 Cl  0  0  0  0  0  0  0  0  0  0  0  0
  149.8890  139.7793  155.9972 C   0  0  0  0  0  0  0  0  0  0  0  0
  151.6108  136.9276  152.8871 H   0  0  0  0  0  0  0  0  0  0  0  0
  152.5908  137.5186  154.2118 H   0  0  0  0  0  0  0  0  0  0  0  0
  153.0764  138.7080  155.4341 H   0  0  0  0  0  0  0  0  0  0  0  0
  152.5113  139.6716  159.8808 H   0  0  0  0  0  0  0  0  0  0  0  0
  153.7595  140.5788  159.0472 H   0  0  0  0  0  0  0  0  0  0  0  0
  152.2420  141.4663  161.5621 H   0  0  0  0  0  0  0  0  0  0  0  0
  153.9439  141.0802  161.4433 H   0  0  0  0  0  0  0  0  0  0  0  0
  151.4030  143.3693  160.4273 H   0  0  0  0  0  0  0  0  0  0  0  0
  152.2576  145.6047  160.1802 H   0  0  0  0  0  0  0  0  0  0  0  0
  153.5347  145.0629  159.0929 H   0  0  0  0  0  0  0  0  0  0  0  0
  150.6833  145.5979  158.4001 H   0  0  0  0  0  0  0  0  0  0  0  0
  152.0901  145.5193  157.3498 H   0  0  0  0  0  0  0  0  0  0  0  0
  150.1625  143.3639  158.1032 H   0  0  0  0  0  0  0  0  0  0  0  0
  151.2144  143.4138  156.6883 H   0  0  0  0  0  0  0  0  0  0  0  0
  153.1378  142.7280  157.9975 H   0  0  0  0  0  0  0  0  0  0  0  0
  148.8741  139.7257  155.6312 H   0  0  0  0  0  0  0  0  0  0  0  0
  1  2  1  0  0  0  0
  1 20  1  0  0  0  0
  1 21  1  0  0  0  0
  2  3  2  0  0  0  0
  2  4  1  0  0  0  0
  4 19  1  0  0  0  0
  4  5  2  0  0  0  0
  5  6  1  0  0  0  0
  5 22  1  0  0  0  0
  6  7  2  0  0  0  0
  7  8  1  0  0  0  0
  7 17  1  0  0  0  0
  8 16  1  0  0  0  0
  8  9  1  0  0  0  0
  9 10  1  0  0  0  0
  9 23  1  0  0  0  0
  9 24  1  0  0  0  0
 10 11  1  0  0  0  0
 10 25  1  0  0  0  0
 10 26  1  0  0  0  0
 11 12  1  0  0  0  0
 12 16  1  0  0  0  0
 12 13  1  0  0  0  0
 12 27  1  0  0  0  0
 13 14  1  0  0  0  0
 13 28  1  0  0  0  0
 13 29  1  0  0  0  0
 14 15  1  0  0  0  0
 14 30  1  0  0  0  0
 14 31  1  0  0  0  0
 15 16  1  0  0  0  0
 15 32  1  0  0  0  0
 15 33  1  0  0  0  0
 16 34  1  0  0  0  0
 17 18  1  0  0  0  0
 17 19  2  0  0  0  0
 19 35  1  0  0  0  0
M  END
> <s_m_source_file>
AV-unprocessed.smi

> <i_m_source_file_index>
738

> <i_lp_mmshare_version>
43012

> <i_f3d_flags>
0

> <s_epik_input>
W05IMl1DKD1PKWMxW2NIXW5jKGMoQ2wpW2NIXTEpTihbQ0gyXVtDSDJdTzIpW0NASF0oW0NASF0yMylbQ0gyXVtDSDJdW0NIMl0z

> <s_epik_cmdline>
J2VwaWtfcHl0aG9uJywgJy1waCcsICc3LjAnLCAnLXRuJywgJzgnLCAnLW1hJywgJzIwMCcsICctbWV0YWxfYmluZGluZycsICctaW1hZScsICc8aW5maWxlLm1hZT4nLCAnLW9tYWUnLCAnPG91dGZpbGUubWFlPic=

> <r_lp_tautomer_probability>
1

> <r_epik_Ionization_Penalty>
6.75978e-06

> <r_epik_Ionization_Penalty_Charging>
0

> <r_epik_Ionization_Penalty_Neutral>
6.75978e-06

> <r_epik_State_Penalty>
-0

> <r_epik_Charging_Adjusted_Penalty>
0

> <i_epik_Tot_Q>
0

> <i_epik_Tot_abs_Q>
0

> <r_epik_Metal_State_Penalty>
-0

> <b_epik_Metal_Only>
0

> <s_lp_Force_Field>
OPLS_2005

> <r_lp_Energy>
40.6009

> <b_lp_Chiralities_Consistent>
1

> <s_lp_Variant>
AV-unprocessed.smi:738-2

> <Gold.Version>
5.8.1

> <Gold.Id.Protein>
6NUR|6NUR_protein|mol2

> <Gold.PLP.Fitness>
37.5362

> <Gold.PLP.PLP>
-32.9547

> <Gold.PLP.part.hbond>
-2.0000

> <Gold.PLP.part.metal>
0.0000

> <Gold.PLP.part.buried>
-5.1718

> <Gold.PLP.part.nonpolar>
-28.9588

> <Gold.PLP.part.repulsive>
3.8128

> <Gold.PLP.ligand.clash>
0.0000

> <Gold.PLP.ligand.torsion>
0.7334

> <Gold.PLP.Chemscore.Hbond>
2.0000

> <Gold.PLP.Chemscore.CHOScore>
0.0000

> <Gold.PLP.Chemscore.Metal>
0.0000

> <Gold.Chemscore.Hbonds>
donor molecule, donor type, donor heavy atom, donor atom, acceptor molecule, acceptor atom, score
      L1  H     1    20       P1  7949  1.00
      P1  H  7997  8008       L1     6  1.00

> <Gold.PLP.Chemscore.Internal.Correction>
0.0482

> <Gold.Rescore>
     Score         DG    S(hbond)    S(metal)    S(lipo)     H(rot)  DE(clash)    DE(int)     intcor
     16.91     -18.99       1.37        0.00      98.31       1.00       1.48       0.60       ----

> <Gold.Chemscore.Fitness>
16.9091

> <Gold.Chemscore.DG>
-18.9935

> <Gold.Chemscore.ZeroCoef>
-5.4800

> <Gold.Chemscore.Hbond>
1.3687

> <Gold.Chemscore.Metal>
0.0000

> <Gold.Chemscore.Lipo>
98.3086

> <Gold.Chemscore.Internal_Hbond>
0.0000

> <Gold.Chemscore.DEClash>
1.4822

> <Gold.Chemscore.DEInternal>
0.6021

> <Gold.Chemscore.Rot>
1.0000

> <Gold.Chemscore.Internal.Correction>
   9.000000E+99

> <Gold.Chemscore.Hbonds>
donor molecule, donor type, donor heavy atom, donor atom, acceptor molecule, acceptor atom, score
      L1  H     1    20       P1  7949  0.98
      P1  H  7997  8008       L1     6  0.24

> <Gold.Chemscore.Hbond.Weighted>
-4.5714

> <Gold.Chemscore.Metal.Weighted>
-0.0000

> <Gold.Chemscore.Lipo.Weighted>
-11.5021

> <Gold.Chemscore.Internal_Hbond.Weighted>
0.0000

> <Gold.Chemscore.DEClash.Weighted>
1.4822

> <Gold.Chemscore.DEInternal.Weighted>
0.6021

> <Gold.Chemscore.Rot.Weighted>
2.5600

> <Gold.Chemscore.Internal.Correction.Weighted>
   9.000000E+99

> <Gold.Protein.RotatedTorsions>
[ 6907 6896 6895 6894 ] final   45.43 input  -60.11 | X-H torsion
[ 7974 7965 7964 7962 ] final   21.43 input  175.53 | X-H torsion
[ 8008 7997 7996 7995 ] final  -72.17 input   59.86 | X-H torsion
[ 10167 10162 10161 10158 ] final   70.83 input  -65.29 | X-H torsion
[ 10718 10713 10712 10709 ] final -160.72 input   66.30 | X-H torsion
[ 10763 10752 10751 10750 ] final  -20.06 input  -60.55 | X-H torsion
[ 11005 11000 10999 10996 ] final  145.70 input  -57.11 | X-H torsion

> <Gold.Protein.ActiveResidues>
 VAL166  LYS551  ARG553  GLY616  TRP617  ASP618  TYR619  PRO620  LYS621  CYS622 
 ASP623  PHE694  ASN695  SER759  ASP760  ASP761  ALA762  ILE779  LEU786  VAL792 
 PHE793  MET794  SER795  GLU796  ALA797  LYS798  CYS799  TRP800  GLU811  SER814 

> <Gold.Protein.RotatedAtoms>
  152.2445  134.8195  160.0455 H   0  0  0  0  0  0  0  0  0  0  0  0  # atno 6907 bound_to 6896
  151.8898  133.3508  159.3802 H   0  0  0  0  0  0  0  0  0  0  0  0  # atno 6908 bound_to 6896
  150.7064  134.4862  159.5538 H   0  0  0  0  0  0  0  0  0  0  0  0  # atno 6909 bound_to 6896
  146.2071  139.8028  142.8717 H   0  0  0  0  0  0  0  0  0  0  0  0  # atno 7974 bound_to 7965
  154.5145  140.0802  156.8054 H   0  0  0  0  0  0  0  0  0  0  0  0  # atno 8008 bound_to 7997
  155.3711  140.3423  155.4225 H   0  0  0  0  0  0  0  0  0  0  0  0  # atno 8009 bound_to 7997
  156.1611  140.1589  156.8597 H   0  0  0  0  0  0  0  0  0  0  0  0  # atno 8010 bound_to 7997
  140.0526  144.5299  150.7352 H   0  0  0  0  0  0  0  0  0  0  0  0  # atno 10167 bound_to 10162
  156.5862  130.8750  151.2878 H   0  0  0  0  0  0  0  0  0  0  0  0  # atno 10718 bound_to 10713
  153.6145  135.6995  153.5334 H   0  0  0  0  0  0  0  0  0  0  0  0  # atno 10763 bound_to 10752
  153.2989  135.4135  155.1234 H   0  0  0  0  0  0  0  0  0  0  0  0  # atno 10764 bound_to 10752
  154.8556  135.3644  154.5685 H   0  0  0  0  0  0  0  0  0  0  0  0  # atno 10765 bound_to 10752
  140.0733  134.9139  157.1381 H   0  0  0  0  0  0  0  0  0  0  0  0  # atno 11005 bound_to 11000
  145.3279  141.0259  143.3463 LP  0  0  0  0  0  0  0  0  0  0  0  0  # atno 17320 bound_to 7965
  144.8820  139.4891  143.6718 LP  0  0  0  0  0  0  0  0  0  0  0  0  # atno 17321 bound_to 7965
  140.7209  143.2588  151.4281 LP  0  0  0  0  0  0  0  0  0  0  0  0  # atno 17342 bound_to 10162
  139.5943  144.1431  152.2125 LP  0  0  0  0  0  0  0  0  0  0  0  0  # atno 17343 bound_to 10162
  157.7315  130.9701  150.1882 LP  0  0  0  0  0  0  0  0  0  0  0  0  # atno 17370 bound_to 10713
  156.2589  130.3708  149.8152 LP  0  0  0  0  0  0  0  0  0  0  0  0  # atno 17371 bound_to 10713
  140.3595  134.2510  155.7189 LP  0  0  0  0  0  0  0  0  0  0  0  0  # atno 17394 bound_to 11000
  141.2020  133.7949  157.0413 LP  0  0  0  0  0  0  0  0  0  0  0  0  # atno 17395 bound_to 11000

$$$$
