AV-unprocessed.smi:1238|AV-procd|sdf|5184|dock10
  -GOLD-   22720 4263D 1   1.00000     0.00000
 Structure written by MMmdl.
 42 43  0  0  0  0  0  0  0  0  2 V2000
  148.9587  140.7143  154.1050 C   0  0  0  0  0  0  0  0  0  0  0  0
  150.1784  140.0339  154.3434 O   0  0  0  0  0  0  0  0  0  0  0  0
  150.1556  138.6991  153.8668 C   0  0  0  0  0  0  0  0  0  0  0  0
  151.2916  137.9092  154.5387 C   0  0  0  0  0  0  0  0  0  0  0  0
  151.0592  137.7459  155.9930 N   0  0  0  0  0  0  0  0  0  0  0  0
  149.9866  136.9296  156.4662 C   0  0  0  0  0  0  0  0  0  0  0  0
  148.9068  136.2175  155.1661 S   0  0  0  0  0  0  0  0  0  0  0  0
  149.6503  134.5782  154.9294 C   0  0  0  0  0  0  0  0  0  0  0  0
  148.6325  133.5431  154.4604 C   0  0  0  0  0  0  0  0  0  0  0  0
  148.5334  132.4646  155.0452 O   0  0  0  0  0  0  0  0  0  0  0  0
  147.8803  133.8823  153.4021 N   0  0  0  0  0  0  0  0  0  0  0  0
  146.8617  133.0329  152.7916 C   0  0  0  0  0  0  0  0  0  0  0  0
  147.0936  132.8625  151.2758 C   0  0  0  0  0  0  0  0  0  0  0  0
  145.7479  133.1459  150.6065 C   0  0  0  0  0  0  0  0  0  0  0  0
  145.0633  134.1358  151.5434 C   0  0  0  0  0  0  0  0  0  0  0  0
  145.4661  133.6660  152.9417 C   0  0  0  0  0  0  0  0  0  0  0  0
  149.8080  136.7417  157.7371 N   0  0  0  0  0  0  0  0  0  0  0  0
  150.6264  137.3274  158.7020 C   0  0  0  0  0  0  0  0  0  0  0  0
  150.3051  137.0117  159.8683 O   0  5  0  0  0  0  0  0  0  0  0  0
  151.6456  138.1593  158.2687 C   0  0  0  0  0  0  0  0  0  0  0  0
  151.8857  138.4150  156.8541 C   0  0  0  0  0  0  0  0  0  0  0  0
  152.7765  139.1774  156.4748 O   0  0  0  0  0  0  0  0  0  0  0  0
  149.0259  141.7325  154.4875 H   0  0  0  0  0  0  0  0  0  0  0  0
  148.1270  140.2201  154.6089 H   0  0  0  0  0  0  0  0  0  0  0  0
  148.7390  140.7687  153.0381 H   0  0  0  0  0  0  0  0  0  0  0  0
  149.1928  138.2400  154.0964 H   0  0  0  0  0  0  0  0  0  0  0  0
  150.2707  138.6914  152.7822 H   0  0  0  0  0  0  0  0  0  0  0  0
  151.4610  136.9618  154.0294 H   0  0  0  0  0  0  0  0  0  0  0  0
  152.2309  138.4348  154.3579 H   0  0  0  0  0  0  0  0  0  0  0  0
  150.0966  134.2441  155.8668 H   0  0  0  0  0  0  0  0  0  0  0  0
  150.4562  134.6529  154.1982 H   0  0  0  0  0  0  0  0  0  0  0  0
  148.0321  134.7889  152.9838 H   0  0  0  0  0  0  0  0  0  0  0  0
  146.8607  132.0589  153.2845 H   0  0  0  0  0  0  0  0  0  0  0  0
  147.8272  133.5856  150.9151 H   0  0  0  0  0  0  0  0  0  0  0  0
  147.4719  131.8704  151.0274 H   0  0  0  0  0  0  0  0  0  0  0  0
  145.8567  133.5315  149.5924 H   0  0  0  0  0  0  0  0  0  0  0  0
  145.1623  132.2271  150.5529 H   0  0  0  0  0  0  0  0  0  0  0  0
  145.4525  135.1391  151.3655 H   0  0  0  0  0  0  0  0  0  0  0  0
  143.9822  134.1670  151.4059 H   0  0  0  0  0  0  0  0  0  0  0  0
  144.7620  132.9043  153.2796 H   0  0  0  0  0  0  0  0  0  0  0  0
  145.4329  134.4769  153.6707 H   0  0  0  0  0  0  0  0  0  0  0  0
  152.2913  138.6313  158.9946 H   0  0  0  0  0  0  0  0  0  0  0  0
  1  2  1  0  0  0  0
  1 23  1  0  0  0  0
  1 24  1  0  0  0  0
  1 25  1  0  0  0  0
  2  3  1  0  0  0  0
  3  4  1  0  0  0  0
  3 26  1  0  0  0  0
  3 27  1  0  0  0  0
  4 28  1  0  0  0  0
  4 29  1  0  0  0  0
  4  5  1  0  0  0  0
  5  6  1  0  0  0  0
  5 21  1  0  0  0  0
  6 17  2  0  0  0  0
  6  7  1  0  0  0  0
  7  8  1  0  0  0  0
  8  9  1  0  0  0  0
  8 30  1  0  0  0  0
  8 31  1  0  0  0  0
  9 10  2  0  0  0  0
  9 11  1  0  0  0  0
 11 12  1  0  0  0  0
 11 32  1  0  0  0  0
 12 16  1  0  0  0  0
 12 13  1  0  0  0  0
 12 33  1  0  0  0  0
 13 14  1  0  0  0  0
 13 34  1  0  0  0  0
 13 35  1  0  0  0  0
 14 15  1  0  0  0  0
 14 36  1  0  0  0  0
 14 37  1  0  0  0  0
 15 16  1  0  0  0  0
 15 38  1  0  0  0  0
 15 39  1  0  0  0  0
 16 40  1  0  0  0  0
 16 41  1  0  0  0  0
 17 18  1  0  0  0  0
 18 20  2  0  0  0  0
 18 19  1  0  0  0  0
 20 21  1  0  0  0  0
 20 42  1  0  0  0  0
 21 22  2  0  0  0  0
M  CHG  1  19  -1
M  END
> <s_m_source_file>
AV-unprocessed.smi

> <i_m_source_file_index>
1238

> <i_lp_mmshare_version>
43012

> <i_f3d_flags>
0

> <s_epik_input>
W0NIM11PW0NIMl1bQ0gyXW4xYyhuYyhbT0hdKVtjSF1jMT1PKVNbQ0gyXUMoPU8pW05IXVtDSF0yW0NIMl1bQ0gyXVtDSDJdW0NIMl0y

> <s_epik_cmdline>
J2VwaWtfcHl0aG9uJywgJy1waCcsICc3LjAnLCAnLXRuJywgJzgnLCAnLW1hJywgJzIwMCcsICctbWV0YWxfYmluZGluZycsICctaW1hZScsICc8aW5maWxlLm1hZT4nLCAnLW9tYWUnLCAnPG91dGZpbGUubWFlPic=

> <r_lp_tautomer_probability>
1

> <r_epik_Ionization_Penalty>
0.0116372

> <r_epik_Ionization_Penalty_Charging>
3.186e-07

> <r_epik_Ionization_Penalty_Neutral>
0.0116369

> <r_epik_State_Penalty>
0.000414464

> <r_epik_Charging_Adjusted_Penalty>
0.000414782

> <i_epik_Tot_Q>
-1

> <i_epik_Tot_abs_Q>
1

> <r_epik_Metal_State_Penalty>
-0

> <b_epik_Metal_Only>
0

> <s_lp_Force_Field>
OPLS_2005

> <r_lp_Energy>
27.578

> <b_lp_Chiralities_Consistent>
1

> <s_lp_Variant>
AV-unprocessed.smi:1238-1

> <Gold.Version>
5.8.1

> <Gold.Id.Protein>
6NUR|6NUR_protein|mol2

> <Gold.PLP.Fitness>
44.5356

> <Gold.PLP.PLP>
-31.1044

> <Gold.PLP.part.hbond>
-4.1817

> <Gold.PLP.part.metal>
0.0000

> <Gold.PLP.part.buried>
-1.9986

> <Gold.PLP.part.nonpolar>
-23.6034

> <Gold.PLP.part.repulsive>
0.1263

> <Gold.PLP.ligand.clash>
0.0000

> <Gold.PLP.ligand.torsion>
0.7915

> <Gold.PLP.Chemscore.Hbond>
4.9920

> <Gold.PLP.Chemscore.CHOScore>
0.0000

> <Gold.PLP.Chemscore.Metal>
0.0000

> <Gold.Chemscore.Hbonds>
donor molecule, donor type, donor heavy atom, donor atom, acceptor molecule, acceptor atom, score
      L1  H    11    32       P1  7948  1.00
      P1  H  6896  6908       L1    19  1.38
      P1  H  7989  7998       L1     2  1.00
      P1  H  7997  8009       L1    22  1.00

> <Gold.PLP.Chemscore.Internal.Correction>
0.0382

> <Gold.Rescore>
     Score         DG    S(hbond)    S(metal)    S(lipo)     H(rot)  DE(clash)    DE(int)     intcor
     16.38     -18.69       3.56        0.00      66.24       2.51       1.04       1.28       ----

> <Gold.Chemscore.Fitness>
16.3805

> <Gold.Chemscore.DG>
-18.6918

> <Gold.Chemscore.ZeroCoef>
-5.4800

> <Gold.Chemscore.Hbond>
3.5610

> <Gold.Chemscore.Metal>
0.0000

> <Gold.Chemscore.Lipo>
66.2387

> <Gold.Chemscore.Internal_Hbond>
0.0000

> <Gold.Chemscore.DEClash>
1.0350

> <Gold.Chemscore.DEInternal>
1.2763

> <Gold.Chemscore.Rot>
2.5124

> <Gold.Chemscore.Internal.Correction>
   9.000000E+99

> <Gold.Chemscore.Hbonds>
donor molecule, donor type, donor heavy atom, donor atom, acceptor molecule, acceptor atom, score
      L1  H    11    32       P1  7948  0.82
      P1  H  6896  6908       L1    19  0.12
      P1  H  7989  7998       L1     2  0.42
      P1  H  7997  8009       L1    22  1.00

> <Gold.Chemscore.Hbond.Weighted>
-11.8936

> <Gold.Chemscore.Metal.Weighted>
-0.0000

> <Gold.Chemscore.Lipo.Weighted>
-7.7499

> <Gold.Chemscore.Internal_Hbond.Weighted>
0.0000

> <Gold.Chemscore.DEClash.Weighted>
1.0350

> <Gold.Chemscore.DEInternal.Weighted>
1.2763

> <Gold.Chemscore.Rot.Weighted>
6.4318

> <Gold.Chemscore.Internal.Correction.Weighted>
   9.000000E+99

> <Gold.Protein.RotatedTorsions>
[ 6907 6896 6895 6894 ] final -154.88 input  -60.11 | X-H torsion
[ 7974 7965 7964 7962 ] final   14.42 input  175.53 | X-H torsion
[ 8008 7997 7996 7995 ] final -157.65 input   59.86 | X-H torsion
[ 10167 10162 10161 10158 ] final  -79.12 input  -65.29 | X-H torsion
[ 10718 10713 10712 10709 ] final -143.26 input   66.30 | X-H torsion
[ 10763 10752 10751 10750 ] final -160.41 input  -60.55 | X-H torsion
[ 11005 11000 10999 10996 ] final   74.63 input  -57.11 | X-H torsion

> <Gold.Protein.ActiveResidues>
 VAL166  LYS551  ARG553  GLY616  TRP617  ASP618  TYR619  PRO620  LYS621  CYS622 
 ASP623  PHE694  ASN695  SER759  ASP760  ASP761  ALA762  ILE779  LEU786  VAL792 
 PHE793  MET794  SER795  GLU796  ALA797  LYS798  CYS799  TRP800  GLU811  SER814 

> <Gold.Protein.RotatedAtoms>
  151.2641  133.4287  159.2617 H   0  0  0  0  0  0  0  0  0  0  0  0  # atno 6907 bound_to 6896
  151.0504  134.9669  159.8218 H   0  0  0  0  0  0  0  0  0  0  0  0  # atno 6908 bound_to 6896
  152.5381  134.2596  159.8983 H   0  0  0  0  0  0  0  0  0  0  0  0  # atno 6909 bound_to 6896
  146.2305  139.9043  142.8534 H   0  0  0  0  0  0  0  0  0  0  0  0  # atno 7974 bound_to 7965
  155.7356  140.0807  157.2269 H   0  0  0  0  0  0  0  0  0  0  0  0  # atno 8008 bound_to 7997
  154.4028  140.1587  156.2613 H   0  0  0  0  0  0  0  0  0  0  0  0  # atno 8009 bound_to 7997
  155.9068  140.3406  155.6071 H   0  0  0  0  0  0  0  0  0  0  0  0  # atno 8010 bound_to 7997
  140.4621  143.2450  151.8332 H   0  0  0  0  0  0  0  0  0  0  0  0  # atno 10167 bound_to 10162
  156.3558  130.7712  151.1872 H   0  0  0  0  0  0  0  0  0  0  0  0  # atno 10718 bound_to 10713
  154.7393  135.3065  154.8757 H   0  0  0  0  0  0  0  0  0  0  0  0  # atno 10763 bound_to 10752
  153.9576  135.6756  153.4749 H   0  0  0  0  0  0  0  0  0  0  0  0  # atno 10764 bound_to 10752
  153.0993  135.4920  154.8761 H   0  0  0  0  0  0  0  0  0  0  0  0  # atno 10765 bound_to 10752
  139.9382  134.7449  156.1171 H   0  0  0  0  0  0  0  0  0  0  0  0  # atno 11005 bound_to 11000
  145.2292  140.9966  143.4000 LP  0  0  0  0  0  0  0  0  0  0  0  0  # atno 17320 bound_to 7965
  144.9544  139.4047  143.6386 LP  0  0  0  0  0  0  0  0  0  0  0  0  # atno 17321 bound_to 7965
  139.4807  144.4995  151.9080 LP  0  0  0  0  0  0  0  0  0  0  0  0  # atno 17342 bound_to 10162
  140.4080  144.2406  150.5890 LP  0  0  0  0  0  0  0  0  0  0  0  0  # atno 17343 bound_to 10162
  157.7467  131.0414  150.4646 LP  0  0  0  0  0  0  0  0  0  0  0  0  # atno 17370 bound_to 10713
  156.4848  130.4082  149.6440 LP  0  0  0  0  0  0  0  0  0  0  0  0  # atno 17371 bound_to 10713
  141.1005  133.6679  156.2743 LP  0  0  0  0  0  0  0  0  0  0  0  0  # atno 17394 bound_to 11000
  140.6021  134.5544  157.5519 LP  0  0  0  0  0  0  0  0  0  0  0  0  # atno 17395 bound_to 11000

$$$$
