AV-unprocessed.smi:39|AV-procd|sdf|363|dock3
  -GOLD-   2262016203D 1   1.00000     0.00000
 Structure written by MMmdl.
 31 32  0  0  0  0  0  0  0  0  4 V2000
  150.9372  145.1067  159.2947 C   0  0  0  0  0  0  0  0  0  0  0  0
  151.4916  143.7376  158.9414 C   0  0  0  0  0  0  0  0  0  0  0  0
  151.0848  143.0553  157.8481 C   0  0  0  0  0  0  0  0  0  0  0  0
  151.5911  141.8061  157.5301 N   0  0  0  0  0  0  0  0  0  0  0  0
  151.1195  141.0545  156.3013 C   0  0  1  0  0  0  0  0  0  0  0  0
  150.5853  139.6739  156.6922 C   0  0  0  0  0  0  0  0  0  0  0  0
  149.1148  139.9731  156.8889 C   0  0  2  0  0  0  0  0  0  0  0  0
  148.2771  138.7720  156.8431 N   0  0  0  0  0  0  0  0  0  0  0  0
  147.6785  138.4826  157.8872 N   0  3  0  0  0  0  0  0  0  0  0  0
  147.1807  138.1057  158.8387 N   0  5  0  0  0  0  0  0  0  0  0  0
  148.8436  141.0065  155.7780 C   0  0  2  0  0  0  0  0  0  0  0  0
  148.5883  140.4209  154.3716 C   0  0  0  0  0  0  0  0  0  0  0  0
  149.8195  140.1497  153.7363 O   0  0  0  0  0  0  0  0  0  0  0  0
  150.0609  141.7533  155.7075 O   0  0  0  0  0  0  0  0  0  0  0  0
  152.5583  141.2066  158.3789 C   0  0  0  0  0  0  0  0  0  0  0  0
  152.9740  140.0862  158.0818 O   0  0  0  0  0  0  0  0  0  0  0  0
  152.9779  141.8892  159.4821 N   0  5  0  0  0  0  0  0  0  0  0  0
  152.5017  143.1241  159.8117 C   0  0  0  0  0  0  0  0  0  0  0  0
  152.8914  143.7306  160.8089 O   0  0  0  0  0  0  0  0  0  0  0  0
  151.9720  141.0278  155.6207 H   0  0  0  0  0  0  0  0  0  0  0  0
  149.0041  140.4659  157.8572 H   0  0  0  0  0  0  0  0  0  0  0  0
  148.0152  141.6538  156.0700 H   0  0  0  0  0  0  0  0  0  0  0  0
  150.2020  145.4384  158.5609 H   0  0  0  0  0  0  0  0  0  0  0  0
  151.7387  145.8454  159.3268 H   0  0  0  0  0  0  0  0  0  0  0  0
  150.4521  145.0807  160.2709 H   0  0  0  0  0  0  0  0  0  0  0  0
  150.3375  143.5057  157.2125 H   0  0  0  0  0  0  0  0  0  0  0  0
  150.7424  138.9893  155.8577 H   0  0  0  0  0  0  0  0  0  0  0  0
  151.0788  139.2706  157.5771 H   0  0  0  0  0  0  0  0  0  0  0  0
  147.9806  139.5168  154.4161 H   0  0  0  0  0  0  0  0  0  0  0  0
  148.0623  141.1310  153.7345 H   0  0  0  0  0  0  0  0  0  0  0  0
  149.6440  139.8406  152.8607 H   0  0  0  0  0  0  0  0  0  0  0  0
  1  2  1  0  0  0  0
  1 23  1  0  0  0  0
  1 24  1  0  0  0  0
  1 25  1  0  0  0  0
  2 18  1  0  0  0  0
  2  3  2  0  0  0  0
  3  4  1  0  0  0  0
  3 26  1  0  0  0  0
  4  5  1  0  0  0  0
  4 15  1  0  0  0  0
  5 20  1  0  0  0  0
  5 14  1  0  0  0  0
  5  6  1  0  0  0  0
  6  7  1  0  0  0  0
  6 27  1  0  0  0  0
  6 28  1  0  0  0  0
  7 21  1  0  0  0  0
  7  8  1  0  0  0  0
  7 11  1  0  0  0  0
  8  9  2  0  0  0  0
  9 10  2  0  0  0  0
 11 22  1  0  0  0  0
 11 12  1  0  0  0  0
 11 14  1  0  0  0  0
 12 13  1  0  0  0  0
 12 29  1  0  0  0  0
 12 30  1  0  0  0  0
 13 31  1  0  0  0  0
 15 16  2  0  0  0  0
 15 17  1  0  0  0  0
 17 18  1  0  0  0  0
 18 19  2  0  0  0  0
M  CHG  1   9   1
M  CHG  1  10  -1
M  CHG  1  17  -1
M  END
> <s_m_source_file>
AV-unprocessed.smi

> <i_m_source_file_index>
39

> <i_lp_mmshare_version>
43012

> <i_f3d_flags>
0

> <s_epik_input>
Tz1jMVtuSF1jKD1PKW4oW2NIXWMxW0NIM10pW0NASF0yW0NIMl1bQ0BIXShOPVtOK109W04tXSlbQ0BIXShPMilbQ0gyXVtPSF0=

> <s_epik_cmdline>
J2VwaWtfcHl0aG9uJywgJy1waCcsICc3LjAnLCAnLXRuJywgJzgnLCAnLW1hJywgJzIwMCcsICctbWV0YWxfYmluZGluZycsICctaW1hZScsICc8aW5maWxlLm1hZT4nLCAnLW9tYWUnLCAnPG91dGZpbGUubWFlPic=

> <r_lp_tautomer_probability>
0.999537

> <r_epik_Ionization_Penalty>
3.6393

> <r_epik_Ionization_Penalty_Charging>
9.76484e-08

> <r_epik_Ionization_Penalty_Neutral>
3.6393

> <r_epik_State_Penalty>
3.63887

> <r_epik_Charging_Adjusted_Penalty>
3.63887

> <i_epik_Tot_Q>
-1

> <i_epik_Tot_abs_Q>
3

> <r_epik_Metal_State_Penalty>
0.225911

> <b_epik_Metal_Only>
1

> <s_epik_Chemistry_Notes>
This compound contains an acetal/aminal-like group ( X-CH(R)-Y where X, Y are N, S, or O) that may be acid/base labile, releasing an aldehyde.

> <s_lp_Force_Field>
OPLS_2005

> <r_lp_Energy>
35.706

> <b_lp_Chiralities_Consistent>
1

> <s_lp_Variant>
AV-unprocessed.smi:39-13

> <Gold.Version>
5.8.1

> <Gold.Id.Protein>
6NUR|6NUR_protein|mol2

> <Gold.PLP.Fitness>
39.9802

> <Gold.PLP.PLP>
-28.8441

> <Gold.PLP.part.hbond>
-4.0000

> <Gold.PLP.part.metal>
0.0000

> <Gold.PLP.part.buried>
-4.6610

> <Gold.PLP.part.nonpolar>
-20.4260

> <Gold.PLP.part.repulsive>
0.1554

> <Gold.PLP.ligand.clash>
0.0000

> <Gold.PLP.ligand.torsion>
0.3851

> <Gold.PLP.Chemscore.Hbond>
2.9591

> <Gold.PLP.Chemscore.CHOScore>
1.0000

> <Gold.PLP.Chemscore.Metal>
0.0000

> <Gold.Chemscore.Hbonds>
donor molecule, donor type, donor heavy atom, donor atom, acceptor molecule, acceptor atom, score
      L1  H    13    31       P1  7957  1.00
      P1  H  6934  6947       L1    10  0.20
      P1  H  7989  7998       L1    13  0.67
      P1  H  7997  8009       L1    16  1.00
      L1  C     3    26       P1  8028  1.00

> <Gold.PLP.Chemscore.Internal.Correction>
0.0288

> <Gold.Rescore>
     Score         DG    S(hbond)    S(metal)    S(lipo)     H(rot)  DE(clash)    DE(int)     intcor
      9.15     -12.06       2.39        0.00      47.34       2.72       0.07       2.85       ----

> <Gold.Chemscore.Fitness>
9.1483

> <Gold.Chemscore.DG>
-12.0639

> <Gold.Chemscore.ZeroCoef>
-5.4800

> <Gold.Chemscore.Hbond>
2.3941

> <Gold.Chemscore.Metal>
0.0000

> <Gold.Chemscore.Lipo>
47.3392

> <Gold.Chemscore.Internal_Hbond>
0.0000

> <Gold.Chemscore.DEClash>
0.0666

> <Gold.Chemscore.DEInternal>
2.8490

> <Gold.Chemscore.Rot>
2.7153

> <Gold.Chemscore.Internal.Correction>
   9.000000E+99

> <Gold.Chemscore.Hbonds>
donor molecule, donor type, donor heavy atom, donor atom, acceptor molecule, acceptor atom, score
      L1  H    13    31       P1  7957  0.96
      P1  H  6934  6947       L1    10  0.19
      P1  H  7989  7998       L1    13  0.15
      P1  H  7997  8009       L1    16  0.87

> <Gold.Chemscore.Hbond.Weighted>
-7.9964

> <Gold.Chemscore.Metal.Weighted>
-0.0000

> <Gold.Chemscore.Lipo.Weighted>
-5.5387

> <Gold.Chemscore.Internal_Hbond.Weighted>
0.0000

> <Gold.Chemscore.DEClash.Weighted>
0.0666

> <Gold.Chemscore.DEInternal.Weighted>
2.8490

> <Gold.Chemscore.Rot.Weighted>
6.9512

> <Gold.Chemscore.Internal.Correction.Weighted>
   9.000000E+99

> <Gold.Protein.RotatedTorsions>
[ 6907 6896 6895 6894 ] final   93.93 input  -60.11 | X-H torsion
[ 7974 7965 7964 7962 ] final   60.95 input  175.53 | X-H torsion
[ 8008 7997 7996 7995 ] final  163.03 input   59.86 | X-H torsion
[ 10167 10162 10161 10158 ] final    7.10 input  -65.29 | X-H torsion
[ 10718 10713 10712 10709 ] final  -78.98 input   66.30 | X-H torsion
[ 10763 10752 10751 10750 ] final  171.79 input  -60.55 | X-H torsion
[ 11005 11000 10999 10996 ] final -113.16 input  -57.11 | X-H torsion

> <Gold.Protein.ActiveResidues>
 VAL166  LYS551  ARG553  GLY616  TRP617  ASP618  TYR619  PRO620  LYS621  CYS622 
 ASP623  PHE694  ASN695  SER759  ASP760  ASP761  ALA762  ILE779  LEU786  VAL792 
 PHE793  MET794  SER795  GLU796  ALA797  LYS798  CYS799  TRP800  GLU811  SER814 

> <Gold.Protein.RotatedAtoms>
  152.5451  134.1271  159.8423 H   0  0  0  0  0  0  0  0  0  0  0  0  # atno 6907 bound_to 6896
  151.1321  133.5022  159.2606 H   0  0  0  0  0  0  0  0  0  0  0  0  # atno 6908 bound_to 6896
  151.1664  135.0307  159.8787 H   0  0  0  0  0  0  0  0  0  0  0  0  # atno 6909 bound_to 6896
  145.8902  139.3506  143.0653 H   0  0  0  0  0  0  0  0  0  0  0  0  # atno 7974 bound_to 7965
  156.1987  140.1734  156.7944 H   0  0  0  0  0  0  0  0  0  0  0  0  # atno 8008 bound_to 7997
  154.5564  140.0708  156.8780 H   0  0  0  0  0  0  0  0  0  0  0  0  # atno 8009 bound_to 7997
  155.2931  140.3356  155.4254 H   0  0  0  0  0  0  0  0  0  0  0  0  # atno 8010 bound_to 7997
  140.6391  143.7817  150.7401 H   0  0  0  0  0  0  0  0  0  0  0  0  # atno 10167 bound_to 10162
  156.0104  130.4533  150.3579 H   0  0  0  0  0  0  0  0  0  0  0  0  # atno 10718 bound_to 10713
  154.4168  135.2757  155.2001 H   0  0  0  0  0  0  0  0  0  0  0  0  # atno 10763 bound_to 10752
  154.3963  135.6054  153.5875 H   0  0  0  0  0  0  0  0  0  0  0  0  # atno 10764 bound_to 10752
  152.9832  135.5915  154.4458 H   0  0  0  0  0  0  0  0  0  0  0  0  # atno 10765 bound_to 10752
  141.0631  133.9503  157.2630 H   0  0  0  0  0  0  0  0  0  0  0  0  # atno 11005 bound_to 11000
  145.8917  140.9299  143.0549 LP  0  0  0  0  0  0  0  0  0  0  0  0  # atno 17320 bound_to 7965
  144.6730  140.0914  143.7465 LP  0  0  0  0  0  0  0  0  0  0  0  0  # atno 17321 bound_to 7965
  140.1445  143.4412  152.2172 LP  0  0  0  0  0  0  0  0  0  0  0  0  # atno 17342 bound_to 10162
  139.5600  144.7399  151.4182 LP  0  0  0  0  0  0  0  0  0  0  0  0  # atno 17343 bound_to 10162
  157.1669  131.0359  151.2814 LP  0  0  0  0  0  0  0  0  0  0  0  0  # atno 17370 bound_to 10713
  157.4263  130.7465  149.6954 LP  0  0  0  0  0  0  0  0  0  0  0  0  # atno 17371 bound_to 10713
  139.9451  135.0185  156.8827 LP  0  0  0  0  0  0  0  0  0  0  0  0  # atno 17394 bound_to 11000
  140.5828  134.0335  155.7470 LP  0  0  0  0  0  0  0  0  0  0  0  0  # atno 17395 bound_to 11000

$$$$
