AV-unprocessed.smi:554|AV-procd|sdf|2909|dock4
  -GOLD-   2262023403D 1   1.00000     0.00000
 Structure written by MMmdl.
 27 28  0  0  0  0  0  0  0  0  1 V2000
  152.5348  143.1339  161.5751 C   0  0  0  0  0  0  0  0  0  0  0  0
  152.8527  142.8641  160.1206 C   0  0  1  0  0  0  0  0  0  0  0  0
  152.5110  141.5356  159.4883 C   0  0  0  0  0  0  0  0  0  0  0  0
  151.7448  142.7765  159.0935 C   0  0  2  0  0  0  0  0  0  0  0  0
  151.9115  143.3696  157.7075 C   0  0  0  0  0  0  0  0  0  0  0  0
  150.7741  143.1764  156.8175 N   0  0  0  0  0  0  0  0  0  0  0  0
  150.4323  142.0099  156.2519 C   0  0  0  0  0  0  0  0  0  0  0  0
  151.0466  140.9589  156.4378 O   0  0  0  0  0  0  0  0  0  0  0  0
  149.3479  142.1483  155.4690 N   0  0  0  0  0  0  0  0  0  0  0  0
  148.6845  141.1538  154.7032 C   0  0  0  0  0  0  0  0  0  0  0  0
  147.4990  141.3253  154.1065 N   0  0  0  0  0  0  0  0  0  0  0  0
  147.0863  140.1798  153.4213 C   0  0  0  0  0  0  0  0  0  0  0  0
  147.9761  139.1380  153.5072 C   0  0  0  0  0  0  0  0  0  0  0  0
  149.3766  139.5572  154.4573 S   0  0  0  0  0  0  0  0  0  0  0  0
  151.6009  142.6508  161.8643 H   0  0  0  0  0  0  0  0  0  0  0  0
  152.4373  144.2067  161.7421 H   0  0  0  0  0  0  0  0  0  0  0  0
  153.3349  142.7532  162.2099 H   0  0  0  0  0  0  0  0  0  0  0  0
  153.7822  143.3220  159.7876 H   0  0  0  0  0  0  0  0  0  0  0  0
  153.2196  141.1266  158.7709 H   0  0  0  0  0  0  0  0  0  0  0  0
  151.9921  140.8005  160.1000 H   0  0  0  0  0  0  0  0  0  0  0  0
  150.7249  142.8303  159.4706 H   0  0  0  0  0  0  0  0  0  0  0  0
  152.1459  144.4324  157.7871 H   0  0  0  0  0  0  0  0  0  0  0  0
  152.7778  142.9008  157.2404 H   0  0  0  0  0  0  0  0  0  0  0  0
  150.2130  143.9900  156.6121 H   0  0  0  0  0  0  0  0  0  0  0  0
  148.9514  143.0748  155.4112 H   0  0  0  0  0  0  0  0  0  0  0  0
  146.1422  140.1933  152.8970 H   0  0  0  0  0  0  0  0  0  0  0  0
  147.8928  138.1539  153.0705 H   0  0  0  0  0  0  0  0  0  0  0  0
  1  2  1  0  0  0  0
  1 15  1  0  0  0  0
  1 16  1  0  0  0  0
  1 17  1  0  0  0  0
  2  4  1  0  0  0  0
  2  3  1  0  0  0  0
  2 18  1  0  0  0  0
  3  4  1  0  0  0  0
  3 19  1  0  0  0  0
  3 20  1  0  0  0  0
  4  5  1  0  0  0  0
  4 21  1  0  0  0  0
  5  6  1  0  0  0  0
  5 22  1  0  0  0  0
  5 23  1  0  0  0  0
  6  7  1  0  0  0  0
  6 24  1  0  0  0  0
  7  8  2  0  0  0  0
  7  9  1  0  0  0  0
  9 10  1  0  0  0  0
  9 25  1  0  0  0  0
 10 14  1  0  0  0  0
 10 11  2  0  0  0  0
 11 12  1  0  0  0  0
 12 13  2  0  0  0  0
 12 26  1  0  0  0  0
 13 14  1  0  0  0  0
 13 27  1  0  0  0  0
M  END
> <s_m_source_file>
AV-unprocessed.smi

> <i_m_source_file_index>
554

> <i_lp_mmshare_version>
43012

> <i_f3d_flags>
0

> <s_epik_input>
W0NIM11bQ0BASF0xW0NIMl1bQ0BIXTFbQ0gyXVtOSF1DKD1PKVtOSF1jMm5bY0hdW2NIXXMy

> <s_epik_cmdline>
J2VwaWtfcHl0aG9uJywgJy1waCcsICc3LjAnLCAnLXRuJywgJzgnLCAnLW1hJywgJzIwMCcsICctbWV0YWxfYmluZGluZycsICctaW1hZScsICc8aW5maWxlLm1hZT4nLCAnLW9tYWUnLCAnPG91dGZpbGUubWFlPic=

> <r_lp_tautomer_probability>
0.999

> <r_epik_Ionization_Penalty>
0.00042678

> <r_epik_Ionization_Penalty_Charging>
0

> <r_epik_Ionization_Penalty_Neutral>
0.00042678

> <r_epik_State_Penalty>
0.000177984

> <r_epik_Charging_Adjusted_Penalty>
0.000177984

> <i_epik_Tot_Q>
0

> <i_epik_Tot_abs_Q>
0

> <r_epik_Metal_State_Penalty>
-0

> <b_epik_Metal_Only>
0

> <s_lp_Force_Field>
OPLS_2005

> <r_lp_Energy>
12.8371

> <b_lp_Chiralities_Consistent>
1

> <s_lp_Variant>
AV-unprocessed.smi:554-4

> <Gold.Version>
5.8.1

> <Gold.Id.Protein>
6NUR|6NUR_protein|mol2

> <Gold.PLP.Fitness>
41.7189

> <Gold.PLP.PLP>
-30.0638

> <Gold.PLP.part.hbond>
-2.0000

> <Gold.PLP.part.metal>
0.0000

> <Gold.PLP.part.buried>
-3.6184

> <Gold.PLP.part.nonpolar>
-25.1044

> <Gold.PLP.part.repulsive>
0.3883

> <Gold.PLP.ligand.clash>
0.0000

> <Gold.PLP.ligand.torsion>
0.4300

> <Gold.PLP.Chemscore.Hbond>
1.9920

> <Gold.PLP.Chemscore.CHOScore>
2.0000

> <Gold.PLP.Chemscore.Metal>
0.0000

> <Gold.Chemscore.Hbonds>
donor molecule, donor type, donor heavy atom, donor atom, acceptor molecule, acceptor atom, score
      L1  H     6    24       P1  8028  0.99
      L1  H     9    25       P1  8028  1.00
      L1  C    12    26       P1 10175  1.00
      L1  C    13    27       P1  7948  1.00

> <Gold.PLP.Chemscore.Internal.Correction>
0.5391

> <Gold.Rescore>
     Score         DG    S(hbond)    S(metal)    S(lipo)     H(rot)  DE(clash)    DE(int)     intcor
     15.97     -17.63       1.97        0.00      75.73       1.28       0.07       1.59       ----

> <Gold.Chemscore.Fitness>
15.9727

> <Gold.Chemscore.DG>
-17.6316

> <Gold.Chemscore.ZeroCoef>
-5.4800

> <Gold.Chemscore.Hbond>
1.9654

> <Gold.Chemscore.Metal>
0.0000

> <Gold.Chemscore.Lipo>
75.7347

> <Gold.Chemscore.Internal_Hbond>
0.0000

> <Gold.Chemscore.DEClash>
0.0677

> <Gold.Chemscore.DEInternal>
1.5912

> <Gold.Chemscore.Rot>
1.2788

> <Gold.Chemscore.Internal.Correction>
   9.000000E+99

> <Gold.Chemscore.Hbonds>
donor molecule, donor type, donor heavy atom, donor atom, acceptor molecule, acceptor atom, score
      L1  H     6    24       P1  8028  0.94
      L1  H     9    25       P1  8028  0.99

> <Gold.Chemscore.Hbond.Weighted>
-6.5645

> <Gold.Chemscore.Metal.Weighted>
-0.0000

> <Gold.Chemscore.Lipo.Weighted>
-8.8610

> <Gold.Chemscore.Internal_Hbond.Weighted>
0.0000

> <Gold.Chemscore.DEClash.Weighted>
0.0677

> <Gold.Chemscore.DEInternal.Weighted>
1.5912

> <Gold.Chemscore.Rot.Weighted>
3.2738

> <Gold.Chemscore.Internal.Correction.Weighted>
   9.000000E+99

> <Gold.Protein.RotatedTorsions>
[ 6907 6896 6895 6894 ] final  177.93 input  -60.11 | X-H torsion
[ 7974 7965 7964 7962 ] final   94.07 input  175.53 | X-H torsion
[ 8008 7997 7996 7995 ] final  135.40 input   59.86 | X-H torsion
[ 10167 10162 10161 10158 ] final   58.27 input  -65.29 | X-H torsion
[ 10718 10713 10712 10709 ] final  -66.57 input   66.30 | X-H torsion
[ 10763 10752 10751 10750 ] final  113.16 input  -60.55 | X-H torsion
[ 11005 11000 10999 10996 ] final -146.00 input  -57.11 | X-H torsion

> <Gold.Protein.ActiveResidues>
 VAL166  LYS551  ARG553  GLY616  TRP617  ASP618  TYR619  PRO620  LYS621  CYS622 
 ASP623  PHE694  ASN695  SER759  ASP760  ASP761  ALA762  ILE779  LEU786  VAL792 
 PHE793  MET794  SER795  GLU796  ALA797  LYS798  CYS799  TRP800  GLU811  SER814 

> <Gold.Protein.RotatedAtoms>
  151.6960  133.3311  159.3254 H   0  0  0  0  0  0  0  0  0  0  0  0  # atno 6907 bound_to 6896
  150.7757  134.6657  159.6373 H   0  0  0  0  0  0  0  0  0  0  0  0  # atno 6908 bound_to 6896
  152.3799  134.6610  160.0198 H   0  0  0  0  0  0  0  0  0  0  0  0  # atno 6909 bound_to 6896
  145.4705  139.2282  143.2938 H   0  0  0  0  0  0  0  0  0  0  0  0  # atno 7974 bound_to 7965
  156.3003  140.2471  156.3576 H   0  0  0  0  0  0  0  0  0  0  0  0  # atno 8008 bound_to 7997
  154.8907  140.0409  157.1856 H   0  0  0  0  0  0  0  0  0  0  0  0  # atno 8009 bound_to 7997
  154.8600  140.2919  155.5549 H   0  0  0  0  0  0  0  0  0  0  0  0  # atno 8010 bound_to 7997
  140.1890  144.4105  150.6580 H   0  0  0  0  0  0  0  0  0  0  0  0  # atno 10167 bound_to 10162
  156.0605  130.4264  150.1727 H   0  0  0  0  0  0  0  0  0  0  0  0  # atno 10718 bound_to 10713
  153.4885  135.3664  155.2479 H   0  0  0  0  0  0  0  0  0  0  0  0  # atno 10763 bound_to 10752
  154.8753  135.3971  154.3617 H   0  0  0  0  0  0  0  0  0  0  0  0  # atno 10764 bound_to 10752
  153.4232  135.7081  153.6345 H   0  0  0  0  0  0  0  0  0  0  0  0  # atno 10765 bound_to 10752
  140.7865  134.3018  157.5028 H   0  0  0  0  0  0  0  0  0  0  0  0  # atno 11005 bound_to 11000
  146.2399  140.5482  142.8938 LP  0  0  0  0  0  0  0  0  0  0  0  0  # atno 17320 bound_to 7965
  144.7948  140.6102  143.6517 LP  0  0  0  0  0  0  0  0  0  0  0  0  # atno 17321 bound_to 7965
  140.6468  143.2215  151.6167 LP  0  0  0  0  0  0  0  0  0  0  0  0  # atno 17342 bound_to 10162
  139.5264  144.3047  152.1043 LP  0  0  0  0  0  0  0  0  0  0  0  0  # atno 17343 bound_to 10162
  156.9796  130.9860  151.3440 LP  0  0  0  0  0  0  0  0  0  0  0  0  # atno 17370 bound_to 10713
  157.5610  130.8246  149.8266 LP  0  0  0  0  0  0  0  0  0  0  0  0  # atno 17371 bound_to 10713
  139.8736  134.9349  156.3620 LP  0  0  0  0  0  0  0  0  0  0  0  0  # atno 17394 bound_to 11000
  140.9431  133.7501  156.0173 LP  0  0  0  0  0  0  0  0  0  0  0  0  # atno 17395 bound_to 11000

$$$$
