#       Name:                AV-unprocessed.smi:444
#       Creating user name   scv26
#       Creation time:       Thu Mar 26 22:58:07 2020


#       File generated by GOLD software.
#

@<TRIPOS>MOLECULE
AV-unprocessed.smi:444
    53    54     1
SMALL
NO_CHARGES


@<TRIPOS>ATOM
      1 ****        -6.4028  -0.5771  -0.2309 C.3            1 S1                 0.0000
      2 ****        -5.3887   0.5482  -0.2123 C.ar           1 S1                 0.0000
      3 ****        -5.7971   1.8771  -0.4356 C.ar           1 S1                 0.0000
      4 ****        -4.8488   2.9156  -0.4183 C.ar           1 S1                 0.0000
      5 ****        -3.4881   2.6328  -0.1782 C.ar           1 S1                 0.0000
      6 ****        -2.4786   3.7653  -0.1626 C.3            1 S1                 0.0000
      7 ****        -3.0641   1.3027   0.0483 C.ar           1 S1                 0.0000
      8 ****        -1.7195   1.0960   0.2795 O.3            1 S1                 0.0000
      9 ****        -1.2692  -0.2260   0.5438 C.3            1 S1                 0.0000
     10 ****         0.2469  -0.1893   0.8009 C.3            1 S1                 0.0000
     11 ****         0.4313   0.2397   2.1361 O.3            1 S1                 0.0000
     12 ****         0.8901  -1.5854   0.6457 C.3            1 S1                 0.0000
     13 ****         2.3432  -1.5010   0.4514 N.am           1 S1                 0.0000
     14 ****         2.7225  -1.2801  -0.8586 N.2            1 S1                 0.0000
     15 ****         3.9663  -1.1594  -1.1884 C.2            1 S1                 0.0000
     16 ****         4.2598  -0.9204  -2.6450 C.3            1 S1                 0.0000
     17 ****         4.9991  -1.2576  -0.1622 C.2            1 S1                 0.0000
     18 ****         6.4469  -1.1054  -0.6090 C.3            1 S1                 0.0000
     19 ****         4.6144  -1.4805   1.1195 C.2            1 S1                 0.0000
     20 ****         5.5535  -1.5954   2.1884 C.1            1 S1                 0.0000
     21 ****         6.3311  -1.6903   3.0407 N.1            1 S1                 0.0000
     22 ****         3.2068  -1.6191   1.5002 C.2            1 S1                 0.0000
     23 ****         2.8269  -1.8212   2.6545 O.2            1 S1                 0.0000
     24 ****        -4.0291   0.2633   0.0266 C.ar           1 S1                 0.0000
     25 ****        -7.4226  -0.1927  -0.1947 H              1 S1                 0.0000
     26 ****        -6.2588  -1.2343   0.6270 H              1 S1                 0.0000
     27 ****        -6.2916  -1.1687  -1.1398 H              1 S1                 0.0000
     28 ****        -6.8366   2.1053  -0.6209 H              1 S1                 0.0000
     29 ****        -5.1716   3.9320  -0.5902 H              1 S1                 0.0000
     30 ****        -1.9999   3.8309   0.8149 H              1 S1                 0.0000
     31 ****        -2.9502   4.7255  -0.3739 H              1 S1                 0.0000
     32 ****        -1.7064   3.5944  -0.9130 H              1 S1                 0.0000
     33 ****        -1.7953  -0.6731   1.3896 H              1 S1                 0.0000
     34 ****        -1.4755  -0.8350  -0.3377 H              1 S1                 0.0000
     35 ****         0.7149   0.5178   0.1146 H              1 S1                 0.0000
     36 ****         0.0219  -0.3861   2.7139 H              1 S1                 0.0000
     37 ****         0.6206  -2.2362   1.4798 H              1 S1                 0.0000
     38 ****         0.4724  -2.0785  -0.2340 H              1 S1                 0.0000
     39 ****         4.9085  -1.7011  -3.0425 H              1 S1                 0.0000
     40 ****         4.7581   0.0389  -2.7864 H              1 S1                 0.0000
     41 ****         3.3502  -0.9109  -3.2476 H              1 S1                 0.0000
     42 ****         7.1439  -1.1474   0.2276 H              1 S1                 0.0000
     43 ****         6.5965  -0.1476  -1.1084 H              1 S1                 0.0000
     44 ****         6.7179  -1.9018  -1.3029 H              1 S1                 0.0000
     45 ****        -3.7490  -0.7659   0.1914 H              1 S1                 0.0000
     46 ****        -1.4665   1.6566   1.0680 LP             1 S1                 0.0000
     47 ****        -1.2284   1.4183  -0.5299 LP             1 S1                 0.0000
     48 ****         0.0118   1.1388   2.2618 LP             1 S1                 0.0000
     49 ****         1.4087   0.2966   2.3395 LP             1 S1                 0.0000
     50 ****         2.0197  -1.2121  -1.5667 LP             1 S1                 0.0000
     51 ****         7.0028  -1.7722   3.7769 LP             1 S1                 0.0000
     52 ****         1.8502  -1.9052   2.8519 LP             1 S1                 0.0000
     53 ****         3.4952  -1.9012   3.3940 LP             1 S1                 0.0000
@<TRIPOS>BOND
    1    1    2 1     
    2    1   25 1     
    3    1   26 1     
    4    1   27 1     
    5    2   24 ar    
    6    2    3 ar    
    7    3    4 ar    
    8    3   28 1     
    9    4    5 ar    
   10    4   29 1     
   11    5    6 1     
   12    5    7 ar    
   13    6   30 1     
   14    6   31 1     
   15    6   32 1     
   16    7    8 1     
   17    7   24 ar    
   18    8    9 1     
   19    9   10 1     
   20    9   33 1     
   21    9   34 1     
   22   10   11 1     
   23   10   12 1     
   24   10   35 1     
   25   11   36 1     
   26   12   13 1     
   27   12   37 1     
   28   12   38 1     
   29   13   22 am    
   30   13   14 1     
   31   14   15 2     
   32   15   16 1     
   33   15   17 1     
   34   16   39 1     
   35   16   40 1     
   36   16   41 1     
   37   17   18 1     
   38   17   19 2     
   39   18   42 1     
   40   18   43 1     
   41   18   44 1     
   42   19   20 1     
   43   19   22 1     
   44   20   21 3     
   45   22   23 2     
   46   24   45 1     
   47    8   46 1     
   48    8   47 1     
   49   11   48 1     
   50   11   49 1     
   51   14   50 1     
   52   21   51 1     
   53   23   52 1     
   54   23   53 1     
@<TRIPOS>SUBSTRUCTURE
      1 S1             1
@<TRIPOS>SET
LONE_PAIRS      STATIC     ATOMS    <user>   **** ""
8 46 47 48 49 50 51 52 53
DONOR_HYDROGENS      STATIC     ATOMS    <user>   **** ""
1 36
ATOM$BLUE        STATIC     ATOMS    COLORGROUP SYSTEM
8 46 47 48 49 50 51 52 53
ATOM$RED        STATIC     ATOMS    COLORGROUP SYSTEM
1 36
