AV-unprocessed.smi:382|AV-procd|sdf|2463|dock4
  -GOLD-   2262022403D 1   1.00000     0.00000
 Structure written by MMmdl.
 36 37  0  0  0  0  0  0  0  0  1 V2000
  149.2501  132.4546  154.0661 C   0  0  0  0  0  0  0  0  0  0  0  0
  148.6137  133.8172  154.3740 C   0  0  0  0  0  0  0  0  0  0  0  0
  149.4529  134.6937  155.3225 C   0  0  0  0  0  0  0  0  0  0  0  0
  149.9493  135.9033  154.6746 N   0  0  0  0  0  0  0  0  0  0  0  0
  150.6897  136.8509  155.2688 C   0  0  0  0  0  0  0  0  0  0  0  0
  151.0117  136.8085  156.4572 O   0  0  0  0  0  0  0  0  0  0  0  0
  151.1189  138.0253  154.3766 C   0  0  0  0  0  0  0  0  0  0  0  0
  150.6120  139.3321  154.8493 N   0  0  0  0  0  0  0  0  0  0  0  0
  149.3375  139.7730  154.4094 C   0  0  0  0  0  0  0  0  0  0  0  0
  148.6663  139.0978  153.6272 O   0  0  0  0  0  0  0  0  0  0  0  0
  148.8911  141.0519  154.9576 C   0  0  0  0  0  0  0  0  0  0  0  0
  147.6007  141.5138  154.5658 C   0  0  0  0  0  0  0  0  0  0  0  0
  146.5516  141.8697  154.2304 N   0  0  0  0  0  0  0  0  0  0  0  0
  149.6715  141.7562  155.8031 C   0  0  0  0  0  0  0  0  0  0  0  0
  150.9237  141.3284  156.1868 N   0  0  0  0  0  0  0  0  0  0  0  0
  151.6703  142.0151  157.2030 C   0  0  0  0  0  0  0  0  0  0  0  0
  151.0319  142.2391  158.5565 C   0  0  0  0  0  0  0  0  0  0  0  0
  151.2699  143.4119  157.6368 C   0  0  0  0  0  0  0  0  0  0  0  0
  151.4057  140.0719  155.7594 C   0  0  0  0  0  0  0  0  0  0  0  0
  152.4796  139.6257  156.1719 O   0  0  0  0  0  0  0  0  0  0  0  0
  148.6424  131.8971  153.3530 H   0  0  0  0  0  0  0  0  0  0  0  0
  149.3435  131.8442  154.9647 H   0  0  0  0  0  0  0  0  0  0  0  0
  150.2443  132.5728  153.6344 H   0  0  0  0  0  0  0  0  0  0  0  0
  148.4637  134.3566  153.4384 H   0  0  0  0  0  0  0  0  0  0  0  0
  147.6188  133.6638  154.7936 H   0  0  0  0  0  0  0  0  0  0  0  0
  148.8481  134.9926  156.1792 H   0  0  0  0  0  0  0  0  0  0  0  0
  150.2898  134.1198  155.7239 H   0  0  0  0  0  0  0  0  0  0  0  0
  149.7252  136.0206  153.6970 H   0  0  0  0  0  0  0  0  0  0  0  0
  152.2082  138.0436  154.3083 H   0  0  0  0  0  0  0  0  0  0  0  0
  150.7947  137.8142  153.3569 H   0  0  0  0  0  0  0  0  0  0  0  0
  149.3052  142.6952  156.1921 H   0  0  0  0  0  0  0  0  0  0  0  0
  152.7386  141.8057  157.2137 H   0  0  0  0  0  0  0  0  0  0  0  0
  150.0013  141.9184  158.6970 H   0  0  0  0  0  0  0  0  0  0  0  0
  151.6703  142.1504  159.4330 H   0  0  0  0  0  0  0  0  0  0  0  0
  152.0689  144.1028  157.8973 H   0  0  0  0  0  0  0  0  0  0  0  0
  150.3950  143.8653  157.1747 H   0  0  0  0  0  0  0  0  0  0  0  0
  1  2  1  0  0  0  0
  1 21  1  0  0  0  0
  1 22  1  0  0  0  0
  1 23  1  0  0  0  0
  2  3  1  0  0  0  0
  2 24  1  0  0  0  0
  2 25  1  0  0  0  0
  3  4  1  0  0  0  0
  3 26  1  0  0  0  0
  3 27  1  0  0  0  0
  4  5  1  0  0  0  0
  4 28  1  0  0  0  0
  5  6  2  0  0  0  0
  5  7  1  0  0  0  0
  7  8  1  0  0  0  0
  7 29  1  0  0  0  0
  7 30  1  0  0  0  0
  8 19  1  0  0  0  0
  8  9  1  0  0  0  0
  9 10  2  0  0  0  0
  9 11  1  0  0  0  0
 11 12  1  0  0  0  0
 11 14  2  0  0  0  0
 12 13  3  0  0  0  0
 14 15  1  0  0  0  0
 14 31  1  0  0  0  0
 15 16  1  0  0  0  0
 15 19  1  0  0  0  0
 16 18  1  0  0  0  0
 16 17  1  0  0  0  0
 16 32  1  0  0  0  0
 17 18  1  0  0  0  0
 17 33  1  0  0  0  0
 17 34  1  0  0  0  0
 18 35  1  0  0  0  0
 18 36  1  0  0  0  0
 19 20  2  0  0  0  0
M  END
> <s_m_source_file>
AV-unprocessed.smi

> <i_m_source_file_index>
382

> <i_lp_mmshare_version>
43012

> <i_f3d_flags>
0

> <s_epik_input>
W0NIM11bQ0gyXVtDSDJdW05IXUMoPU8pW0NIMl1uMWMoPU8pYyhDI04pW2NIXW4oYzE9TylbQ0hdMltDSDJdW0NIMl0y

> <s_epik_cmdline>
J2VwaWtfcHl0aG9uJywgJy1waCcsICc3LjAnLCAnLXRuJywgJzgnLCAnLW1hJywgJzIwMCcsICctbWV0YWxfYmluZGluZycsICctaW1hZScsICc8aW5maWxlLm1hZT4nLCAnLW9tYWUnLCAnPG91dGZpbGUubWFlPic=

> <r_lp_tautomer_probability>
1

> <r_epik_Ionization_Penalty>
1.82511e-08

> <r_epik_Ionization_Penalty_Charging>
8.22213e-11

> <r_epik_Ionization_Penalty_Neutral>
1.81689e-08

> <r_epik_State_Penalty>
-0

> <r_epik_Charging_Adjusted_Penalty>
8.22213e-11

> <i_epik_Tot_Q>
0

> <i_epik_Tot_abs_Q>
0

> <r_epik_Metal_State_Penalty>
-0

> <b_epik_Metal_Only>
0

> <s_lp_Force_Field>
OPLS_2005

> <r_lp_Energy>
29.1959

> <b_lp_Chiralities_Consistent>
1

> <s_lp_Variant>
AV-unprocessed.smi:382-1

> <Gold.Version>
5.8.1

> <Gold.Id.Protein>
6NUR|6NUR_protein|mol2

> <Gold.PLP.Fitness>
43.9885

> <Gold.PLP.PLP>
-36.6837

> <Gold.PLP.part.hbond>
-2.2276

> <Gold.PLP.part.metal>
0.0000

> <Gold.PLP.part.buried>
-5.5756

> <Gold.PLP.part.nonpolar>
-31.9816

> <Gold.PLP.part.repulsive>
2.8406

> <Gold.PLP.ligand.clash>
0.0000

> <Gold.PLP.ligand.torsion>
0.8793

> <Gold.PLP.Chemscore.Hbond>
1.9500

> <Gold.PLP.Chemscore.CHOScore>
1.0000

> <Gold.PLP.Chemscore.Metal>
0.0000

> <Gold.Chemscore.Hbonds>
donor molecule, donor type, donor heavy atom, donor atom, acceptor molecule, acceptor atom, score
      L1  H     4    28       P1  7948  1.00
      P1  H  7997  8010       L1    20  1.00
      L1  C    14    31       P1  8028  1.00

> <Gold.PLP.Chemscore.Internal.Correction>
0.2135

> <Gold.Rescore>
     Score         DG    S(hbond)    S(metal)    S(lipo)     H(rot)  DE(clash)    DE(int)     intcor
     12.66     -13.72       1.88        0.00      61.44       2.04       0.11       0.95       ----

> <Gold.Chemscore.Fitness>
12.6578

> <Gold.Chemscore.DG>
-13.7206

> <Gold.Chemscore.ZeroCoef>
-5.4800

> <Gold.Chemscore.Hbond>
1.8816

> <Gold.Chemscore.Metal>
0.0000

> <Gold.Chemscore.Lipo>
61.4379

> <Gold.Chemscore.Internal_Hbond>
0.0000

> <Gold.Chemscore.DEClash>
0.1081

> <Gold.Chemscore.DEInternal>
0.9547

> <Gold.Chemscore.Rot>
2.0438

> <Gold.Chemscore.Internal.Correction>
   9.000000E+99

> <Gold.Chemscore.Hbonds>
donor molecule, donor type, donor heavy atom, donor atom, acceptor molecule, acceptor atom, score
      L1  H     4    28       P1  7948  0.25
      P1  H  7997  8010       L1    20  0.95

> <Gold.Chemscore.Hbond.Weighted>
-6.2846

> <Gold.Chemscore.Metal.Weighted>
-0.0000

> <Gold.Chemscore.Lipo.Weighted>
-7.1882

> <Gold.Chemscore.Internal_Hbond.Weighted>
0.0000

> <Gold.Chemscore.DEClash.Weighted>
0.1081

> <Gold.Chemscore.DEInternal.Weighted>
0.9547

> <Gold.Chemscore.Rot.Weighted>
5.2322

> <Gold.Chemscore.Internal.Correction.Weighted>
   9.000000E+99

> <Gold.Protein.RotatedTorsions>
[ 6907 6896 6895 6894 ] final  173.35 input  -60.11 | X-H torsion
[ 7974 7965 7964 7962 ] final  -64.23 input  175.53 | X-H torsion
[ 8008 7997 7996 7995 ] final   61.52 input   59.86 | X-H torsion
[ 10167 10162 10161 10158 ] final  -21.93 input  -65.29 | X-H torsion
[ 10718 10713 10712 10709 ] final   85.69 input   66.30 | X-H torsion
[ 10763 10752 10751 10750 ] final  -63.83 input  -60.55 | X-H torsion
[ 11005 11000 10999 10996 ] final   50.25 input  -57.11 | X-H torsion

> <Gold.Protein.ActiveResidues>
 VAL166  LYS551  ARG553  GLY616  TRP617  ASP618  TYR619  PRO620  LYS621  CYS622 
 ASP623  PHE694  ASN695  SER759  ASP760  ASP761  ALA762  ILE779  LEU786  VAL792 
 PHE793  MET794  SER795  GLU796  ALA797  LYS798  CYS799  TRP800  GLU811  SER814 

> <Gold.Protein.RotatedAtoms>
  151.7697  133.3340  159.3440 H   0  0  0  0  0  0  0  0  0  0  0  0  # atno 6907 bound_to 6896
  150.7466  134.6030  159.6056 H   0  0  0  0  0  0  0  0  0  0  0  0  # atno 6908 bound_to 6896
  152.3350  134.7212  160.0331 H   0  0  0  0  0  0  0  0  0  0  0  0  # atno 6909 bound_to 6896
  145.7693  140.8821  143.0389 H   0  0  0  0  0  0  0  0  0  0  0  0  # atno 7974 bound_to 7965
  155.5996  140.3494  155.4590 H   0  0  0  0  0  0  0  0  0  0  0  0  # atno 8008 bound_to 7997
  156.0238  140.1259  157.0354 H   0  0  0  0  0  0  0  0  0  0  0  0  # atno 8009 bound_to 7997
  154.4325  140.1057  156.5988 H   0  0  0  0  0  0  0  0  0  0  0  0  # atno 8010 bound_to 7997
  140.7284  143.4582  151.0418 H   0  0  0  0  0  0  0  0  0  0  0  0  # atno 10167 bound_to 10162
  157.6918  131.0185  150.2861 H   0  0  0  0  0  0  0  0  0  0  0  0  # atno 10718 bound_to 10713
  154.3210  135.6196  153.5508 H   0  0  0  0  0  0  0  0  0  0  0  0  # atno 10763 bound_to 10752
  152.9820  135.5724  154.5070 H   0  0  0  0  0  0  0  0  0  0  0  0  # atno 10764 bound_to 10752
  154.4738  135.2860  155.1599 H   0  0  0  0  0  0  0  0  0  0  0  0  # atno 10765 bound_to 10752
  140.1033  134.5052  155.8743 H   0  0  0  0  0  0  0  0  0  0  0  0  # atno 11005 bound_to 11000
  144.6816  139.9832  143.7483 LP  0  0  0  0  0  0  0  0  0  0  0  0  # atno 17320 bound_to 7965
  146.0186  139.3231  143.0826 LP  0  0  0  0  0  0  0  0  0  0  0  0  # atno 17321 bound_to 7965
  139.8264  143.7750  152.3178 LP  0  0  0  0  0  0  0  0  0  0  0  0  # atno 17342 bound_to 10162
  139.7850  144.7431  151.0034 LP  0  0  0  0  0  0  0  0  0  0  0  0  # atno 17343 bound_to 10162
  156.3400  130.3814  149.7417 LP  0  0  0  0  0  0  0  0  0  0  0  0  # atno 17370 bound_to 10713
  156.4930  130.8093  151.3102 LP  0  0  0  0  0  0  0  0  0  0  0  0  # atno 17371 bound_to 10713
  141.2111  133.6703  156.6561 LP  0  0  0  0  0  0  0  0  0  0  0  0  # atno 17394 bound_to 11000
  140.3190  134.8023  157.4237 LP  0  0  0  0  0  0  0  0  0  0  0  0  # atno 17395 bound_to 11000

$$$$
