AV-unprocessed.smi:1017|AV-procd|sdf|4439|dock5
  -GOLD-   22720 2403D 1   1.00000     0.00000
 Structure written by MMmdl.
 43 44  0  0  0  0  0  0  0  0  2 V2000
  152.8179  143.5612  158.1228 C   0  0  0  0  0  0  0  0  0  0  0  0
  152.3593  142.5121  158.9608 O   0  0  0  0  0  0  0  0  0  0  0  0
  152.0754  141.3025  158.2713 C   0  0  0  0  0  0  0  0  0  0  0  0
  150.9119  141.4692  157.2746 C   0  0  0  0  0  0  0  0  0  0  0  0
  150.2996  140.1783  156.9455 N   0  0  0  0  0  0  0  0  0  0  0  0
  149.9475  139.4216  158.0502 N   0  0  0  0  0  0  0  0  0  0  0  0
  149.3908  138.2629  157.9011 C   0  0  0  0  0  0  0  0  0  0  0  0
  149.0112  137.4426  159.0952 C   0  0  0  0  0  0  0  0  0  0  0  0
  149.8623  136.6249  159.4649 O   0  0  0  0  0  0  0  0  0  0  0  0
  147.7896  137.6450  159.6779 N   0  5  0  0  0  0  0  0  0  0  0  0
  146.8343  136.6514  160.2188 C   0  0  0  0  0  0  0  0  0  0  0  0
  145.4548  136.9824  159.5658 C   0  0  0  0  0  0  0  0  0  0  0  0
  144.4833  136.1675  159.9721 F   0  0  0  0  0  0  0  0  0  0  0  0
  145.0844  138.2297  159.8653 F   0  0  0  0  0  0  0  0  0  0  0  0
  145.5317  136.8847  158.2365 F   0  0  0  0  0  0  0  0  0  0  0  0
  147.3042  135.2047  159.8519 C   0  0  0  0  0  0  0  0  0  0  0  0
  146.5496  134.0615  160.5768 C   0  0  0  0  0  0  0  0  0  0  0  0
  146.5565  134.2250  162.1091 C   0  0  0  0  0  0  0  0  0  0  0  0
  146.0146  135.6155  162.4934 C   0  0  0  0  0  0  0  0  0  0  0  0
  146.7655  136.7672  161.7779 C   0  0  0  0  0  0  0  0  0  0  0  0
  149.1260  137.7387  156.5662 C   0  0  0  0  0  0  0  0  0  0  0  0
  149.4744  138.4894  155.4987 C   0  0  0  0  0  0  0  0  0  0  0  0
  150.1030  139.8019  155.6468 C   0  0  0  0  0  0  0  0  0  0  0  0
  150.4239  140.5066  154.6898 O   0  0  0  0  0  0  0  0  0  0  0  0
  152.9617  144.4626  158.7185 H   0  0  0  0  0  0  0  0  0  0  0  0
  152.0919  143.7904  157.3418 H   0  0  0  0  0  0  0  0  0  0  0  0
  153.7722  143.3203  157.6547 H   0  0  0  0  0  0  0  0  0  0  0  0
  152.9753  141.0249  157.7215 H   0  0  0  0  0  0  0  0  0  0  0  0
  151.8856  140.4937  158.9785 H   0  0  0  0  0  0  0  0  0  0  0  0
  150.1528  142.1463  157.6678 H   0  0  0  0  0  0  0  0  0  0  0  0
  151.2829  141.9465  156.3657 H   0  0  0  0  0  0  0  0  0  0  0  0
  147.2412  135.0533  158.7739 H   0  0  0  0  0  0  0  0  0  0  0  0
  148.3577  135.0772  160.0982 H   0  0  0  0  0  0  0  0  0  0  0  0
  145.5231  133.9845  160.2180 H   0  0  0  0  0  0  0  0  0  0  0  0
  147.0148  133.1097  160.3184 H   0  0  0  0  0  0  0  0  0  0  0  0
  145.9623  133.4410  162.5791 H   0  0  0  0  0  0  0  0  0  0  0  0
  147.5754  134.1149  162.4828 H   0  0  0  0  0  0  0  0  0  0  0  0
  144.9446  135.6639  162.2909 H   0  0  0  0  0  0  0  0  0  0  0  0
  146.1074  135.7474  163.5718 H   0  0  0  0  0  0  0  0  0  0  0  0
  147.7694  136.7824  162.1998 H   0  0  0  0  0  0  0  0  0  0  0  0
  146.3204  137.7209  162.0624 H   0  0  0  0  0  0  0  0  0  0  0  0
  148.6634  136.7746  156.4149 H   0  0  0  0  0  0  0  0  0  0  0  0
  149.2830  138.1106  154.5057 H   0  0  0  0  0  0  0  0  0  0  0  0
  1  2  1  0  0  0  0
  1 25  1  0  0  0  0
  1 26  1  0  0  0  0
  1 27  1  0  0  0  0
  2  3  1  0  0  0  0
  3  4  1  0  0  0  0
  3 28  1  0  0  0  0
  3 29  1  0  0  0  0
  4  5  1  0  0  0  0
  4 30  1  0  0  0  0
  4 31  1  0  0  0  0
  5 23  1  0  0  0  0
  5  6  1  0  0  0  0
  6  7  2  0  0  0  0
  7  8  1  0  0  0  0
  7 21  1  0  0  0  0
  8  9  2  0  0  0  0
  8 10  1  0  0  0  0
 10 11  1  0  0  0  0
 11 20  1  0  0  0  0
 11 12  1  0  0  0  0
 11 16  1  0  0  0  0
 12 13  1  0  0  0  0
 12 14  1  0  0  0  0
 12 15  1  0  0  0  0
 16 17  1  0  0  0  0
 16 32  1  0  0  0  0
 16 33  1  0  0  0  0
 17 18  1  0  0  0  0
 17 34  1  0  0  0  0
 17 35  1  0  0  0  0
 18 19  1  0  0  0  0
 18 36  1  0  0  0  0
 18 37  1  0  0  0  0
 19 20  1  0  0  0  0
 19 38  1  0  0  0  0
 19 39  1  0  0  0  0
 20 40  1  0  0  0  0
 20 41  1  0  0  0  0
 21 22  2  0  0  0  0
 21 42  1  0  0  0  0
 22 23  1  0  0  0  0
 22 43  1  0  0  0  0
 23 24  2  0  0  0  0
M  CHG  1  10  -1
M  END
> <s_m_source_file>
AV-unprocessed.smi

> <i_m_source_file_index>
1017

> <i_lp_mmshare_version>
43012

> <i_f3d_flags>
0

> <s_epik_input>
W0NIM11PW0NIMl1bQ0gyXW4xbmMoW2NIXVtjSF1jMT1PKUMoPU8pW05IXUMyKEMoRikoRilGKVtDSDJdW0NIMl1bQ0gyXVtDSDJdW0NIMl0y

> <s_epik_cmdline>
J2VwaWtfcHl0aG9uJywgJy1waCcsICc3LjAnLCAnLXRuJywgJzgnLCAnLW1hJywgJzIwMCcsICctbWV0YWxfYmluZGluZycsICctaW1hZScsICc8aW5maWxlLm1hZT4nLCAnLW9tYWUnLCAnPG91dGZpbGUubWFlPic=

> <r_lp_tautomer_probability>
1

> <r_epik_Ionization_Penalty>
6.5547

> <r_epik_Ionization_Penalty_Charging>
6.5547

> <r_epik_Ionization_Penalty_Neutral>
1.08437e-11

> <r_epik_State_Penalty>
6.55469

> <r_epik_Charging_Adjusted_Penalty>
13.1094

> <i_epik_Tot_Q>
-1

> <i_epik_Tot_abs_Q>
1

> <r_epik_Metal_State_Penalty>
2.48023

> <b_epik_Metal_Only>
1

> <s_lp_Force_Field>
OPLS_2005

> <r_lp_Energy>
56.1946

> <b_lp_Chiralities_Consistent>
1

> <s_lp_Variant>
AV-unprocessed.smi:1017-2

> <Gold.Version>
5.8.1

> <Gold.Id.Protein>
6NUR|6NUR_protein|mol2

> <Gold.PLP.Fitness>
39.8453

> <Gold.PLP.PLP>
-35.2407

> <Gold.PLP.part.hbond>
-4.0000

> <Gold.PLP.part.metal>
0.0000

> <Gold.PLP.part.buried>
-4.9625

> <Gold.PLP.part.nonpolar>
-27.9542

> <Gold.PLP.part.repulsive>
0.1080

> <Gold.PLP.ligand.clash>
0.0000

> <Gold.PLP.ligand.torsion>
2.1124

> <Gold.PLP.Chemscore.Hbond>
2.9049

> <Gold.PLP.Chemscore.CHOScore>
0.0000

> <Gold.PLP.Chemscore.Metal>
0.0000

> <Gold.Chemscore.Hbonds>
donor molecule, donor type, donor heavy atom, donor atom, acceptor molecule, acceptor atom, score
      P1  H  6896  6907       L1     9  1.00
      P1  H  6934  6947       L1    10  0.81
      P1  H  7989  7998       L1    24  0.99

> <Gold.PLP.Chemscore.Internal.Correction>
0.1146

> <Gold.Rescore>
     Score         DG    S(hbond)    S(metal)    S(lipo)     H(rot)  DE(clash)    DE(int)     intcor
     12.92     -17.93       2.00        0.00      85.73       1.67       0.16       4.84       ----

> <Gold.Chemscore.Fitness>
12.9245

> <Gold.Chemscore.DG>
-17.9342

> <Gold.Chemscore.ZeroCoef>
-5.4800

> <Gold.Chemscore.Hbond>
2.0022

> <Gold.Chemscore.Metal>
0.0000

> <Gold.Chemscore.Lipo>
85.7346

> <Gold.Chemscore.Internal_Hbond>
0.0000

> <Gold.Chemscore.DEClash>
0.1650

> <Gold.Chemscore.DEInternal>
4.8447

> <Gold.Chemscore.Rot>
1.6657

> <Gold.Chemscore.Internal.Correction>
   9.000000E+99

> <Gold.Chemscore.Hbonds>
donor molecule, donor type, donor heavy atom, donor atom, acceptor molecule, acceptor atom, score
      P1  H  6896  6907       L1     9  0.96
      P1  H  6934  6947       L1    10  0.03
      P1  H  7989  7998       L1    24  0.94

> <Gold.Chemscore.Hbond.Weighted>
-6.6873

> <Gold.Chemscore.Metal.Weighted>
-0.0000

> <Gold.Chemscore.Lipo.Weighted>
-10.0309

> <Gold.Chemscore.Internal_Hbond.Weighted>
0.0000

> <Gold.Chemscore.DEClash.Weighted>
0.1650

> <Gold.Chemscore.DEInternal.Weighted>
4.8447

> <Gold.Chemscore.Rot.Weighted>
4.2641

> <Gold.Chemscore.Internal.Correction.Weighted>
   9.000000E+99

> <Gold.Protein.RotatedTorsions>
[ 6907 6896 6895 6894 ] final  -42.93 input  -60.11 | X-H torsion
[ 7974 7965 7964 7962 ] final  -48.32 input  175.53 | X-H torsion
[ 8008 7997 7996 7995 ] final  124.17 input   59.86 | X-H torsion
[ 10167 10162 10161 10158 ] final -143.53 input  -65.29 | X-H torsion
[ 10718 10713 10712 10709 ] final  149.84 input   66.30 | X-H torsion
[ 10763 10752 10751 10750 ] final   93.53 input  -60.55 | X-H torsion
[ 11005 11000 10999 10996 ] final  -58.85 input  -57.11 | X-H torsion

> <Gold.Protein.ActiveResidues>
 VAL166  LYS551  ARG553  GLY616  TRP617  ASP618  TYR619  PRO620  LYS621  CYS622 
 ASP623  PHE694  ASN695  SER759  ASP760  ASP761  ALA762  ILE779  LEU786  VAL792 
 PHE793  MET794  SER795  GLU796  ALA797  LYS798  CYS799  TRP800  GLU811  SER814 

> <Gold.Protein.RotatedAtoms>
  150.9497  134.8898  159.7663 H   0  0  0  0  0  0  0  0  0  0  0  0  # atno 6907 bound_to 6896
  152.5114  134.3824  159.9366 H   0  0  0  0  0  0  0  0  0  0  0  0  # atno 6908 bound_to 6896
  151.3841  133.3771  159.2748 H   0  0  0  0  0  0  0  0  0  0  0  0  # atno 6909 bound_to 6896
  145.9524  140.7559  142.9498 H   0  0  0  0  0  0  0  0  0  0  0  0  # atno 7974 bound_to 7965
  156.2792  140.2746  156.1744 H   0  0  0  0  0  0  0  0  0  0  0  0  # atno 8008 bound_to 7997
  155.0621  140.0386  157.2598 H   0  0  0  0  0  0  0  0  0  0  0  0  # atno 8009 bound_to 7997
  154.7109  140.2668  155.6636 H   0  0  0  0  0  0  0  0  0  0  0  0  # atno 8010 bound_to 7997
  139.7985  143.7867  152.2656 H   0  0  0  0  0  0  0  0  0  0  0  0  # atno 10167 bound_to 10162
  157.2910  131.0853  151.1462 H   0  0  0  0  0  0  0  0  0  0  0  0  # atno 10718 bound_to 10713
  153.2313  135.4322  155.0598 H   0  0  0  0  0  0  0  0  0  0  0  0  # atno 10763 bound_to 10752
  154.8298  135.3380  154.6783 H   0  0  0  0  0  0  0  0  0  0  0  0  # atno 10764 bound_to 10752
  153.7210  135.7017  153.5069 H   0  0  0  0  0  0  0  0  0  0  0  0  # atno 10765 bound_to 10752
  141.1224  133.6614  156.4983 H   0  0  0  0  0  0  0  0  0  0  0  0  # atno 11005 bound_to 11000
  144.6798  140.2457  143.7338 LP  0  0  0  0  0  0  0  0  0  0  0  0  # atno 17320 bound_to 7965
  145.8153  139.2020  143.1969 LP  0  0  0  0  0  0  0  0  0  0  0  0  # atno 17321 bound_to 7965
  139.7980  144.7385  150.9864 LP  0  0  0  0  0  0  0  0  0  0  0  0  # atno 17342 bound_to 10162
  140.7820  143.4374  151.0602 LP  0  0  0  0  0  0  0  0  0  0  0  0  # atno 17343 bound_to 10162
  157.2858  130.6772  149.6089 LP  0  0  0  0  0  0  0  0  0  0  0  0  # atno 17370 bound_to 10713
  155.9667  130.4436  150.5427 LP  0  0  0  0  0  0  0  0  0  0  0  0  # atno 17371 bound_to 10713
  140.4467  134.6966  157.5019 LP  0  0  0  0  0  0  0  0  0  0  0  0  # atno 17394 bound_to 11000
  140.0193  134.6571  155.9263 LP  0  0  0  0  0  0  0  0  0  0  0  0  # atno 17395 bound_to 11000

$$$$
