AV-unprocessed.smi:2275|AV-procd|sdf|9171|dock3
  -GOLD-   2272012383D 1   1.00000     0.00000
 Structure written by MMmdl.
 38 39  0  0  0  0  0  0  0  0  1 V2000
  145.0271  139.6090  155.1647 C   0  0  0  0  0  0  0  0  0  0  0  0
  146.5258  139.6866  154.9335 C   0  0  0  0  0  0  0  0  0  0  0  0
  147.2481  138.5357  155.2621 N   0  0  0  0  0  0  0  0  0  0  0  0
  148.5297  138.5082  155.0919 C   0  0  0  0  0  0  0  0  0  0  0  0
  149.2288  139.6111  154.5760 N   0  0  0  0  0  0  0  0  0  0  0  0
  150.6835  139.4467  154.4228 C   0  0  0  0  0  0  0  0  0  0  0  0
  151.3973  139.2890  155.7841 C   0  0  1  0  0  0  0  0  0  0  0  0
  152.7984  139.3678  155.6168 O   0  0  0  0  0  0  0  0  0  0  0  0
  150.9874  140.3606  156.8079 C   0  0  0  0  0  0  0  0  0  0  0  0
  151.7350  140.1958  158.0072 O   0  0  0  0  0  0  0  0  0  0  0  0
  151.8334  141.2669  158.8688 C   0  0  0  0  0  0  0  0  0  0  0  0
  152.5812  141.0713  160.0484 C   0  0  0  0  0  0  0  0  0  0  0  0
  152.7350  142.1106  160.9859 C   0  0  0  0  0  0  0  0  0  0  0  0
  152.1394  143.3633  160.7507 C   0  0  0  0  0  0  0  0  0  0  0  0
  151.3901  143.5728  159.5782 C   0  0  0  0  0  0  0  0  0  0  0  0
  151.2360  142.5327  158.6407 C   0  0  0  0  0  0  0  0  0  0  0  0
  148.6051  140.7802  154.2507 C   0  0  0  0  0  0  0  0  0  0  0  0
  149.2333  141.7525  153.8271 O   0  0  0  0  0  0  0  0  0  0  0  0
  147.1457  140.7937  154.4411 C   0  0  0  0  0  0  0  0  0  0  0  0
  146.4118  142.0747  154.0645 C   0  0  0  0  0  0  0  0  0  0  0  0
  144.4893  139.7316  154.2245 H   0  0  0  0  0  0  0  0  0  0  0  0
  144.7059  140.3886  155.8559 H   0  0  0  0  0  0  0  0  0  0  0  0
  144.7394  138.6474  155.5914 H   0  0  0  0  0  0  0  0  0  0  0  0
  149.1410  137.6383  155.3387 H   0  0  0  0  0  0  0  0  0  0  0  0
  150.9348  138.6172  153.7583 H   0  0  0  0  0  0  0  0  0  0  0  0
  151.0766  140.3257  153.9086 H   0  0  0  0  0  0  0  0  0  0  0  0
  151.1758  138.3131  156.2181 H   0  0  0  0  0  0  0  0  0  0  0  0
  153.0291  138.9203  154.8169 H   0  0  0  0  0  0  0  0  0  0  0  0
  151.2036  141.3432  156.3853 H   0  0  0  0  0  0  0  0  0  0  0  0
  149.9143  140.3131  157.0026 H   0  0  0  0  0  0  0  0  0  0  0  0
  153.0420  140.1127  160.2372 H   0  0  0  0  0  0  0  0  0  0  0  0
  153.3099  141.9459  161.8852 H   0  0  0  0  0  0  0  0  0  0  0  0
  152.2564  144.1618  161.4685 H   0  0  0  0  0  0  0  0  0  0  0  0
  150.9321  144.5339  159.3967 H   0  0  0  0  0  0  0  0  0  0  0  0
  150.6546  142.7322  157.7535 H   0  0  0  0  0  0  0  0  0  0  0  0
  146.7754  142.9071  154.6677 H   0  0  0  0  0  0  0  0  0  0  0  0
  145.3344  142.0107  154.2076 H   0  0  0  0  0  0  0  0  0  0  0  0
  146.5884  142.3145  153.0155 H   0  0  0  0  0  0  0  0  0  0  0  0
  1  2  1  0  0  0  0
  1 21  1  0  0  0  0
  1 22  1  0  0  0  0
  1 23  1  0  0  0  0
  2 19  2  0  0  0  0
  2  3  1  0  0  0  0
  3  4  2  0  0  0  0
  4  5  1  0  0  0  0
  4 24  1  0  0  0  0
  5  6  1  0  0  0  0
  5 17  1  0  0  0  0
  6  7  1  0  0  0  0
  6 25  1  0  0  0  0
  6 26  1  0  0  0  0
  7  8  1  0  0  0  0
  7  9  1  0  0  0  0
  7 27  1  0  0  0  0
  8 28  1  0  0  0  0
  9 10  1  0  0  0  0
  9 29  1  0  0  0  0
  9 30  1  0  0  0  0
 10 11  1  0  0  0  0
 11 16  1  0  0  0  0
 11 12  2  0  0  0  0
 12 13  1  0  0  0  0
 12 31  1  0  0  0  0
 13 14  2  0  0  0  0
 13 32  1  0  0  0  0
 14 15  1  0  0  0  0
 14 33  1  0  0  0  0
 15 16  2  0  0  0  0
 15 34  1  0  0  0  0
 16 35  1  0  0  0  0
 17 18  2  0  0  0  0
 17 19  1  0  0  0  0
 19 20  1  0  0  0  0
 20 36  1  0  0  0  0
 20 37  1  0  0  0  0
 20 38  1  0  0  0  0
M  END
> <s_m_source_file>
AV-unprocessed.smi

> <i_m_source_file_index>
2275

> <i_lp_mmshare_version>
43012

> <i_f3d_flags>
0

> <s_epik_input>
W0NIM11jMW5bY0hdbihjKD1PKWMxW0NIM10pW0NIMl1bQ0BIXShbT0hdKVtDSDJdT2MyW2NIXVtjSF1bY0hdW2NIXVtjSF0y

> <s_epik_cmdline>
J2VwaWtfcHl0aG9uJywgJy1waCcsICc3LjAnLCAnLXRuJywgJzgnLCAnLW1hJywgJzIwMCcsICctbWV0YWxfYmluZGluZycsICctaW1hZScsICc8aW5maWxlLm1hZT4nLCAnLW9tYWUnLCAnPG91dGZpbGUubWFlPic=

> <r_lp_tautomer_probability>
1

> <r_epik_Ionization_Penalty>
4.18311e-05

> <r_epik_Ionization_Penalty_Charging>
1.04093e-07

> <r_epik_Ionization_Penalty_Neutral>
4.1727e-05

> <r_epik_State_Penalty>
-0

> <r_epik_Charging_Adjusted_Penalty>
1.04093e-07

> <i_epik_Tot_Q>
0

> <i_epik_Tot_abs_Q>
0

> <r_epik_Metal_State_Penalty>
-0

> <b_epik_Metal_Only>
0

> <s_lp_Force_Field>
OPLS_2005

> <r_lp_Energy>
23.5562

> <b_lp_Chiralities_Consistent>
1

> <s_lp_Variant>
AV-unprocessed.smi:2275-2

> <Gold.Version>
5.8.1

> <Gold.Id.Protein>
6NUR|6NUR_protein|mol2

> <Gold.PLP.Fitness>
43.5828

> <Gold.PLP.PLP>
-38.9927

> <Gold.PLP.part.hbond>
-2.9511

> <Gold.PLP.part.metal>
0.0000

> <Gold.PLP.part.buried>
-3.7718

> <Gold.PLP.part.nonpolar>
-32.6436

> <Gold.PLP.part.repulsive>
0.2260

> <Gold.PLP.ligand.clash>
0.0000

> <Gold.PLP.ligand.torsion>
0.1996

> <Gold.PLP.Chemscore.Hbond>
1.6400

> <Gold.PLP.Chemscore.CHOScore>
0.0000

> <Gold.PLP.Chemscore.Metal>
0.0000

> <Gold.Chemscore.Hbonds>
donor molecule, donor type, donor heavy atom, donor atom, acceptor molecule, acceptor atom, score
      P1  H  7997  8010       L1     8  1.00
      P1  H  8011  8017       L1    18  0.61

> <Gold.PLP.Chemscore.Internal.Correction>
0.0694

> <Gold.Rescore>
     Score         DG    S(hbond)    S(metal)    S(lipo)     H(rot)  DE(clash)    DE(int)     intcor
     16.29     -16.64       1.81        0.00      95.78       2.38       0.13       0.23       ----

> <Gold.Chemscore.Fitness>
16.2893

> <Gold.Chemscore.DG>
-16.6440

> <Gold.Chemscore.ZeroCoef>
-5.4800

> <Gold.Chemscore.Hbond>
1.8137

> <Gold.Chemscore.Metal>
0.0000

> <Gold.Chemscore.Lipo>
95.7770

> <Gold.Chemscore.Internal_Hbond>
0.0000

> <Gold.Chemscore.DEClash>
0.1260

> <Gold.Chemscore.DEInternal>
0.2287

> <Gold.Chemscore.Rot>
2.3826

> <Gold.Chemscore.Internal.Correction>
   9.000000E+99

> <Gold.Chemscore.Hbonds>
donor molecule, donor type, donor heavy atom, donor atom, acceptor molecule, acceptor atom, score
      P1  H  7997  8010       L1     8  0.35
      P1  H  8011  8017       L1    18  0.60

> <Gold.Chemscore.Hbond.Weighted>
-6.0576

> <Gold.Chemscore.Metal.Weighted>
-0.0000

> <Gold.Chemscore.Lipo.Weighted>
-11.2059

> <Gold.Chemscore.Internal_Hbond.Weighted>
0.0000

> <Gold.Chemscore.DEClash.Weighted>
0.1260

> <Gold.Chemscore.DEInternal.Weighted>
0.2287

> <Gold.Chemscore.Rot.Weighted>
6.0996

> <Gold.Chemscore.Internal.Correction.Weighted>
   9.000000E+99

> <Gold.Protein.RotatedTorsions>
[ 6907 6896 6895 6894 ] final   12.34 input  -60.11 | X-H torsion
[ 7974 7965 7964 7962 ] final -172.07 input  175.53 | X-H torsion
[ 8008 7997 7996 7995 ] final   93.58 input   59.86 | X-H torsion
[ 10167 10162 10161 10158 ] final   89.01 input  -65.29 | X-H torsion
[ 10718 10713 10712 10709 ] final   46.26 input   66.30 | X-H torsion
[ 10763 10752 10751 10750 ] final -140.70 input  -60.55 | X-H torsion
[ 11005 11000 10999 10996 ] final   11.41 input  -57.11 | X-H torsion

> <Gold.Protein.ActiveResidues>
 VAL166  LYS551  ARG553  GLY616  TRP617  ASP618  TYR619  PRO620  LYS621  CYS622 
 ASP623  PHE694  ASN695  SER759  ASP760  ASP761  ALA762  ILE779  LEU786  VAL792 
 PHE793  MET794  SER795  GLU796  ALA797  LYS798  CYS799  TRP800  GLU811  SER814 

> <Gold.Protein.RotatedAtoms>
  151.7688  135.0792  160.0356 H   0  0  0  0  0  0  0  0  0  0  0  0  # atno 6907 bound_to 6896
  152.3303  133.5946  159.5813 H   0  0  0  0  0  0  0  0  0  0  0  0  # atno 6908 bound_to 6896
  150.7419  133.9794  159.3613 H   0  0  0  0  0  0  0  0  0  0  0  0  # atno 6909 bound_to 6896
  144.7150  140.1827  143.6356 H   0  0  0  0  0  0  0  0  0  0  0  0  # atno 7974 bound_to 7965
  156.0483  140.3311  155.7322 H   0  0  0  0  0  0  0  0  0  0  0  0  # atno 8008 bound_to 7997
  155.5639  140.0621  157.2840 H   0  0  0  0  0  0  0  0  0  0  0  0  # atno 8009 bound_to 7997
  154.4424  140.1872  156.0799 H   0  0  0  0  0  0  0  0  0  0  0  0  # atno 8010 bound_to 7997
  139.8615  144.6541  150.9052 H   0  0  0  0  0  0  0  0  0  0  0  0  # atno 10167 bound_to 10162
  157.4463  130.8111  149.7743 H   0  0  0  0  0  0  0  0  0  0  0  0  # atno 10718 bound_to 10713
  154.8570  135.3545  154.5749 H   0  0  0  0  0  0  0  0  0  0  0  0  # atno 10763 bound_to 10752
  153.6361  135.7000  153.5263 H   0  0  0  0  0  0  0  0  0  0  0  0  # atno 10764 bound_to 10752
  153.3009  135.4206  155.1211 H   0  0  0  0  0  0  0  0  0  0  0  0  # atno 10765 bound_to 10752
  140.5035  134.0723  155.7799 H   0  0  0  0  0  0  0  0  0  0  0  0  # atno 11005 bound_to 11000
  145.8842  139.2339  143.1588 LP  0  0  0  0  0  0  0  0  0  0  0  0  # atno 17320 bound_to 7965
  145.9966  140.8557  143.0039 LP  0  0  0  0  0  0  0  0  0  0  0  0  # atno 17321 bound_to 7965
  140.7774  143.3740  151.1597 LP  0  0  0  0  0  0  0  0  0  0  0  0  # atno 17342 bound_to 10162
  139.7369  143.8985  152.3037 LP  0  0  0  0  0  0  0  0  0  0  0  0  # atno 17343 bound_to 10162
  155.9968  130.3903  150.2763 LP  0  0  0  0  0  0  0  0  0  0  0  0  # atno 17370 bound_to 10713
  157.0931  131.0175  151.3114 LP  0  0  0  0  0  0  0  0  0  0  0  0  # atno 17371 bound_to 10713
  141.1423  133.9116  157.2297 LP  0  0  0  0  0  0  0  0  0  0  0  0  # atno 17394 bound_to 11000
  139.9700  135.0131  156.9486 LP  0  0  0  0  0  0  0  0  0  0  0  0  # atno 17395 bound_to 11000

$$$$
