#       Name:                AV-unprocessed.smi:2001
#       Creating user name   scv26
#       Creation time:       Fri Mar 27 10:34:25 2020


#       File generated by GOLD software.
#

@<TRIPOS>MOLECULE
AV-unprocessed.smi:2001
    60    61     1
SMALL
NO_CHARGES


@<TRIPOS>ATOM
      1 ****        -3.9380   7.1669   3.1949 C.3            1 S1                 0.0000
      2 ****        -3.3699   6.7709   1.9588 O.3            1 S1                 0.0000
      3 ****        -3.2821   5.3618   1.8308 C.3            1 S1                 0.0000
      4 ****        -2.6309   5.0197   0.4823 C.3            1 S1                 0.0000
      5 ****        -2.5065   3.5698   0.3031 N.am           1 S1                 0.0000
      6 ****        -1.2897   3.0543   0.7164 N.2            1 S1                 0.0000
      7 ****        -1.0537   1.7846   0.6349 C.2            1 S1                 0.0000
      8 ****         0.2591   1.2242   1.0905 C.2            1 S1                 0.0000
      9 ****         1.0690   2.0579   1.5184 O.2            1 S1                 0.0000
     10 ****         0.4701  -0.1235   1.0063 N.pl3          1 S1                -1.0000
     11 ****         1.6887  -0.8168   1.4270 C.3            1 S1                 0.0000
     12 ****         1.7415  -2.2124   0.7782 C.3            1 S1                 0.0000
     13 ****         1.7967  -2.1263  -0.7083 N.4            1 S1                 1.0000
     14 ****         3.1525  -2.2954  -1.2919 C.3            1 S1                 0.0000
     15 ****         3.5623  -3.7832  -1.3416 C.3            1 S1                 0.0000
     16 ****         4.9032  -3.9860  -2.0557 C.3            1 S1                 0.0000
     17 ****         2.5691  -4.5227  -2.0455 O.3            1 S1                 0.0000
     18 ****         1.2890  -4.4602  -1.4243 C.3            1 S1                 0.0000
     19 ****         0.3323  -5.3634  -2.2104 C.3            1 S1                 0.0000
     20 ****         0.8164  -2.9933  -1.4057 C.3            1 S1                 0.0000
     21 ****        -2.0645   0.8797   0.0996 C.2            1 S1                 0.0000
     22 ****        -3.2481   1.3976  -0.2948 C.2            1 S1                 0.0000
     23 ****        -3.5382   2.8282  -0.1995 C.2            1 S1                 0.0000
     24 ****        -4.6153   3.3201  -0.5356 O.2            1 S1                 0.0000
     25 ****        -3.9967   8.2544   3.2400 H              1 S1                 0.0000
     26 ****        -3.3296   6.8278   4.0342 H              1 S1                 0.0000
     27 ****        -4.9474   6.7700   3.3114 H              1 S1                 0.0000
     28 ****        -2.6873   4.9493   2.6476 H              1 S1                 0.0000
     29 ****        -4.2788   4.9220   1.8940 H              1 S1                 0.0000
     30 ****        -3.2055   5.4608  -0.3342 H              1 S1                 0.0000
     31 ****        -1.6451   5.4850   0.4266 H              1 S1                 0.0000
     32 ****         2.5912  -0.2689   1.1523 H              1 S1                 0.0000
     33 ****         1.7264  -0.9312   2.5104 H              1 S1                 0.0000
     34 ****         2.5997  -2.7634   1.1630 H              1 S1                 0.0000
     35 ****         0.8640  -2.7777   1.0964 H              1 S1                 0.0000
     36 ****         3.1378  -1.8862  -2.3030 H              1 S1                 0.0000
     37 ****         3.8831  -1.7089  -0.7335 H              1 S1                 0.0000
     38 ****         3.6519  -4.1835  -0.3307 H              1 S1                 0.0000
     39 ****         5.7039  -3.4479  -1.5474 H              1 S1                 0.0000
     40 ****         4.8607  -3.6291  -3.0851 H              1 S1                 0.0000
     41 ****         5.1757  -5.0416  -2.0804 H              1 S1                 0.0000
     42 ****         1.3639  -4.8421  -0.4047 H              1 S1                 0.0000
     43 ****        -0.6635  -5.3603  -1.7661 H              1 S1                 0.0000
     44 ****         0.6880  -6.3940  -2.2197 H              1 S1                 0.0000
     45 ****         0.2385  -5.0338  -3.2455 H              1 S1                 0.0000
     46 ****        -0.1673  -2.8994  -0.9431 H              1 S1                 0.0000
     47 ****         0.7080  -2.6298  -2.4285 H              1 S1                 0.0000
     48 ****        -1.8900  -0.1825   0.0137 H              1 S1                 0.0000
     49 ****        -4.0047   0.7368  -0.6917 H              1 S1                 0.0000
     50 ****         1.5097  -1.1768  -0.9040 H              1 S1                 0.0000
     51 ****        -2.4503   7.1575   1.8895 LP             1 S1                 0.0000
     52 ****        -3.9376   7.1260   1.2161 LP             1 S1                 0.0000
     53 ****        -0.5885   3.6673   1.0804 LP             1 S1                 0.0000
     54 ****         0.8240   3.0271   1.5410 LP             1 S1                 0.0000
     55 ****         1.9679   1.7617   1.8413 LP             1 S1                 0.0000
     56 ****        -0.2679  -0.6812   0.6265 LP             1 S1                 0.0000
     57 ****         2.8557  -5.4797  -2.0906 LP             1 S1                 0.0000
     58 ****         2.4929  -4.1536  -2.9718 LP             1 S1                 0.0000
     59 ****        -4.7650   4.3047  -0.4458 LP             1 S1                 0.0000
     60 ****        -5.3406   2.7351  -0.8984 LP             1 S1                 0.0000
@<TRIPOS>BOND
    1    1    2 1     
    2    1   25 1     
    3    1   26 1     
    4    1   27 1     
    5    2    3 1     
    6    3    4 1     
    7    3   28 1     
    8    3   29 1     
    9    4    5 1     
   10    4   30 1     
   11    4   31 1     
   12    5   23 am    
   13    5    6 1     
   14    6    7 2     
   15    7    8 1     
   16    7   21 1     
   17    8    9 2     
   18    8   10 1     
   19   10   11 1     
   20   11   12 1     
   21   11   32 1     
   22   11   33 1     
   23   12   13 1     
   24   12   34 1     
   25   12   35 1     
   26   13   20 1     
   27   13   14 1     
   28   13   50 1     
   29   14   15 1     
   30   14   36 1     
   31   14   37 1     
   32   15   16 1     
   33   15   17 1     
   34   15   38 1     
   35   16   39 1     
   36   16   40 1     
   37   16   41 1     
   38   17   18 1     
   39   18   19 1     
   40   18   20 1     
   41   18   42 1     
   42   19   43 1     
   43   19   44 1     
   44   19   45 1     
   45   20   46 1     
   46   20   47 1     
   47   21   22 2     
   48   21   48 1     
   49   22   23 1     
   50   22   49 1     
   51   23   24 2     
   52    2   51 1     
   53    2   52 1     
   54    6   53 1     
   55    9   54 1     
   56    9   55 1     
   57   10   56 1     
   58   17   57 1     
   59   17   58 1     
   60   24   59 1     
   61   24   60 1     
@<TRIPOS>SUBSTRUCTURE
      1 S1             1
@<TRIPOS>SET
LONE_PAIRS      STATIC     ATOMS    <user>   **** ""
10 51 52 53 54 55 56 57 58 59 60
DONOR_HYDROGENS      STATIC     ATOMS    <user>   **** ""
1 50
ATOM$BLUE        STATIC     ATOMS    COLORGROUP SYSTEM
10 51 52 53 54 55 56 57 58 59 60
ATOM$RED        STATIC     ATOMS    COLORGROUP SYSTEM
1 50
