AV-unprocessed.smi:3132|AV-procd|sdf|11931|dock1
  -GOLD-   2272017313D 1   1.00000     0.00000
 Structure written by MMmdl.
 34 35  0  0  0  0  0  0  0  0  2 V2000
  149.9005  139.2679  156.3832 C   0  0  0  0  0  0  0  0  0  0  0  0
  149.5884  140.7685  156.4573 C   0  0  2  0  0  0  0  0  0  0  0  0
  149.4432  141.3792  155.0466 C   0  0  0  0  0  0  0  0  0  0  0  0
  148.3788  140.7529  154.2555 N   0  0  0  0  0  0  0  0  0  0  0  0
  148.3208  139.4544  153.8180 C   0  0  0  0  0  0  0  0  0  0  0  0
  147.1518  139.3321  153.1122 C   0  0  0  0  0  0  0  0  0  0  0  0
  146.5435  140.5581  153.1537 N   0  3  0  0  0  0  0  0  0  0  0  0
  147.2889  141.4195  153.8533 C   0  0  0  0  0  0  0  0  0  0  0  0
  150.6487  141.4340  157.2128 N   0  0  0  0  0  0  0  0  0  0  0  0
  150.4814  142.1912  158.3099 C   0  0  0  0  0  0  0  0  0  0  0  0
  149.3759  142.4367  158.7936 O   0  0  0  0  0  0  0  0  0  0  0  0
  151.7444  142.7889  158.9466 C   0  0  1  0  0  0  0  0  0  0  0  0
  151.7723  144.3293  158.9729 C   0  0  0  0  0  0  0  0  0  0  0  0
  151.9675  144.6718  160.4406 C   0  0  0  0  0  0  0  0  0  0  0  0
  152.5607  143.3911  161.0113 C   0  0  0  0  0  0  0  0  0  0  0  0
  151.8472  142.3866  160.3116 O   0  0  0  0  0  0  0  0  0  0  0  0
  149.1136  138.7291  155.8546 H   0  0  0  0  0  0  0  0  0  0  0  0
  149.9824  138.8334  157.3802 H   0  0  0  0  0  0  0  0  0  0  0  0
  150.8395  139.0816  155.8605 H   0  0  0  0  0  0  0  0  0  0  0  0
  148.6396  140.8716  156.9871 H   0  0  0  0  0  0  0  0  0  0  0  0
  149.2384  142.4492  155.1061 H   0  0  0  0  0  0  0  0  0  0  0  0
  150.3724  141.2668  154.4860 H   0  0  0  0  0  0  0  0  0  0  0  0
  149.0986  138.7350  154.0295 H   0  0  0  0  0  0  0  0  0  0  0  0
  146.7191  138.4871  152.5964 H   0  0  0  0  0  0  0  0  0  0  0  0
  147.0606  142.4527  154.0462 H   0  0  0  0  0  0  0  0  0  0  0  0
  151.5951  141.2906  156.8896 H   0  0  0  0  0  0  0  0  0  0  0  0
  152.6180  142.4147  158.4108 H   0  0  0  0  0  0  0  0  0  0  0  0
  152.6119  144.6946  158.3808 H   0  0  0  0  0  0  0  0  0  0  0  0
  150.8674  144.7962  158.5810 H   0  0  0  0  0  0  0  0  0  0  0  0
  152.6045  145.5429  160.5958 H   0  0  0  0  0  0  0  0  0  0  0  0
  151.0014  144.8692  160.9068 H   0  0  0  0  0  0  0  0  0  0  0  0
  153.6256  143.3144  160.7855 H   0  0  0  0  0  0  0  0  0  0  0  0
  152.4258  143.3062  162.0895 H   0  0  0  0  0  0  0  0  0  0  0  0
  145.6585  140.7835  152.7169 H   0  0  0  0  0  0  0  0  0  0  0  0
  1  2  1  0  0  0  0
  1 17  1  0  0  0  0
  1 18  1  0  0  0  0
  1 19  1  0  0  0  0
  2  3  1  0  0  0  0
  2  9  1  0  0  0  0
  2 20  1  0  0  0  0
  3  4  1  0  0  0  0
  3 21  1  0  0  0  0
  3 22  1  0  0  0  0
  4  8  1  0  0  0  0
  4  5  1  0  0  0  0
  5  6  2  0  0  0  0
  5 23  1  0  0  0  0
  6  7  1  0  0  0  0
  6 24  1  0  0  0  0
  7  8  2  0  0  0  0
  7 34  1  0  0  0  0
  8 25  1  0  0  0  0
  9 10  1  0  0  0  0
  9 26  1  0  0  0  0
 10 11  2  0  0  0  0
 10 12  1  0  0  0  0
 12 16  1  0  0  0  0
 12 13  1  0  0  0  0
 12 27  1  0  0  0  0
 13 14  1  0  0  0  0
 13 28  1  0  0  0  0
 13 29  1  0  0  0  0
 14 15  1  0  0  0  0
 14 30  1  0  0  0  0
 14 31  1  0  0  0  0
 15 16  1  0  0  0  0
 15 32  1  0  0  0  0
 15 33  1  0  0  0  0
M  CHG  1   7   1
M  END
> <s_m_source_file>
AV-unprocessed.smi

> <i_m_source_file_index>
3132

> <i_lp_mmshare_version>
43012

> <i_f3d_flags>
0

> <s_epik_input>
W2NIXTFuW2NIXVtjSF1uMVtDSDJdW0NAQEhdKFtDSDNdKVtOSF1DKD1PKVtDQEBIXTJbQ0gyXVtDSDJdW0NIMl1PMg==

> <s_epik_cmdline>
J2VwaWtfcHl0aG9uJywgJy1waCcsICc3LjAnLCAnLXRuJywgJzgnLCAnLW1hJywgJzIwMCcsICctbWV0YWxfYmluZGluZycsICctaW1hZScsICc8aW5maWxlLm1hZT4nLCAnLW9tYWUnLCAnPG91dGZpbGUubWFlPic=

> <r_lp_tautomer_probability>
1

> <r_epik_Ionization_Penalty>
0.250802

> <r_epik_Ionization_Penalty_Charging>
0

> <r_epik_Ionization_Penalty_Neutral>
0.250802

> <r_epik_State_Penalty>
0.242139

> <r_epik_Charging_Adjusted_Penalty>
0.242139

> <i_epik_Tot_Q>
1

> <i_epik_Tot_abs_Q>
1

> <r_epik_Metal_State_Penalty>
0.533361

> <b_epik_Metal_Only>
0

> <s_lp_Force_Field>
OPLS_2005

> <r_lp_Energy>
20.312

> <b_lp_Chiralities_Consistent>
1

> <s_lp_Variant>
AV-unprocessed.smi:3132-3

> <Gold.Version>
5.8.1

> <Gold.Id.Protein>
6NUR|6NUR_protein|mol2

> <Gold.PLP.Fitness>
39.2804

> <Gold.PLP.PLP>
-33.3749

> <Gold.PLP.part.hbond>
-2.1719

> <Gold.PLP.part.metal>
0.0000

> <Gold.PLP.part.buried>
-4.5984

> <Gold.PLP.part.nonpolar>
-27.7003

> <Gold.PLP.part.repulsive>
0.1956

> <Gold.PLP.ligand.clash>
0.0000

> <Gold.PLP.ligand.torsion>
0.0551

> <Gold.PLP.Chemscore.Hbond>
2.0000

> <Gold.PLP.Chemscore.CHOScore>
0.0000

> <Gold.PLP.Chemscore.Metal>
0.0000

> <Gold.Chemscore.Hbonds>
donor molecule, donor type, donor heavy atom, donor atom, acceptor molecule, acceptor atom, score
      L1  H     7    34       P1 10175  2.00

> <Gold.PLP.Chemscore.Internal.Correction>
0.0158

> <Gold.Rescore>
     Score         DG    S(hbond)    S(metal)    S(lipo)     H(rot)  DE(clash)    DE(int)     intcor
     12.55     -12.65       0.97        0.00      75.86       1.93       0.00       0.09       ----

> <Gold.Chemscore.Fitness>
12.5504

> <Gold.Chemscore.DG>
-12.6481

> <Gold.Chemscore.ZeroCoef>
-5.4800

> <Gold.Chemscore.Hbond>
0.9686

> <Gold.Chemscore.Metal>
0.0000

> <Gold.Chemscore.Lipo>
75.8620

> <Gold.Chemscore.Internal_Hbond>
0.0000

> <Gold.Chemscore.DEClash>
0.0038

> <Gold.Chemscore.DEInternal>
0.0939

> <Gold.Chemscore.Rot>
1.9308

> <Gold.Chemscore.Internal.Correction>
   9.000000E+99

> <Gold.Chemscore.Hbonds>
donor molecule, donor type, donor heavy atom, donor atom, acceptor molecule, acceptor atom, score
      L1  H     7    34       P1 10175  0.32

> <Gold.Chemscore.Hbond.Weighted>
-3.2351

> <Gold.Chemscore.Metal.Weighted>
-0.0000

> <Gold.Chemscore.Lipo.Weighted>
-8.8758

> <Gold.Chemscore.Internal_Hbond.Weighted>
0.0000

> <Gold.Chemscore.DEClash.Weighted>
0.0038

> <Gold.Chemscore.DEInternal.Weighted>
0.0939

> <Gold.Chemscore.Rot.Weighted>
4.9429

> <Gold.Chemscore.Internal.Correction.Weighted>
   9.000000E+99

> <Gold.Protein.RotatedTorsions>
[ 6907 6896 6895 6894 ] final  112.50 input  -60.11 | X-H torsion
[ 7974 7965 7964 7962 ] final   12.74 input  175.53 | X-H torsion
[ 8008 7997 7996 7995 ] final   94.52 input   59.86 | X-H torsion
[ 10167 10162 10161 10158 ] final  -93.80 input  -65.29 | X-H torsion
[ 10718 10713 10712 10709 ] final  -99.98 input   66.30 | X-H torsion
[ 10763 10752 10751 10750 ] final   17.30 input  -60.55 | X-H torsion
[ 11005 11000 10999 10996 ] final   89.33 input  -57.11 | X-H torsion

> <Gold.Protein.ActiveResidues>
 VAL166  LYS551  ARG553  GLY616  TRP617  ASP618  TYR619  PRO620  LYS621  CYS622 
 ASP623  PHE694  ASN695  SER759  ASP760  ASP761  ALA762  ILE779  LEU786  VAL792 
 PHE793  MET794  SER795  GLU796  ALA797  LYS798  CYS799  TRP800  GLU811  SER814 

> <Gold.Protein.RotatedAtoms>
  152.4913  133.8507  159.7199 H   0  0  0  0  0  0  0  0  0  0  0  0  # atno 6907 bound_to 6896
  150.9045  133.7066  159.2877 H   0  0  0  0  0  0  0  0  0  0  0  0  # atno 6908 bound_to 6896
  151.4496  135.1032  159.9746 H   0  0  0  0  0  0  0  0  0  0  0  0  # atno 6909 bound_to 6896
  146.2345  139.9291  142.8499 H   0  0  0  0  0  0  0  0  0  0  0  0  # atno 7974 bound_to 7965
  156.0589  140.3298  155.7438 H   0  0  0  0  0  0  0  0  0  0  0  0  # atno 8008 bound_to 7997
  155.5486  140.0608  157.2872 H   0  0  0  0  0  0  0  0  0  0  0  0  # atno 8009 bound_to 7997
  154.4471  140.1898  156.0652 H   0  0  0  0  0  0  0  0  0  0  0  0  # atno 8010 bound_to 7997
  140.3210  143.3049  152.0047 H   0  0  0  0  0  0  0  0  0  0  0  0  # atno 10167 bound_to 10162
  156.0149  130.5307  150.6749 H   0  0  0  0  0  0  0  0  0  0  0  0  # atno 10718 bound_to 10713
  153.1351  135.6748  153.9115 H   0  0  0  0  0  0  0  0  0  0  0  0  # atno 10763 bound_to 10752
  153.8590  135.3084  155.3438 H   0  0  0  0  0  0  0  0  0  0  0  0  # atno 10764 bound_to 10752
  154.7741  135.4924  153.9790 H   0  0  0  0  0  0  0  0  0  0  0  0  # atno 10765 bound_to 10752
  139.8877  134.8545  156.3127 H   0  0  0  0  0  0  0  0  0  0  0  0  # atno 11005 bound_to 11000
  145.2061  140.9876  143.4127 LP  0  0  0  0  0  0  0  0  0  0  0  0  # atno 17320 bound_to 7965
  144.9731  139.3859  143.6299 LP  0  0  0  0  0  0  0  0  0  0  0  0  # atno 17321 bound_to 7965
  139.4874  144.6311  151.7068 LP  0  0  0  0  0  0  0  0  0  0  0  0  # atno 17342 bound_to 10162
  140.5484  144.0466  150.6116 LP  0  0  0  0  0  0  0  0  0  0  0  0  # atno 17343 bound_to 10162
  157.4464  131.0867  151.0891 LP  0  0  0  0  0  0  0  0  0  0  0  0  # atno 17370 bound_to 10713
  157.1420  130.6147  149.5558 LP  0  0  0  0  0  0  0  0  0  0  0  0  # atno 17371 bound_to 10713
  140.9839  133.7250  156.0713 LP  0  0  0  0  0  0  0  0  0  0  0  0  # atno 17394 bound_to 11000
  140.7713  134.3829  157.5507 LP  0  0  0  0  0  0  0  0  0  0  0  0  # atno 17395 bound_to 11000

$$$$
