AV-unprocessed.smi:2734|AV-procd|sdf|10540|dock6
  -GOLD-   2272014583D 1   1.00000     0.00000
 Structure written by MMmdl.
 41 43  0  0  0  0  0  0  0  0  2 V2000
  151.8855  144.5297  160.6536 C   0  0  0  0  0  0  0  0  0  0  0  0
  151.8110  143.4299  159.6082 C   0  0  0  0  0  0  0  0  0  0  0  0
  151.0316  143.6516  158.4505 C   0  0  0  0  0  0  0  0  0  0  0  0
  150.9794  142.6255  157.5145 C   0  0  0  0  0  0  0  0  0  0  0  0
  150.3065  142.5352  156.2944 N   0  3  0  0  0  0  0  0  0  0  0  0
  150.5522  141.3214  155.7284 C   0  0  0  0  0  0  0  0  0  0  0  0
  151.3723  140.6345  156.5690 N   0  0  0  0  0  0  0  0  0  0  0  0
  151.9267  139.2798  156.4340 C   0  0  0  0  0  0  0  0  0  0  0  0
  151.3590  138.5128  155.2222 C   0  0  1  0  0  0  0  0  0  0  0  0
  152.4493  137.9576  154.5163 O   0  0  0  0  0  0  0  0  0  0  0  0
  150.3716  137.3930  155.5988 C   0  0  0  0  0  0  0  0  0  0  0  0
  150.9462  136.4023  157.0105 S   0  0  0  0  0  0  0  0  0  0  0  0
  149.6440  136.7437  158.1550 C   0  0  0  0  0  0  0  0  0  0  0  0
  149.7658  137.3302  159.3411 N   0  0  0  0  0  0  0  0  0  0  0  0
  148.4745  137.3652  159.8312 N   0  0  0  0  0  0  0  0  0  0  0  0
  147.6365  136.8325  158.9902 N   0  0  0  0  0  0  0  0  0  0  0  0
  148.3636  136.4321  157.9190 N   0  0  0  0  0  0  0  0  0  0  0  0
  147.7328  135.7914  156.7820 C   0  0  0  0  0  0  0  0  0  0  0  0
  151.6704  141.4117  157.6956 C   0  0  0  0  0  0  0  0  0  0  0  0
  152.4462  141.1791  158.8294 C   0  0  0  0  0  0  0  0  0  0  0  0
  152.5110  142.2097  159.7939 C   0  0  0  0  0  0  0  0  0  0  0  0
  153.3476  141.9809  161.0412 C   0  0  0  0  0  0  0  0  0  0  0  0
  151.2106  145.3523  160.4155 H   0  0  0  0  0  0  0  0  0  0  0  0
  152.8973  144.9320  160.7111 H   0  0  0  0  0  0  0  0  0  0  0  0
  151.6077  144.1480  161.6363 H   0  0  0  0  0  0  0  0  0  0  0  0
  150.4967  144.5785  158.3015 H   0  0  0  0  0  0  0  0  0  0  0  0
  150.1633  140.9661  154.7849 H   0  0  0  0  0  0  0  0  0  0  0  0
  153.0076  139.3859  156.3323 H   0  0  0  0  0  0  0  0  0  0  0  0
  151.7625  138.7303  157.3610 H   0  0  0  0  0  0  0  0  0  0  0  0
  150.8575  139.2197  154.5602 H   0  0  0  0  0  0  0  0  0  0  0  0
  152.2202  137.0791  154.2530 H   0  0  0  0  0  0  0  0  0  0  0  0
  149.3925  137.8144  155.8298 H   0  0  0  0  0  0  0  0  0  0  0  0
  150.2425  136.7133  154.7570 H   0  0  0  0  0  0  0  0  0  0  0  0
  147.8897  136.3953  155.8881 H   0  0  0  0  0  0  0  0  0  0  0  0
  146.6609  135.6800  156.9503 H   0  0  0  0  0  0  0  0  0  0  0  0
  148.1708  134.8048  156.6281 H   0  0  0  0  0  0  0  0  0  0  0  0
  152.9753  140.2497  158.9774 H   0  0  0  0  0  0  0  0  0  0  0  0
  153.8888  141.0355  160.9912 H   0  0  0  0  0  0  0  0  0  0  0  0
  152.7122  141.9554  161.9266 H   0  0  0  0  0  0  0  0  0  0  0  0
  154.0823  142.7767  161.1637 H   0  0  0  0  0  0  0  0  0  0  0  0
  149.7200  143.2467  155.8775 H   0  0  0  0  0  0  0  0  0  0  0  0
  1  2  1  0  0  0  0
  1 23  1  0  0  0  0
  1 24  1  0  0  0  0
  1 25  1  0  0  0  0
  2 21  1  0  0  0  0
  2  3  2  0  0  0  0
  3  4  1  0  0  0  0
  3 26  1  0  0  0  0
  4 19  2  0  0  0  0
  4  5  1  0  0  0  0
  5  6  2  0  0  0  0
  5 41  1  0  0  0  0
  6  7  1  0  0  0  0
  6 27  1  0  0  0  0
  7  8  1  0  0  0  0
  7 19  1  0  0  0  0
  8  9  1  0  0  0  0
  8 28  1  0  0  0  0
  8 29  1  0  0  0  0
  9 10  1  0  0  0  0
  9 11  1  0  0  0  0
  9 30  1  0  0  0  0
 10 31  1  0  0  0  0
 11 12  1  0  0  0  0
 11 32  1  0  0  0  0
 11 33  1  0  0  0  0
 12 13  1  0  0  0  0
 13 17  1  0  0  0  0
 13 14  2  0  0  0  0
 14 15  1  0  0  0  0
 15 16  2  0  0  0  0
 16 17  1  0  0  0  0
 17 18  1  0  0  0  0
 18 34  1  0  0  0  0
 18 35  1  0  0  0  0
 18 36  1  0  0  0  0
 19 20  1  0  0  0  0
 20 21  2  0  0  0  0
 20 37  1  0  0  0  0
 21 22  1  0  0  0  0
 22 38  1  0  0  0  0
 22 39  1  0  0  0  0
 22 40  1  0  0  0  0
M  CHG  1   5   1
M  END
> <s_m_source_file>
AV-unprocessed.smi

> <i_m_source_file_index>
2734

> <i_lp_mmshare_version>
43012

> <i_f3d_flags>
0

> <s_epik_input>
W0NIM11jKFtjSF0xKWMoW0NIM10pW2NIXWMoYzEyKW4oW2NIXW4yKVtDSDJdW0NASF0oW09IXSlbQ0gyXVNjM25ubm4zW0NIM10=

> <s_epik_cmdline>
J2VwaWtfcHl0aG9uJywgJy1waCcsICc3LjAnLCAnLXRuJywgJzgnLCAnLW1hJywgJzIwMCcsICctbWV0YWxfYmluZGluZycsICctaW1hZScsICc8aW5maWxlLm1hZT4nLCAnLW9tYWUnLCAnPG91dGZpbGUubWFlPic=

> <r_lp_tautomer_probability>
1

> <r_epik_Ionization_Penalty>
1.07429

> <r_epik_Ionization_Penalty_Charging>
1.07429

> <r_epik_Ionization_Penalty_Neutral>
3.30514e-06

> <r_epik_State_Penalty>
1.12915

> <r_epik_Charging_Adjusted_Penalty>
2.20344

> <i_epik_Tot_Q>
1

> <i_epik_Tot_abs_Q>
1

> <r_epik_Metal_State_Penalty>
1.22002

> <b_epik_Metal_Only>
0

> <s_lp_Force_Field>
OPLS_2005

> <r_lp_Energy>
15.3116

> <b_lp_Chiralities_Consistent>
1

> <s_lp_Variant>
AV-unprocessed.smi:2734-4

> <Gold.Version>
5.8.1

> <Gold.Id.Protein>
6NUR|6NUR_protein|mol2

> <Gold.PLP.Fitness>
47.5543

> <Gold.PLP.PLP>
-42.5546

> <Gold.PLP.part.hbond>
-4.7008

> <Gold.PLP.part.metal>
0.0000

> <Gold.PLP.part.buried>
-6.0289

> <Gold.PLP.part.nonpolar>
-31.5623

> <Gold.PLP.part.repulsive>
0.0886

> <Gold.PLP.ligand.clash>
0.0000

> <Gold.PLP.ligand.torsion>
1.2285

> <Gold.PLP.Chemscore.Hbond>
2.4672

> <Gold.PLP.Chemscore.CHOScore>
0.0000

> <Gold.PLP.Chemscore.Metal>
0.0000

> <Gold.Chemscore.Hbonds>
donor molecule, donor type, donor heavy atom, donor atom, acceptor molecule, acceptor atom, score
      L1  H     5    41       P1  8028  2.00
      P1  H  6931  6943       L1    15  0.11
      P1  H  6934  6947       L1    15  0.09

> <Gold.PLP.Chemscore.Internal.Correction>
0.0550

> <Gold.Rescore>
     Score         DG    S(hbond)    S(metal)    S(lipo)     H(rot)  DE(clash)    DE(int)     intcor
     13.75     -14.98       1.40        0.00     105.12       2.92       0.01       1.23       ----

> <Gold.Chemscore.Fitness>
13.7494

> <Gold.Chemscore.DG>
-14.9807

> <Gold.Chemscore.ZeroCoef>
-5.4800

> <Gold.Chemscore.Hbond>
1.3977

> <Gold.Chemscore.Metal>
0.0000

> <Gold.Chemscore.Lipo>
105.1153

> <Gold.Chemscore.Internal_Hbond>
0.0000

> <Gold.Chemscore.DEClash>
0.0053

> <Gold.Chemscore.DEInternal>
1.2260

> <Gold.Chemscore.Rot>
2.9164

> <Gold.Chemscore.Internal.Correction>
   9.000000E+99

> <Gold.Chemscore.Hbonds>
donor molecule, donor type, donor heavy atom, donor atom, acceptor molecule, acceptor atom, score
      L1  H     5    41       P1  8028  1.00
      P1  H  6931  6943       L1    15  0.01
      P1  H  6934  6947       L1    15  0.05

> <Gold.Chemscore.Hbond.Weighted>
-4.6682

> <Gold.Chemscore.Metal.Weighted>
-0.0000

> <Gold.Chemscore.Lipo.Weighted>
-12.2985

> <Gold.Chemscore.Internal_Hbond.Weighted>
0.0000

> <Gold.Chemscore.DEClash.Weighted>
0.0053

> <Gold.Chemscore.DEInternal.Weighted>
1.2260

> <Gold.Chemscore.Rot.Weighted>
7.4660

> <Gold.Chemscore.Internal.Correction.Weighted>
   9.000000E+99

> <Gold.Protein.RotatedTorsions>
[ 6907 6896 6895 6894 ] final   68.47 input  -60.11 | X-H torsion
[ 7974 7965 7964 7962 ] final   43.55 input  175.53 | X-H torsion
[ 8008 7997 7996 7995 ] final  131.10 input   59.86 | X-H torsion
[ 10167 10162 10161 10158 ] final  139.26 input  -65.29 | X-H torsion
[ 10718 10713 10712 10709 ] final -145.51 input   66.30 | X-H torsion
[ 10763 10752 10751 10750 ] final  -86.55 input  -60.55 | X-H torsion
[ 11005 11000 10999 10996 ] final   69.55 input  -57.11 | X-H torsion

> <Gold.Protein.ActiveResidues>
 VAL166  LYS551  ARG553  GLY616  TRP617  ASP618  TYR619  PRO620  LYS621  CYS622 
 ASP623  PHE694  ASN695  SER759  ASP760  ASP761  ALA762  ILE779  LEU786  VAL792 
 PHE793  MET794  SER795  GLU796  ALA797  LYS798  CYS799  TRP800  GLU811  SER814 

> <Gold.Protein.RotatedAtoms>
  152.4622  134.5157  159.9767 H   0  0  0  0  0  0  0  0  0  0  0  0  # atno 6907 bound_to 6896
  151.5203  133.3462  159.2908 H   0  0  0  0  0  0  0  0  0  0  0  0  # atno 6908 bound_to 6896
  150.8591  134.7967  159.7131 H   0  0  0  0  0  0  0  0  0  0  0  0  # atno 6909 bound_to 6896
  146.0646  139.5174  142.9637 H   0  0  0  0  0  0  0  0  0  0  0  0  # atno 7974 bound_to 7965
  156.2965  140.2579  156.2871 H   0  0  0  0  0  0  0  0  0  0  0  0  # atno 8008 bound_to 7997
  154.9546  140.0393  157.2179 H   0  0  0  0  0  0  0  0  0  0  0  0  # atno 8009 bound_to 7997
  154.8004  140.2827  155.5930 H   0  0  0  0  0  0  0  0  0  0  0  0  # atno 8010 bound_to 7997
  139.5084  144.6305  151.5829 H   0  0  0  0  0  0  0  0  0  0  0  0  # atno 10167 bound_to 10162
  156.3834  130.7848  151.2043 H   0  0  0  0  0  0  0  0  0  0  0  0  # atno 10718 bound_to 10713
  154.6237  135.5445  153.7603 H   0  0  0  0  0  0  0  0  0  0  0  0  # atno 10763 bound_to 10752
  153.0250  135.6419  154.1403 H   0  0  0  0  0  0  0  0  0  0  0  0  # atno 10764 bound_to 10752
  154.1336  135.2912  155.3159 H   0  0  0  0  0  0  0  0  0  0  0  0  # atno 10765 bound_to 10752
  139.9647  134.7001  156.0570 H   0  0  0  0  0  0  0  0  0  0  0  0  # atno 11005 bound_to 11000
  145.6500  141.0265  143.1765 LP  0  0  0  0  0  0  0  0  0  0  0  0  # atno 17320 bound_to 7965
  144.7195  139.8081  143.7387 LP  0  0  0  0  0  0  0  0  0  0  0  0  # atno 17321 bound_to 7965
  140.6037  143.9564  150.6403 LP  0  0  0  0  0  0  0  0  0  0  0  0  # atno 17342 bound_to 10162
  140.2784  143.3407  152.1174 LP  0  0  0  0  0  0  0  0  0  0  0  0  # atno 17343 bound_to 10162
  157.7494  131.0337  150.4285 LP  0  0  0  0  0  0  0  0  0  0  0  0  # atno 17370 bound_to 10713
  156.4533  130.4016  149.6622 LP  0  0  0  0  0  0  0  0  0  0  0  0  # atno 17371 bound_to 10713
  141.1326  133.6582  156.3507 LP  0  0  0  0  0  0  0  0  0  0  0  0  # atno 17394 bound_to 11000
  140.5422  134.6109  157.5383 LP  0  0  0  0  0  0  0  0  0  0  0  0  # atno 17395 bound_to 11000

$$$$
