AV-unprocessed.smi:1008|AV-procd|sdf|4412|dock8
  -GOLD-   22720 2353D 1   1.00000     0.00000
 Structure written by MMmdl.
 23 23  0  0  0  0  0  0  0  0  1 V2000
  152.6487  140.5544  158.7747 C   0  0  0  0  0  0  0  0  0  0  0  0
  152.0404  140.4326  157.3895 C   0  0  0  0  0  0  0  0  0  0  0  0
  152.5357  139.4424  156.6142 N   0  0  0  0  0  0  0  0  0  0  0  0
  152.0212  139.3196  155.3907 C   0  0  0  0  0  0  0  0  0  0  0  0
  152.5275  138.3096  154.6100 N   0  0  0  0  0  0  0  0  0  0  0  0
  151.0669  140.0750  154.8457 N   0  0  0  0  0  0  0  0  0  0  0  0
  150.5587  141.0692  155.6056 C   0  0  0  0  0  0  0  0  0  0  0  0
  149.5865  141.8569  155.0602 O   0  0  0  0  0  0  0  0  0  0  0  0
  151.0180  141.2991  156.9261 C   0  0  0  0  0  0  0  0  0  0  0  0
  150.4480  142.4210  157.7844 C   0  0  0  0  0  0  0  0  0  0  0  0
  151.3841  143.6358  157.8423 C   0  0  0  0  0  0  0  0  0  0  0  0
  150.6243  144.8245  157.8465 O   0  0  0  0  0  0  0  0  0  0  0  0
  149.5526  142.7154  155.4533 H   0  0  0  0  0  0  0  0  0  0  0  0
  152.9917  141.5731  158.9556 H   0  0  0  0  0  0  0  0  0  0  0  0
  153.5042  139.8884  158.8939 H   0  0  0  0  0  0  0  0  0  0  0  0
  151.9124  140.2955  159.5356 H   0  0  0  0  0  0  0  0  0  0  0  0
  153.2522  137.7033  154.9653 H   0  0  0  0  0  0  0  0  0  0  0  0
  152.1931  138.1772  153.6666 H   0  0  0  0  0  0  0  0  0  0  0  0
  150.2476  142.0545  158.7911 H   0  0  0  0  0  0  0  0  0  0  0  0
  149.4770  142.7190  157.3875 H   0  0  0  0  0  0  0  0  0  0  0  0
  152.0013  143.6071  158.7406 H   0  0  0  0  0  0  0  0  0  0  0  0
  152.0564  143.6464  156.9838 H   0  0  0  0  0  0  0  0  0  0  0  0
  150.1030  144.8505  157.0586 H   0  0  0  0  0  0  0  0  0  0  0  0
  1 14  1  0  0  0  0
  1 15  1  0  0  0  0
  1 16  1  0  0  0  0
  1  2  1  0  0  0  0
  2  9  2  0  0  0  0
  2  3  1  0  0  0  0
  3  4  2  0  0  0  0
  4  5  1  0  0  0  0
  4  6  1  0  0  0  0
  5 17  1  0  0  0  0
  5 18  1  0  0  0  0
  6  7  2  0  0  0  0
  7  8  1  0  0  0  0
  7  9  1  0  0  0  0
  8 13  1  0  0  0  0
  9 10  1  0  0  0  0
 10 11  1  0  0  0  0
 10 19  1  0  0  0  0
 10 20  1  0  0  0  0
 11 12  1  0  0  0  0
 11 21  1  0  0  0  0
 11 22  1  0  0  0  0
 12 23  1  0  0  0  0
M  END
> <s_m_source_file>
AV-unprocessed.smi

> <i_m_source_file_index>
1008

> <i_lp_mmshare_version>
43012

> <i_f3d_flags>
0

> <s_epik_input>
W0NIM11jMW5jKFtOSDJdKVtuSF1jKD1PKWMxW0NIMl1bQ0gyXVtPSF0=

> <s_epik_cmdline>
J2VwaWtfcHl0aG9uJywgJy1waCcsICc3LjAnLCAnLXRuJywgJzgnLCAnLW1hJywgJzIwMCcsICctbWV0YWxfYmluZGluZycsICctaW1hZScsICc8aW5maWxlLm1hZT4nLCAnLW9tYWUnLCAnPG91dGZpbGUubWFlPic=

> <r_lp_tautomer_probability>
0.0131372

> <r_epik_Ionization_Penalty>
8.55637

> <r_epik_Ionization_Penalty_Charging>
0

> <r_epik_Ionization_Penalty_Neutral>
8.55637

> <r_epik_State_Penalty>
2.72329

> <r_epik_Charging_Adjusted_Penalty>
2.72329

> <i_epik_Tot_Q>
0

> <i_epik_Tot_abs_Q>
0

> <r_epik_Metal_State_Penalty>
2.85363

> <b_epik_Metal_Only>
0

> <s_lp_Force_Field>
OPLS_2005

> <r_lp_Energy>
-5.16374

> <b_lp_Chiralities_Consistent>
1

> <s_lp_Variant>
AV-unprocessed.smi:1008-3

> <Gold.Version>
5.8.1

> <Gold.Id.Protein>
6NUR|6NUR_protein|mol2

> <Gold.PLP.Fitness>
34.2096

> <Gold.PLP.PLP>
-23.5444

> <Gold.PLP.part.hbond>
-4.7956

> <Gold.PLP.part.metal>
0.0000

> <Gold.PLP.part.buried>
-3.5140

> <Gold.PLP.part.nonpolar>
-15.4151

> <Gold.PLP.part.repulsive>
0.2738

> <Gold.PLP.ligand.clash>
0.0000

> <Gold.PLP.ligand.torsion>
0.4931

> <Gold.PLP.Chemscore.Hbond>
3.8838

> <Gold.PLP.Chemscore.CHOScore>
0.0000

> <Gold.PLP.Chemscore.Metal>
0.0000

> <Gold.Chemscore.Hbonds>
donor molecule, donor type, donor heavy atom, donor atom, acceptor molecule, acceptor atom, score
      L1  H     8    13       P1  8028  0.78
      L1  H    12    23       P1  8028  1.00
      P1  H  7989  7998       L1     6  1.00
      P1  H  7997  8009       L1     3  0.93

> <Gold.PLP.Chemscore.Internal.Correction>
0.0001

> <Gold.Rescore>
     Score         DG    S(hbond)    S(metal)    S(lipo)     H(rot)  DE(clash)    DE(int)     intcor
      8.90      -9.83       2.02        0.00      39.08       2.73       0.28       0.65       ----

> <Gold.Chemscore.Fitness>
8.8987

> <Gold.Chemscore.DG>
-9.8268

> <Gold.Chemscore.ZeroCoef>
-5.4800

> <Gold.Chemscore.Hbond>
2.0232

> <Gold.Chemscore.Metal>
0.0000

> <Gold.Chemscore.Lipo>
39.0773

> <Gold.Chemscore.Internal_Hbond>
0.0000

> <Gold.Chemscore.DEClash>
0.2822

> <Gold.Chemscore.DEInternal>
0.6459

> <Gold.Chemscore.Rot>
2.7277

> <Gold.Chemscore.Internal.Correction>
   9.000000E+99

> <Gold.Chemscore.Hbonds>
donor molecule, donor type, donor heavy atom, donor atom, acceptor molecule, acceptor atom, score
      L1  H     8    13       P1  8028  0.75
      L1  H    12    23       P1  8028  0.26
      P1  H  7989  7998       L1     6  0.31
      P1  H  7997  8009       L1     3  0.07

> <Gold.Chemscore.Hbond.Weighted>
-6.7576

> <Gold.Chemscore.Metal.Weighted>
-0.0000

> <Gold.Chemscore.Lipo.Weighted>
-4.5720

> <Gold.Chemscore.Internal_Hbond.Weighted>
0.0000

> <Gold.Chemscore.DEClash.Weighted>
0.2822

> <Gold.Chemscore.DEInternal.Weighted>
0.6459

> <Gold.Chemscore.Rot.Weighted>
6.9829

> <Gold.Chemscore.Internal.Correction.Weighted>
   9.000000E+99

> <Gold.Protein.RotatedTorsions>
[ 6907 6896 6895 6894 ] final -101.63 input  -60.11 | X-H torsion
[ 7974 7965 7964 7962 ] final   82.00 input  175.53 | X-H torsion
[ 8008 7997 7996 7995 ] final -148.76 input   59.86 | X-H torsion
[ 10167 10162 10161 10158 ] final  -13.35 input  -65.29 | X-H torsion
[ 10718 10713 10712 10709 ] final -104.83 input   66.30 | X-H torsion
[ 10763 10752 10751 10750 ] final   23.50 input  -60.55 | X-H torsion
[ 11005 11000 10999 10996 ] final  138.17 input  -57.11 | X-H torsion

> <Gold.Protein.ActiveResidues>
 VAL166  LYS551  ARG553  GLY616  TRP617  ASP618  TYR619  PRO620  LYS621  CYS622 
 ASP623  PHE694  ASN695  SER759  ASP760  ASP761  ALA762  ILE779  LEU786  VAL792 
 PHE793  MET794  SER795  GLU796  ALA797  LYS798  CYS799  TRP800  GLU811  SER814 

> <Gold.Protein.RotatedAtoms>
  150.7162  134.0705  159.3862 H   0  0  0  0  0  0  0  0  0  0  0  0  # atno 6907 bound_to 6896
  151.8687  135.0495  160.0486 H   0  0  0  0  0  0  0  0  0  0  0  0  # atno 6908 bound_to 6896
  152.2660  133.5304  159.5447 H   0  0  0  0  0  0  0  0  0  0  0  0  # atno 6909 bound_to 6896
  145.6308  139.2404  143.2085 H   0  0  0  0  0  0  0  0  0  0  0  0  # atno 7974 bound_to 7965
  155.5967  140.0658  157.2744 H   0  0  0  0  0  0  0  0  0  0  0  0  # atno 8008 bound_to 7997
  154.4290  140.1825  156.1178 H   0  0  0  0  0  0  0  0  0  0  0  0  # atno 8009 bound_to 7997
  156.0191  140.3318  155.7023 H   0  0  0  0  0  0  0  0  0  0  0  0  # atno 8010 bound_to 7997
  140.7180  143.5435  150.9382 H   0  0  0  0  0  0  0  0  0  0  0  0  # atno 10167 bound_to 10162
  156.0321  130.5534  150.7453 H   0  0  0  0  0  0  0  0  0  0  0  0  # atno 10718 bound_to 10713
  153.0834  135.6625  153.9999 H   0  0  0  0  0  0  0  0  0  0  0  0  # atno 10763 bound_to 10752
  153.9615  135.2973  155.3434 H   0  0  0  0  0  0  0  0  0  0  0  0  # atno 10764 bound_to 10752
  154.7237  135.5153  153.8925 H   0  0  0  0  0  0  0  0  0  0  0  0  # atno 10765 bound_to 10752
  140.0165  134.9416  157.0386 H   0  0  0  0  0  0  0  0  0  0  0  0  # atno 11005 bound_to 11000
  146.1358  140.7125  142.9390 LP  0  0  0  0  0  0  0  0  0  0  0  0  # atno 17320 bound_to 7965
  144.7194  140.4322  143.7019 LP  0  0  0  0  0  0  0  0  0  0  0  0  # atno 17321 bound_to 7965
  139.9158  143.6665  152.3106 LP  0  0  0  0  0  0  0  0  0  0  0  0  # atno 17342 bound_to 10162
  139.7064  144.7627  151.1185 LP  0  0  0  0  0  0  0  0  0  0  0  0  # atno 17343 bound_to 10162
  157.5011  131.0918  151.0313 LP  0  0  0  0  0  0  0  0  0  0  0  0  # atno 17370 bound_to 10713
  157.0693  130.5857  149.5399 LP  0  0  0  0  0  0  0  0  0  0  0  0  # atno 17371 bound_to 10713
  140.4462  134.1629  155.7177 LP  0  0  0  0  0  0  0  0  0  0  0  0  # atno 17394 bound_to 11000
  141.1746  133.8540  157.1463 LP  0  0  0  0  0  0  0  0  0  0  0  0  # atno 17395 bound_to 11000

$$$$
