AV-unprocessed.smi:1184|AV-procd|sdf|4969|dock5
  -GOLD-   22720 3563D 1   1.00000     0.00000
 Structure written by MMmdl.
 43 44  0  0  0  0  0  0  0  0  2 V2000
  145.1197  131.7812  150.1484 C   0  0  0  0  0  0  0  0  0  0  0  0
  143.6505  132.2265  150.1828 C   0  0  0  0  0  0  0  0  0  0  0  0
  143.5067  133.6447  150.5866 N   0  3  1  0  0  0  0  0  0  0  0  0
  143.2536  133.8548  152.0322 C   0  0  0  0  0  0  0  0  0  0  0  0
  144.1053  135.0580  152.4657 C   0  0  0  0  0  0  0  0  0  0  0  0
  144.5379  135.7143  151.1557 C   0  0  1  0  0  0  0  0  0  0  0  0
  145.8205  136.5666  151.2549 C   0  0  0  0  0  0  0  0  0  0  0  0
  145.7242  137.5479  152.3288 N   0  0  0  0  0  0  0  0  0  0  0  0
  146.5062  138.6301  152.4614 C   0  0  0  0  0  0  0  0  0  0  0  0
  147.2847  139.0184  151.5911 O   0  0  0  0  0  0  0  0  0  0  0  0
  146.4455  139.3410  153.8126 C   0  0  0  0  0  0  0  0  0  0  0  0
  147.6760  140.2023  153.9601 C   0  0  0  0  0  0  0  0  0  0  0  0
  149.0106  139.7854  154.2356 C   0  0  0  0  0  0  0  0  0  0  0  0
  149.5325  138.3911  154.4313 C   0  0  0  0  0  0  0  0  0  0  0  0
  149.8361  140.8124  154.3476 N   0  0  0  0  0  0  0  0  0  0  0  0
  149.0582  141.9541  154.1330 O   0  0  0  0  0  0  0  0  0  0  0  0
  147.7782  141.5652  153.9039 C   0  0  0  0  0  0  0  0  0  0  0  0
  146.7798  142.6481  153.6718 C   0  0  0  0  0  0  0  0  0  0  0  0
  144.6351  134.5176  150.2090 C   0  0  0  0  0  0  0  0  0  0  0  0
  145.2030  130.7558  149.7878 H   0  0  0  0  0  0  0  0  0  0  0  0
  145.5762  131.8163  151.1381 H   0  0  0  0  0  0  0  0  0  0  0  0
  145.7092  132.4145  149.4847 H   0  0  0  0  0  0  0  0  0  0  0  0
  143.2231  132.1037  149.1868 H   0  0  0  0  0  0  0  0  0  0  0  0
  143.0753  131.5871  150.8538 H   0  0  0  0  0  0  0  0  0  0  0  0
  142.1909  134.0512  152.1776 H   0  0  0  0  0  0  0  0  0  0  0  0
  143.5112  132.9744  152.6232 H   0  0  0  0  0  0  0  0  0  0  0  0
  143.5621  135.7435  153.1169 H   0  0  0  0  0  0  0  0  0  0  0  0
  144.9793  134.7036  153.0143 H   0  0  0  0  0  0  0  0  0  0  0  0
  143.7173  136.3467  150.8123 H   0  0  0  0  0  0  0  0  0  0  0  0
  146.6947  135.9307  151.4030 H   0  0  0  0  0  0  0  0  0  0  0  0
  145.9835  137.1104  150.3239 H   0  0  0  0  0  0  0  0  0  0  0  0
  145.1005  137.3253  153.0913 H   0  0  0  0  0  0  0  0  0  0  0  0
  145.5332  139.9362  153.8690 H   0  0  0  0  0  0  0  0  0  0  0  0
  146.3748  138.5955  154.6054 H   0  0  0  0  0  0  0  0  0  0  0  0
  149.3403  138.0444  155.4468 H   0  0  0  0  0  0  0  0  0  0  0  0
  150.6076  138.3351  154.2571 H   0  0  0  0  0  0  0  0  0  0  0  0
  149.0518  137.6924  153.7464 H   0  0  0  0  0  0  0  0  0  0  0  0
  146.1672  142.4283  152.7972 H   0  0  0  0  0  0  0  0  0  0  0  0
  147.2709  143.6075  153.5060 H   0  0  0  0  0  0  0  0  0  0  0  0
  146.1179  142.7506  154.5319 H   0  0  0  0  0  0  0  0  0  0  0  0
  145.5801  133.9933  150.3620 H   0  0  0  0  0  0  0  0  0  0  0  0
  144.5752  134.8103  149.1608 H   0  0  0  0  0  0  0  0  0  0  0  0
  142.6945  134.0103  150.1100 H   0  0  0  0  0  0  0  0  0  0  0  0
  1  2  1  0  0  0  0
  1 20  1  0  0  0  0
  1 21  1  0  0  0  0
  1 22  1  0  0  0  0
  2  3  1  0  0  0  0
  2 23  1  0  0  0  0
  2 24  1  0  0  0  0
  3 19  1  0  0  0  0
  3  4  1  0  0  0  0
  3 43  1  0  0  0  0
  4  5  1  0  0  0  0
  4 25  1  0  0  0  0
  4 26  1  0  0  0  0
  5  6  1  0  0  0  0
  5 27  1  0  0  0  0
  5 28  1  0  0  0  0
  6  7  1  0  0  0  0
  6 19  1  0  0  0  0
  6 29  1  0  0  0  0
  7  8  1  0  0  0  0
  7 30  1  0  0  0  0
  7 31  1  0  0  0  0
  8  9  1  0  0  0  0
  8 32  1  0  0  0  0
  9 10  2  0  0  0  0
  9 11  1  0  0  0  0
 11 12  1  0  0  0  0
 11 33  1  0  0  0  0
 11 34  1  0  0  0  0
 12 17  2  0  0  0  0
 12 13  1  0  0  0  0
 13 14  1  0  0  0  0
 13 15  2  0  0  0  0
 14 35  1  0  0  0  0
 14 36  1  0  0  0  0
 14 37  1  0  0  0  0
 15 16  1  0  0  0  0
 16 17  1  0  0  0  0
 17 18  1  0  0  0  0
 18 38  1  0  0  0  0
 18 39  1  0  0  0  0
 18 40  1  0  0  0  0
 19 41  1  0  0  0  0
 19 42  1  0  0  0  0
M  CHG  1   3   1
M  END
> <s_m_source_file>
AV-unprocessed.smi

> <i_m_source_file_index>
1184

> <i_lp_mmshare_version>
43012

> <i_f3d_flags>
0

> <s_epik_input>
W0NIM11bQ0gyXU4xW0NIMl1bQ0gyXVtDQEhdKFtDSDJdMSlbQ0gyXVtOSF1DKD1PKVtDSDJdYzJjKFtDSDNdKW5vYzJbQ0gzXQ==

> <s_epik_cmdline>
J2VwaWtfcHl0aG9uJywgJy1waCcsICc3LjAnLCAnLXRuJywgJzgnLCAnLW1hJywgJzIwMCcsICctbWV0YWxfYmluZGluZycsICctaW1hZScsICc8aW5maWxlLm1hZT4nLCAnLW9tYWUnLCAnPG91dGZpbGUubWFlPic=

> <r_epik_Ionization_Penalty>
0.000590726

> <r_epik_Ionization_Penalty_Charging>
0.000590692

> <r_epik_Ionization_Penalty_Neutral>
3.44741e-08

> <r_epik_State_Penalty>
0.000371644

> <r_epik_Charging_Adjusted_Penalty>
0.000962336

> <i_epik_Tot_Q>
1

> <i_epik_Tot_abs_Q>
1

> <r_epik_Metal_State_Penalty>
-0

> <b_epik_Metal_Only>
0

> <s_lp_Force_Field>
OPLS_2005

> <r_lp_Energy>
20.0287

> <b_lp_Chiralities_Consistent>
1

> <s_lp_Variant>
AV-unprocessed.smi:1184-1

> <Gold.Version>
5.8.1

> <Gold.Id.Protein>
6NUR|6NUR_protein|mol2

> <Gold.PLP.Fitness>
43.8670

> <Gold.PLP.PLP>
-34.8046

> <Gold.PLP.part.hbond>
-4.2923

> <Gold.PLP.part.metal>
0.0000

> <Gold.PLP.part.buried>
-2.7761

> <Gold.PLP.part.nonpolar>
-31.5006

> <Gold.PLP.part.repulsive>
4.4879

> <Gold.PLP.ligand.clash>
0.0000

> <Gold.PLP.ligand.torsion>
0.9615

> <Gold.PLP.Chemscore.Hbond>
3.6542

> <Gold.PLP.Chemscore.CHOScore>
0.0000

> <Gold.PLP.Chemscore.Metal>
0.0000

> <Gold.Chemscore.Hbonds>
donor molecule, donor type, donor heavy atom, donor atom, acceptor molecule, acceptor atom, score
      L1  H     3    43       P1 10186  2.00
      P1  H  7954  7966       L1    10  0.46
      P1  H  7989  7998       L1    15  0.66
      P1  H  8011  8017       L1    16  0.39

> <Gold.PLP.Chemscore.Internal.Correction>
0.0227

> <Gold.Rescore>
     Score         DG    S(hbond)    S(metal)    S(lipo)     H(rot)  DE(clash)    DE(int)     intcor
     14.48     -18.16       1.96        0.00      89.02       1.67       2.55       1.13       ----

> <Gold.Chemscore.Fitness>
14.4814

> <Gold.Chemscore.DG>
-18.1609

> <Gold.Chemscore.ZeroCoef>
-5.4800

> <Gold.Chemscore.Hbond>
1.9572

> <Gold.Chemscore.Metal>
0.0000

> <Gold.Chemscore.Lipo>
89.0177

> <Gold.Chemscore.Internal_Hbond>
0.0000

> <Gold.Chemscore.DEClash>
2.5472

> <Gold.Chemscore.DEInternal>
1.1323

> <Gold.Chemscore.Rot>
1.6684

> <Gold.Chemscore.Internal.Correction>
   9.000000E+99

> <Gold.Chemscore.Hbonds>
donor molecule, donor type, donor heavy atom, donor atom, acceptor molecule, acceptor atom, score
      L1  H     3    43       P1 10186  0.99
      P1  H  7954  7966       L1    10  0.45
      P1  H  7989  7998       L1    15  0.53
      P1  H  8011  8017       L1    16  0.04

> <Gold.Chemscore.Hbond.Weighted>
-6.5370

> <Gold.Chemscore.Metal.Weighted>
-0.0000

> <Gold.Chemscore.Lipo.Weighted>
-10.4151

> <Gold.Chemscore.Internal_Hbond.Weighted>
0.0000

> <Gold.Chemscore.DEClash.Weighted>
2.5472

> <Gold.Chemscore.DEInternal.Weighted>
1.1323

> <Gold.Chemscore.Rot.Weighted>
4.2712

> <Gold.Chemscore.Internal.Correction.Weighted>
   9.000000E+99

> <Gold.Protein.RotatedTorsions>
[ 6907 6896 6895 6894 ] final  -74.65 input  -60.11 | X-H torsion
[ 7974 7965 7964 7962 ] final  -54.51 input  175.53 | X-H torsion
[ 8008 7997 7996 7995 ] final -179.21 input   59.86 | X-H torsion
[ 10167 10162 10161 10158 ] final  141.71 input  -65.29 | X-H torsion
[ 10718 10713 10712 10709 ] final  120.58 input   66.30 | X-H torsion
[ 10763 10752 10751 10750 ] final   86.86 input  -60.55 | X-H torsion
[ 11005 11000 10999 10996 ] final -151.74 input  -57.11 | X-H torsion

> <Gold.Protein.ActiveResidues>
 VAL166  LYS551  ARG553  GLY616  TRP617  ASP618  TYR619  PRO620  LYS621  CYS622 
 ASP623  PHE694  ASN695  SER759  ASP760  ASP761  ALA762  ILE779  LEU786  VAL792 
 PHE793  MET794  SER795  GLU796  ALA797  LYS798  CYS799  TRP800  GLU811  SER814 

> <Gold.Protein.RotatedAtoms>
  150.7085  134.4837  159.5482 H   0  0  0  0  0  0  0  0  0  0  0  0  # atno 6907 bound_to 6896
  152.2469  134.8169  160.0461 H   0  0  0  0  0  0  0  0  0  0  0  0  # atno 6908 bound_to 6896
  151.8931  133.3485  159.3842 H   0  0  0  0  0  0  0  0  0  0  0  0  # atno 6909 bound_to 6896
  145.8847  140.8117  142.9822 H   0  0  0  0  0  0  0  0  0  0  0  0  # atno 7974 bound_to 7965
  156.0278  140.1275  157.0290 H   0  0  0  0  0  0  0  0  0  0  0  0  # atno 8008 bound_to 7997
  154.4337  140.1055  156.6126 H   0  0  0  0  0  0  0  0  0  0  0  0  # atno 8009 bound_to 7997
  155.5851  140.3468  155.4553 H   0  0  0  0  0  0  0  0  0  0  0  0  # atno 8010 bound_to 7997
  139.5013  144.6154  151.6176 H   0  0  0  0  0  0  0  0  0  0  0  0  # atno 10167 bound_to 10162
  157.5880  131.1067  150.8055 H   0  0  0  0  0  0  0  0  0  0  0  0  # atno 10718 bound_to 10713
  153.1612  135.4564  154.9774 H   0  0  0  0  0  0  0  0  0  0  0  0  # atno 10763 bound_to 10752
  154.7899  135.3217  154.7804 H   0  0  0  0  0  0  0  0  0  0  0  0  # atno 10764 bound_to 10752
  153.8294  135.6940  153.4871 H   0  0  0  0  0  0  0  0  0  0  0  0  # atno 10765 bound_to 10752
  140.7263  134.3671  157.5175 H   0  0  0  0  0  0  0  0  0  0  0  0  # atno 11005 bound_to 11000
  144.6728  140.1437  143.7435 LP  0  0  0  0  0  0  0  0  0  0  0  0  # atno 17320 bound_to 7965
  145.8981  139.2414  143.1510 LP  0  0  0  0  0  0  0  0  0  0  0  0  # atno 17321 bound_to 7965
  140.5840  143.9896  150.6285 LP  0  0  0  0  0  0  0  0  0  0  0  0  # atno 17342 bound_to 10162
  140.3054  143.3232  152.0931 LP  0  0  0  0  0  0  0  0  0  0  0  0  # atno 17343 bound_to 10162
  156.8484  130.5072  149.5314 LP  0  0  0  0  0  0  0  0  0  0  0  0  # atno 17370 bound_to 10713
  156.0932  130.5912  150.9768 LP  0  0  0  0  0  0  0  0  0  0  0  0  # atno 17371 bound_to 10713
  139.8836  134.8988  156.2754 LP  0  0  0  0  0  0  0  0  0  0  0  0  # atno 17394 bound_to 11000
  140.9960  133.7180  156.0886 LP  0  0  0  0  0  0  0  0  0  0  0  0  # atno 17395 bound_to 11000

$$$$
