AV-unprocessed.smi:55|AV-procd|sdf|568|dock7
  -GOLD-   2262016473D 1   1.00000     0.00000
 Structure written by MMmdl.
 31 32  0  0  0  0  0  0  0  0  1 V2000
  152.0571  141.1467  159.4759 C   0  0  0  0  0  0  0  0  0  0  0  0
  152.2561  139.9714  158.5334 C   0  0  0  0  0  0  0  0  0  0  0  0
  151.8003  139.9791  157.2548 C   0  0  0  0  0  0  0  0  0  0  0  0
  151.9630  138.9216  156.3709 N   0  0  0  0  0  0  0  0  0  0  0  0
  151.4278  139.0037  154.9588 C   0  0  1  0  0  0  0  0  0  0  0  0
  150.4355  137.8691  154.6840 C   0  0  0  0  0  0  0  0  0  0  0  0
  149.1010  138.5903  154.7135 C   0  0  2  0  0  0  0  0  0  0  0  0
  148.1622  137.9547  153.8701 O   0  0  0  0  0  0  0  0  0  0  0  0
  149.4732  139.9914  154.2222 C   0  0  1  0  0  0  0  0  0  0  0  0
  148.4920  141.0829  154.6755 C   0  0  0  0  0  0  0  0  0  0  0  0
  148.8537  142.3230  154.1062 O   0  0  0  0  0  0  0  0  0  0  0  0
  150.7508  140.2157  154.8114 O   0  0  0  0  0  0  0  0  0  0  0  0
  152.6295  137.7558  156.8043 C   0  0  0  0  0  0  0  0  0  0  0  0
  152.7958  136.7690  156.0885 O   0  0  0  0  0  0  0  0  0  0  0  0
  153.1018  137.7491  158.1158 N   0  0  0  0  0  0  0  0  0  0  0  0
  152.9650  138.7915  159.0358 C   0  0  0  0  0  0  0  0  0  0  0  0
  153.4263  138.6658  160.1689 O   0  0  0  0  0  0  0  0  0  0  0  0
  152.2789  138.9991  154.2766 H   0  0  0  0  0  0  0  0  0  0  0  0
  148.7167  138.6266  155.7336 H   0  0  0  0  0  0  0  0  0  0  0  0
  149.5815  139.9808  153.1355 H   0  0  0  0  0  0  0  0  0  0  0  0
  153.5817  136.9179  158.4288 H   0  0  0  0  0  0  0  0  0  0  0  0
  151.5312  141.9695  158.9912 H   0  0  0  0  0  0  0  0  0  0  0  0
  153.0192  141.5239  159.8238 H   0  0  0  0  0  0  0  0  0  0  0  0
  151.4733  140.8428  160.3454 H   0  0  0  0  0  0  0  0  0  0  0  0
  151.2810  140.8603  156.9088 H   0  0  0  0  0  0  0  0  0  0  0  0
  150.6458  137.4675  153.6916 H   0  0  0  0  0  0  0  0  0  0  0  0
  150.5150  137.0618  155.4137 H   0  0  0  0  0  0  0  0  0  0  0  0
  148.6285  137.3997  153.2636 H   0  0  0  0  0  0  0  0  0  0  0  0
  147.4840  140.8481  154.3323 H   0  0  0  0  0  0  0  0  0  0  0  0
  148.4554  141.1577  155.7628 H   0  0  0  0  0  0  0  0  0  0  0  0
  148.7266  142.9997  154.7534 H   0  0  0  0  0  0  0  0  0  0  0  0
  1  2  1  0  0  0  0
  1 22  1  0  0  0  0
  1 23  1  0  0  0  0
  1 24  1  0  0  0  0
  2 16  1  0  0  0  0
  2  3  2  0  0  0  0
  3  4  1  0  0  0  0
  3 25  1  0  0  0  0
  4  5  1  0  0  0  0
  4 13  1  0  0  0  0
  5 18  1  0  0  0  0
  5 12  1  0  0  0  0
  5  6  1  0  0  0  0
  6  7  1  0  0  0  0
  6 26  1  0  0  0  0
  6 27  1  0  0  0  0
  7 19  1  0  0  0  0
  7  8  1  0  0  0  0
  7  9  1  0  0  0  0
  8 28  1  0  0  0  0
  9 20  1  0  0  0  0
  9 10  1  0  0  0  0
  9 12  1  0  0  0  0
 10 11  1  0  0  0  0
 10 29  1  0  0  0  0
 10 30  1  0  0  0  0
 11 31  1  0  0  0  0
 13 14  2  0  0  0  0
 13 15  1  0  0  0  0
 15 21  1  0  0  0  0
 15 16  1  0  0  0  0
 16 17  2  0  0  0  0
M  END
> <s_m_source_file>
AV-unprocessed.smi

> <i_m_source_file_index>
55

> <i_lp_mmshare_version>
43012

> <i_f3d_flags>
0

> <s_epik_input>
Tz1jMVtuSF1jKD1PKW4oW2NIXWMxW0NIM10pW0NAQEhdMltDSDJdW0NAQEhdKFtPSF0pW0NAQEhdKE8yKVtDSDJdW09IXQ==

> <s_epik_cmdline>
J2VwaWtfcHl0aG9uJywgJy1waCcsICc3LjAnLCAnLXRuJywgJzgnLCAnLW1hJywgJzIwMCcsICctbWV0YWxfYmluZGluZycsICctaW1hZScsICc8aW5maWxlLm1hZT4nLCAnLW9tYWUnLCAnPG91dGZpbGUubWFlPic=

> <r_lp_tautomer_probability>
0.999537

> <r_epik_Ionization_Penalty>
0.00121888

> <r_epik_Ionization_Penalty_Charging>
0.00121876

> <r_epik_Ionization_Penalty_Neutral>
1.19946e-07

> <r_epik_State_Penalty>
0.000805124

> <r_epik_Charging_Adjusted_Penalty>
0.00202389

> <i_epik_Tot_Q>
0

> <i_epik_Tot_abs_Q>
0

> <r_epik_Metal_State_Penalty>
0.662472

> <b_epik_Metal_Only>
0

> <s_epik_Chemistry_Notes>
This compound contains an acetal/aminal-like group ( X-CH(R)-Y where X, Y are N, S, or O) that may be acid/base labile, releasing an aldehyde.

> <s_lp_Force_Field>
OPLS_2005

> <r_lp_Energy>
24.9253

> <b_lp_Chiralities_Consistent>
1

> <s_lp_Variant>
AV-unprocessed.smi:55-8

> <Gold.Version>
5.8.1

> <Gold.Id.Protein>
6NUR|6NUR_protein|mol2

> <Gold.PLP.Fitness>
39.2189

> <Gold.PLP.PLP>
-26.9736

> <Gold.PLP.part.hbond>
-5.0000

> <Gold.PLP.part.metal>
0.0000

> <Gold.PLP.part.buried>
-3.7014

> <Gold.PLP.part.nonpolar>
-18.8867

> <Gold.PLP.part.repulsive>
0.1773

> <Gold.PLP.ligand.clash>
0.0000

> <Gold.PLP.ligand.torsion>
0.0377

> <Gold.PLP.Chemscore.Hbond>
4.1040

> <Gold.PLP.Chemscore.CHOScore>
0.0000

> <Gold.PLP.Chemscore.Metal>
0.0000

> <Gold.Chemscore.Hbonds>
donor molecule, donor type, donor heavy atom, donor atom, acceptor molecule, acceptor atom, score
      L1  H     8    28       P1  7948  1.00
      L1  H    11    31       P1  8028  1.00
      P1  H  7989  7998       L1    12  1.00
      P1  H  8011  8017       L1    11  0.22
      P1  H 10752 10763       L1    14  0.83

> <Gold.PLP.Chemscore.Internal.Correction>
0.0087

> <Gold.Rescore>
     Score         DG    S(hbond)    S(metal)    S(lipo)     H(rot)  DE(clash)    DE(int)     intcor
     13.34     -14.98       3.41        0.00      43.53       2.73       0.40       1.24       ----

> <Gold.Chemscore.Fitness>
13.3388

> <Gold.Chemscore.DG>
-14.9817

> <Gold.Chemscore.ZeroCoef>
-5.4800

> <Gold.Chemscore.Hbond>
3.4090

> <Gold.Chemscore.Metal>
0.0000

> <Gold.Chemscore.Lipo>
43.5256

> <Gold.Chemscore.Internal_Hbond>
0.0000

> <Gold.Chemscore.DEClash>
0.3991

> <Gold.Chemscore.DEInternal>
1.2438

> <Gold.Chemscore.Rot>
2.7253

> <Gold.Chemscore.Internal.Correction>
   9.000000E+99

> <Gold.Chemscore.Hbonds>
donor molecule, donor type, donor heavy atom, donor atom, acceptor molecule, acceptor atom, score
      L1  H     8    28       P1  7948  1.00
      L1  H    11    31       P1  8028  0.99
      P1  H  7989  7998       L1    12  0.09
      P1  H  8011  8017       L1    11  0.23
      P1  H 10752 10763       L1    14  0.83

> <Gold.Chemscore.Hbond.Weighted>
-11.3860

> <Gold.Chemscore.Metal.Weighted>
-0.0000

> <Gold.Chemscore.Lipo.Weighted>
-5.0925

> <Gold.Chemscore.Internal_Hbond.Weighted>
0.0000

> <Gold.Chemscore.DEClash.Weighted>
0.3991

> <Gold.Chemscore.DEInternal.Weighted>
1.2438

> <Gold.Chemscore.Rot.Weighted>
6.9769

> <Gold.Chemscore.Internal.Correction.Weighted>
   9.000000E+99

> <Gold.Protein.RotatedTorsions>
[ 6907 6896 6895 6894 ] final   88.07 input  -60.11 | X-H torsion
[ 7974 7965 7964 7962 ] final -125.55 input  175.53 | X-H torsion
[ 8008 7997 7996 7995 ] final -116.59 input   59.86 | X-H torsion
[ 10167 10162 10161 10158 ] final   98.28 input  -65.29 | X-H torsion
[ 10718 10713 10712 10709 ] final  -13.62 input   66.30 | X-H torsion
[ 10763 10752 10751 10750 ] final   93.84 input  -60.55 | X-H torsion
[ 11005 11000 10999 10996 ] final  164.85 input  -57.11 | X-H torsion

> <Gold.Protein.ActiveResidues>
 VAL166  LYS551  ARG553  GLY616  TRP617  ASP618  TYR619  PRO620  LYS621  CYS622 
 ASP623  PHE694  ASN695  SER759  ASP760  ASP761  ALA762  ILE779  LEU786  VAL792 
 PHE793  MET794  SER795  GLU796  ALA797  LYS798  CYS799  TRP800  GLU811  SER814 

> <Gold.Protein.RotatedAtoms>
  152.5420  134.2178  159.8775 H   0  0  0  0  0  0  0  0  0  0  0  0  # atno 6907 bound_to 6896
  151.2157  133.4524  159.2607 H   0  0  0  0  0  0  0  0  0  0  0  0  # atno 6908 bound_to 6896
  151.0854  134.9897  159.8432 H   0  0  0  0  0  0  0  0  0  0  0  0  # atno 6909 bound_to 6896
  144.9965  140.7780  143.4522 H   0  0  0  0  0  0  0  0  0  0  0  0  # atno 7974 bound_to 7965
  155.0703  140.0393  157.2606 H   0  0  0  0  0  0  0  0  0  0  0  0  # atno 8008 bound_to 7997
  154.6988  140.2669  155.6715 H   0  0  0  0  0  0  0  0  0  0  0  0  # atno 8009 bound_to 7997
  156.2753  140.2745  156.1591 H   0  0  0  0  0  0  0  0  0  0  0  0  # atno 8010 bound_to 7997
  139.7723  144.6918  151.0138 H   0  0  0  0  0  0  0  0  0  0  0  0  # atno 10167 bound_to 10162
  156.6276  130.4892  149.6141 H   0  0  0  0  0  0  0  0  0  0  0  0  # atno 10718 bound_to 10713
  153.2348  135.4311  155.0635 H   0  0  0  0  0  0  0  0  0  0  0  0  # atno 10763 bound_to 10752
  154.8314  135.3388  154.6734 H   0  0  0  0  0  0  0  0  0  0  0  0  # atno 10764 bound_to 10752
  153.7160  135.7020  153.5081 H   0  0  0  0  0  0  0  0  0  0  0  0  # atno 10765 bound_to 10752
  140.2501  134.7984  157.3493 H   0  0  0  0  0  0  0  0  0  0  0  0  # atno 11005 bound_to 11000
  145.2213  139.2158  143.5091 LP  0  0  0  0  0  0  0  0  0  0  0  0  # atno 17320 bound_to 7965
  146.3443  140.2071  142.8589 LP  0  0  0  0  0  0  0  0  0  0  0  0  # atno 17321 bound_to 7965
  140.7814  143.4574  151.0325 LP  0  0  0  0  0  0  0  0  0  0  0  0  # atno 17342 bound_to 10162
  139.8258  143.7758  152.3178 LP  0  0  0  0  0  0  0  0  0  0  0  0  # atno 17343 bound_to 10162
  156.2261  130.6766  151.1417 LP  0  0  0  0  0  0  0  0  0  0  0  0  # atno 17370 bound_to 10713
  157.7209  131.0682  150.6137 LP  0  0  0  0  0  0  0  0  0  0  0  0  # atno 17371 bound_to 10713
  140.1567  134.4781  155.7923 LP  0  0  0  0  0  0  0  0  0  0  0  0  # atno 17394 bound_to 11000
  141.2202  133.6884  156.7473 LP  0  0  0  0  0  0  0  0  0  0  0  0  # atno 17395 bound_to 11000

$$$$
