AV-unprocessed.smi:1736|AV-procd|sdf|6992|dock6
  -GOLD-   22720 8203D 1   1.00000     0.00000
 Structure written by MMmdl.
 44 45  0  0  0  0  0  0  0  0  1 V2000
  152.4872  139.5818  155.5039 C   0  0  0  0  0  0  0  0  0  0  0  0
  151.1784  139.8310  154.9196 N   0  0  0  0  0  0  0  0  0  0  0  0
  150.4105  138.5977  154.7761 C   0  0  0  0  0  0  0  0  0  0  0  0
  149.0305  138.8616  154.1460 C   0  0  0  0  0  0  0  0  0  0  0  0
  148.2381  139.8144  154.9414 N   0  0  0  0  0  0  0  0  0  0  0  0
  146.8408  140.0182  154.4648 C   0  0  0  0  0  0  0  0  0  0  0  0
  146.2124  141.3367  154.9772 C   0  0  0  0  0  0  0  0  0  0  0  0
  146.7830  140.0578  152.9164 C   0  0  0  0  0  0  0  0  0  0  0  0
  145.9033  138.8590  154.9161 C   0  0  0  0  0  0  0  0  0  0  0  0
  144.6169  138.8628  154.2200 N   0  0  0  0  0  0  0  0  0  0  0  0
  143.5960  138.0265  154.4542 C   0  0  0  0  0  0  0  0  0  0  0  0
  143.6286  137.1258  155.2928 O   0  0  0  0  0  0  0  0  0  0  0  0
  142.5473  138.3087  153.6648 N   0  0  0  0  0  0  0  0  0  0  0  0
  141.2958  137.6448  153.6310 C   0  0  0  0  0  0  0  0  0  0  0  0
  140.8365  136.5438  154.4120 C   0  0  0  0  0  0  0  0  0  0  0  0
  139.5978  136.2057  154.0823 N   0  0  0  0  0  0  0  0  0  0  0  0
  139.2635  137.0760  153.1031 N   0  0  0  0  0  0  0  0  0  0  0  0
  140.2673  137.9680  152.7971 C   0  0  0  0  0  0  0  0  0  0  0  0
  149.0263  141.0487  155.0904 C   0  0  0  0  0  0  0  0  0  0  0  0
  150.4038  140.7738  155.7205 C   0  0  0  0  0  0  0  0  0  0  0  0
  138.3567  137.0485  152.6589 H   0  0  0  0  0  0  0  0  0  0  0  0
  153.0611  138.8913  154.8850 H   0  0  0  0  0  0  0  0  0  0  0  0
  152.3985  139.1507  156.5019 H   0  0  0  0  0  0  0  0  0  0  0  0
  153.0570  140.5083  155.5830 H   0  0  0  0  0  0  0  0  0  0  0  0
  150.9612  137.8923  154.1527 H   0  0  0  0  0  0  0  0  0  0  0  0
  150.2828  138.1200  155.7490 H   0  0  0  0  0  0  0  0  0  0  0  0
  149.1675  139.2332  153.1304 H   0  0  0  0  0  0  0  0  0  0  0  0
  148.5190  137.9041  154.0662 H   0  0  0  0  0  0  0  0  0  0  0  0
  145.1967  141.4583  154.5986 H   0  0  0  0  0  0  0  0  0  0  0  0
  146.7728  142.2139  154.6551 H   0  0  0  0  0  0  0  0  0  0  0  0
  146.1465  141.3665  156.0645 H   0  0  0  0  0  0  0  0  0  0  0  0
  145.7554  140.0179  152.5529 H   0  0  0  0  0  0  0  0  0  0  0  0
  147.3171  139.2177  152.4713 H   0  0  0  0  0  0  0  0  0  0  0  0
  147.2133  140.9727  152.5097 H   0  0  0  0  0  0  0  0  0  0  0  0
  146.3697  137.8895  154.7423 H   0  0  0  0  0  0  0  0  0  0  0  0
  145.7529  138.8940  155.9968 H   0  0  0  0  0  0  0  0  0  0  0  0
  144.4907  139.5772  153.5182 H   0  0  0  0  0  0  0  0  0  0  0  0
  142.6543  139.0809  153.0239 H   0  0  0  0  0  0  0  0  0  0  0  0
  141.3390  135.9868  155.1888 H   0  0  0  0  0  0  0  0  0  0  0  0
  140.1631  138.7288  152.0373 H   0  0  0  0  0  0  0  0  0  0  0  0
  149.1663  141.5310  154.1228 H   0  0  0  0  0  0  0  0  0  0  0  0
  148.5109  141.7638  155.7284 H   0  0  0  0  0  0  0  0  0  0  0  0
  150.2730  140.3872  156.7326 H   0  0  0  0  0  0  0  0  0  0  0  0
  150.9501  141.7130  155.8140 H   0  0  0  0  0  0  0  0  0  0  0  0
  1  2  1  0  0  0  0
  1 22  1  0  0  0  0
  1 23  1  0  0  0  0
  1 24  1  0  0  0  0
  2 20  1  0  0  0  0
  2  3  1  0  0  0  0
  3  4  1  0  0  0  0
  3 25  1  0  0  0  0
  3 26  1  0  0  0  0
  4  5  1  0  0  0  0
  4 27  1  0  0  0  0
  4 28  1  0  0  0  0
  5  6  1  0  0  0  0
  5 19  1  0  0  0  0
  6  7  1  0  0  0  0
  6  8  1  0  0  0  0
  6  9  1  0  0  0  0
  7 29  1  0  0  0  0
  7 30  1  0  0  0  0
  7 31  1  0  0  0  0
  8 32  1  0  0  0  0
  8 33  1  0  0  0  0
  8 34  1  0  0  0  0
  9 10  1  0  0  0  0
  9 35  1  0  0  0  0
  9 36  1  0  0  0  0
 10 11  1  0  0  0  0
 10 37  1  0  0  0  0
 11 12  2  0  0  0  0
 11 13  1  0  0  0  0
 13 14  1  0  0  0  0
 13 38  1  0  0  0  0
 14 18  2  0  0  0  0
 14 15  1  0  0  0  0
 15 16  2  0  0  0  0
 15 39  1  0  0  0  0
 16 17  1  0  0  0  0
 17 21  1  0  0  0  0
 17 18  1  0  0  0  0
 18 40  1  0  0  0  0
 19 20  1  0  0  0  0
 19 41  1  0  0  0  0
 19 42  1  0  0  0  0
 20 43  1  0  0  0  0
 20 44  1  0  0  0  0
M  END
> <s_m_source_file>
AV-unprocessed.smi

> <i_m_source_file_index>
1736

> <i_lp_mmshare_version>
43012

> <i_f3d_flags>
0

> <s_epik_input>
W0NIM11OMVtDSDJdW0NIMl1OKFtDSDJdW0NIMl0xKUMoW0NIM10pKFtDSDNdKVtDSDJdW05IXUMoPU8pW05IXWMyW2NIXW5bbkhdW2NIXTI=

> <s_epik_cmdline>
J2VwaWtfcHl0aG9uJywgJy1waCcsICc3LjAnLCAnLXRuJywgJzgnLCAnLW1hJywgJzIwMCcsICctbWV0YWxfYmluZGluZycsICctaW1hZScsICc8aW5maWxlLm1hZT4nLCAnLW9tYWUnLCAnPG91dGZpbGUubWFlPic=

> <r_lp_tautomer_probability>
0.5

> <r_epik_Ionization_Penalty>
3.08539

> <r_epik_Ionization_Penalty_Charging>
0

> <r_epik_Ionization_Penalty_Neutral>
3.08539

> <r_epik_State_Penalty>
2.1584

> <r_epik_Charging_Adjusted_Penalty>
2.1584

> <i_epik_Tot_Q>
0

> <i_epik_Tot_abs_Q>
0

> <r_epik_Metal_State_Penalty>
2.1584

> <b_epik_Metal_Only>
0

> <s_lp_Force_Field>
OPLS_2005

> <r_lp_Energy>
53.1153

> <b_lp_Chiralities_Consistent>
1

> <s_lp_Variant>
AV-unprocessed.smi:1736-3

> <Gold.Version>
5.8.1

> <Gold.Id.Protein>
6NUR|6NUR_protein|mol2

> <Gold.PLP.Fitness>
39.3816

> <Gold.PLP.PLP>
-26.7130

> <Gold.PLP.part.hbond>
-3.6398

> <Gold.PLP.part.metal>
0.0000

> <Gold.PLP.part.buried>
-1.7188

> <Gold.PLP.part.nonpolar>
-22.6043

> <Gold.PLP.part.repulsive>
0.3248

> <Gold.PLP.ligand.clash>
0.0000

> <Gold.PLP.ligand.torsion>
0.8505

> <Gold.PLP.Chemscore.Hbond>
2.9420

> <Gold.PLP.Chemscore.CHOScore>
1.8345

> <Gold.PLP.Chemscore.Metal>
0.0000

> <Gold.Chemscore.Hbonds>
donor molecule, donor type, donor heavy atom, donor atom, acceptor molecule, acceptor atom, score
      L1  H    10    37       P1 10175  1.00
      L1  H    13    38       P1 10175  0.98
      P1  H  7989  7998       L1     2  1.00
      L1  C    15    39       P1 11000  0.82
      L1  C    18    40       P1 10160  1.00

> <Gold.PLP.Chemscore.Internal.Correction>
0.0401

> <Gold.Rescore>
     Score         DG    S(hbond)    S(metal)    S(lipo)     H(rot)  DE(clash)    DE(int)     intcor
     13.88     -15.61       1.95        0.00      65.58       1.59       0.12       1.60       ----

> <Gold.Chemscore.Fitness>
13.8845

> <Gold.Chemscore.DG>
-15.6107

> <Gold.Chemscore.ZeroCoef>
-5.4800

> <Gold.Chemscore.Hbond>
1.9547

> <Gold.Chemscore.Metal>
0.0000

> <Gold.Chemscore.Lipo>
65.5776

> <Gold.Chemscore.Internal_Hbond>
0.0000

> <Gold.Chemscore.DEClash>
0.1223

> <Gold.Chemscore.DEInternal>
1.6038

> <Gold.Chemscore.Rot>
1.5901

> <Gold.Chemscore.Internal.Correction>
   9.000000E+99

> <Gold.Chemscore.Hbonds>
donor molecule, donor type, donor heavy atom, donor atom, acceptor molecule, acceptor atom, score
      L1  H    10    37       P1 10175  0.96
      L1  H    13    38       P1 10175  0.93
      P1  H  7989  7998       L1     2  0.08

> <Gold.Chemscore.Hbond.Weighted>
-6.5288

> <Gold.Chemscore.Metal.Weighted>
-0.0000

> <Gold.Chemscore.Lipo.Weighted>
-7.6726

> <Gold.Chemscore.Internal_Hbond.Weighted>
0.0000

> <Gold.Chemscore.DEClash.Weighted>
0.1223

> <Gold.Chemscore.DEInternal.Weighted>
1.6038

> <Gold.Chemscore.Rot.Weighted>
4.0706

> <Gold.Chemscore.Internal.Correction.Weighted>
   9.000000E+99

> <Gold.Protein.RotatedTorsions>
[ 6907 6896 6895 6894 ] final -125.07 input  -60.11 | X-H torsion
[ 7974 7965 7964 7962 ] final   64.23 input  175.53 | X-H torsion
[ 8008 7997 7996 7995 ] final -167.28 input   59.86 | X-H torsion
[ 10167 10162 10161 10158 ] final  -38.31 input  -65.29 | X-H torsion
[ 10718 10713 10712 10709 ] final  -44.32 input   66.30 | X-H torsion
[ 10763 10752 10751 10750 ] final  -21.86 input  -60.55 | X-H torsion
[ 11005 11000 10999 10996 ] final -114.96 input  -57.11 | X-H torsion

> <Gold.Protein.ActiveResidues>
 VAL166  LYS551  ARG553  GLY616  TRP617  ASP618  TYR619  PRO620  LYS621  CYS622 
 ASP623  PHE694  ASN695  SER759  ASP760  ASP761  ALA762  ILE779  LEU786  VAL792 
 PHE793  MET794  SER795  GLU796  ALA797  LYS798  CYS799  TRP800  GLU811  SER814 

> <Gold.Protein.RotatedAtoms>
  150.8830  133.7346  159.2926 H   0  0  0  0  0  0  0  0  0  0  0  0  # atno 6907 bound_to 6896
  151.4921  135.1056  159.9816 H   0  0  0  0  0  0  0  0  0  0  0  0  # atno 6908 bound_to 6896
  152.4772  133.8121  159.7064 H   0  0  0  0  0  0  0  0  0  0  0  0  # atno 6909 bound_to 6896
  145.8527  139.3264  143.0866 H   0  0  0  0  0  0  0  0  0  0  0  0  # atno 7974 bound_to 7965
  155.8755  140.1000  157.1521 H   0  0  0  0  0  0  0  0  0  0  0  0  # atno 8008 bound_to 7997
  154.4000  140.1339  156.4194 H   0  0  0  0  0  0  0  0  0  0  0  0  # atno 8009 bound_to 7997
  155.7702  140.3461  155.5245 H   0  0  0  0  0  0  0  0  0  0  0  0  # atno 8010 bound_to 7997
  140.7095  143.3285  151.2623 H   0  0  0  0  0  0  0  0  0  0  0  0  # atno 10167 bound_to 10162
  156.2398  130.4179  149.8774 H   0  0  0  0  0  0  0  0  0  0  0  0  # atno 10718 bound_to 10713
  153.6427  135.6984  153.5236 H   0  0  0  0  0  0  0  0  0  0  0  0  # atno 10763 bound_to 10752
  153.2769  135.4197  155.1041 H   0  0  0  0  0  0  0  0  0  0  0  0  # atno 10764 bound_to 10752
  154.8496  135.3592  154.5971 H   0  0  0  0  0  0  0  0  0  0  0  0  # atno 10765 bound_to 10752
  141.0518  133.9675  157.2823 H   0  0  0  0  0  0  0  0  0  0  0  0  # atno 11005 bound_to 11000
  145.9339  140.9028  143.0342 LP  0  0  0  0  0  0  0  0  0  0  0  0  # atno 17320 bound_to 7965
  144.6728  140.1456  143.7434 LP  0  0  0  0  0  0  0  0  0  0  0  0  # atno 17321 bound_to 7965
  139.6761  143.9936  152.2781 LP  0  0  0  0  0  0  0  0  0  0  0  0  # atno 17342 bound_to 10162
  139.9550  144.6595  150.8135 LP  0  0  0  0  0  0  0  0  0  0  0  0  # atno 17343 bound_to 10162
  156.6360  130.8685  151.3504 LP  0  0  0  0  0  0  0  0  0  0  0  0  # atno 17370 bound_to 10713
  157.7170  130.9510  150.1293 LP  0  0  0  0  0  0  0  0  0  0  0  0  # atno 17371 bound_to 10713
  139.9357  135.0196  156.8547 LP  0  0  0  0  0  0  0  0  0  0  0  0  # atno 17394 bound_to 11000
  140.6040  134.0145  155.7549 LP  0  0  0  0  0  0  0  0  0  0  0  0  # atno 17395 bound_to 11000

$$$$
