AV-unprocessed.smi:2182|AV-procd|sdf|8864|dock1
  -GOLD-   2272012 63D 1   1.00000     0.00000
 Structure written by MMmdl.
 41 43  0  0  0  0  0  0  0  0  1 V2000
  149.6815  141.7398  153.5703 N   0  0  0  0  0  0  0  0  0  0  0  0
  150.1158  141.6007  154.6341 C   0  0  0  0  0  0  0  0  0  0  0  0
  150.6531  141.3986  155.9390 C   0  0  0  0  0  0  0  0  0  0  0  0
  150.6566  142.3787  156.8660 C   0  0  0  0  0  0  0  0  0  0  0  0
  151.1634  142.1975  158.1344 N   0  0  0  0  0  0  0  0  0  0  0  0
  151.3007  143.2943  159.0504 C   0  0  0  0  0  0  0  0  0  0  0  0
  151.9713  144.5795  158.6059 C   0  0  0  0  0  0  0  0  0  0  0  0
  152.6774  143.6537  159.5658 C   0  0  0  0  0  0  0  0  0  0  0  0
  151.7792  140.9763  158.4848 C   0  0  0  0  0  0  0  0  0  0  0  0
  152.3252  140.8280  159.5812 O   0  0  0  0  0  0  0  0  0  0  0  0
  151.7626  139.9285  157.5325 N   0  0  0  0  0  0  0  0  0  0  0  0
  152.3914  138.6377  157.8907 C   0  0  0  0  0  0  0  0  0  0  0  0
  151.3821  137.5598  158.3160 C   0  0  0  0  0  0  0  0  0  0  0  0
  151.5003  136.9648  159.3882 O   0  0  0  0  0  0  0  0  0  0  0  0
  150.3843  137.3207  157.4522 N   0  0  0  0  0  0  0  0  0  0  0  0
  149.3111  136.3545  157.6593 C   0  0  0  0  0  0  0  0  0  0  0  0
  149.3260  135.2374  156.6010 C   0  0  1  0  0  0  0  0  0  0  0  0
  149.9472  135.6332  155.2615 C   0  0  0  0  0  0  0  0  0  0  0  0
  150.3516  134.2856  154.7090 C   0  0  0  0  0  0  0  0  0  0  0  0
  150.8251  133.5586  155.9653 C   0  0  0  0  0  0  0  0  0  0  0  0
  150.1092  134.1374  157.0543 O   0  0  0  0  0  0  0  0  0  0  0  0
  151.2106  140.0809  156.2348 C   0  0  0  0  0  0  0  0  0  0  0  0
  151.2252  139.1521  155.4252 O   0  0  0  0  0  0  0  0  0  0  0  0
  150.2417  143.3426  156.6082 H   0  0  0  0  0  0  0  0  0  0  0  0
  150.4845  143.4089  159.7618 H   0  0  0  0  0  0  0  0  0  0  0  0
  152.3603  144.6329  157.5908 H   0  0  0  0  0  0  0  0  0  0  0  0
  151.5770  145.5126  159.0030 H   0  0  0  0  0  0  0  0  0  0  0  0
  152.7572  143.9711  160.6035 H   0  0  0  0  0  0  0  0  0  0  0  0
  153.5301  143.0960  159.1832 H   0  0  0  0  0  0  0  0  0  0  0  0
  152.9814  138.2523  157.0574 H   0  0  0  0  0  0  0  0  0  0  0  0
  153.1198  138.7634  158.6932 H   0  0  0  0  0  0  0  0  0  0  0  0
  150.3610  137.8510  156.5934 H   0  0  0  0  0  0  0  0  0  0  0  0
  149.4301  135.9249  158.6544 H   0  0  0  0  0  0  0  0  0  0  0  0
  148.3455  136.8629  157.6578 H   0  0  0  0  0  0  0  0  0  0  0  0
  148.3140  134.8672  156.4291 H   0  0  0  0  0  0  0  0  0  0  0  0
  149.2549  136.1713  154.6131 H   0  0  0  0  0  0  0  0  0  0  0  0
  150.8305  136.2552  155.4137 H   0  0  0  0  0  0  0  0  0  0  0  0
  149.4820  133.7795  154.2869 H   0  0  0  0  0  0  0  0  0  0  0  0
  151.1193  134.3489  153.9374 H   0  0  0  0  0  0  0  0  0  0  0  0
  150.6577  132.4829  155.9073 H   0  0  0  0  0  0  0  0  0  0  0  0
  151.8906  133.7267  156.1253 H   0  0  0  0  0  0  0  0  0  0  0  0
  1  2  3  0  0  0  0
  2  3  1  0  0  0  0
  3 22  1  0  0  0  0
  3  4  2  0  0  0  0
  4  5  1  0  0  0  0
  4 24  1  0  0  0  0
  5  6  1  0  0  0  0
  5  9  1  0  0  0  0
  6  8  1  0  0  0  0
  6  7  1  0  0  0  0
  6 25  1  0  0  0  0
  7  8  1  0  0  0  0
  7 26  1  0  0  0  0
  7 27  1  0  0  0  0
  8 28  1  0  0  0  0
  8 29  1  0  0  0  0
  9 10  2  0  0  0  0
  9 11  1  0  0  0  0
 11 12  1  0  0  0  0
 11 22  1  0  0  0  0
 12 13  1  0  0  0  0
 12 30  1  0  0  0  0
 12 31  1  0  0  0  0
 13 14  2  0  0  0  0
 13 15  1  0  0  0  0
 15 16  1  0  0  0  0
 15 32  1  0  0  0  0
 16 17  1  0  0  0  0
 16 33  1  0  0  0  0
 16 34  1  0  0  0  0
 17 21  1  0  0  0  0
 17 18  1  0  0  0  0
 17 35  1  0  0  0  0
 18 19  1  0  0  0  0
 18 36  1  0  0  0  0
 18 37  1  0  0  0  0
 19 20  1  0  0  0  0
 19 38  1  0  0  0  0
 19 39  1  0  0  0  0
 20 21  1  0  0  0  0
 20 40  1  0  0  0  0
 20 41  1  0  0  0  0
 22 23  2  0  0  0  0
M  END
> <s_m_source_file>
AV-unprocessed.smi

> <i_m_source_file_index>
2182

> <i_lp_mmshare_version>
43012

> <i_f3d_flags>
0

> <s_epik_input>
TiNDYzFbY0hdbihbQ0hdMltDSDJdW0NIMl0yKWMoPU8pbihjMT1PKVtDSDJdQyg9TylbTkhdW0NIMl1bQ0BASF0zW0NIMl1bQ0gyXVtDSDJdTzM=

> <s_epik_cmdline>
J2VwaWtfcHl0aG9uJywgJy1waCcsICc3LjAnLCAnLXRuJywgJzgnLCAnLW1hJywgJzIwMCcsICctbWV0YWxfYmluZGluZycsICctaW1hZScsICc8aW5maWxlLm1hZT4nLCAnLW9tYWUnLCAnPG91dGZpbGUubWFlPic=

> <r_lp_tautomer_probability>
1

> <r_epik_Ionization_Penalty>
2.69429e-08

> <r_epik_Ionization_Penalty_Charging>
8.38654e-11

> <r_epik_Ionization_Penalty_Neutral>
2.6859e-08

> <r_epik_State_Penalty>
-0

> <r_epik_Charging_Adjusted_Penalty>
8.38654e-11

> <i_epik_Tot_Q>
0

> <i_epik_Tot_abs_Q>
0

> <r_epik_Metal_State_Penalty>
-0

> <b_epik_Metal_Only>
0

> <s_lp_Force_Field>
OPLS_2005

> <r_lp_Energy>
43.7942

> <b_lp_Chiralities_Consistent>
1

> <s_lp_Variant>
AV-unprocessed.smi:2182-2

> <Gold.Version>
5.8.1

> <Gold.Id.Protein>
6NUR|6NUR_protein|mol2

> <Gold.PLP.Fitness>
49.8112

> <Gold.PLP.PLP>
-40.2317

> <Gold.PLP.part.hbond>
-4.0000

> <Gold.PLP.part.metal>
0.0000

> <Gold.PLP.part.buried>
-4.2531

> <Gold.PLP.part.nonpolar>
-32.5941

> <Gold.PLP.part.repulsive>
0.7924

> <Gold.PLP.ligand.clash>
0.0000

> <Gold.PLP.ligand.torsion>
0.8538

> <Gold.PLP.Chemscore.Hbond>
2.6800

> <Gold.PLP.Chemscore.CHOScore>
1.0000

> <Gold.PLP.Chemscore.Metal>
0.0000

> <Gold.Chemscore.Hbonds>
donor molecule, donor type, donor heavy atom, donor atom, acceptor molecule, acceptor atom, score
      P1  H  6896  6907       L1    14  1.00
      P1  H  6896  6909       L1    21  0.23
      P1  H  8011  8017       L1     1  0.46
      L1  C     4    24       P1  8028  1.00

> <Gold.PLP.Chemscore.Internal.Correction>
0.2471

> <Gold.Rescore>
     Score         DG    S(hbond)    S(metal)    S(lipo)     H(rot)  DE(clash)    DE(int)     intcor
     14.89     -17.02       2.48        0.00      73.25       2.08       0.00       2.13       ----

> <Gold.Chemscore.Fitness>
14.8918

> <Gold.Chemscore.DG>
-17.0219

> <Gold.Chemscore.ZeroCoef>
-5.4800

> <Gold.Chemscore.Hbond>
2.4823

> <Gold.Chemscore.Metal>
0.0000

> <Gold.Chemscore.Lipo>
73.2495

> <Gold.Chemscore.Internal_Hbond>
0.0000

> <Gold.Chemscore.DEClash>
0.0000

> <Gold.Chemscore.DEInternal>
2.1301

> <Gold.Chemscore.Rot>
2.0778

> <Gold.Chemscore.Internal.Correction>
   9.000000E+99

> <Gold.Chemscore.Hbonds>
donor molecule, donor type, donor heavy atom, donor atom, acceptor molecule, acceptor atom, score
      P1  H  6896  6907       L1    14  0.97
      P1  H  6896  6909       L1    21  0.22
      P1  H  8011  8017       L1     1  0.45

> <Gold.Chemscore.Hbond.Weighted>
-8.2908

> <Gold.Chemscore.Metal.Weighted>
-0.0000

> <Gold.Chemscore.Lipo.Weighted>
-8.5702

> <Gold.Chemscore.Internal_Hbond.Weighted>
0.0000

> <Gold.Chemscore.DEClash.Weighted>
0.0000

> <Gold.Chemscore.DEInternal.Weighted>
2.1301

> <Gold.Chemscore.Rot.Weighted>
5.3191

> <Gold.Chemscore.Internal.Correction.Weighted>
   9.000000E+99

> <Gold.Protein.RotatedTorsions>
[ 6907 6896 6895 6894 ] final    8.43 input  -60.11 | X-H torsion
[ 7974 7965 7964 7962 ] final   73.06 input  175.53 | X-H torsion
[ 8008 7997 7996 7995 ] final  -91.97 input   59.86 | X-H torsion
[ 10167 10162 10161 10158 ] final   77.26 input  -65.29 | X-H torsion
[ 10718 10713 10712 10709 ] final   41.27 input   66.30 | X-H torsion
[ 10763 10752 10751 10750 ] final -163.11 input  -60.55 | X-H torsion
[ 11005 11000 10999 10996 ] final  -66.61 input  -57.11 | X-H torsion

> <Gold.Protein.ActiveResidues>
 VAL166  LYS551  ARG553  GLY616  TRP617  ASP618  TYR619  PRO620  LYS621  CYS622 
 ASP623  PHE694  ASN695  SER759  ASP760  ASP761  ALA762  ILE779  LEU786  VAL792 
 PHE793  MET794  SER795  GLU796  ALA797  LYS798  CYS799  TRP800  GLU811  SER814 

> <Gold.Protein.RotatedAtoms>
  151.7059  135.0921  160.0258 H   0  0  0  0  0  0  0  0  0  0  0  0  # atno 6907 bound_to 6896
  152.3692  133.6392  159.6082 H   0  0  0  0  0  0  0  0  0  0  0  0  # atno 6908 bound_to 6896
  150.7660  133.9215  159.3441 H   0  0  0  0  0  0  0  0  0  0  0  0  # atno 6909 bound_to 6896
  145.7456  139.2738  143.1461 H   0  0  0  0  0  0  0  0  0  0  0  0  # atno 7974 bound_to 7965
  154.7173  140.0514  157.0607 H   0  0  0  0  0  0  0  0  0  0  0  0  # atno 8008 bound_to 7997
  155.0474  140.3175  155.4684 H   0  0  0  0  0  0  0  0  0  0  0  0  # atno 8009 bound_to 7997
  156.2806  140.2122  156.5599 H   0  0  0  0  0  0  0  0  0  0  0  0  # atno 8010 bound_to 7997
  139.9834  144.5810  150.7880 H   0  0  0  0  0  0  0  0  0  0  0  0  # atno 10167 bound_to 10162
  157.3916  130.7810  149.7274 H   0  0  0  0  0  0  0  0  0  0  0  0  # atno 10718 bound_to 10713
  154.7153  135.3014  154.9134 H   0  0  0  0  0  0  0  0  0  0  0  0  # atno 10763 bound_to 10752
  154.0023  135.6705  153.4764 H   0  0  0  0  0  0  0  0  0  0  0  0  # atno 10764 bound_to 10752
  153.0788  135.5020  154.8375 H   0  0  0  0  0  0  0  0  0  0  0  0  # atno 10765 bound_to 10752
  141.1486  133.6702  156.6165 H   0  0  0  0  0  0  0  0  0  0  0  0  # atno 11005 bound_to 11000
  146.0406  140.8168  142.9830 LP  0  0  0  0  0  0  0  0  0  0  0  0  # atno 17320 bound_to 7965
  144.6861  140.2905  143.7279 LP  0  0  0  0  0  0  0  0  0  0  0  0  # atno 17321 bound_to 7965
  140.7481  143.2916  151.3314 LP  0  0  0  0  0  0  0  0  0  0  0  0  # atno 17342 bound_to 10162
  139.6393  144.0570  152.2541 LP  0  0  0  0  0  0  0  0  0  0  0  0  # atno 17343 bound_to 10162
  155.9800  130.4034  150.3555 LP  0  0  0  0  0  0  0  0  0  0  0  0  # atno 17370 bound_to 10713
  157.1672  131.0360  151.2813 LP  0  0  0  0  0  0  0  0  0  0  0  0  # atno 17371 bound_to 10713
  140.3573  134.7717  157.4509 LP  0  0  0  0  0  0  0  0  0  0  0  0  # atno 17394 bound_to 11000
  140.0812  134.5728  155.8538 LP  0  0  0  0  0  0  0  0  0  0  0  0  # atno 17395 bound_to 11000

$$$$
