#       Name:                AV-unprocessed.smi:1592
#       Creating user name   scv26
#       Creation time:       Fri Mar 27 07:04:06 2020


#       File generated by GOLD software.
#

@<TRIPOS>MOLECULE
AV-unprocessed.smi:1592
    31    32     1
SMALL
NO_CHARGES


@<TRIPOS>ATOM
      1 ****        -1.3840   0.4441   0.9892 O.2            1 S1                 0.0000
      2 ****        -0.4750  -0.3292   0.6738 C.2            1 S1                 0.0000
      3 ****         0.8544  -0.0500   0.3666 N.2            1 S1                 0.0000
      4 ****         1.3452   1.1584   0.3115 C.2            1 S1                 0.0000
      5 ****         0.5807   2.3143   0.5479 N.pl3          1 S1                 0.0000
      6 ****         1.1027   3.5886   0.4799 C.2            1 S1                 0.0000
      7 ****         2.3858   3.8019   0.1845 C.2            1 S1                 0.0000
      8 ****         3.2440   2.6630  -0.0692 C.2            1 S1                 0.0000
      9 ****         2.7698   1.3470  -0.0169 C.2            1 S1                 0.0000
     10 ****         3.5477   0.3919  -0.2460 O.co2          1 S1                -1.0000
     11 ****        -0.7650  -1.8382   0.5970 C.3            1 S1                 0.0000
     12 ****        -0.7494  -2.3827  -0.8457 C.3            1 S1                 0.0000
     13 ****        -2.1290  -2.9890  -1.0347 C.3            1 S1                 0.0000
     14 ****        -2.9678  -2.2399  -0.0105 C.3            1 S1                 0.0000
     15 ****        -2.0787  -2.1119   1.0885 O.3            1 S1                 0.0000
     16 ****         0.3962   4.3801   0.6814 H              1 S1                 0.0000
     17 ****         2.7785   4.8066   0.1343 H              1 S1                 0.0000
     18 ****         4.2817   2.8481  -0.3068 H              1 S1                 0.0000
     19 ****        -0.3996   2.2451   0.7773 H              1 S1                 0.0000
     20 ****        -0.0487  -2.3720   1.2231 H              1 S1                 0.0000
     21 ****        -0.5911  -1.5888  -1.5777 H              1 S1                 0.0000
     22 ****         0.0370  -3.1231  -0.9945 H              1 S1                 0.0000
     23 ****        -2.5064  -2.8849  -2.0522 H              1 S1                 0.0000
     24 ****        -2.1047  -4.0507  -0.7866 H              1 S1                 0.0000
     25 ****        -3.2474  -1.2521  -0.3800 H              1 S1                 0.0000
     26 ****        -3.8761  -2.7759   0.2655 H              1 S1                 0.0000
     27 ****        -1.2060   1.4261   1.0513 LP             1 S1                 0.0000
     28 ****        -2.2984   0.0885   1.1826 LP             1 S1                 0.0000
     29 ****         1.4668  -0.8177   0.1778 LP             1 S1                 0.0000
     30 ****        -2.3794  -1.3613   1.6769 LP             1 S1                 0.0000
     31 ****        -2.0695  -2.9634   1.6129 LP             1 S1                 0.0000
@<TRIPOS>BOND
    1    1    2 2     
    2    2    3 1     
    3    2   11 1     
    4    3    4 2     
    5    4    9 1     
    6    4    5 1     
    7    5   19 1     
    8    5    6 1     
    9    6   16 1     
   10    6    7 2     
   11    7   17 1     
   12    7    8 1     
   13    8    9 2     
   14    8   18 1     
   15    9   10 ar    
   16   11   15 1     
   17   11   12 1     
   18   11   20 1     
   19   12   13 1     
   20   12   21 1     
   21   12   22 1     
   22   13   14 1     
   23   13   23 1     
   24   13   24 1     
   25   14   15 1     
   26   14   25 1     
   27   14   26 1     
   28    1   27 1     
   29    1   28 1     
   30    3   29 1     
   31   15   30 1     
   32   15   31 1     
@<TRIPOS>SUBSTRUCTURE
      1 S1             1
@<TRIPOS>SET
LONE_PAIRS      STATIC     ATOMS    <user>   **** ""
6 27 28 29 10 30 31
DONOR_HYDROGENS      STATIC     ATOMS    <user>   **** ""
1 19
ATOM$BLUE        STATIC     ATOMS    COLORGROUP SYSTEM
6 27 28 29 10 30 31
ATOM$RED        STATIC     ATOMS    COLORGROUP SYSTEM
1 19
