AV-unprocessed.smi:3323|AV-procd|sdf|12777|dock3
  -GOLD-   2272019123D 1   1.00000     0.00000
 Structure written by MMmdl.
 37 38  0  0  0  0  0  0  0  0  1 V2000
  145.5480  142.7334  155.7439 C   0  0  0  0  0  0  0  0  0  0  0  0
  146.6332  141.7371  155.3227 C   0  0  2  0  0  0  0  0  0  0  0  0
  147.4555  142.2522  154.1253 C   0  0  0  0  0  0  0  0  0  0  0  0
  148.4959  141.2133  153.6605 C   0  0  1  0  0  0  0  0  0  0  0  0
  149.7114  141.0599  154.6050 C   0  0  0  0  0  0  0  0  0  0  0  0
  149.8753  142.2118  155.4880 N   0  0  0  0  0  0  0  0  0  0  0  0
  150.6358  142.2462  156.5921 C   0  0  0  0  0  0  0  0  0  0  0  0
  151.3093  141.2930  156.9820 O   0  0  0  0  0  0  0  0  0  0  0  0
  150.5582  143.4463  157.1931 N   0  0  0  0  0  0  0  0  0  0  0  0
  151.1767  143.8946  158.3929 C   0  0  0  0  0  0  0  0  0  0  0  0
  152.0773  143.1294  159.1743 C   0  0  0  0  0  0  0  0  0  0  0  0
  152.6064  143.6946  160.3510 C   0  0  0  0  0  0  0  0  0  0  0  0
  152.2133  144.9989  160.7077 C   0  0  0  0  0  0  0  0  0  0  0  0
  151.3502  145.7362  159.9785 N   0  0  0  0  0  0  0  0  0  0  0  0
  150.8476  145.1881  158.8517 C   0  0  0  0  0  0  0  0  0  0  0  0
  147.7715  139.8754  153.4279 C   0  0  0  0  0  0  0  0  0  0  0  0
  146.9160  139.4734  154.6429 C   0  0  0  0  0  0  0  0  0  0  0  0
  145.9982  140.5137  154.9625 O   0  0  0  0  0  0  0  0  0  0  0  0
  145.9867  143.6844  156.0472 H   0  0  0  0  0  0  0  0  0  0  0  0
  144.9726  142.3498  156.5867 H   0  0  0  0  0  0  0  0  0  0  0  0
  144.8528  142.9298  154.9272 H   0  0  0  0  0  0  0  0  0  0  0  0
  147.2862  141.5627  156.1790 H   0  0  0  0  0  0  0  0  0  0  0  0
  146.7769  142.4633  153.2977 H   0  0  0  0  0  0  0  0  0  0  0  0
  147.9283  143.2035  154.3673 H   0  0  0  0  0  0  0  0  0  0  0  0
  148.8872  141.5460  152.6980 H   0  0  0  0  0  0  0  0  0  0  0  0
  149.6514  140.1347  155.1791 H   0  0  0  0  0  0  0  0  0  0  0  0
  150.6220  140.9792  154.0107 H   0  0  0  0  0  0  0  0  0  0  0  0
  149.3604  143.0448  155.2425 H   0  0  0  0  0  0  0  0  0  0  0  0
  149.9998  144.1395  156.7169 H   0  0  0  0  0  0  0  0  0  0  0  0
  152.3672  142.1252  158.9102 H   0  0  0  0  0  0  0  0  0  0  0  0
  153.2961  143.1386  160.9685 H   0  0  0  0  0  0  0  0  0  0  0  0
  152.5991  145.4603  161.6047 H   0  0  0  0  0  0  0  0  0  0  0  0
  150.1578  145.8066  158.2962 H   0  0  0  0  0  0  0  0  0  0  0  0
  147.1201  139.9687  152.5578 H   0  0  0  0  0  0  0  0  0  0  0  0
  148.4858  139.0869  153.1892 H   0  0  0  0  0  0  0  0  0  0  0  0
  146.3513  138.5689  154.4163 H   0  0  0  0  0  0  0  0  0  0  0  0
  147.5388  139.2442  155.5084 H   0  0  0  0  0  0  0  0  0  0  0  0
  1  2  1  0  0  0  0
  1 19  1  0  0  0  0
  1 20  1  0  0  0  0
  1 21  1  0  0  0  0
  2 18  1  0  0  0  0
  2  3  1  0  0  0  0
  2 22  1  0  0  0  0
  3  4  1  0  0  0  0
  3 23  1  0  0  0  0
  3 24  1  0  0  0  0
  4  5  1  0  0  0  0
  4 16  1  0  0  0  0
  4 25  1  0  0  0  0
  5  6  1  0  0  0  0
  5 26  1  0  0  0  0
  5 27  1  0  0  0  0
  6  7  1  0  0  0  0
  6 28  1  0  0  0  0
  7  8  2  0  0  0  0
  7  9  1  0  0  0  0
  9 10  1  0  0  0  0
  9 29  1  0  0  0  0
 10 15  1  0  0  0  0
 10 11  2  0  0  0  0
 11 12  1  0  0  0  0
 11 30  1  0  0  0  0
 12 13  2  0  0  0  0
 12 31  1  0  0  0  0
 13 14  1  0  0  0  0
 13 32  1  0  0  0  0
 14 15  2  0  0  0  0
 15 33  1  0  0  0  0
 16 17  1  0  0  0  0
 16 34  1  0  0  0  0
 16 35  1  0  0  0  0
 17 18  1  0  0  0  0
 17 36  1  0  0  0  0
 17 37  1  0  0  0  0
M  END
> <s_m_source_file>
AV-unprocessed.smi

> <i_m_source_file_index>
3323

> <i_lp_mmshare_version>
43012

> <i_f3d_flags>
0

> <s_epik_input>
W0NIM11bQ0BASF0xW0NIMl1bQ0BIXShbQ0gyXVtDSDJdTzEpW0NIMl1bTkhdQyg9TylbTkhdYzJbY0hdW2NIXVtjSF1uW2NIXTI=

> <s_epik_cmdline>
J2VwaWtfcHl0aG9uJywgJy1waCcsICc3LjAnLCAnLXRuJywgJzgnLCAnLW1hJywgJzIwMCcsICctbWV0YWxfYmluZGluZycsICctaW1hZScsICc8aW5maWxlLm1hZT4nLCAnLW9tYWUnLCAnPG91dGZpbGUubWFlPic=

> <r_epik_Ionization_Penalty>
0.00485293

> <r_epik_Ionization_Penalty_Charging>
0

> <r_epik_Ionization_Penalty_Neutral>
0.00485293

> <r_epik_State_Penalty>
0.00349083

> <r_epik_Charging_Adjusted_Penalty>
0.00349083

> <i_epik_Tot_Q>
0

> <i_epik_Tot_abs_Q>
0

> <r_epik_Metal_State_Penalty>
-0

> <b_epik_Metal_Only>
0

> <s_lp_Force_Field>
OPLS_2005

> <r_lp_Energy>
13.5955

> <b_lp_Chiralities_Consistent>
1

> <s_lp_Variant>
AV-unprocessed.smi:3323-1

> <Gold.Version>
5.8.1

> <Gold.Id.Protein>
6NUR|6NUR_protein|mol2

> <Gold.PLP.Fitness>
43.9685

> <Gold.PLP.PLP>
-36.2698

> <Gold.PLP.part.hbond>
-2.8550

> <Gold.PLP.part.metal>
0.0000

> <Gold.PLP.part.buried>
-3.7088

> <Gold.PLP.part.nonpolar>
-29.9846

> <Gold.PLP.part.repulsive>
0.5024

> <Gold.PLP.ligand.clash>
0.0000

> <Gold.PLP.ligand.torsion>
0.6409

> <Gold.PLP.Chemscore.Hbond>
1.9920

> <Gold.PLP.Chemscore.CHOScore>
1.0000

> <Gold.PLP.Chemscore.Metal>
0.0000

> <Gold.Chemscore.Hbonds>
donor molecule, donor type, donor heavy atom, donor atom, acceptor molecule, acceptor atom, score
      L1  H     6    28       P1  8028  0.98
      L1  H     9    29       P1  8028  1.00
      L1  C    15    33       P1  8029  1.00

> <Gold.PLP.Chemscore.Internal.Correction>
0.0045

> <Gold.Rescore>
     Score         DG    S(hbond)    S(metal)    S(lipo)     H(rot)  DE(clash)    DE(int)     intcor
     18.00     -19.94       1.96        0.00      94.58       1.23       0.21       1.72       ----

> <Gold.Chemscore.Fitness>
18.0032

> <Gold.Chemscore.DG>
-19.9381

> <Gold.Chemscore.ZeroCoef>
-5.4800

> <Gold.Chemscore.Hbond>
1.9562

> <Gold.Chemscore.Metal>
0.0000

> <Gold.Chemscore.Lipo>
94.5818

> <Gold.Chemscore.Internal_Hbond>
0.0000

> <Gold.Chemscore.DEClash>
0.2141

> <Gold.Chemscore.DEInternal>
1.7207

> <Gold.Chemscore.Rot>
1.2273

> <Gold.Chemscore.Internal.Correction>
   9.000000E+99

> <Gold.Chemscore.Hbonds>
donor molecule, donor type, donor heavy atom, donor atom, acceptor molecule, acceptor atom, score
      L1  H     6    28       P1  8028  0.93
      L1  H     9    29       P1  8028  0.96

> <Gold.Chemscore.Hbond.Weighted>
-6.5338

> <Gold.Chemscore.Metal.Weighted>
-0.0000

> <Gold.Chemscore.Lipo.Weighted>
-11.0661

> <Gold.Chemscore.Internal_Hbond.Weighted>
0.0000

> <Gold.Chemscore.DEClash.Weighted>
0.2141

> <Gold.Chemscore.DEInternal.Weighted>
1.7207

> <Gold.Chemscore.Rot.Weighted>
3.1418

> <Gold.Chemscore.Internal.Correction.Weighted>
   9.000000E+99

> <Gold.Protein.RotatedTorsions>
[ 6907 6896 6895 6894 ] final   47.03 input  -60.11 | X-H torsion
[ 7974 7965 7964 7962 ] final -100.13 input  175.53 | X-H torsion
[ 8008 7997 7996 7995 ] final   92.44 input   59.86 | X-H torsion
[ 10167 10162 10161 10158 ] final   -2.36 input  -65.29 | X-H torsion
[ 10718 10713 10712 10709 ] final  160.42 input   66.30 | X-H torsion
[ 10763 10752 10751 10750 ] final  -79.01 input  -60.55 | X-H torsion
[ 11005 11000 10999 10996 ] final   89.36 input  -57.11 | X-H torsion

> <Gold.Protein.ActiveResidues>
 VAL166  LYS551  ARG553  GLY616  TRP617  ASP618  TYR619  PRO620  LYS621  CYS622 
 ASP623  PHE694  ASN695  SER759  ASP760  ASP761  ALA762  ILE779  LEU786  VAL792 
 PHE793  MET794  SER795  GLU796  ALA797  LYS798  CYS799  TRP800  GLU811  SER814 

> <Gold.Protein.RotatedAtoms>
  152.2633  134.8011  160.0426 H   0  0  0  0  0  0  0  0  0  0  0  0  # atno 6907 bound_to 6896
  151.8649  133.3459  159.3724 H   0  0  0  0  0  0  0  0  0  0  0  0  # atno 6908 bound_to 6896
  150.7124  134.5097  159.5645 H   0  0  0  0  0  0  0  0  0  0  0  0  # atno 6909 bound_to 6896
  145.2986  140.9371  143.2836 H   0  0  0  0  0  0  0  0  0  0  0  0  # atno 7974 bound_to 7965
  156.0354  140.3325  155.7185 H   0  0  0  0  0  0  0  0  0  0  0  0  # atno 8008 bound_to 7997
  155.5823  140.0638  157.2797 H   0  0  0  0  0  0  0  0  0  0  0  0  # atno 8009 bound_to 7997
  154.4370  140.1842  156.0978 H   0  0  0  0  0  0  0  0  0  0  0  0  # atno 8010 bound_to 7997
  140.6848  143.6666  150.8221 H   0  0  0  0  0  0  0  0  0  0  0  0  # atno 10167 bound_to 10162
  157.1506  131.0563  151.2282 H   0  0  0  0  0  0  0  0  0  0  0  0  # atno 10718 bound_to 10713
  154.5332  135.5710  153.6776 H   0  0  0  0  0  0  0  0  0  0  0  0  # atno 10763 bound_to 10752
  152.9944  135.6210  154.2601 H   0  0  0  0  0  0  0  0  0  0  0  0  # atno 10764 bound_to 10752
  154.2528  135.2858  155.2789 H   0  0  0  0  0  0  0  0  0  0  0  0  # atno 10765 bound_to 10752
  139.8877  134.8546  156.3131 H   0  0  0  0  0  0  0  0  0  0  0  0  # atno 11005 bound_to 11000
  144.9112  139.4526  143.6586 LP  0  0  0  0  0  0  0  0  0  0  0  0  # atno 17320 bound_to 7965
  146.3160  139.7922  142.8983 LP  0  0  0  0  0  0  0  0  0  0  0  0  # atno 17321 bound_to 7965
  140.0371  143.5384  152.2734 LP  0  0  0  0  0  0  0  0  0  0  0  0  # atno 17342 bound_to 10162
  139.6198  144.7627  151.2766 LP  0  0  0  0  0  0  0  0  0  0  0  0  # atno 17343 bound_to 10162
  157.4224  130.7445  149.6924 LP  0  0  0  0  0  0  0  0  0  0  0  0  # atno 17370 bound_to 10713
  155.9771  130.4067  150.3733 LP  0  0  0  0  0  0  0  0  0  0  0  0  # atno 17371 bound_to 10713
  140.9837  133.7251  156.0710 LP  0  0  0  0  0  0  0  0  0  0  0  0  # atno 17394 bound_to 11000
  140.7716  134.3826  157.5506 LP  0  0  0  0  0  0  0  0  0  0  0  0  # atno 17395 bound_to 11000

$$$$
