AV-unprocessed.smi:20|AV-procd|sdf|119|dock3
  -GOLD-   2262015293D 1   1.00000     0.00000
 Structure written by MMmdl.
 57 61  0  0  0  0  0  0  0  0  1 V2000
  143.1542  132.2495  148.7086 O   0  0  0  0  0  0  0  0  0  0  0  0
  144.1337  132.3242  149.4466 C   0  0  0  0  0  0  0  0  0  0  0  0
  144.1915  131.7154  150.8381 C   0  0  0  0  0  0  0  0  0  0  0  0
  145.4215  132.3977  151.4746 C   0  0  2  0  0  0  0  0  0  0  0  0
  146.1951  131.4405  152.4106 C   0  0  0  0  0  0  0  0  0  0  0  0
  147.3480  132.1602  153.1294 C   0  0  0  0  0  0  0  0  0  0  0  0
  146.8392  133.3996  153.8790 C   0  0  0  0  0  0  0  0  0  0  0  0
  146.0958  134.2752  152.9765 N   0  0  0  0  0  0  0  0  0  0  0  0
  145.9393  135.5501  153.4123 C   0  0  0  0  0  0  0  0  0  0  0  0
  144.8300  136.2552  153.0637 N   0  0  0  0  0  0  0  0  0  0  0  0
  144.6648  137.5087  153.4957 C   0  0  0  0  0  0  0  0  0  0  0  0
  145.4735  138.2392  154.2651 N   0  0  0  0  0  0  0  0  0  0  0  0
  146.5949  137.5432  154.6071 C   0  0  0  0  0  0  0  0  0  0  0  0
  146.9006  136.2040  154.2330 C   0  0  0  0  0  0  0  0  0  0  0  0
  148.1274  135.8311  154.7693 N   0  0  0  0  0  0  0  0  0  0  0  0
  148.5204  136.8855  155.4299 C   0  0  0  0  0  0  0  0  0  0  0  0
  147.6733  137.9694  155.3644 N   0  0  0  0  0  0  0  0  0  0  0  0
  147.8692  139.2581  156.0071 C   0  0  0  0  0  0  0  0  0  0  0  0
  149.0937  140.0724  155.5011 C   0  0  1  0  0  0  0  0  0  0  0  0
  149.2258  141.3623  156.3470 C   0  0  0  0  0  0  0  0  0  0  0  0
  149.7533  142.4280  155.5840 O   0  0  0  0  0  0  0  0  0  0  0  0
  150.4275  139.2667  155.5046 C   0  0  1  0  0  0  0  0  0  0  0  0
  150.7658  138.5150  154.2251 C   0  0  0  0  0  0  0  0  0  0  0  0
  152.2636  138.2727  154.3616 C   0  0  0  0  0  0  0  0  0  0  0  0
  152.7676  139.3905  155.0783 O   0  0  0  0  0  0  0  0  0  0  0  0
  151.6889  140.1338  155.6340 C   0  0  0  0  0  0  0  0  0  0  0  0
  144.9728  133.6474  152.2773 C   0  0  0  0  0  0  0  0  0  0  0  0
  146.2512  132.8222  150.2367 C   0  0  0  0  0  0  0  0  0  0  0  0
  145.2831  132.9325  149.1629 N   0  0  0  0  0  0  0  0  0  0  0  0
  143.2696  131.8894  151.3944 H   0  0  0  0  0  0  0  0  0  0  0  0
  144.3321  130.6382  150.7387 H   0  0  0  0  0  0  0  0  0  0  0  0
  145.5112  131.0323  153.1561 H   0  0  0  0  0  0  0  0  0  0  0  0
  146.5809  130.5868  151.8523 H   0  0  0  0  0  0  0  0  0  0  0  0
  147.8368  131.4793  153.8266 H   0  0  0  0  0  0  0  0  0  0  0  0
  148.1076  132.4578  152.4056 H   0  0  0  0  0  0  0  0  0  0  0  0
  146.1793  133.0968  154.6931 H   0  0  0  0  0  0  0  0  0  0  0  0
  147.6813  133.9176  154.3371 H   0  0  0  0  0  0  0  0  0  0  0  0
  143.7551  137.9968  153.1781 H   0  0  0  0  0  0  0  0  0  0  0  0
  149.4542  136.9066  155.9726 H   0  0  0  0  0  0  0  0  0  0  0  0
  146.9477  139.8205  155.8554 H   0  0  0  0  0  0  0  0  0  0  0  0
  147.9524  139.1006  157.0831 H   0  0  0  0  0  0  0  0  0  0  0  0
  148.9049  140.3865  154.4742 H   0  0  0  0  0  0  0  0  0  0  0  0
  148.2596  141.6561  156.7583 H   0  0  0  0  0  0  0  0  0  0  0  0
  149.9020  141.2235  157.1893 H   0  0  0  0  0  0  0  0  0  0  0  0
  149.2586  143.2096  155.7772 H   0  0  0  0  0  0  0  0  0  0  0  0
  150.4150  138.5538  156.3308 H   0  0  0  0  0  0  0  0  0  0  0  0
  150.2282  137.5755  154.1123 H   0  0  0  0  0  0  0  0  0  0  0  0
  150.5645  139.1358  153.3505 H   0  0  0  0  0  0  0  0  0  0  0  0
  152.4510  137.3721  154.9476 H   0  0  0  0  0  0  0  0  0  0  0  0
  152.7580  138.1593  153.3964 H   0  0  0  0  0  0  0  0  0  0  0  0
  151.5843  141.0555  155.0598 H   0  0  0  0  0  0  0  0  0  0  0  0
  151.9056  140.4040  156.6677 H   0  0  0  0  0  0  0  0  0  0  0  0
  144.5009  134.3684  151.6077 H   0  0  0  0  0  0  0  0  0  0  0  0
  144.2222  133.3637  153.0164 H   0  0  0  0  0  0  0  0  0  0  0  0
  146.7889  133.7600  150.3802 H   0  0  0  0  0  0  0  0  0  0  0  0
  146.9810  132.0595  149.9618 H   0  0  0  0  0  0  0  0  0  0  0  0
  145.4785  133.4093  148.2944 H   0  0  0  0  0  0  0  0  0  0  0  0
  1  2  2  0  0  0  0
  2 29  1  0  0  0  0
  2  3  1  0  0  0  0
  3  4  1  0  0  0  0
  3 30  1  0  0  0  0
  3 31  1  0  0  0  0
  4 27  1  0  0  0  0
  4  5  1  0  0  0  0
  4 28  1  0  0  0  0
  5  6  1  0  0  0  0
  5 32  1  0  0  0  0
  5 33  1  0  0  0  0
  6  7  1  0  0  0  0
  6 34  1  0  0  0  0
  6 35  1  0  0  0  0
  7  8  1  0  0  0  0
  7 36  1  0  0  0  0
  7 37  1  0  0  0  0
  8  9  1  0  0  0  0
  8 27  1  0  0  0  0
  9 14  1  0  0  0  0
  9 10  2  0  0  0  0
 10 11  1  0  0  0  0
 11 12  2  0  0  0  0
 11 38  1  0  0  0  0
 12 13  1  0  0  0  0
 13 17  1  0  0  0  0
 13 14  2  0  0  0  0
 14 15  1  0  0  0  0
 15 16  2  0  0  0  0
 16 17  1  0  0  0  0
 16 39  1  0  0  0  0
 17 18  1  0  0  0  0
 18 19  1  0  0  0  0
 18 40  1  0  0  0  0
 18 41  1  0  0  0  0
 19 20  1  0  0  0  0
 19 22  1  0  0  0  0
 19 42  1  0  0  0  0
 20 21  1  0  0  0  0
 20 43  1  0  0  0  0
 20 44  1  0  0  0  0
 21 45  1  0  0  0  0
 22 26  1  0  0  0  0
 22 23  1  0  0  0  0
 22 46  1  0  0  0  0
 23 24  1  0  0  0  0
 23 47  1  0  0  0  0
 23 48  1  0  0  0  0
 24 25  1  0  0  0  0
 24 49  1  0  0  0  0
 24 50  1  0  0  0  0
 25 26  1  0  0  0  0
 26 51  1  0  0  0  0
 26 52  1  0  0  0  0
 27 53  1  0  0  0  0
 27 54  1  0  0  0  0
 28 29  1  0  0  0  0
 28 55  1  0  0  0  0
 28 56  1  0  0  0  0
 29 57  1  0  0  0  0
M  END
> <s_m_source_file>
AV-unprocessed.smi

> <i_m_source_file_index>
20

> <i_lp_mmshare_version>
43012

> <i_f3d_flags>
0

> <s_epik_input>
W0NIMl0xW05IXUMoPU8pW0NIMl1bQ0BAXTEyW0NIMl1bQ0gyXVtDSDJdTihbQ0gyXTIpYyhuW2NIXW4zKWMoYzM0KW5bY0hdbjRbQ0gyXVtDQEhdKFtDSDJdW09IXSlbQ0BASF01W0NIMl1bQ0gyXU9bQ0gyXTU=

> <s_epik_cmdline>
J2VwaWtfcHl0aG9uJywgJy1waCcsICc3LjAnLCAnLXRuJywgJzgnLCAnLW1hJywgJzIwMCcsICctbWV0YWxfYmluZGluZycsICctaW1hZScsICc8aW5maWxlLm1hZT4nLCAnLW9tYWUnLCAnPG91dGZpbGUubWFlPic=

> <r_lp_tautomer_probability>
1

> <r_epik_Ionization_Penalty>
0.0019697

> <r_epik_Ionization_Penalty_Charging>
0

> <r_epik_Ionization_Penalty_Neutral>
0.0019697

> <r_epik_State_Penalty>
0.00113613

> <r_epik_Charging_Adjusted_Penalty>
0.00113613

> <i_epik_Tot_Q>
0

> <i_epik_Tot_abs_Q>
0

> <r_epik_Metal_State_Penalty>
-0

> <b_epik_Metal_Only>
0

> <s_lp_Force_Field>
OPLS_2005

> <r_lp_Energy>
59.3743

> <b_lp_Chiralities_Consistent>
1

> <s_lp_Variant>
AV-unprocessed.smi:20-7

> <Gold.Version>
5.8.1

> <Gold.Id.Protein>
6NUR|6NUR_protein|mol2

> <Gold.PLP.Fitness>
45.9846

> <Gold.PLP.PLP>
-36.3608

> <Gold.PLP.part.hbond>
-4.2255

> <Gold.PLP.part.metal>
0.0000

> <Gold.PLP.part.buried>
-5.0080

> <Gold.PLP.part.nonpolar>
-28.9449

> <Gold.PLP.part.repulsive>
1.4464

> <Gold.PLP.ligand.clash>
0.0000

> <Gold.PLP.ligand.torsion>
1.5727

> <Gold.PLP.Chemscore.Hbond>
3.2113

> <Gold.PLP.Chemscore.CHOScore>
0.8772

> <Gold.PLP.Chemscore.Metal>
0.0000

> <Gold.Chemscore.Hbonds>
donor molecule, donor type, donor heavy atom, donor atom, acceptor molecule, acceptor atom, score
      L1  H    21    45       P1  8028  1.00
      L1  H    29    57       P1  7921  0.72
      P1  H  7997  8010       L1    25  0.99
      P1  H 10785 10796       L1     1  0.45
      L1  C    11    38       P1 10175  0.85

> <Gold.PLP.Chemscore.Internal.Correction>
0.5039

> <Gold.Rescore>
     Score         DG    S(hbond)    S(metal)    S(lipo)     H(rot)  DE(clash)    DE(int)     intcor
     11.43     -15.46       2.30        0.00      79.62       2.74       0.00       4.03       ----

> <Gold.Chemscore.Fitness>
11.4306

> <Gold.Chemscore.DG>
-15.4602

> <Gold.Chemscore.ZeroCoef>
-5.4800

> <Gold.Chemscore.Hbond>
2.3003

> <Gold.Chemscore.Metal>
0.0000

> <Gold.Chemscore.Lipo>
79.6185

> <Gold.Chemscore.Internal_Hbond>
0.0000

> <Gold.Chemscore.DEClash>
0.0009

> <Gold.Chemscore.DEInternal>
4.0286

> <Gold.Chemscore.Rot>
2.7415

> <Gold.Chemscore.Internal.Correction>
   9.000000E+99

> <Gold.Chemscore.Hbonds>
donor molecule, donor type, donor heavy atom, donor atom, acceptor molecule, acceptor atom, score
      L1  H    21    45       P1  8028  0.94
      L1  H    29    57       P1  7921  0.10
      P1  H  7997  8010       L1    25  0.46
      P1  H 10785 10796       L1     1  0.03

> <Gold.Chemscore.Hbond.Weighted>
-7.6830

> <Gold.Chemscore.Metal.Weighted>
-0.0000

> <Gold.Chemscore.Lipo.Weighted>
-9.3154

> <Gold.Chemscore.Internal_Hbond.Weighted>
0.0000

> <Gold.Chemscore.DEClash.Weighted>
0.0009

> <Gold.Chemscore.DEInternal.Weighted>
4.0286

> <Gold.Chemscore.Rot.Weighted>
7.0182

> <Gold.Chemscore.Internal.Correction.Weighted>
   9.000000E+99

> <Gold.Protein.RotatedTorsions>
[ 6907 6896 6895 6894 ] final  133.76 input  -60.11 | X-H torsion
[ 7974 7965 7964 7962 ] final   78.15 input  175.53 | X-H torsion
[ 8008 7997 7996 7995 ] final  102.44 input   59.86 | X-H torsion
[ 10167 10162 10161 10158 ] final -108.97 input  -65.29 | X-H torsion
[ 10718 10713 10712 10709 ] final  -89.27 input   66.30 | X-H torsion
[ 10763 10752 10751 10750 ] final -117.20 input  -60.55 | X-H torsion
[ 11005 11000 10999 10996 ] final  -74.74 input  -57.11 | X-H torsion

> <Gold.Protein.ActiveResidues>
 VAL166  LYS551  ARG553  GLY616  TRP617  ASP618  TYR619  PRO620  LYS621  CYS622 
 ASP623  PHE694  ASN695  SER759  ASP760  ASP761  ALA762  ILE779  LEU786  VAL792 
 PHE793  MET794  SER795  GLU796  ALA797  LYS798  CYS799  TRP800  GLU811  SER814 

> <Gold.Protein.RotatedAtoms>
  152.3186  133.5829  159.5728 H   0  0  0  0  0  0  0  0  0  0  0  0  # atno 6907 bound_to 6896
  150.7359  134.0046  159.3658 H   0  0  0  0  0  0  0  0  0  0  0  0  # atno 6908 bound_to 6896
  151.7932  135.0730  160.0441 H   0  0  0  0  0  0  0  0  0  0  0  0  # atno 6909 bound_to 6896
  145.6809  139.2523  143.1815 H   0  0  0  0  0  0  0  0  0  0  0  0  # atno 7974 bound_to 7965
  156.1393  140.3181  155.8469 H   0  0  0  0  0  0  0  0  0  0  0  0  # atno 8008 bound_to 7997
  155.4185  140.0510  157.3044 H   0  0  0  0  0  0  0  0  0  0  0  0  # atno 8009 bound_to 7997
  154.4962  140.2112  155.9454 H   0  0  0  0  0  0  0  0  0  0  0  0  # atno 8010 bound_to 7997
  140.1604  143.4125  152.1430 H   0  0  0  0  0  0  0  0  0  0  0  0  # atno 10167 bound_to 10162
  155.9984  130.4866  150.5146 H   0  0  0  0  0  0  0  0  0  0  0  0  # atno 10718 bound_to 10713
  154.8546  135.4318  154.1942 H   0  0  0  0  0  0  0  0  0  0  0  0  # atno 10763 bound_to 10752
  153.3003  135.6968  153.7215 H   0  0  0  0  0  0  0  0  0  0  0  0  # atno 10764 bound_to 10752
  153.6348  135.3478  155.3027 H   0  0  0  0  0  0  0  0  0  0  0  0  # atno 10765 bound_to 10752
  141.1638  133.6922  156.7410 H   0  0  0  0  0  0  0  0  0  0  0  0  # atno 11005 bound_to 11000
  146.0965  140.7594  142.9570 LP  0  0  0  0  0  0  0  0  0  0  0  0  # atno 17320 bound_to 7965
  144.7026  140.3720  143.7143 LP  0  0  0  0  0  0  0  0  0  0  0  0  # atno 17321 bound_to 7965
  139.5384  144.7232  151.4816 LP  0  0  0  0  0  0  0  0  0  0  0  0  # atno 17342 bound_to 10162
  140.6646  143.8424  150.6927 LP  0  0  0  0  0  0  0  0  0  0  0  0  # atno 17343 bound_to 10162
  157.3115  131.0664  151.1997 LP  0  0  0  0  0  0  0  0  0  0  0  0  # atno 17370 bound_to 10713
  157.2942  130.6811  149.6130 LP  0  0  0  0  0  0  0  0  0  0  0  0  # atno 17371 bound_to 10713
  140.2674  134.8419  157.3816 LP  0  0  0  0  0  0  0  0  0  0  0  0  # atno 17394 bound_to 11000
  140.1553  134.4797  155.7932 LP  0  0  0  0  0  0  0  0  0  0  0  0  # atno 17395 bound_to 11000

$$$$
