AV-unprocessed.smi:2224|AV-procd|sdf|8993|dock1
  -GOLD-   2272012203D 1   1.00000     0.00000
 Structure written by MMmdl.
 44 46  0  0  0  0  0  0  0  0  1 V2000
  145.7423  132.0998  149.6707 C   0  0  0  0  0  0  0  0  0  0  0  0
  145.3177  133.0468  150.7734 C   0  0  0  0  0  0  0  0  0  0  0  0
  143.9624  133.1794  151.1313 C   0  0  0  0  0  0  0  0  0  0  0  0
  143.6334  134.0769  152.1662 C   0  0  0  0  0  0  0  0  0  0  0  0
  142.1963  134.2690  152.6026 C   0  0  0  0  0  0  0  0  0  0  0  0
  144.5550  134.8093  152.8275 N   0  0  0  0  0  0  0  0  0  0  0  0
  145.8633  134.6892  152.4913 C   0  0  0  0  0  0  0  0  0  0  0  0
  146.9086  135.4159  153.1202 N   0  0  0  0  0  0  0  0  0  0  0  0
  147.0155  135.7691  154.4130 C   0  0  0  0  0  0  0  0  0  0  0  0
  146.2043  135.4950  155.2978 O   0  0  0  0  0  0  0  0  0  0  0  0
  148.1425  136.4593  154.6317 N   0  0  0  0  0  0  0  0  0  0  0  0
  148.5829  136.9552  155.9369 C   0  0  2  0  0  0  0  0  0  0  0  0
  149.7133  138.0034  155.8312 C   0  0  2  0  0  0  0  0  0  0  0  0
  150.1231  138.6388  154.5249 C   0  0  0  0  0  0  0  0  0  0  0  0
  151.3282  137.7942  154.1005 C   0  0  0  0  0  0  0  0  0  0  0  0
  151.1880  136.5706  154.8198 O   0  0  0  0  0  0  0  0  0  0  0  0
  150.6974  136.8823  156.1220 C   0  0  2  0  0  0  0  0  0  0  0  0
  149.5595  135.9890  156.6601 C   0  0  0  0  0  0  0  0  0  0  0  0
  149.4273  135.9941  158.1859 C   0  0  0  0  0  0  0  0  0  0  0  0
  149.5939  134.5140  156.2367 C   0  0  0  0  0  0  0  0  0  0  0  0
  146.2784  133.8132  151.4633 C   0  0  0  0  0  0  0  0  0  0  0  0
  144.8790  131.6577  149.1725 H   0  0  0  0  0  0  0  0  0  0  0  0
  146.3506  131.2932  150.0803 H   0  0  0  0  0  0  0  0  0  0  0  0
  146.3322  132.6299  148.9225 H   0  0  0  0  0  0  0  0  0  0  0  0
  143.1958  132.6090  150.6273 H   0  0  0  0  0  0  0  0  0  0  0  0
  141.5072  133.7594  151.9287 H   0  0  0  0  0  0  0  0  0  0  0  0
  141.9384  135.3285  152.6129 H   0  0  0  0  0  0  0  0  0  0  0  0
  142.0507  133.8693  153.6063 H   0  0  0  0  0  0  0  0  0  0  0  0
  147.6659  135.6968  152.5156 H   0  0  0  0  0  0  0  0  0  0  0  0
  148.7573  136.6331  153.8504 H   0  0  0  0  0  0  0  0  0  0  0  0
  147.7668  137.2988  156.5755 H   0  0  0  0  0  0  0  0  0  0  0  0
  149.6667  138.7068  156.6640 H   0  0  0  0  0  0  0  0  0  0  0  0
  149.3281  138.5995  153.7806 H   0  0  0  0  0  0  0  0  0  0  0  0
  150.4021  139.6859  154.6453 H   0  0  0  0  0  0  0  0  0  0  0  0
  151.3643  137.6244  153.0242 H   0  0  0  0  0  0  0  0  0  0  0  0
  152.2587  138.2772  154.4020 H   0  0  0  0  0  0  0  0  0  0  0  0
  151.4808  137.1488  156.8331 H   0  0  0  0  0  0  0  0  0  0  0  0
  150.2664  135.4877  158.6638 H   0  0  0  0  0  0  0  0  0  0  0  0
  148.5130  135.4955  158.5091 H   0  0  0  0  0  0  0  0  0  0  0  0
  149.3968  137.0087  158.5838 H   0  0  0  0  0  0  0  0  0  0  0  0
  150.3871  133.9685  156.7488 H   0  0  0  0  0  0  0  0  0  0  0  0
  149.7730  134.3957  155.1679 H   0  0  0  0  0  0  0  0  0  0  0  0
  148.6519  134.0137  156.4626 H   0  0  0  0  0  0  0  0  0  0  0  0
  147.3241  133.7260  151.2052 H   0  0  0  0  0  0  0  0  0  0  0  0
  1  2  1  0  0  0  0
  1 22  1  0  0  0  0
  1 23  1  0  0  0  0
  1 24  1  0  0  0  0
  2 21  1  0  0  0  0
  2  3  2  0  0  0  0
  3  4  1  0  0  0  0
  3 25  1  0  0  0  0
  4  5  1  0  0  0  0
  4  6  2  0  0  0  0
  5 26  1  0  0  0  0
  5 27  1  0  0  0  0
  5 28  1  0  0  0  0
  6  7  1  0  0  0  0
  7  8  1  0  0  0  0
  7 21  2  0  0  0  0
  8  9  1  0  0  0  0
  8 29  1  0  0  0  0
  9 10  2  0  0  0  0
  9 11  1  0  0  0  0
 11 12  1  0  0  0  0
 11 30  1  0  0  0  0
 12 18  1  0  0  0  0
 12 13  1  0  0  0  0
 12 31  1  0  0  0  0
 13 17  1  0  0  0  0
 13 14  1  0  0  0  0
 13 32  1  0  0  0  0
 14 15  1  0  0  0  0
 14 33  1  0  0  0  0
 14 34  1  0  0  0  0
 15 16  1  0  0  0  0
 15 35  1  0  0  0  0
 15 36  1  0  0  0  0
 16 17  1  0  0  0  0
 17 18  1  0  0  0  0
 17 37  1  0  0  0  0
 18 19  1  0  0  0  0
 18 20  1  0  0  0  0
 19 38  1  0  0  0  0
 19 39  1  0  0  0  0
 19 40  1  0  0  0  0
 20 41  1  0  0  0  0
 20 42  1  0  0  0  0
 20 43  1  0  0  0  0
 21 44  1  0  0  0  0
M  END
> <s_m_source_file>
AV-unprocessed.smi

> <i_m_source_file_index>
2224

> <i_lp_mmshare_version>
43012

> <i_f3d_flags>
0

> <s_epik_input>
W0NIM11jMVtjSF1jKFtDSDNdKW5jKFtjSF0xKVtOSF1DKD1PKVtOSF1bQ0BIXTJDKFtDSDNdKShbQ0gzXSlbQ0BIXShbQ0BASF0yMylPW0NIMl1bQ0gyXTM=

> <s_epik_cmdline>
J2VwaWtfcHl0aG9uJywgJy1waCcsICc3LjAnLCAnLXRuJywgJzgnLCAnLW1hJywgJzIwMCcsICctbWV0YWxfYmluZGluZycsICctaW1hZScsICc8aW5maWxlLm1hZT4nLCAnLW9tYWUnLCAnPG91dGZpbGUubWFlPic=

> <r_lp_tautomer_probability>
1

> <r_epik_Ionization_Penalty>
0.000276544

> <r_epik_Ionization_Penalty_Charging>
0

> <r_epik_Ionization_Penalty_Neutral>
0.000276544

> <r_epik_State_Penalty>
-0

> <r_epik_Charging_Adjusted_Penalty>
0

> <i_epik_Tot_Q>
0

> <i_epik_Tot_abs_Q>
0

> <r_epik_Metal_State_Penalty>
-0

> <b_epik_Metal_Only>
0

> <s_lp_Force_Field>
OPLS_2005

> <r_lp_Energy>
39.8946

> <b_lp_Chiralities_Consistent>
1

> <s_lp_Variant>
AV-unprocessed.smi:2224-3

> <Gold.Version>
5.8.1

> <Gold.Id.Protein>
6NUR|6NUR_protein|mol2

> <Gold.PLP.Fitness>
36.0600

> <Gold.PLP.PLP>
-28.4010

> <Gold.PLP.part.hbond>
-2.9729

> <Gold.PLP.part.metal>
0.0000

> <Gold.PLP.part.buried>
-4.1434

> <Gold.PLP.part.nonpolar>
-22.5005

> <Gold.PLP.part.repulsive>
0.2514

> <Gold.PLP.ligand.clash>
0.0000

> <Gold.PLP.ligand.torsion>
0.5236

> <Gold.PLP.Chemscore.Hbond>
2.8393

> <Gold.PLP.Chemscore.CHOScore>
0.0000

> <Gold.PLP.Chemscore.Metal>
0.0000

> <Gold.Chemscore.Hbonds>
donor molecule, donor type, donor heavy atom, donor atom, acceptor molecule, acceptor atom, score
      L1  H     8    29       P1  7948  0.98
      L1  H    11    30       P1  7948  0.85
      P1  H 10752 10764       L1    16  1.00

> <Gold.PLP.Chemscore.Internal.Correction>
0.1886

> <Gold.Rescore>
     Score         DG    S(hbond)    S(metal)    S(lipo)     H(rot)  DE(clash)    DE(int)     intcor
     18.81     -20.12       2.45        0.00      76.97       1.00       0.14       1.18       ----

> <Gold.Chemscore.Fitness>
18.8070

> <Gold.Chemscore.DG>
-20.1190

> <Gold.Chemscore.ZeroCoef>
-5.4800

> <Gold.Chemscore.Hbond>
2.4532

> <Gold.Chemscore.Metal>
0.0000

> <Gold.Chemscore.Lipo>
76.9680

> <Gold.Chemscore.Internal_Hbond>
0.0000

> <Gold.Chemscore.DEClash>
0.1364

> <Gold.Chemscore.DEInternal>
1.1756

> <Gold.Chemscore.Rot>
1.0000

> <Gold.Chemscore.Internal.Correction>
   9.000000E+99

> <Gold.Chemscore.Hbonds>
donor molecule, donor type, donor heavy atom, donor atom, acceptor molecule, acceptor atom, score
      L1  H     8    29       P1  7948  0.92
      L1  H    11    30       P1  7948  0.78
      P1  H 10752 10764       L1    16  0.38

> <Gold.Chemscore.Hbond.Weighted>
-8.1937

> <Gold.Chemscore.Metal.Weighted>
-0.0000

> <Gold.Chemscore.Lipo.Weighted>
-9.0053

> <Gold.Chemscore.Internal_Hbond.Weighted>
0.0000

> <Gold.Chemscore.DEClash.Weighted>
0.1364

> <Gold.Chemscore.DEInternal.Weighted>
1.1756

> <Gold.Chemscore.Rot.Weighted>
2.5600

> <Gold.Chemscore.Internal.Correction.Weighted>
   9.000000E+99

> <Gold.Protein.RotatedTorsions>
[ 6907 6896 6895 6894 ] final  -44.19 input  -60.11 | X-H torsion
[ 7974 7965 7964 7962 ] final  -61.42 input  175.53 | X-H torsion
[ 8008 7997 7996 7995 ] final   35.75 input   59.86 | X-H torsion
[ 10167 10162 10161 10158 ] final  -76.53 input  -65.29 | X-H torsion
[ 10718 10713 10712 10709 ] final    1.41 input   66.30 | X-H torsion
[ 10763 10752 10751 10750 ] final  -67.28 input  -60.55 | X-H torsion
[ 11005 11000 10999 10996 ] final  170.92 input  -57.11 | X-H torsion

> <Gold.Protein.ActiveResidues>
 VAL166  LYS551  ARG553  GLY616  TRP617  ASP618  TYR619  PRO620  LYS621  CYS622 
 ASP623  PHE694  ASN695  SER759  ASP760  ASP761  ALA762  ILE779  LEU786  VAL792 
 PHE793  MET794  SER795  GLU796  ALA797  LYS798  CYS799  TRP800  GLU811  SER814 

> <Gold.Protein.RotatedAtoms>
  150.9356  134.8769  159.7579 H   0  0  0  0  0  0  0  0  0  0  0  0  # atno 6907 bound_to 6896
  152.5057  134.4016  159.9428 H   0  0  0  0  0  0  0  0  0  0  0  0  # atno 6908 bound_to 6896
  151.4040  133.3708  159.2770 H   0  0  0  0  0  0  0  0  0  0  0  0  # atno 6909 bound_to 6896
  145.8036  140.8640  143.0218 H   0  0  0  0  0  0  0  0  0  0  0  0  # atno 7974 bound_to 7965
  155.1762  140.3296  155.4383 H   0  0  0  0  0  0  0  0  0  0  0  0  # atno 8008 bound_to 7997
  156.2493  140.1935  156.6813 H   0  0  0  0  0  0  0  0  0  0  0  0  # atno 8009 bound_to 7997
  154.6303  140.0583  156.9710 H   0  0  0  0  0  0  0  0  0  0  0  0  # atno 8010 bound_to 7997
  140.4849  143.2393  151.8000 H   0  0  0  0  0  0  0  0  0  0  0  0  # atno 10167 bound_to 10162
  156.8478  130.5543  149.5672 H   0  0  0  0  0  0  0  0  0  0  0  0  # atno 10718 bound_to 10713
  154.3722  135.6092  153.5746 H   0  0  0  0  0  0  0  0  0  0  0  0  # atno 10763 bound_to 10752
  152.9790  135.5841  154.4508 H   0  0  0  0  0  0  0  0  0  0  0  0  # atno 10764 bound_to 10752
  154.4264  135.2847  155.1919 H   0  0  0  0  0  0  0  0  0  0  0  0  # atno 10765 bound_to 10752
  140.3134  134.7497  157.4009 H   0  0  0  0  0  0  0  0  0  0  0  0  # atno 11005 bound_to 11000
  144.6765  140.0295  143.7483 LP  0  0  0  0  0  0  0  0  0  0  0  0  # atno 17320 bound_to 7965
  145.9851  139.2971  143.1018 LP  0  0  0  0  0  0  0  0  0  0  0  0  # atno 17321 bound_to 7965
  139.4840  144.4725  151.9407 LP  0  0  0  0  0  0  0  0  0  0  0  0  # atno 17342 bound_to 10162
  140.3811  144.2735  150.5908 LP  0  0  0  0  0  0  0  0  0  0  0  0  # atno 17343 bound_to 10162
  156.0845  130.5847  150.9622 LP  0  0  0  0  0  0  0  0  0  0  0  0  # atno 17370 bound_to 10713
  157.6320  131.0920  150.8423 LP  0  0  0  0  0  0  0  0  0  0  0  0  # atno 17371 bound_to 10713
  140.1004  134.5480  155.8358 LP  0  0  0  0  0  0  0  0  0  0  0  0  # atno 17394 bound_to 11000
  141.2103  133.6693  156.6499 LP  0  0  0  0  0  0  0  0  0  0  0  0  # atno 17395 bound_to 11000

$$$$
