AV-unprocessed.smi:1138|AV-procd|sdf|4868|dock8
  -GOLD-   22720 3443D 1   1.00000     0.00000
 Structure written by MMmdl.
 49 51  0  0  0  0  0  0  0  0  1 V2000
  145.7967  131.7295  151.3055 C   0  0  0  0  0  0  0  0  0  0  0  0
  144.8034  132.7120  150.8837 N   0  0  0  0  0  0  0  0  0  0  0  0
  143.6191  132.2741  150.1549 C   0  0  0  0  0  0  0  0  0  0  0  0
  144.8955  134.0447  151.3470 C   0  0  0  0  0  0  0  0  0  0  0  0
  143.7804  134.9183  151.3130 C   0  0  0  0  0  0  0  0  0  0  0  0
  143.9225  136.2338  151.7933 C   0  0  0  0  0  0  0  0  0  0  0  0
  145.1655  136.6519  152.3049 C   0  0  0  0  0  0  0  0  0  0  0  0
  145.2809  137.9886  152.7732 N   0  0  0  0  0  0  0  0  0  0  0  0
  146.2652  138.5328  153.5091 C   0  0  0  0  0  0  0  0  0  0  0  0
  147.2638  137.9381  153.9144 O   0  0  0  0  0  0  0  0  0  0  0  0
  146.0161  139.8235  153.7729 N   0  0  0  0  0  0  0  0  0  0  0  0
  146.8689  140.6986  154.5721 C   0  0  0  0  0  0  0  0  0  0  0  0
  148.1727  140.9995  153.8024 C   0  0  0  0  0  0  0  0  0  0  0  0
  149.1771  141.7687  154.6798 C   0  0  0  0  0  0  0  0  0  0  0  0
  149.4275  140.9930  155.9012 N   0  0  0  0  0  0  0  0  0  0  0  0
  150.6188  140.3959  156.1561 C   0  0  0  0  0  0  0  0  0  0  0  0
  151.6016  140.5559  155.4306 O   0  0  0  0  0  0  0  0  0  0  0  0
  150.6920  139.5020  157.3565 C   0  0  0  0  0  0  0  0  0  0  0  0
  151.5971  139.9467  158.4863 C   0  0  0  0  0  0  0  0  0  0  0  0
  151.9930  138.7701  157.6341 C   0  0  0  0  0  0  0  0  0  0  0  0
  148.2130  140.8865  156.7221 C   0  0  0  0  0  0  0  0  0  0  0  0
  147.1627  140.0668  155.9522 C   0  0  0  0  0  0  0  0  0  0  0  0
  146.2282  135.7189  152.2834 C   0  0  0  0  0  0  0  0  0  0  0  0
  146.0964  134.4574  151.8218 N   0  0  0  0  0  0  0  0  0  0  0  0
  146.7982  132.0437  151.0101 H   0  0  0  0  0  0  0  0  0  0  0  0
  145.6090  130.7551  150.8549 H   0  0  0  0  0  0  0  0  0  0  0  0
  145.7774  131.6076  152.3892 H   0  0  0  0  0  0  0  0  0  0  0  0
  143.5363  132.8028  149.2049 H   0  0  0  0  0  0  0  0  0  0  0  0
  142.7178  132.4600  150.7399 H   0  0  0  0  0  0  0  0  0  0  0  0
  143.6596  131.2066  149.9377 H   0  0  0  0  0  0  0  0  0  0  0  0
  142.8207  134.6076  150.9290 H   0  0  0  0  0  0  0  0  0  0  0  0
  143.0802  136.9101  151.7730 H   0  0  0  0  0  0  0  0  0  0  0  0
  144.4879  138.5835  152.5829 H   0  0  0  0  0  0  0  0  0  0  0  0
  145.1692  140.2295  153.4031 H   0  0  0  0  0  0  0  0  0  0  0  0
  146.3559  141.6491  154.7318 H   0  0  0  0  0  0  0  0  0  0  0  0
  148.6316  140.0663  153.4717 H   0  0  0  0  0  0  0  0  0  0  0  0
  147.9519  141.5719  152.9008 H   0  0  0  0  0  0  0  0  0  0  0  0
  150.0847  141.9705  154.1093 H   0  0  0  0  0  0  0  0  0  0  0  0
  148.7728  142.7462  154.9465 H   0  0  0  0  0  0  0  0  0  0  0  0
  149.7842  138.9600  157.6155 H   0  0  0  0  0  0  0  0  0  0  0  0
  152.1616  140.8692  158.3594 H   0  0  0  0  0  0  0  0  0  0  0  0
  151.2519  139.7537  159.4997 H   0  0  0  0  0  0  0  0  0  0  0  0
  151.9163  137.7765  158.0711 H   0  0  0  0  0  0  0  0  0  0  0  0
  152.8376  138.9096  156.9618 H   0  0  0  0  0  0  0  0  0  0  0  0
  148.3817  140.4545  157.7076 H   0  0  0  0  0  0  0  0  0  0  0  0
  147.8265  141.8879  156.9167 H   0  0  0  0  0  0  0  0  0  0  0  0
  146.2454  139.9977  156.5380 H   0  0  0  0  0  0  0  0  0  0  0  0
  147.5266  139.0460  155.8247 H   0  0  0  0  0  0  0  0  0  0  0  0
  147.2208  135.9722  152.6209 H   0  0  0  0  0  0  0  0  0  0  0  0
  1  2  1  0  0  0  0
  1 25  1  0  0  0  0
  1 26  1  0  0  0  0
  1 27  1  0  0  0  0
  2  3  1  0  0  0  0
  2  4  1  0  0  0  0
  3 28  1  0  0  0  0
  3 29  1  0  0  0  0
  3 30  1  0  0  0  0
  4 24  1  0  0  0  0
  4  5  2  0  0  0  0
  5  6  1  0  0  0  0
  5 31  1  0  0  0  0
  6  7  2  0  0  0  0
  6 32  1  0  0  0  0
  7  8  1  0  0  0  0
  7 23  1  0  0  0  0
  8  9  1  0  0  0  0
  8 33  1  0  0  0  0
  9 10  2  0  0  0  0
  9 11  1  0  0  0  0
 11 12  1  0  0  0  0
 11 34  1  0  0  0  0
 12 22  1  0  0  0  0
 12 13  1  0  0  0  0
 12 35  1  0  0  0  0
 13 14  1  0  0  0  0
 13 36  1  0  0  0  0
 13 37  1  0  0  0  0
 14 15  1  0  0  0  0
 14 38  1  0  0  0  0
 14 39  1  0  0  0  0
 15 16  1  0  0  0  0
 15 21  1  0  0  0  0
 16 17  2  0  0  0  0
 16 18  1  0  0  0  0
 18 20  1  0  0  0  0
 18 19  1  0  0  0  0
 18 40  1  0  0  0  0
 19 20  1  0  0  0  0
 19 41  1  0  0  0  0
 19 42  1  0  0  0  0
 20 43  1  0  0  0  0
 20 44  1  0  0  0  0
 21 22  1  0  0  0  0
 21 45  1  0  0  0  0
 21 46  1  0  0  0  0
 22 47  1  0  0  0  0
 22 48  1  0  0  0  0
 23 24  2  0  0  0  0
 23 49  1  0  0  0  0
M  END
> <s_m_source_file>
AV-unprocessed.smi

> <i_m_source_file_index>
1138

> <i_lp_mmshare_version>
43012

> <i_f3d_flags>
0

> <s_epik_input>
W0NIM11OKFtDSDNdKWMxW2NIXVtjSF1jKFtjSF1uMSlbTkhdQyg9TylbTkhdW0NIXTJbQ0gyXVtDSDJdTihbQ0gyXVtDSDJdMilDKD1PKVtDSF0zW0NIMl1bQ0gyXTM=

> <s_epik_cmdline>
J2VwaWtfcHl0aG9uJywgJy1waCcsICc3LjAnLCAnLXRuJywgJzgnLCAnLW1hJywgJzIwMCcsICctbWV0YWxfYmluZGluZycsICctaW1hZScsICc8aW5maWxlLm1hZT4nLCAnLW9tYWUnLCAnPG91dGZpbGUubWFlPic=

> <r_lp_tautomer_probability>
1

> <r_epik_Ionization_Penalty>
0.622325

> <r_epik_Ionization_Penalty_Charging>
0

> <r_epik_Ionization_Penalty_Neutral>
0.622325

> <r_epik_State_Penalty>
0.637335

> <r_epik_Charging_Adjusted_Penalty>
0.637335

> <i_epik_Tot_Q>
0

> <i_epik_Tot_abs_Q>
0

> <r_epik_Metal_State_Penalty>
0.306682

> <b_epik_Metal_Only>
0

> <s_lp_Force_Field>
OPLS_2005

> <r_lp_Energy>
33.2088

> <b_lp_Chiralities_Consistent>
1

> <s_lp_Variant>
AV-unprocessed.smi:1138-2

> <Gold.Version>
5.8.1

> <Gold.Id.Protein>
6NUR|6NUR_protein|mol2

> <Gold.PLP.Fitness>
44.0808

> <Gold.PLP.PLP>
-33.1294

> <Gold.PLP.part.hbond>
-3.0000

> <Gold.PLP.part.metal>
0.0000

> <Gold.PLP.part.buried>
-1.5644

> <Gold.PLP.part.nonpolar>
-29.0872

> <Gold.PLP.part.repulsive>
0.2728

> <Gold.PLP.ligand.clash>
0.0000

> <Gold.PLP.ligand.torsion>
0.2729

> <Gold.PLP.Chemscore.Hbond>
2.7913

> <Gold.PLP.Chemscore.CHOScore>
1.0000

> <Gold.PLP.Chemscore.Metal>
0.0000

> <Gold.Chemscore.Hbonds>
donor molecule, donor type, donor heavy atom, donor atom, acceptor molecule, acceptor atom, score
      L1  H     8    33       P1 10175  0.98
      L1  H    11    34       P1 10175  1.00
      P1  H  7989  7998       L1    17  0.77
      L1  C    23    49       P1  7948  0.67

> <Gold.PLP.Chemscore.Internal.Correction>
0.1234

> <Gold.Rescore>
     Score         DG    S(hbond)    S(metal)    S(lipo)     H(rot)  DE(clash)    DE(int)     intcor
     17.21     -20.32       2.79        0.00      73.45       1.20       0.53       2.58       ----

> <Gold.Chemscore.Fitness>
17.2105

> <Gold.Chemscore.DG>
-20.3193

> <Gold.Chemscore.ZeroCoef>
-5.4800

> <Gold.Chemscore.Hbond>
2.7874

> <Gold.Chemscore.Metal>
0.0000

> <Gold.Chemscore.Lipo>
73.4479

> <Gold.Chemscore.Internal_Hbond>
0.0000

> <Gold.Chemscore.DEClash>
0.5270

> <Gold.Chemscore.DEInternal>
2.5818

> <Gold.Chemscore.Rot>
1.1969

> <Gold.Chemscore.Internal.Correction>
   9.000000E+99

> <Gold.Chemscore.Hbonds>
donor molecule, donor type, donor heavy atom, donor atom, acceptor molecule, acceptor atom, score
      L1  H     8    33       P1 10175  0.88
      L1  H    11    34       P1 10175  1.00
      P1  H  7989  7998       L1    17  0.77

> <Gold.Chemscore.Hbond.Weighted>
-9.3100

> <Gold.Chemscore.Metal.Weighted>
-0.0000

> <Gold.Chemscore.Lipo.Weighted>
-8.5934

> <Gold.Chemscore.Internal_Hbond.Weighted>
0.0000

> <Gold.Chemscore.DEClash.Weighted>
0.5270

> <Gold.Chemscore.DEInternal.Weighted>
2.5818

> <Gold.Chemscore.Rot.Weighted>
3.0641

> <Gold.Chemscore.Internal.Correction.Weighted>
   9.000000E+99

> <Gold.Protein.RotatedTorsions>
[ 6907 6896 6895 6894 ] final  -97.83 input  -60.11 | X-H torsion
[ 7974 7965 7964 7962 ] final  141.46 input  175.53 | X-H torsion
[ 8008 7997 7996 7995 ] final  -34.48 input   59.86 | X-H torsion
[ 10167 10162 10161 10158 ] final  137.70 input  -65.29 | X-H torsion
[ 10718 10713 10712 10709 ] final   94.51 input   66.30 | X-H torsion
[ 10763 10752 10751 10750 ] final  145.16 input  -60.55 | X-H torsion
[ 11005 11000 10999 10996 ] final -154.31 input  -57.11 | X-H torsion

> <Gold.Protein.ActiveResidues>
 VAL166  LYS551  ARG553  GLY616  TRP617  ASP618  TYR619  PRO620  LYS621  CYS622 
 ASP623  PHE694  ASN695  SER759  ASP760  ASP761  ALA762  ILE779  LEU786  VAL792 
 PHE793  MET794  SER795  GLU796  ALA797  LYS798  CYS799  TRP800  GLU811  SER814 

> <Gold.Protein.RotatedAtoms>
  150.7028  134.1288  159.4061 H   0  0  0  0  0  0  0  0  0  0  0  0  # atno 6907 bound_to 6896
  151.9274  135.0269  160.0536 H   0  0  0  0  0  0  0  0  0  0  0  0  # atno 6908 bound_to 6896
  152.2205  133.4944  159.5196 H   0  0  0  0  0  0  0  0  0  0  0  0  # atno 6909 bound_to 6896
  144.9095  139.5313  143.5715 H   0  0  0  0  0  0  0  0  0  0  0  0  # atno 7974 bound_to 7965
  154.4120  140.1683  156.2056 H   0  0  0  0  0  0  0  0  0  0  0  0  # atno 8008 bound_to 7997
  155.9487  140.3402  155.6366 H   0  0  0  0  0  0  0  0  0  0  0  0  # atno 8009 bound_to 7997
  155.6897  140.0732  157.2443 H   0  0  0  0  0  0  0  0  0  0  0  0  # atno 8010 bound_to 7997
  139.5135  144.6395  151.5607 H   0  0  0  0  0  0  0  0  0  0  0  0  # atno 10167 bound_to 10162
  157.6947  131.0515  150.4198 H   0  0  0  0  0  0  0  0  0  0  0  0  # atno 10718 bound_to 10713
  154.0009  135.2923  155.3403 H   0  0  0  0  0  0  0  0  0  0  0  0  # atno 10763 bound_to 10752
  154.7160  135.5129  153.8741 H   0  0  0  0  0  0  0  0  0  0  0  0  # atno 10764 bound_to 10752
  153.0766  135.6665  154.0251 H   0  0  0  0  0  0  0  0  0  0  0  0  # atno 10765 bound_to 10752
  140.6988  134.3961  157.5212 H   0  0  0  0  0  0  0  0  0  0  0  0  # atno 11005 bound_to 11000
  146.3151  139.7889  142.8990 LP  0  0  0  0  0  0  0  0  0  0  0  0  # atno 17320 bound_to 7965
  145.3479  141.0301  143.3355 LP  0  0  0  0  0  0  0  0  0  0  0  0  # atno 17321 bound_to 7965
  140.6156  143.9354  150.6486 LP  0  0  0  0  0  0  0  0  0  0  0  0  # atno 17342 bound_to 10162
  140.2611  143.3523  152.1322 LP  0  0  0  0  0  0  0  0  0  0  0  0  # atno 17343 bound_to 10162
  156.4574  130.4024  149.6598 LP  0  0  0  0  0  0  0  0  0  0  0  0  # atno 17370 bound_to 10713
  156.3725  130.7538  151.2522 LP  0  0  0  0  0  0  0  0  0  0  0  0  # atno 17371 bound_to 10713
  139.8903  134.8809  156.2379 LP  0  0  0  0  0  0  0  0  0  0  0  0  # atno 17394 bound_to 11000
  141.0181  133.7057  156.1222 LP  0  0  0  0  0  0  0  0  0  0  0  0  # atno 17395 bound_to 11000

$$$$
