AV-unprocessed.smi:313|AV-procd|sdf|2312|dock7
  -GOLD-   2262022213D 1   1.00000     0.00000
 Structure written by MMmdl.
 50 51  0  0  0  0  0  0  0  0  1 V2000
  144.3150  135.6852  151.2240 C   0  0  0  0  0  0  0  0  0  0  0  0
  144.3524  135.7619  152.7572 C   0  0  0  0  0  0  0  0  0  0  0  0
  145.7677  135.6294  153.3504 C   0  0  1  0  0  0  0  0  0  0  0  0
  146.4089  134.2809  152.9859 C   0  0  0  0  0  0  0  0  0  0  0  0
  146.6130  136.7271  152.8864 N   0  0  0  0  0  0  0  0  0  0  0  0
  146.4838  138.0152  153.2395 C   0  0  0  0  0  0  0  0  0  0  0  0
  145.6151  138.4208  154.0137 O   0  0  0  0  0  0  0  0  0  0  0  0
  147.4837  138.9923  152.5999 C   0  0  1  0  0  0  0  0  0  0  0  0
  146.6832  140.0495  151.8214 C   0  0  0  0  0  0  0  0  0  0  0  0
  148.2668  139.6822  153.6237 N   0  0  0  0  0  0  0  0  0  0  0  0
  147.7580  140.4236  154.6223 C   0  0  0  0  0  0  0  0  0  0  0  0
  146.5522  140.6167  154.7795 O   0  0  0  0  0  0  0  0  0  0  0  0
  148.7666  141.0769  155.5219 C   0  0  0  0  0  0  0  0  0  0  0  0
  150.1491  141.0385  155.2404 C   0  0  0  0  0  0  0  0  0  0  0  0
  151.0502  141.6508  156.1324 C   0  0  0  0  0  0  0  0  0  0  0  0
  150.5497  142.2879  157.2966 C   0  0  0  0  0  0  0  0  0  0  0  0
  151.3996  142.9174  158.2360 N   0  0  0  0  0  0  0  0  0  0  0  0
  151.9044  142.0808  159.3254 C   0  0  0  0  0  0  0  0  0  0  0  0
  153.0597  142.7817  160.0598 C   0  0  0  0  0  0  0  0  0  0  0  0
  152.6439  144.0718  160.4920 O   0  0  0  0  0  0  0  0  0  0  0  0
  152.2981  144.9048  159.3919 C   0  0  0  0  0  0  0  0  0  0  0  0
  151.1101  144.2946  158.6292 C   0  0  0  0  0  0  0  0  0  0  0  0
  149.2220  142.3094  157.5671 N   0  0  0  0  0  0  0  0  0  0  0  0
  148.3618  141.7195  156.7103 C   0  0  0  0  0  0  0  0  0  0  0  0
  143.2994  135.8297  150.8552 H   0  0  0  0  0  0  0  0  0  0  0  0
  144.6615  134.7175  150.8608 H   0  0  0  0  0  0  0  0  0  0  0  0
  144.9431  136.4560  150.7767 H   0  0  0  0  0  0  0  0  0  0  0  0
  143.9226  136.7153  153.0667 H   0  0  0  0  0  0  0  0  0  0  0  0
  143.7035  134.9896  153.1723 H   0  0  0  0  0  0  0  0  0  0  0  0
  145.6794  135.6820  154.4371 H   0  0  0  0  0  0  0  0  0  0  0  0
  145.7989  133.4493  153.3393 H   0  0  0  0  0  0  0  0  0  0  0  0
  147.3962  134.1766  153.4370 H   0  0  0  0  0  0  0  0  0  0  0  0
  146.5233  134.1741  151.9066 H   0  0  0  0  0  0  0  0  0  0  0  0
  147.3527  136.4876  152.2423 H   0  0  0  0  0  0  0  0  0  0  0  0
  148.1494  138.4595  151.9180 H   0  0  0  0  0  0  0  0  0  0  0  0
  146.0803  139.5915  151.0360 H   0  0  0  0  0  0  0  0  0  0  0  0
  147.3500  140.7658  151.3408 H   0  0  0  0  0  0  0  0  0  0  0  0
  146.0109  140.6113  152.4720 H   0  0  0  0  0  0  0  0  0  0  0  0
  149.2711  139.6078  153.5532 H   0  0  0  0  0  0  0  0  0  0  0  0
  150.5268  140.5475  154.3554 H   0  0  0  0  0  0  0  0  0  0  0  0
  152.1030  141.6227  155.8976 H   0  0  0  0  0  0  0  0  0  0  0  0
  151.0876  141.8784  160.0191 H   0  0  0  0  0  0  0  0  0  0  0  0
  152.2611  141.1171  158.9622 H   0  0  0  0  0  0  0  0  0  0  0  0
  153.3603  142.1967  160.9290 H   0  0  0  0  0  0  0  0  0  0  0  0
  153.9360  142.8652  159.4148 H   0  0  0  0  0  0  0  0  0  0  0  0
  152.0356  145.8951  159.7641 H   0  0  0  0  0  0  0  0  0  0  0  0
  153.1592  145.0312  158.7330 H   0  0  0  0  0  0  0  0  0  0  0  0
  150.9141  144.9074  157.7489 H   0  0  0  0  0  0  0  0  0  0  0  0
  150.2145  144.3110  159.2518 H   0  0  0  0  0  0  0  0  0  0  0  0
  147.3185  141.7716  156.9860 H   0  0  0  0  0  0  0  0  0  0  0  0
  1  2  1  0  0  0  0
  1 25  1  0  0  0  0
  1 26  1  0  0  0  0
  1 27  1  0  0  0  0
  2  3  1  0  0  0  0
  2 28  1  0  0  0  0
  2 29  1  0  0  0  0
  3  4  1  0  0  0  0
  3  5  1  0  0  0  0
  3 30  1  0  0  0  0
  4 31  1  0  0  0  0
  4 32  1  0  0  0  0
  4 33  1  0  0  0  0
  5  6  1  0  0  0  0
  5 34  1  0  0  0  0
  6  7  2  0  0  0  0
  6  8  1  0  0  0  0
  8  9  1  0  0  0  0
  8 10  1  0  0  0  0
  8 35  1  0  0  0  0
  9 36  1  0  0  0  0
  9 37  1  0  0  0  0
  9 38  1  0  0  0  0
 10 11  1  0  0  0  0
 10 39  1  0  0  0  0
 11 12  2  0  0  0  0
 11 13  1  0  0  0  0
 13 24  1  0  0  0  0
 13 14  2  0  0  0  0
 14 15  1  0  0  0  0
 14 40  1  0  0  0  0
 15 16  2  0  0  0  0
 15 41  1  0  0  0  0
 16 17  1  0  0  0  0
 16 23  1  0  0  0  0
 17 22  1  0  0  0  0
 17 18  1  0  0  0  0
 18 19  1  0  0  0  0
 18 42  1  0  0  0  0
 18 43  1  0  0  0  0
 19 20  1  0  0  0  0
 19 44  1  0  0  0  0
 19 45  1  0  0  0  0
 20 21  1  0  0  0  0
 21 22  1  0  0  0  0
 21 46  1  0  0  0  0
 21 47  1  0  0  0  0
 22 48  1  0  0  0  0
 22 49  1  0  0  0  0
 23 24  2  0  0  0  0
 24 50  1  0  0  0  0
M  END
> <s_m_source_file>
AV-unprocessed.smi

> <i_m_source_file_index>
313

> <i_lp_mmshare_version>
43012

> <i_f3d_flags>
0

> <s_epik_input>
W0NIM11bQ0gyXVtDQEhdKFtDSDNdKVtOSF1DKD1PKVtDQEhdKFtDSDNdKVtOSF1DKD1PKWMxW2NIXVtjSF1jKG5bY0hdMSlOMltDSDJdW0NIMl1PW0NIMl1bQ0gyXTI=

> <s_epik_cmdline>
J2VwaWtfcHl0aG9uJywgJy1waCcsICc3LjAnLCAnLXRuJywgJzgnLCAnLW1hJywgJzIwMCcsICctbWV0YWxfYmluZGluZycsICctaW1hZScsICc8aW5maWxlLm1hZT4nLCAnLW9tYWUnLCAnPG91dGZpbGUubWFlPic=

> <r_lp_tautomer_probability>
1

> <r_epik_Ionization_Penalty>
9.96442e-06

> <r_epik_Ionization_Penalty_Charging>
0

> <r_epik_Ionization_Penalty_Neutral>
9.96442e-06

> <r_epik_State_Penalty>
-0

> <r_epik_Charging_Adjusted_Penalty>
0

> <i_epik_Tot_Q>
0

> <i_epik_Tot_abs_Q>
0

> <r_epik_Metal_State_Penalty>
-0

> <b_epik_Metal_Only>
0

> <s_lp_Force_Field>
OPLS_2005

> <r_lp_Energy>
19.952

> <b_lp_Chiralities_Consistent>
1

> <s_lp_Variant>
AV-unprocessed.smi:313-4

> <Gold.Version>
5.8.1

> <Gold.Id.Protein>
6NUR|6NUR_protein|mol2

> <Gold.PLP.Fitness>
37.7544

> <Gold.PLP.PLP>
-35.4493

> <Gold.PLP.part.hbond>
-2.0000

> <Gold.PLP.part.metal>
0.0000

> <Gold.PLP.part.buried>
1.8537

> <Gold.PLP.part.nonpolar>
-34.9896

> <Gold.PLP.part.repulsive>
0.7127

> <Gold.PLP.ligand.clash>
0.0000

> <Gold.PLP.ligand.torsion>
0.5958

> <Gold.PLP.Chemscore.Hbond>
1.0000

> <Gold.PLP.Chemscore.CHOScore>
0.0000

> <Gold.PLP.Chemscore.Metal>
0.0000

> <Gold.Chemscore.Hbonds>
donor molecule, donor type, donor heavy atom, donor atom, acceptor molecule, acceptor atom, score
      L1  H     5    34       P1  7948  1.00

> <Gold.PLP.Chemscore.Internal.Correction>
0.4967

> <Gold.Rescore>
     Score         DG    S(hbond)    S(metal)    S(lipo)     H(rot)  DE(clash)    DE(int)     intcor
     10.67     -15.58       1.00        0.00      96.97       1.79       1.39       3.53       ----

> <Gold.Chemscore.Fitness>
10.6667

> <Gold.Chemscore.DG>
-15.5818

> <Gold.Chemscore.ZeroCoef>
-5.4800

> <Gold.Chemscore.Hbond>
0.9988

> <Gold.Chemscore.Metal>
0.0000

> <Gold.Chemscore.Lipo>
96.9672

> <Gold.Chemscore.Internal_Hbond>
0.0000

> <Gold.Chemscore.DEClash>
1.3900

> <Gold.Chemscore.DEInternal>
3.5251

> <Gold.Chemscore.Rot>
1.7888

> <Gold.Chemscore.Internal.Correction>
   9.000000E+99

> <Gold.Chemscore.Hbonds>
donor molecule, donor type, donor heavy atom, donor atom, acceptor molecule, acceptor atom, score
      L1  H     5    34       P1  7948  0.97

> <Gold.Chemscore.Hbond.Weighted>
-3.3359

> <Gold.Chemscore.Metal.Weighted>
-0.0000

> <Gold.Chemscore.Lipo.Weighted>
-11.3452

> <Gold.Chemscore.Internal_Hbond.Weighted>
0.0000

> <Gold.Chemscore.DEClash.Weighted>
1.3900

> <Gold.Chemscore.DEInternal.Weighted>
3.5251

> <Gold.Chemscore.Rot.Weighted>
4.5793

> <Gold.Chemscore.Internal.Correction.Weighted>
   9.000000E+99

> <Gold.Protein.RotatedTorsions>
[ 6907 6896 6895 6894 ] final -119.81 input  -60.11 | X-H torsion
[ 7974 7965 7964 7962 ] final  130.49 input  175.53 | X-H torsion
[ 8008 7997 7996 7995 ] final -171.49 input   59.86 | X-H torsion
[ 10167 10162 10161 10158 ] final  -65.80 input  -65.29 | X-H torsion
[ 10718 10713 10712 10709 ] final  176.13 input   66.30 | X-H torsion
[ 10763 10752 10751 10750 ] final  151.72 input  -60.55 | X-H torsion
[ 11005 11000 10999 10996 ] final  -85.90 input  -57.11 | X-H torsion

> <Gold.Protein.ActiveResidues>
 VAL166  LYS551  ARG553  GLY616  TRP617  ASP618  TYR619  PRO620  LYS621  CYS622 
 ASP623  PHE694  ASN695  SER759  ASP760  ASP761  ALA762  ILE779  LEU786  VAL792 
 PHE793  MET794  SER795  GLU796  ALA797  LYS798  CYS799  TRP800  GLU811  SER814 

> <Gold.Protein.RotatedAtoms>
  150.8337  133.8048  159.3087 H   0  0  0  0  0  0  0  0  0  0  0  0  # atno 6907 bound_to 6896
  151.5770  135.1058  160.0018 H   0  0  0  0  0  0  0  0  0  0  0  0  # atno 6908 bound_to 6896
  152.4413  133.7412  159.6698 H   0  0  0  0  0  0  0  0  0  0  0  0  # atno 6909 bound_to 6896
  145.0174  139.4164  143.5215 H   0  0  0  0  0  0  0  0  0  0  0  0  # atno 7974 bound_to 7965
  155.9322  140.1093  157.1123 H   0  0  0  0  0  0  0  0  0  0  0  0  # atno 8008 bound_to 7997
  154.4073  140.1235  156.4884 H   0  0  0  0  0  0  0  0  0  0  0  0  # atno 8009 bound_to 7997
  155.7065  140.3471  155.4958 H   0  0  0  0  0  0  0  0  0  0  0  0  # atno 8010 bound_to 7997
  140.5703  143.2317  151.6551 H   0  0  0  0  0  0  0  0  0  0  0  0  # atno 10167 bound_to 10162
  156.9247  130.9952  151.2998 H   0  0  0  0  0  0  0  0  0  0  0  0  # atno 10718 bound_to 10713
  154.1083  135.2841  155.3236 H   0  0  0  0  0  0  0  0  0  0  0  0  # atno 10763 bound_to 10752
  154.6507  135.5370  153.7902 H   0  0  0  0  0  0  0  0  0  0  0  0  # atno 10764 bound_to 10752
  153.0354  135.6509  154.1243 H   0  0  0  0  0  0  0  0  0  0  0  0  # atno 10765 bound_to 10752
  141.1636  133.7425  156.9083 H   0  0  0  0  0  0  0  0  0  0  0  0  # atno 11005 bound_to 11000
  146.3480  139.9652  142.8712 LP  0  0  0  0  0  0  0  0  0  0  0  0  # atno 17320 bound_to 7965
  145.1942  140.9825  143.4193 LP  0  0  0  0  0  0  0  0  0  0  0  0  # atno 17321 bound_to 7965
  139.5114  144.3510  152.0652 LP  0  0  0  0  0  0  0  0  0  0  0  0  # atno 17342 bound_to 10162
  140.2647  144.4029  150.6173 LP  0  0  0  0  0  0  0  0  0  0  0  0  # atno 17343 bound_to 10162
  157.5885  130.8427  149.8624 LP  0  0  0  0  0  0  0  0  0  0  0  0  # atno 17370 bound_to 10713
  156.0474  130.3725  150.1283 LP  0  0  0  0  0  0  0  0  0  0  0  0  # atno 17371 bound_to 10713
  140.1534  134.9214  157.2622 LP  0  0  0  0  0  0  0  0  0  0  0  0  # atno 17394 bound_to 11000
  140.2695  134.3476  155.7378 LP  0  0  0  0  0  0  0  0  0  0  0  0  # atno 17395 bound_to 11000

$$$$
