AV-unprocessed.smi:862|AV-procd|sdf|3980|dock7
  -GOLD-   22720 1453D 1   1.00000     0.00000
 Structure written by MMmdl.
 45 47  0  0  0  0  0  0  0  0  3 V2000
  147.5741  141.8759  155.4308 N   0  0  0  0  0  0  0  0  0  0  0  0
  148.1516  141.0409  154.5614 C   0  0  0  0  0  0  0  0  0  0  0  0
  149.0779  141.4147  153.8441 O   0  0  0  0  0  0  0  0  0  0  0  0
  147.6733  139.7711  154.5728 N   0  0  0  0  0  0  0  0  0  0  0  0
  146.5173  139.2866  155.3451 C   0  0  0  0  0  0  0  0  0  0  0  0
  145.3269  139.0963  154.3867 C   0  0  0  0  0  0  0  0  0  0  0  0
  145.6809  138.1300  153.2362 C   0  0  0  0  0  0  0  0  0  0  0  0
  144.5657  138.0780  152.2638 N   0  3  0  0  0  0  0  0  0  0  0  0
  143.4010  137.2460  152.6483 C   0  0  2  0  0  0  0  0  0  0  0  0
  142.6391  137.7831  153.8637 C   0  0  0  0  0  0  0  0  0  0  0  0
  141.8905  136.5724  154.4331 C   0  0  0  0  0  0  0  0  0  0  0  0
  142.6487  135.3250  153.9533 C   0  0  0  0  0  0  0  0  0  0  0  0
  143.8242  135.8424  153.1067 C   0  0  1  0  0  0  0  0  0  0  0  0
  144.2074  134.9397  152.0084 N   0  0  0  0  0  0  0  0  0  0  0  0
  144.2772  133.5702  152.0601 C   0  0  0  0  0  0  0  0  0  0  0  0
  144.6720  133.1483  150.8167 C   0  0  0  0  0  0  0  0  0  0  0  0
  144.8295  134.2755  150.0570 N   0  3  0  0  0  0  0  0  0  0  0  0
  144.5486  135.3631  150.7820 C   0  0  0  0  0  0  0  0  0  0  0  0
  147.0023  138.5547  152.5558 C   0  0  0  0  0  0  0  0  0  0  0  0
  148.1167  138.7694  153.5958 C   0  0  0  0  0  0  0  0  0  0  0  0
  147.8884  142.8340  155.4859 H   0  0  0  0  0  0  0  0  0  0  0  0
  146.8369  141.5466  156.0364 H   0  0  0  0  0  0  0  0  0  0  0  0
  146.7740  138.3365  155.8157 H   0  0  0  0  0  0  0  0  0  0  0  0
  146.2273  139.9451  156.1637 H   0  0  0  0  0  0  0  0  0  0  0  0
  144.4654  138.7189  154.9389 H   0  0  0  0  0  0  0  0  0  0  0  0
  145.0343  140.0668  153.9821 H   0  0  0  0  0  0  0  0  0  0  0  0
  145.8179  137.1405  153.6755 H   0  0  0  0  0  0  0  0  0  0  0  0
  144.2247  139.0234  152.1650 H   0  0  0  0  0  0  0  0  0  0  0  0
  142.7146  137.1634  151.8039 H   0  0  0  0  0  0  0  0  0  0  0  0
  143.3406  138.1563  154.6117 H   0  0  0  0  0  0  0  0  0  0  0  0
  141.9611  138.5979  153.6078 H   0  0  0  0  0  0  0  0  0  0  0  0
  141.8280  136.6185  155.5210 H   0  0  0  0  0  0  0  0  0  0  0  0
  140.8692  136.5500  154.0506 H   0  0  0  0  0  0  0  0  0  0  0  0
  143.0043  134.7225  154.7899 H   0  0  0  0  0  0  0  0  0  0  0  0
  141.9733  134.6962  153.3725 H   0  0  0  0  0  0  0  0  0  0  0  0
  144.6903  135.9384  153.7645 H   0  0  0  0  0  0  0  0  0  0  0  0
  144.0431  133.0083  152.9532 H   0  0  0  0  0  0  0  0  0  0  0  0
  144.8464  132.1564  150.4252 H   0  0  0  0  0  0  0  0  0  0  0  0
  144.5852  136.3818  150.4381 H   0  0  0  0  0  0  0  0  0  0  0  0
  147.3252  137.8061  151.8336 H   0  0  0  0  0  0  0  0  0  0  0  0
  146.8515  139.4785  151.9949 H   0  0  0  0  0  0  0  0  0  0  0  0
  149.0446  139.0537  153.0973 H   0  0  0  0  0  0  0  0  0  0  0  0
  148.3357  137.8333  154.1114 H   0  0  0  0  0  0  0  0  0  0  0  0
  144.9213  137.7761  151.3676 H   0  0  0  0  0  0  0  0  0  0  0  0
  145.1125  134.2861  149.0848 H   0  0  0  0  0  0  0  0  0  0  0  0
  1  2  1  0  0  0  0
  1 21  1  0  0  0  0
  1 22  1  0  0  0  0
  2  3  2  0  0  0  0
  2  4  1  0  0  0  0
  4 20  1  0  0  0  0
  4  5  1  0  0  0  0
  5  6  1  0  0  0  0
  5 23  1  0  0  0  0
  5 24  1  0  0  0  0
  6  7  1  0  0  0  0
  6 25  1  0  0  0  0
  6 26  1  0  0  0  0
  7  8  1  0  0  0  0
  7 19  1  0  0  0  0
  7 27  1  0  0  0  0
  8  9  1  0  0  0  0
  8 28  1  0  0  0  0
  8 44  1  0  0  0  0
  9 13  1  0  0  0  0
  9 10  1  0  0  0  0
  9 29  1  0  0  0  0
 10 11  1  0  0  0  0
 10 30  1  0  0  0  0
 10 31  1  0  0  0  0
 11 12  1  0  0  0  0
 11 32  1  0  0  0  0
 11 33  1  0  0  0  0
 12 13  1  0  0  0  0
 12 34  1  0  0  0  0
 12 35  1  0  0  0  0
 13 14  1  0  0  0  0
 13 36  1  0  0  0  0
 14 18  1  0  0  0  0
 14 15  1  0  0  0  0
 15 16  2  0  0  0  0
 15 37  1  0  0  0  0
 16 17  1  0  0  0  0
 16 38  1  0  0  0  0
 17 18  2  0  0  0  0
 17 45  1  0  0  0  0
 18 39  1  0  0  0  0
 19 20  1  0  0  0  0
 19 40  1  0  0  0  0
 19 41  1  0  0  0  0
 20 42  1  0  0  0  0
 20 43  1  0  0  0  0
M  CHG  1   8   1
M  CHG  1  17   1
M  END
> <s_m_source_file>
AV-unprocessed.smi

> <i_m_source_file_index>
862

> <i_lp_mmshare_version>
43012

> <i_f3d_flags>
0

> <s_epik_input>
W05IMl1DKD1PKU4xW0NIMl1bQ0gyXVtDSF0oW0NIMl1bQ0gyXTEpW05IXVtDQEBIXTJbQ0gyXVtDSDJdW0NIMl1bQ0BIXTJuM1tjSF1bY0hdbltjSF0z

> <s_epik_cmdline>
J2VwaWtfcHl0aG9uJywgJy1waCcsICc3LjAnLCAnLXRuJywgJzgnLCAnLW1hJywgJzIwMCcsICctbWV0YWxfYmluZGluZycsICctaW1hZScsICc8aW5maWxlLm1hZT4nLCAnLW9tYWUnLCAnPG91dGZpbGUubWFlPic=

> <r_lp_tautomer_probability>
1

> <r_epik_Ionization_Penalty>
1.30217

> <r_epik_Ionization_Penalty_Charging>
0.00439521

> <r_epik_Ionization_Penalty_Neutral>
1.29777

> <r_epik_State_Penalty>
0.977606

> <r_epik_Charging_Adjusted_Penalty>
0.982001

> <i_epik_Tot_Q>
2

> <i_epik_Tot_abs_Q>
2

> <r_epik_Metal_State_Penalty>
1.03289

> <b_epik_Metal_Only>
0

> <s_lp_Force_Field>
OPLS_2005

> <r_lp_Energy>
65.3299

> <b_lp_Chiralities_Consistent>
1

> <s_lp_Variant>
AV-unprocessed.smi:862-5

> <Gold.Version>
5.8.1

> <Gold.Id.Protein>
6NUR|6NUR_protein|mol2

> <Gold.PLP.Fitness>
45.8700

> <Gold.PLP.PLP>
-26.8051

> <Gold.PLP.part.hbond>
-5.5772

> <Gold.PLP.part.metal>
0.0000

> <Gold.PLP.part.buried>
1.9563

> <Gold.PLP.part.nonpolar>
-23.2199

> <Gold.PLP.part.repulsive>
0.9288

> <Gold.PLP.ligand.clash>
0.0000

> <Gold.PLP.ligand.torsion>
0.7673

> <Gold.PLP.Chemscore.Hbond>
4.8493

> <Gold.PLP.Chemscore.CHOScore>
2.0000

> <Gold.PLP.Chemscore.Metal>
0.0000

> <Gold.Chemscore.Hbonds>
donor molecule, donor type, donor heavy atom, donor atom, acceptor molecule, acceptor atom, score
      L1  H     1    21       P1  8028  0.78
      L1  H     8    28       P1 10175  2.00
      L1  H     8    44       P1 10171  0.23
      L1  H    17    45       P1  7921  1.00
      P1  H  8011  8017       L1     3  0.77
      L1  C    15    37       P1 10957  0.84
      L1  C    18    39       P1 10171  1.00

> <Gold.PLP.Chemscore.Internal.Correction>
0.0515

> <Gold.Rescore>
     Score         DG    S(hbond)    S(metal)    S(lipo)     H(rot)  DE(clash)    DE(int)     intcor
     18.20     -19.47       3.81        0.00      47.66       1.68       0.60       0.68       ----

> <Gold.Chemscore.Fitness>
18.1957

> <Gold.Chemscore.DG>
-19.4705

> <Gold.Chemscore.ZeroCoef>
-5.4800

> <Gold.Chemscore.Hbond>
3.8080

> <Gold.Chemscore.Metal>
0.0000

> <Gold.Chemscore.Lipo>
47.6597

> <Gold.Chemscore.Internal_Hbond>
0.0000

> <Gold.Chemscore.DEClash>
0.5987

> <Gold.Chemscore.DEInternal>
0.6761

> <Gold.Chemscore.Rot>
1.6814

> <Gold.Chemscore.Internal.Correction>
   9.000000E+99

> <Gold.Chemscore.Hbonds>
donor molecule, donor type, donor heavy atom, donor atom, acceptor molecule, acceptor atom, score
      L1  H     1    21       P1  8028  0.62
      L1  H     8    28       P1 10175  0.95
      L1  H     8    44       P1 10171  0.22
      L1  H    17    45       P1  7921  0.98
      P1  H  8011  8017       L1     3  0.77

> <Gold.Chemscore.Hbond.Weighted>
-12.7186

> <Gold.Chemscore.Metal.Weighted>
-0.0000

> <Gold.Chemscore.Lipo.Weighted>
-5.5762

> <Gold.Chemscore.Internal_Hbond.Weighted>
0.0000

> <Gold.Chemscore.DEClash.Weighted>
0.5987

> <Gold.Chemscore.DEInternal.Weighted>
0.6761

> <Gold.Chemscore.Rot.Weighted>
4.3043

> <Gold.Chemscore.Internal.Correction.Weighted>
   9.000000E+99

> <Gold.Protein.RotatedTorsions>
[ 6907 6896 6895 6894 ] final -163.86 input  -60.11 | X-H torsion
[ 7974 7965 7964 7962 ] final   59.72 input  175.53 | X-H torsion
[ 8008 7997 7996 7995 ] final   77.61 input   59.86 | X-H torsion
[ 10167 10162 10161 10158 ] final   67.71 input  -65.29 | X-H torsion
[ 10718 10713 10712 10709 ] final  -88.54 input   66.30 | X-H torsion
[ 10763 10752 10751 10750 ] final  -55.78 input  -60.55 | X-H torsion
[ 11005 11000 10999 10996 ] final -144.60 input  -57.11 | X-H torsion

> <Gold.Protein.ActiveResidues>
 VAL166  LYS551  ARG553  GLY616  TRP617  ASP618  TYR619  PRO620  LYS621  CYS622 
 ASP623  PHE694  ASN695  SER759  ASP760  ASP761  ALA762  ILE779  LEU786  VAL792 
 PHE793  MET794  SER795  GLU796  ALA797  LYS798  CYS799  TRP800  GLU811  SER814 

> <Gold.Protein.RotatedAtoms>
  151.4027  133.3752  159.2733 H   0  0  0  0  0  0  0  0  0  0  0  0  # atno 6907 bound_to 6896
  150.9422  134.8831  159.7630 H   0  0  0  0  0  0  0  0  0  0  0  0  # atno 6908 bound_to 6896
  152.5076  134.3978  159.9458 H   0  0  0  0  0  0  0  0  0  0  0  0  # atno 6909 bound_to 6896
  145.9041  139.3603  143.0575 H   0  0  0  0  0  0  0  0  0  0  0  0  # atno 7974 bound_to 7965
  155.8440  140.3461  155.5650 H   0  0  0  0  0  0  0  0  0  0  0  0  # atno 8008 bound_to 7997
  155.8110  140.0899  157.1923 H   0  0  0  0  0  0  0  0  0  0  0  0  # atno 8009 bound_to 7997
  154.4006  140.1448  156.3374 H   0  0  0  0  0  0  0  0  0  0  0  0  # atno 8010 bound_to 7997
  140.0865  144.5025  150.7127 H   0  0  0  0  0  0  0  0  0  0  0  0  # atno 10167 bound_to 10162
  155.9983  130.4839  150.5035 H   0  0  0  0  0  0  0  0  0  0  0  0  # atno 10718 bound_to 10713
  154.1963  135.6419  153.5074 H   0  0  0  0  0  0  0  0  0  0  0  0  # atno 10763 bound_to 10752
  153.0023  135.5440  154.6362 H   0  0  0  0  0  0  0  0  0  0  0  0  # atno 10764 bound_to 10752
  154.5764  135.2921  155.0749 H   0  0  0  0  0  0  0  0  0  0  0  0  # atno 10765 bound_to 10752
  140.8008  134.2859  157.4979 H   0  0  0  0  0  0  0  0  0  0  0  0  # atno 11005 bound_to 11000
  145.8754  140.9394  143.0628 LP  0  0  0  0  0  0  0  0  0  0  0  0  # atno 17320 bound_to 7965
  144.6738  140.0710  143.7473 LP  0  0  0  0  0  0  0  0  0  0  0  0  # atno 17321 bound_to 7965
  140.7051  143.2462  151.4751 LP  0  0  0  0  0  0  0  0  0  0  0  0  # atno 17342 bound_to 10162
  139.5749  144.1842  152.1889 LP  0  0  0  0  0  0  0  0  0  0  0  0  # atno 17343 bound_to 10162
  157.3017  131.0646  151.2064 LP  0  0  0  0  0  0  0  0  0  0  0  0  # atno 17370 bound_to 10713
  157.3041  130.6857  149.6180 LP  0  0  0  0  0  0  0  0  0  0  0  0  # atno 17371 bound_to 10713
  139.8722  134.9428  156.3835 LP  0  0  0  0  0  0  0  0  0  0  0  0  # atno 17394 bound_to 11000
  140.9297  133.7588  156.0009 LP  0  0  0  0  0  0  0  0  0  0  0  0  # atno 17395 bound_to 11000

$$$$
