#       Name:                AV-unprocessed.smi:532
#       Creating user name   scv26
#       Creation time:       Thu Mar 26 23:34:14 2020


#       File generated by GOLD software.
#

@<TRIPOS>MOLECULE
AV-unprocessed.smi:532
    56    58     1
SMALL
NO_CHARGES


@<TRIPOS>ATOM
      1 ****        -2.4199   3.0352  -0.6083 C.3            1 S1                 0.0000
      2 ****        -1.7674   1.7833  -0.5033 O.3            1 S1                 0.0000
      3 ****        -2.3403   0.7948  -1.3421 C.3            1 S1                 0.0000
      4 ****        -1.6056  -0.5419  -1.1565 C.3            1 S1                 0.0000
      5 ****        -0.1767  -0.4443  -1.4461 N.pl3          1 S1                 0.0000
      6 ****         0.8501  -0.3592  -0.5619 C.2            1 S1                 0.0000
      7 ****         0.6217  -0.3552   0.8101 N.pl3          1 S1                 0.0000
      8 ****         0.4500   0.8539   1.6092 C.3            1 S1                 0.0000
      9 ****        -0.7748   0.7528   2.5384 C.3            1 S1                 0.0000
     10 ****        -0.9749   2.0432   3.3437 C.3            1 S1                 0.0000
     11 ****        -0.6333  -0.4757   3.4535 C.3            1 S1                 0.0000
     12 ****        -0.3698  -1.7420   2.6192 C.3            1 S1                 0.0000
     13 ****        -0.1527  -2.9712   3.5116 C.3            1 S1                 0.0000
     14 ****         0.8268  -1.5134   1.6743 C.3            1 S1                 0.0000
     15 ****         2.0639  -0.2962  -1.1104 N.2            1 S1                 0.0000
     16 ****         1.7856  -0.3430  -2.4693 C.2            1 S1                 0.0000
     17 ****         0.4475  -0.4389  -2.6963 C.2            1 S1                 0.0000
     18 ****        -0.1565  -0.5246  -4.0433 C.2            1 S1                 0.0000
     19 ****        -1.3740  -0.6165  -4.1877 O.2            1 S1                 0.0000
     20 ****         0.7886  -0.4920  -5.0356 N.pl3          1 S1                -1.0000
     21 ****         2.1518  -0.3950  -4.8534 C.2            1 S1                 0.0000
     22 ****         2.9349  -0.3775  -5.8039 O.2            1 S1                 0.0000
     23 ****         2.6659  -0.3164  -3.5854 N.am           1 S1                 0.0000
     24 ****         4.1105  -0.2111  -3.3618 C.3            1 S1                 0.0000
     25 ****        -1.9338   3.7551   0.0501 H              1 S1                 0.0000
     26 ****        -3.4665   2.9594  -0.3110 H              1 S1                 0.0000
     27 ****        -2.3710   3.4221  -1.6269 H              1 S1                 0.0000
     28 ****        -3.3958   0.6663  -1.0988 H              1 S1                 0.0000
     29 ****        -2.2852   1.1198  -2.3816 H              1 S1                 0.0000
     30 ****        -1.7479  -0.9005  -0.1381 H              1 S1                 0.0000
     31 ****        -2.0420  -1.3081  -1.7968 H              1 S1                 0.0000
     32 ****         1.3557   1.0246   2.1927 H              1 S1                 0.0000
     33 ****         0.3480   1.7117   0.9441 H              1 S1                 0.0000
     34 ****        -1.6620   0.6117   1.9197 H              1 S1                 0.0000
     35 ****        -0.1151   2.2506   3.9815 H              1 S1                 0.0000
     36 ****        -1.8560   1.9750   3.9823 H              1 S1                 0.0000
     37 ****        -1.1130   2.8984   2.6818 H              1 S1                 0.0000
     38 ****         0.1888  -0.3192   4.1536 H              1 S1                 0.0000
     39 ****        -1.5351  -0.6024   4.0537 H              1 S1                 0.0000
     40 ****        -1.2521  -1.9335   2.0067 H              1 S1                 0.0000
     41 ****         0.7227  -2.8480   4.1499 H              1 S1                 0.0000
     42 ****        -0.0035  -3.8693   2.9116 H              1 S1                 0.0000
     43 ****        -1.0146  -3.1447   4.1563 H              1 S1                 0.0000
     44 ****         0.9809  -2.3962   1.0524 H              1 S1                 0.0000
     45 ****         1.7441  -1.3720   2.2474 H              1 S1                 0.0000
     46 ****         4.5177   0.6582  -3.8804 H              1 S1                 0.0000
     47 ****         4.6186  -1.1009  -3.7361 H              1 S1                 0.0000
     48 ****         4.3662  -0.1074  -2.3076 H              1 S1                 0.0000
     49 ****        -1.8256   1.4709   0.4448 LP             1 S1                 0.0000
     50 ****        -0.8073   1.9008  -0.7572 LP             1 S1                 0.0000
     51 ****         2.9524  -0.2314  -0.6562 LP             1 S1                 0.0000
     52 ****        -1.9726  -0.6343  -3.3868 LP             1 S1                 0.0000
     53 ****        -1.7657  -0.6735  -5.1061 LP             1 S1                 0.0000
     54 ****         0.4590  -0.5433  -5.9784 LP             1 S1                 0.0000
     55 ****         2.5868  -0.4345  -6.7397 LP             1 S1                 0.0000
     56 ****         3.9188  -0.3063  -5.6399 LP             1 S1                 0.0000
@<TRIPOS>BOND
    1    1    2 1     
    2    1   25 1     
    3    1   26 1     
    4    1   27 1     
    5    2    3 1     
    6    3    4 1     
    7    3   28 1     
    8    3   29 1     
    9    4    5 1     
   10    4   30 1     
   11    4   31 1     
   12    5   17 1     
   13    5    6 1     
   14    6    7 1     
   15    6   15 2     
   16    7   14 1     
   17    7    8 1     
   18    8    9 1     
   19    8   32 1     
   20    8   33 1     
   21    9   10 1     
   22    9   11 1     
   23    9   34 1     
   24   10   35 1     
   25   10   36 1     
   26   10   37 1     
   27   11   12 1     
   28   11   38 1     
   29   11   39 1     
   30   12   13 1     
   31   12   14 1     
   32   12   40 1     
   33   13   41 1     
   34   13   42 1     
   35   13   43 1     
   36   14   44 1     
   37   14   45 1     
   38   15   16 1     
   39   16   23 1     
   40   16   17 2     
   41   17   18 1     
   42   18   19 2     
   43   18   20 1     
   44   20   21 1     
   45   21   22 2     
   46   21   23 am    
   47   23   24 1     
   48   24   46 1     
   49   24   47 1     
   50   24   48 1     
   51    2   49 1     
   52    2   50 1     
   53   15   51 1     
   54   19   52 1     
   55   19   53 1     
   56   20   54 1     
   57   22   55 1     
   58   22   56 1     
@<TRIPOS>SUBSTRUCTURE
      1 S1             1
@<TRIPOS>SET
LONE_PAIRS      STATIC     ATOMS    <user>   **** ""
8 49 50 51 52 53 54 55 56
ATOM$BLUE        STATIC     ATOMS    COLORGROUP SYSTEM
8 49 50 51 52 53 54 55 56
