AV-unprocessed.smi:970|AV-procd|sdf|4292|dock5
  -GOLD-   22720 2193D 1   1.00000     0.00000
 Structure written by MMmdl.
 31 31  0  0  0  0  0  0  0  0  1 V2000
  151.8333  145.3851  160.1579 C   0  0  0  0  0  0  0  0  0  0  0  0
  152.5037  144.1544  159.7683 N   0  0  0  0  0  0  0  0  0  0  0  0
  151.8757  142.9909  159.5469 C   0  0  0  0  0  0  0  0  0  0  0  0
  150.6569  142.8510  159.6655 O   0  0  0  0  0  0  0  0  0  0  0  0
  152.7662  141.8031  159.1454 C   0  0  1  0  0  0  0  0  0  0  0  0
  153.7810  141.5655  160.2759 C   0  0  0  0  0  0  0  0  0  0  0  0
  151.9609  140.5923  158.9995 N   0  0  0  0  0  0  0  0  0  0  0  0
  151.9940  139.7599  157.9459 C   0  0  0  0  0  0  0  0  0  0  0  0
  152.7661  139.9071  156.9976 O   0  0  0  0  0  0  0  0  0  0  0  0
  150.9917  138.5959  157.9725 C   0  0  2  0  0  0  0  0  0  0  0  0
  151.1214  137.7231  159.2376 C   0  0  0  0  0  0  0  0  0  0  0  0
  151.1052  137.8149  156.7464 N   0  0  0  0  0  0  0  0  0  0  0  0
  151.3021  136.5051  156.5800 C   0  0  0  0  0  0  0  0  0  0  0  0
  151.2992  136.1157  155.3130 N   0  0  0  0  0  0  0  0  0  0  0  0
  151.0635  137.3166  154.7067 C   0  0  0  0  0  0  0  0  0  0  0  0
  150.9296  138.3649  155.5189 N   0  0  0  0  0  0  0  0  0  0  0  0
  152.5634  146.1867  160.2707 H   0  0  0  0  0  0  0  0  0  0  0  0
  151.3137  145.2600  161.1089 H   0  0  0  0  0  0  0  0  0  0  0  0
  151.1082  145.6884  159.4015 H   0  0  0  0  0  0  0  0  0  0  0  0
  153.5062  144.1897  159.6527 H   0  0  0  0  0  0  0  0  0  0  0  0
  153.2949  142.0200  158.2149 H   0  0  0  0  0  0  0  0  0  0  0  0
  154.4126  142.4410  160.4318 H   0  0  0  0  0  0  0  0  0  0  0  0
  154.4402  140.7305  160.0368 H   0  0  0  0  0  0  0  0  0  0  0  0
  153.2900  141.3361  161.2231 H   0  0  0  0  0  0  0  0  0  0  0  0
  151.2943  140.4016  159.7331 H   0  0  0  0  0  0  0  0  0  0  0  0
  149.9905  139.0299  157.9827 H   0  0  0  0  0  0  0  0  0  0  0  0
  150.9740  138.3166  160.1404 H   0  0  0  0  0  0  0  0  0  0  0  0
  152.1008  137.2487  159.3113 H   0  0  0  0  0  0  0  0  0  0  0  0
  150.3710  136.9321  159.2418 H   0  0  0  0  0  0  0  0  0  0  0  0
  151.4452  135.8209  157.4035 H   0  0  0  0  0  0  0  0  0  0  0  0
  150.9833  137.4208  153.6347 H   0  0  0  0  0  0  0  0  0  0  0  0
  1  2  1  0  0  0  0
  1 17  1  0  0  0  0
  1 18  1  0  0  0  0
  1 19  1  0  0  0  0
  2  3  1  0  0  0  0
  2 20  1  0  0  0  0
  3  4  2  0  0  0  0
  3  5  1  0  0  0  0
  5  6  1  0  0  0  0
  5  7  1  0  0  0  0
  5 21  1  0  0  0  0
  6 22  1  0  0  0  0
  6 23  1  0  0  0  0
  6 24  1  0  0  0  0
  7  8  1  0  0  0  0
  7 25  1  0  0  0  0
  8  9  2  0  0  0  0
  8 10  1  0  0  0  0
 10 11  1  0  0  0  0
 10 12  1  0  0  0  0
 10 26  1  0  0  0  0
 11 27  1  0  0  0  0
 11 28  1  0  0  0  0
 11 29  1  0  0  0  0
 12 16  1  0  0  0  0
 12 13  1  0  0  0  0
 13 14  2  0  0  0  0
 13 30  1  0  0  0  0
 14 15  1  0  0  0  0
 15 16  2  0  0  0  0
 15 31  1  0  0  0  0
M  END
> <s_m_source_file>
AV-unprocessed.smi

> <i_m_source_file_index>
970

> <i_lp_mmshare_version>
43012

> <i_f3d_flags>
0

> <s_epik_input>
W0NIM11bTkhdQyg9TylbQ0BIXShbQ0gzXSlbTkhdQyg9TylbQ0BIXShbQ0gzXSluMVtjSF1uW2NIXW4x

> <s_epik_cmdline>
J2VwaWtfcHl0aG9uJywgJy1waCcsICc3LjAnLCAnLXRuJywgJzgnLCAnLW1hJywgJzIwMCcsICctbWV0YWxfYmluZGluZycsICctaW1hZScsICc8aW5maWxlLm1hZT4nLCAnLW9tYWUnLCAnPG91dGZpbGUubWFlPic=

> <r_lp_tautomer_probability>
1

> <r_epik_Ionization_Penalty>
1.07271e-05

> <r_epik_Ionization_Penalty_Charging>
0

> <r_epik_Ionization_Penalty_Neutral>
1.07271e-05

> <r_epik_State_Penalty>
-0

> <r_epik_Charging_Adjusted_Penalty>
0

> <i_epik_Tot_Q>
0

> <i_epik_Tot_abs_Q>
0

> <r_epik_Metal_State_Penalty>
-0

> <b_epik_Metal_Only>
0

> <s_lp_Force_Field>
OPLS_2005

> <r_lp_Energy>
8.21171

> <b_lp_Chiralities_Consistent>
1

> <s_lp_Variant>
AV-unprocessed.smi:970-2

> <Gold.Version>
5.8.1

> <Gold.Id.Protein>
6NUR|6NUR_protein|mol2

> <Gold.PLP.Fitness>
36.0287

> <Gold.PLP.PLP>
-27.1251

> <Gold.PLP.part.hbond>
-3.0000

> <Gold.PLP.part.metal>
0.0000

> <Gold.PLP.part.buried>
-4.1441

> <Gold.PLP.part.nonpolar>
-19.8372

> <Gold.PLP.part.repulsive>
0.3519

> <Gold.PLP.ligand.clash>
0.0000

> <Gold.PLP.ligand.torsion>
0.1447

> <Gold.PLP.Chemscore.Hbond>
2.0000

> <Gold.PLP.Chemscore.CHOScore>
1.0245

> <Gold.PLP.Chemscore.Metal>
0.0000

> <Gold.Chemscore.Hbonds>
donor molecule, donor type, donor heavy atom, donor atom, acceptor molecule, acceptor atom, score
      P1  H  7997  8008       L1     9  1.00
      P1  H 10752 10764       L1    14  1.00
      L1  C    15    31       P1  7948  0.04
      L1  C    15    31       P1  7949  0.86

> <Gold.PLP.Chemscore.Internal.Correction>
0.1196

> <Gold.Rescore>
     Score         DG    S(hbond)    S(metal)    S(lipo)     H(rot)  DE(clash)    DE(int)     intcor
      8.21      -9.79       1.89        0.00      39.51       2.59       0.06       1.52       ----

> <Gold.Chemscore.Fitness>
8.2070

> <Gold.Chemscore.DG>
-9.7868

> <Gold.Chemscore.ZeroCoef>
-5.4800

> <Gold.Chemscore.Hbond>
1.8871

> <Gold.Chemscore.Metal>
0.0000

> <Gold.Chemscore.Lipo>
39.5057

> <Gold.Chemscore.Internal_Hbond>
0.0000

> <Gold.Chemscore.DEClash>
0.0550

> <Gold.Chemscore.DEInternal>
1.5247

> <Gold.Chemscore.Rot>
2.5852

> <Gold.Chemscore.Internal.Correction>
   9.000000E+99

> <Gold.Chemscore.Hbonds>
donor molecule, donor type, donor heavy atom, donor atom, acceptor molecule, acceptor atom, score
      P1  H  7997  8008       L1     9  0.95
      P1  H 10752 10764       L1    14  0.49

> <Gold.Chemscore.Hbond.Weighted>
-6.3028

> <Gold.Chemscore.Metal.Weighted>
-0.0000

> <Gold.Chemscore.Lipo.Weighted>
-4.6222

> <Gold.Chemscore.Internal_Hbond.Weighted>
0.0000

> <Gold.Chemscore.DEClash.Weighted>
0.0550

> <Gold.Chemscore.DEInternal.Weighted>
1.5247

> <Gold.Chemscore.Rot.Weighted>
6.6182

> <Gold.Chemscore.Internal.Correction.Weighted>
   9.000000E+99

> <Gold.Protein.RotatedTorsions>
[ 6907 6896 6895 6894 ] final  -50.17 input  -60.11 | X-H torsion
[ 7974 7965 7964 7962 ] final   68.83 input  175.53 | X-H torsion
[ 8008 7997 7996 7995 ] final  -42.69 input   59.86 | X-H torsion
[ 10167 10162 10161 10158 ] final -138.24 input  -65.29 | X-H torsion
[ 10718 10713 10712 10709 ] final  167.70 input   66.30 | X-H torsion
[ 10763 10752 10751 10750 ] final  -45.66 input  -60.55 | X-H torsion
[ 11005 11000 10999 10996 ] final   16.31 input  -57.11 | X-H torsion

> <Gold.Protein.ActiveResidues>
 VAL166  LYS551  ARG553  GLY616  TRP617  ASP618  TYR619  PRO620  LYS621  CYS622 
 ASP623  PHE694  ASN695  SER759  ASP760  ASP761  ALA762  ILE779  LEU786  VAL792 
 PHE793  MET794  SER795  GLU796  ALA797  LYS798  CYS799  TRP800  GLU811  SER814 

> <Gold.Protein.RotatedAtoms>
  150.8734  134.8112  159.7171 H   0  0  0  0  0  0  0  0  0  0  0  0  # atno 6907 bound_to 6896
  152.4730  134.4911  159.9705 H   0  0  0  0  0  0  0  0  0  0  0  0  # atno 6908 bound_to 6896
  151.4996  133.3468  159.2902 H   0  0  0  0  0  0  0  0  0  0  0  0  # atno 6909 bound_to 6896
  145.7978  139.2966  143.1173 H   0  0  0  0  0  0  0  0  0  0  0  0  # atno 7974 bound_to 7965
  154.3998  140.1467  156.3396 H   0  0  0  0  0  0  0  0  0  0  0  0  # atno 8008 bound_to 7997
  155.8369  140.3463  155.5586 H   0  0  0  0  0  0  0  0  0  0  0  0  # atno 8009 bound_to 7997
  155.8129  140.0886  157.1884 H   0  0  0  0  0  0  0  0  0  0  0  0  # atno 8010 bound_to 7997
  139.8498  143.7213  152.2658 H   0  0  0  0  0  0  0  0  0  0  0  0  # atno 10167 bound_to 10162
  157.0477  131.0304  151.2691 H   0  0  0  0  0  0  0  0  0  0  0  0  # atno 10718 bound_to 10713
  154.0322  135.6655  153.4782 H   0  0  0  0  0  0  0  0  0  0  0  0  # atno 10763 bound_to 10752
  153.0536  135.5070  154.7922 H   0  0  0  0  0  0  0  0  0  0  0  0  # atno 10764 bound_to 10752
  154.6871  135.3055  154.9497 H   0  0  0  0  0  0  0  0  0  0  0  0  # atno 10765 bound_to 10752
  140.4485  134.1249  155.7699 H   0  0  0  0  0  0  0  0  0  0  0  0  # atno 11005 bound_to 11000
  145.9910  140.8603  143.0066 LP  0  0  0  0  0  0  0  0  0  0  0  0  # atno 17320 bound_to 7965
  144.6773  140.2215  143.7366 LP  0  0  0  0  0  0  0  0  0  0  0  0  # atno 17321 bound_to 7965
  139.7476  144.7543  151.0555 LP  0  0  0  0  0  0  0  0  0  0  0  0  # atno 17342 bound_to 10162
  140.7789  143.4898  150.9909 LP  0  0  0  0  0  0  0  0  0  0  0  0  # atno 17343 bound_to 10162
  157.5055  130.7906  149.7649 LP  0  0  0  0  0  0  0  0  0  0  0  0  # atno 17370 bound_to 10713
  156.0017  130.3876  150.2579 LP  0  0  0  0  0  0  0  0  0  0  0  0  # atno 17371 bound_to 10713
  141.1674  133.8675  157.1672 LP  0  0  0  0  0  0  0  0  0  0  0  0  # atno 17394 bound_to 11000
  140.0022  135.0023  157.0216 LP  0  0  0  0  0  0  0  0  0  0  0  0  # atno 17395 bound_to 11000

$$$$
