#       Name:                AV-unprocessed.smi:2888
#       Creating user name   scv26
#       Creation time:       Fri Mar 27 15:57:13 2020


#       File generated by GOLD software.
#

@<TRIPOS>MOLECULE
AV-unprocessed.smi:2888
    37    39     1
SMALL
NO_CHARGES


@<TRIPOS>ATOM
      1 ****        -3.5360  -1.6278   0.0600 C.3            1 S1                 0.0000
      2 ****        -2.8094  -0.3052  -0.0609 C.ar           1 S1                 0.0000
      3 ****        -3.4954   0.9208  -0.0199 C.ar           1 S1                 0.0000
      4 ****        -2.7149   2.0861  -0.1459 C.ar           1 S1                 0.0000
      5 ****        -3.3268   3.4706  -0.1146 C.3            1 S1                 0.0000
      6 ****        -1.3698   1.9909  -0.2975 N.pl3          1 S1                 1.0000
      7 ****        -0.7807   0.7854  -0.3234 C.ar           1 S1                 0.0000
      8 ****         0.5941   0.7487  -0.4712 N.pl3          1 S1                 0.0000
      9 ****         1.4368   1.9314  -0.5997 C.3            1 S1                 0.0000
     10 ****         1.3028   2.6171  -1.9656 C.3            1 S1                 0.0000
     11 ****         2.7538   2.6192  -2.4627 C.3            1 S1                 0.0000
     12 ****         3.6434   3.5751  -1.6567 C.3            1 S1                 0.0000
     13 ****         3.7937   2.8223  -0.3350 C.3            1 S1                 0.0000
     14 ****         2.9326   1.5757  -0.5807 C.3            1 S1                 0.0000
     15 ****         3.1894   1.3685  -1.9603 O.3            1 S1                 0.0000
     16 ****        -1.4706  -0.3590  -0.2094 N.ar           1 S1                 0.0000
     17 ****        -4.6158  -1.4819   0.1029 H              1 S1                 0.0000
     18 ****        -3.2263  -2.1491   0.9663 H              1 S1                 0.0000
     19 ****        -3.3132  -2.2646  -0.7968 H              1 S1                 0.0000
     20 ****        -4.5681   0.9671   0.1026 H              1 S1                 0.0000
     21 ****        -4.4160   3.4191  -0.1023 H              1 S1                 0.0000
     22 ****        -3.0240   4.0424  -0.9922 H              1 S1                 0.0000
     23 ****        -3.0008   4.0075   0.7766 H              1 S1                 0.0000
     24 ****         1.0202  -0.1523  -0.6320 H              1 S1                 0.0000
     25 ****         1.2070   2.6188   0.2157 H              1 S1                 0.0000
     26 ****         0.6740   2.0416  -2.6469 H              1 S1                 0.0000
     27 ****         0.8873   3.6224  -1.8917 H              1 S1                 0.0000
     28 ****         2.8510   2.7283  -3.5432 H              1 S1                 0.0000
     29 ****         4.6142   3.7023  -2.1372 H              1 S1                 0.0000
     30 ****         3.1896   4.5594  -1.5361 H              1 S1                 0.0000
     31 ****         4.8357   2.5447  -0.1707 H              1 S1                 0.0000
     32 ****         3.4554   3.4017   0.5247 H              1 S1                 0.0000
     33 ****         3.1915   0.7341   0.0632 H              1 S1                 0.0000
     34 ****        -0.8163   2.8433  -0.3862 H              1 S1                 0.0000
     35 ****         4.1602   1.2105  -2.1405 LP             1 S1                 0.0000
     36 ****         2.6538   0.6095  -2.3306 LP             1 S1                 0.0000
     37 ****        -0.9984  -1.2402  -0.2342 LP             1 S1                 0.0000
@<TRIPOS>BOND
    1    1    2 1     
    2    1   17 1     
    3    1   18 1     
    4    1   19 1     
    5    2   16 ar    
    6    2    3 ar    
    7    3    4 ar    
    8    3   20 1     
    9    4    5 1     
   10    4    6 ar    
   11    5   21 1     
   12    5   22 1     
   13    5   23 1     
   14    6    7 ar    
   15    6   34 1     
   16    7    8 1     
   17    7   16 ar    
   18    8    9 1     
   19    8   24 1     
   20    9   14 1     
   21    9   10 1     
   22    9   25 1     
   23   10   11 1     
   24   10   26 1     
   25   10   27 1     
   26   11   15 1     
   27   11   12 1     
   28   11   28 1     
   29   12   13 1     
   30   12   29 1     
   31   12   30 1     
   32   13   14 1     
   33   13   31 1     
   34   13   32 1     
   35   14   15 1     
   36   14   33 1     
   37   15   35 1     
   38   15   36 1     
   39   16   37 1     
@<TRIPOS>SUBSTRUCTURE
      1 S1             1
@<TRIPOS>SET
LONE_PAIRS      STATIC     ATOMS    <user>   **** ""
3 35 36 37
DONOR_HYDROGENS      STATIC     ATOMS    <user>   **** ""
2 34 24
ATOM$BLUE        STATIC     ATOMS    COLORGROUP SYSTEM
3 35 36 37
ATOM$RED        STATIC     ATOMS    COLORGROUP SYSTEM
2 34 24
