#       Name:                AV-unprocessed.smi:3261
#       Creating user name   scv26
#       Creation time:       Fri Mar 27 18:38:17 2020


#       File generated by GOLD software.
#

@<TRIPOS>MOLECULE
AV-unprocessed.smi:3261
    33    34     1
SMALL
NO_CHARGES


@<TRIPOS>ATOM
      1 ****         0.4849   2.3123   0.3568 O.2            1 S1                 0.0000
      2 ****         0.0574   1.1600   0.3088 C.2            1 S1                 0.0000
      3 ****         0.9272   0.1314   0.4642 N.am           1 S1                 0.0000
      4 ****         2.3381   0.1710   0.6276 C.ar           1 S1                 0.0000
      5 ****         2.9456  -0.8733   1.3590 C.ar           1 S1                 0.0000
      6 ****         4.3453  -0.8805   1.5262 C.ar           1 S1                 0.0000
      7 ****         5.0936   0.0999   0.9758 N.pl3          1 S1                 1.0000
      8 ****         4.5595   1.1069   0.2515 C.ar           1 S1                 0.0000
      9 ****         3.1656   1.1669   0.0508 C.ar           1 S1                 0.0000
     10 ****        -1.2738   0.9042   0.1256 N.pl3          1 S1                -1.0000
     11 ****        -1.9747  -0.3905   0.0561 C.3            1 S1                 0.0000
     12 ****        -3.4321  -0.2043   0.5332 C.3            1 S1                 0.0000
     13 ****        -4.2735   0.3878  -0.6056 C.3            1 S1                 0.0000
     14 ****        -3.5949  -0.3465  -2.1382 S.o2           1 S1                 0.0000
     15 ****        -4.3874  -1.5332  -2.4971 O.2            1 S1                 0.0000
     16 ****        -3.3497   0.7192  -3.1224 O.2            1 S1                 0.0000
     17 ****        -2.0046  -0.8991  -1.4000 C.3            1 S1                 0.0000
     18 ****         0.5052  -0.7827   0.5368 H              1 S1                 0.0000
     19 ****         2.3450  -1.6580   1.7961 H              1 S1                 0.0000
     20 ****         4.8846  -1.6367   2.0775 H              1 S1                 0.0000
     21 ****         5.2582   1.8265  -0.1493 H              1 S1                 0.0000
     22 ****         2.7548   1.9654  -0.5488 H              1 S1                 0.0000
     23 ****        -1.4880  -1.1348   0.6885 H              1 S1                 0.0000
     24 ****        -3.8381  -1.1851   0.7836 H              1 S1                 0.0000
     25 ****        -3.4995   0.3982   1.4402 H              1 S1                 0.0000
     26 ****        -5.3357   0.1619  -0.5158 H              1 S1                 0.0000
     27 ****        -4.1517   1.4709  -0.6628 H              1 S1                 0.0000
     28 ****        -1.1700  -0.5455  -2.0062 H              1 S1                 0.0000
     29 ****        -1.9959  -1.9887  -1.4205 H              1 S1                 0.0000
     30 ****         6.1050   0.0756   1.1074 H              1 S1                 0.0000
     31 ****         1.4593   2.4782   0.5084 LP             1 S1                 0.0000
     32 ****        -0.1420   3.0833   0.2443 LP             1 S1                 0.0000
     33 ****        -1.8550   1.7117   0.0243 LP             1 S1                 0.0000
@<TRIPOS>BOND
    1    1    2 2     
    2    2    3 am    
    3    2   10 1     
    4    3    4 1     
    5    3   18 1     
    6    4    9 ar    
    7    4    5 ar    
    8    5    6 ar    
    9    5   19 1     
   10    6    7 ar    
   11    6   20 1     
   12    7    8 ar    
   13    7   30 1     
   14    8    9 ar    
   15    8   21 1     
   16    9   22 1     
   17   10   11 1     
   18   11   17 1     
   19   11   12 1     
   20   11   23 1     
   21   12   13 1     
   22   12   24 1     
   23   12   25 1     
   24   13   14 1     
   25   13   26 1     
   26   13   27 1     
   27   14   15 2     
   28   14   16 2     
   29   14   17 1     
   30   17   28 1     
   31   17   29 1     
   32    1   31 1     
   33    1   32 1     
   34   10   33 1     
@<TRIPOS>SUBSTRUCTURE
      1 S1             1
@<TRIPOS>SET
LONE_PAIRS      STATIC     ATOMS    <user>   **** ""
5 31 32 33 15 16
DONOR_HYDROGENS      STATIC     ATOMS    <user>   **** ""
2 18 30
ATOM$BLUE        STATIC     ATOMS    COLORGROUP SYSTEM
5 31 32 33 15 16
ATOM$RED        STATIC     ATOMS    COLORGROUP SYSTEM
2 18 30
