AV-unprocessed.smi:1093|AV-procd|sdf|4743|dock6
  -GOLD-   22720 3273D 1   1.00000     0.00000
 Structure written by MMmdl.
 47 48  0  0  0  0  0  0  0  0  2 V2000
  144.1781  133.9771  150.8496 C   0  0  0  0  0  0  0  0  0  0  0  0
  145.3472  134.9726  150.8397 C   0  0  0  0  0  0  0  0  0  0  0  0
  146.3675  134.6543  151.8693 N   0  3  2  0  0  0  0  0  0  0  0  0
  147.0096  133.3329  151.6444 C   0  0  0  0  0  0  0  0  0  0  0  0
  148.1662  133.0998  152.6327 C   0  0  0  0  0  0  0  0  0  0  0  0
  147.7041  133.2689  154.0904 C   0  0  0  0  0  0  0  0  0  0  0  0
  146.9972  134.6215  154.2908 C   0  0  1  0  0  0  0  0  0  0  0  0
  147.9694  135.7108  154.1859 N   0  0  0  0  0  0  0  0  0  0  0  0
  148.2601  136.5895  155.1559 C   0  0  0  0  0  0  0  0  0  0  0  0
  147.7330  136.5689  156.2674 O   0  0  0  0  0  0  0  0  0  0  0  0
  149.1949  137.4664  154.7522 N   0  0  0  0  0  0  0  0  0  0  0  0
  149.7145  138.5927  155.4461 C   0  0  0  0  0  0  0  0  0  0  0  0
  150.1908  139.7688  154.8222 C   0  0  0  0  0  0  0  0  0  0  0  0
  150.7063  140.8068  155.6219 C   0  0  0  0  0  0  0  0  0  0  0  0
  150.7424  140.6483  157.0295 C   0  0  0  0  0  0  0  0  0  0  0  0
  151.2526  141.6614  157.8734 N   0  0  0  0  0  0  0  0  0  0  0  0
  151.7572  141.3173  159.1990 C   0  0  0  0  0  0  0  0  0  0  0  0
  151.2842  143.0465  157.4205 C   0  0  0  0  0  0  0  0  0  0  0  0
  150.2930  139.5140  157.6199 N   0  0  0  0  0  0  0  0  0  0  0  0
  149.8002  138.5218  156.8502 C   0  0  0  0  0  0  0  0  0  0  0  0
  145.8548  134.7683  153.2605 C   0  0  0  0  0  0  0  0  0  0  0  0
  143.4041  134.2890  150.1480 H   0  0  0  0  0  0  0  0  0  0  0  0
  143.7211  133.9157  151.8377 H   0  0  0  0  0  0  0  0  0  0  0  0
  144.4886  132.9737  150.5606 H   0  0  0  0  0  0  0  0  0  0  0  0
  145.8097  135.0175  149.8527 H   0  0  0  0  0  0  0  0  0  0  0  0
  144.9376  135.9646  151.0338 H   0  0  0  0  0  0  0  0  0  0  0  0
  146.2629  132.5435  151.7446 H   0  0  0  0  0  0  0  0  0  0  0  0
  147.3952  133.2768  150.6257 H   0  0  0  0  0  0  0  0  0  0  0  0
  148.5811  132.1017  152.4889 H   0  0  0  0  0  0  0  0  0  0  0  0
  148.9749  133.7992  152.4178 H   0  0  0  0  0  0  0  0  0  0  0  0
  147.0163  132.4613  154.3448 H   0  0  0  0  0  0  0  0  0  0  0  0
  148.5516  133.1736  154.7704 H   0  0  0  0  0  0  0  0  0  0  0  0
  146.5742  134.6428  155.2968 H   0  0  0  0  0  0  0  0  0  0  0  0
  148.4658  135.7933  153.3106 H   0  0  0  0  0  0  0  0  0  0  0  0
  149.6033  137.2956  153.8449 H   0  0  0  0  0  0  0  0  0  0  0  0
  150.1879  139.8937  153.7510 H   0  0  0  0  0  0  0  0  0  0  0  0
  151.0681  141.7009  155.1372 H   0  0  0  0  0  0  0  0  0  0  0  0
  152.5810  140.6069  159.1228 H   0  0  0  0  0  0  0  0  0  0  0  0
  150.9684  140.8699  159.8047 H   0  0  0  0  0  0  0  0  0  0  0  0
  152.1245  142.1973  159.7269 H   0  0  0  0  0  0  0  0  0  0  0  0
  151.9034  143.1439  156.5281 H   0  0  0  0  0  0  0  0  0  0  0  0
  151.6971  143.7050  158.1848 H   0  0  0  0  0  0  0  0  0  0  0  0
  150.2781  143.3974  157.1889 H   0  0  0  0  0  0  0  0  0  0  0  0
  149.4621  137.6411  157.3765 H   0  0  0  0  0  0  0  0  0  0  0  0
  145.3493  135.7220  153.4048 H   0  0  0  0  0  0  0  0  0  0  0  0
  145.0999  133.9989  153.4307 H   0  0  0  0  0  0  0  0  0  0  0  0
  147.0977  135.3448  151.7679 H   0  0  0  0  0  0  0  0  0  0  0  0
  1  2  1  0  0  0  0
  1 22  1  0  0  0  0
  1 23  1  0  0  0  0
  1 24  1  0  0  0  0
  2  3  1  0  0  0  0
  2 25  1  0  0  0  0
  2 26  1  0  0  0  0
  3 21  1  0  0  0  0
  3  4  1  0  0  0  0
  3 47  1  0  0  0  0
  4  5  1  0  0  0  0
  4 27  1  0  0  0  0
  4 28  1  0  0  0  0
  5  6  1  0  0  0  0
  5 29  1  0  0  0  0
  5 30  1  0  0  0  0
  6  7  1  0  0  0  0
  6 31  1  0  0  0  0
  6 32  1  0  0  0  0
  7  8  1  0  0  0  0
  7 21  1  0  0  0  0
  7 33  1  0  0  0  0
  8  9  1  0  0  0  0
  8 34  1  0  0  0  0
  9 10  2  0  0  0  0
  9 11  1  0  0  0  0
 11 12  1  0  0  0  0
 11 35  1  0  0  0  0
 12 20  1  0  0  0  0
 12 13  2  0  0  0  0
 13 14  1  0  0  0  0
 13 36  1  0  0  0  0
 14 15  2  0  0  0  0
 14 37  1  0  0  0  0
 15 16  1  0  0  0  0
 15 19  1  0  0  0  0
 16 17  1  0  0  0  0
 16 18  1  0  0  0  0
 17 38  1  0  0  0  0
 17 39  1  0  0  0  0
 17 40  1  0  0  0  0
 18 41  1  0  0  0  0
 18 42  1  0  0  0  0
 18 43  1  0  0  0  0
 19 20  2  0  0  0  0
 20 44  1  0  0  0  0
 21 45  1  0  0  0  0
 21 46  1  0  0  0  0
M  CHG  1   3   1
M  END
> <s_m_source_file>
AV-unprocessed.smi

> <i_m_source_file_index>
1093

> <i_lp_mmshare_version>
43012

> <i_f3d_flags>
0

> <s_epik_input>
W0NIM11bQ0gyXU4xW0NIMl1bQ0gyXVtDSDJdW0NASF0oW0NIMl0xKVtOSF1DKD1PKVtOSF1jMltjSF1bY0hdYyhOKFtDSDNdKVtDSDNdKW5bY0hdMg==

> <s_epik_cmdline>
J2VwaWtfcHl0aG9uJywgJy1waCcsICc3LjAnLCAnLXRuJywgJzgnLCAnLW1hJywgJzIwMCcsICctbWV0YWxfYmluZGluZycsICctaW1hZScsICc8aW5maWxlLm1hZT4nLCAnLW9tYWUnLCAnPG91dGZpbGUubWFlPic=

> <r_lp_tautomer_probability>
1

> <r_epik_Ionization_Penalty>
0.489418

> <r_epik_Ionization_Penalty_Charging>
0.00268196

> <r_epik_Ionization_Penalty_Neutral>
0.486736

> <r_epik_State_Penalty>
0.491157

> <r_epik_Charging_Adjusted_Penalty>
0.493839

> <i_epik_Tot_Q>
1

> <i_epik_Tot_abs_Q>
1

> <r_epik_Metal_State_Penalty>
0.266953

> <b_epik_Metal_Only>
0

> <s_lp_Force_Field>
OPLS_2005

> <r_lp_Energy>
27.714

> <b_lp_Chiralities_Consistent>
1

> <s_lp_Variant>
AV-unprocessed.smi:1093-6

> <Gold.Version>
5.8.1

> <Gold.Id.Protein>
6NUR|6NUR_protein|mol2

> <Gold.PLP.Fitness>
40.2754

> <Gold.PLP.PLP>
-31.3508

> <Gold.PLP.part.hbond>
-2.7530

> <Gold.PLP.part.metal>
0.0000

> <Gold.PLP.part.buried>
-2.4031

> <Gold.PLP.part.nonpolar>
-25.6821

> <Gold.PLP.part.repulsive>
0.0561

> <Gold.PLP.ligand.clash>
0.0000

> <Gold.PLP.ligand.torsion>
0.4424

> <Gold.PLP.Chemscore.Hbond>
3.2631

> <Gold.PLP.Chemscore.CHOScore>
0.0000

> <Gold.PLP.Chemscore.Metal>
0.0000

> <Gold.Chemscore.Hbonds>
donor molecule, donor type, donor heavy atom, donor atom, acceptor molecule, acceptor atom, score
      L1  H     3    47       P1  7948  2.00
      L1  H     8    34       P1  7948  1.00
      L1  H    11    35       P1  7948  0.22

> <Gold.PLP.Chemscore.Internal.Correction>
0.0200

> <Gold.Rescore>
     Score         DG    S(hbond)    S(metal)    S(lipo)     H(rot)  DE(clash)    DE(int)     intcor
     16.48     -18.16       2.13        0.00      73.42       1.18       0.06       1.62       ----

> <Gold.Chemscore.Fitness>
16.4799

> <Gold.Chemscore.DG>
-18.1555

> <Gold.Chemscore.ZeroCoef>
-5.4800

> <Gold.Chemscore.Hbond>
2.1308

> <Gold.Chemscore.Metal>
0.0000

> <Gold.Chemscore.Lipo>
73.4220

> <Gold.Chemscore.Internal_Hbond>
0.0000

> <Gold.Chemscore.DEClash>
0.0554

> <Gold.Chemscore.DEInternal>
1.6202

> <Gold.Chemscore.Rot>
1.1842

> <Gold.Chemscore.Internal.Correction>
   9.000000E+99

> <Gold.Chemscore.Hbonds>
donor molecule, donor type, donor heavy atom, donor atom, acceptor molecule, acceptor atom, score
      L1  H     3    47       P1  7948  0.93
      L1  H     8    34       P1  7948  0.97
      L1  H    11    35       P1  7948  0.19

> <Gold.Chemscore.Hbond.Weighted>
-7.1168

> <Gold.Chemscore.Metal.Weighted>
-0.0000

> <Gold.Chemscore.Lipo.Weighted>
-8.5904

> <Gold.Chemscore.Internal_Hbond.Weighted>
0.0000

> <Gold.Chemscore.DEClash.Weighted>
0.0554

> <Gold.Chemscore.DEInternal.Weighted>
1.6202

> <Gold.Chemscore.Rot.Weighted>
3.0317

> <Gold.Chemscore.Internal.Correction.Weighted>
   9.000000E+99

> <Gold.Protein.RotatedTorsions>
[ 6907 6896 6895 6894 ] final  -39.01 input  -60.11 | X-H torsion
[ 7974 7965 7964 7962 ] final  107.80 input  175.53 | X-H torsion
[ 8008 7997 7996 7995 ] final   53.24 input   59.86 | X-H torsion
[ 10167 10162 10161 10158 ] final -154.11 input  -65.29 | X-H torsion
[ 10718 10713 10712 10709 ] final -175.08 input   66.30 | X-H torsion
[ 10763 10752 10751 10750 ] final    4.98 input  -60.55 | X-H torsion
[ 11005 11000 10999 10996 ] final   76.73 input  -57.11 | X-H torsion

> <Gold.Protein.ActiveResidues>
 VAL166  LYS551  ARG553  GLY616  TRP617  ASP618  TYR619  PRO620  LYS621  CYS622 
 ASP623  PHE694  ASN695  SER759  ASP760  ASP761  ALA762  ILE779  LEU786  VAL792 
 PHE793  MET794  SER795  GLU796  ALA797  LYS798  CYS799  TRP800  GLU811  SER814 

> <Gold.Protein.RotatedAtoms>
  150.9955  134.9279  159.7923 H   0  0  0  0  0  0  0  0  0  0  0  0  # atno 6907 bound_to 6896
  152.5263  134.3224  159.9163 H   0  0  0  0  0  0  0  0  0  0  0  0  # atno 6908 bound_to 6896
  151.3230  133.3990  159.2690 H   0  0  0  0  0  0  0  0  0  0  0  0  # atno 6909 bound_to 6896
  145.2889  139.2607  143.3875 H   0  0  0  0  0  0  0  0  0  0  0  0  # atno 7974 bound_to 7965
  155.4651  140.3463  155.4318 H   0  0  0  0  0  0  0  0  0  0  0  0  # atno 8008 bound_to 7997
  156.1136  140.1467  156.9333 H   0  0  0  0  0  0  0  0  0  0  0  0  # atno 8009 bound_to 7997
  154.4773  140.0881  156.7273 H   0  0  0  0  0  0  0  0  0  0  0  0  # atno 8010 bound_to 7997
  139.7040  143.9216  152.2441 H   0  0  0  0  0  0  0  0  0  0  0  0  # atno 10167 bound_to 10162
  156.7946  130.9530  151.3120 H   0  0  0  0  0  0  0  0  0  0  0  0  # atno 10718 bound_to 10713
  153.2648  135.6926  153.7541 H   0  0  0  0  0  0  0  0  0  0  0  0  # atno 10763 bound_to 10752
  153.6587  135.3364  155.3122 H   0  0  0  0  0  0  0  0  0  0  0  0  # atno 10764 bound_to 10752
  154.8443  135.4472  154.1650 H   0  0  0  0  0  0  0  0  0  0  0  0  # atno 10765 bound_to 10752
  139.9285  134.7625  156.1433 H   0  0  0  0  0  0  0  0  0  0  0  0  # atno 11005 bound_to 11000
  146.3191  140.3375  142.8645 LP  0  0  0  0  0  0  0  0  0  0  0  0  # atno 17320 bound_to 7965
  144.9189  140.7845  143.5760 LP  0  0  0  0  0  0  0  0  0  0  0  0  # atno 17321 bound_to 7965
  139.9066  144.6881  150.8607 LP  0  0  0  0  0  0  0  0  0  0  0  0  # atno 17342 bound_to 10162
  140.7717  143.3474  151.2084 LP  0  0  0  0  0  0  0  0  0  0  0  0  # atno 17343 bound_to 10162
  157.6584  130.8944  149.9777 LP  0  0  0  0  0  0  0  0  0  0  0  0  # atno 17370 bound_to 10713
  156.1138  130.3648  150.0003 LP  0  0  0  0  0  0  0  0  0  0  0  0  # atno 17371 bound_to 10713
  141.0859  133.6734  156.2434 LP  0  0  0  0  0  0  0  0  0  0  0  0  # atno 17394 bound_to 11000
  140.6268  134.5305  157.5554 LP  0  0  0  0  0  0  0  0  0  0  0  0  # atno 17395 bound_to 11000

$$$$
