AV-unprocessed.smi:1774|AV-procd|sdf|7170|dock9
  -GOLD-   22720 8413D 1   1.00000     0.00000
 Structure written by MMmdl.
 46 47  0  0  0  0  0  0  0  0  2 V2000
  145.7460  134.7216  150.8018 C   0  0  0  0  0  0  0  0  0  0  0  0
  145.7453  133.2843  151.2969 C   0  0  0  0  0  0  0  0  0  0  0  0
  144.8233  132.3661  150.7506 C   0  0  0  0  0  0  0  0  0  0  0  0
  144.8247  131.0376  151.2089 C   0  0  0  0  0  0  0  0  0  0  0  0
  145.7542  130.6812  152.2009 C   0  0  0  0  0  0  0  0  0  0  0  0
  146.6384  131.5520  152.7290 N   0  0  0  0  0  0  0  0  0  0  0  0
  146.6510  132.8381  152.2966 C   0  0  0  0  0  0  0  0  0  0  0  0
  147.5526  133.8117  152.8119 N   0  0  0  0  0  0  0  0  0  0  0  0
  148.0956  133.8807  154.0402 C   0  0  0  0  0  0  0  0  0  0  0  0
  147.9173  133.0678  154.9479 O   0  0  0  0  0  0  0  0  0  0  0  0
  148.8772  134.9631  154.1674 N   0  0  0  0  0  0  0  0  0  0  0  0
  149.6246  135.3113  155.3704 C   0  0  0  0  0  0  0  0  0  0  0  0
  149.7055  136.8381  155.5677 C   0  0  0  0  0  0  0  0  0  0  0  0
  150.1009  137.5518  154.3247 N   0  3  1  0  0  0  0  0  0  0  0  0
  149.6306  138.9578  154.2749 C   0  0  0  0  0  0  0  0  0  0  0  0
  150.5047  139.8734  155.1564 C   0  0  2  0  0  0  0  0  0  0  0  0
  150.0879  141.3440  155.0486 C   0  0  0  0  0  0  0  0  0  0  0  0
  151.8588  139.7661  154.7309 O   0  0  0  0  0  0  0  0  0  0  0  0
  152.3794  138.4481  154.8688 C   0  0  2  0  0  0  0  0  0  0  0  0
  153.8536  138.4738  154.4507 C   0  0  0  0  0  0  0  0  0  0  0  0
  151.5486  137.4812  153.9978 C   0  0  0  0  0  0  0  0  0  0  0  0
  144.9985  134.8741  150.0227 H   0  0  0  0  0  0  0  0  0  0  0  0
  146.7200  134.9822  150.3867 H   0  0  0  0  0  0  0  0  0  0  0  0
  145.5223  135.4067  151.6201 H   0  0  0  0  0  0  0  0  0  0  0  0
  144.1216  132.6730  149.9888 H   0  0  0  0  0  0  0  0  0  0  0  0
  144.1320  130.3109  150.8107 H   0  0  0  0  0  0  0  0  0  0  0  0
  145.7893  129.6712  152.5815 H   0  0  0  0  0  0  0  0  0  0  0  0
  147.8115  134.5425  152.1656 H   0  0  0  0  0  0  0  0  0  0  0  0
  148.9730  135.5801  153.3738 H   0  0  0  0  0  0  0  0  0  0  0  0
  149.1615  134.8188  156.2257 H   0  0  0  0  0  0  0  0  0  0  0  0
  150.6280  134.8949  155.2790 H   0  0  0  0  0  0  0  0  0  0  0  0
  148.7195  137.1868  155.8784 H   0  0  0  0  0  0  0  0  0  0  0  0
  150.3849  137.0911  156.3812 H   0  0  0  0  0  0  0  0  0  0  0  0
  149.6799  139.2964  153.2389 H   0  0  0  0  0  0  0  0  0  0  0  0
  148.5814  139.0212  154.5659 H   0  0  0  0  0  0  0  0  0  0  0  0
  150.4300  139.5717  156.2025 H   0  0  0  0  0  0  0  0  0  0  0  0
  149.0569  141.4852  155.3739 H   0  0  0  0  0  0  0  0  0  0  0  0
  150.1676  141.7032  154.0221 H   0  0  0  0  0  0  0  0  0  0  0  0
  150.7219  141.9750  155.6721 H   0  0  0  0  0  0  0  0  0  0  0  0
  152.3309  138.1513  155.9174 H   0  0  0  0  0  0  0  0  0  0  0  0
  154.3056  137.4862  154.5461 H   0  0  0  0  0  0  0  0  0  0  0  0
  154.4240  139.1614  155.0759 H   0  0  0  0  0  0  0  0  0  0  0  0
  153.9661  138.7950  153.4146 H   0  0  0  0  0  0  0  0  0  0  0  0
  151.9256  136.4633  154.0876 H   0  0  0  0  0  0  0  0  0  0  0  0
  151.6660  137.7524  152.9476 H   0  0  0  0  0  0  0  0  0  0  0  0
  149.6142  137.0724  153.5808 H   0  0  0  0  0  0  0  0  0  0  0  0
  1  2  1  0  0  0  0
  1 22  1  0  0  0  0
  1 23  1  0  0  0  0
  1 24  1  0  0  0  0
  2  7  1  0  0  0  0
  2  3  2  0  0  0  0
  3  4  1  0  0  0  0
  3 25  1  0  0  0  0
  4  5  2  0  0  0  0
  4 26  1  0  0  0  0
  5  6  1  0  0  0  0
  5 27  1  0  0  0  0
  6  7  2  0  0  0  0
  7  8  1  0  0  0  0
  8  9  1  0  0  0  0
  8 28  1  0  0  0  0
  9 10  2  0  0  0  0
  9 11  1  0  0  0  0
 11 12  1  0  0  0  0
 11 29  1  0  0  0  0
 12 13  1  0  0  0  0
 12 30  1  0  0  0  0
 12 31  1  0  0  0  0
 13 14  1  0  0  0  0
 13 32  1  0  0  0  0
 13 33  1  0  0  0  0
 14 21  1  0  0  0  0
 14 15  1  0  0  0  0
 14 46  1  0  0  0  0
 15 16  1  0  0  0  0
 15 34  1  0  0  0  0
 15 35  1  0  0  0  0
 16 17  1  0  0  0  0
 16 18  1  0  0  0  0
 16 36  1  0  0  0  0
 17 37  1  0  0  0  0
 17 38  1  0  0  0  0
 17 39  1  0  0  0  0
 18 19  1  0  0  0  0
 19 20  1  0  0  0  0
 19 21  1  0  0  0  0
 19 40  1  0  0  0  0
 20 41  1  0  0  0  0
 20 42  1  0  0  0  0
 20 43  1  0  0  0  0
 21 44  1  0  0  0  0
 21 45  1  0  0  0  0
M  CHG  1  14   1
M  END
> <s_m_source_file>
AV-unprocessed.smi

> <i_m_source_file_index>
1774

> <i_lp_mmshare_version>
43012

> <i_f3d_flags>
0

> <s_epik_input>
W0NIM11jMVtjSF1bY0hdW2NIXW5jMVtOSF1DKD1PKVtOSF1bQ0gyXVtDSDJdTjJbQ0gyXVtDQEBIXShbQ0gzXSlPW0NAQEhdKFtDSDNdKVtDSDJdMg==

> <s_epik_cmdline>
J2VwaWtfcHl0aG9uJywgJy1waCcsICc3LjAnLCAnLXRuJywgJzgnLCAnLW1hJywgJzIwMCcsICctbWV0YWxfYmluZGluZycsICctaW1hZScsICc8aW5maWxlLm1hZT4nLCAnLW9tYWUnLCAnPG91dGZpbGUubWFlPic=

> <r_epik_Ionization_Penalty>
0.602573

> <r_epik_Ionization_Penalty_Charging>
0.602531

> <r_epik_Ionization_Penalty_Neutral>
4.21996e-05

> <r_epik_State_Penalty>
0.617039

> <r_epik_Charging_Adjusted_Penalty>
1.21957

> <i_epik_Tot_Q>
1

> <i_epik_Tot_abs_Q>
1

> <r_epik_Metal_State_Penalty>
0.617042

> <b_epik_Metal_Only>
0

> <s_lp_Force_Field>
OPLS_2005

> <r_lp_Energy>
17.7689

> <b_lp_Chiralities_Consistent>
1

> <s_lp_Variant>
AV-unprocessed.smi:1774-7

> <Gold.Version>
5.8.1

> <Gold.Id.Protein>
6NUR|6NUR_protein|mol2

> <Gold.PLP.Fitness>
52.1209

> <Gold.PLP.PLP>
-38.5359

> <Gold.PLP.part.hbond>
-4.0000

> <Gold.PLP.part.metal>
0.0000

> <Gold.PLP.part.buried>
-3.3591

> <Gold.PLP.part.nonpolar>
-31.3180

> <Gold.PLP.part.repulsive>
0.2481

> <Gold.PLP.ligand.clash>
0.0000

> <Gold.PLP.ligand.torsion>
0.6165

> <Gold.PLP.Chemscore.Hbond>
4.9280

> <Gold.PLP.Chemscore.CHOScore>
0.0000

> <Gold.PLP.Chemscore.Metal>
0.0000

> <Gold.Chemscore.Hbonds>
donor molecule, donor type, donor heavy atom, donor atom, acceptor molecule, acceptor atom, score
      L1  H     8    28       P1  7948  0.94
      L1  H    11    29       P1  7948  1.00
      L1  H    14    46       P1  7948  2.00
      P1  H  7989  7998       L1    18  0.68

> <Gold.PLP.Chemscore.Internal.Correction>
0.0340

> <Gold.Rescore>
     Score         DG    S(hbond)    S(metal)    S(lipo)     H(rot)  DE(clash)    DE(int)     intcor
     20.93     -22.06       2.92        0.00      91.15       1.49       0.36       0.77       ----

> <Gold.Chemscore.Fitness>
20.9284

> <Gold.Chemscore.DG>
-22.0637

> <Gold.Chemscore.ZeroCoef>
-5.4800

> <Gold.Chemscore.Hbond>
2.9177

> <Gold.Chemscore.Metal>
0.0000

> <Gold.Chemscore.Lipo>
91.1497

> <Gold.Chemscore.Internal_Hbond>
0.0000

> <Gold.Chemscore.DEClash>
0.3606

> <Gold.Chemscore.DEInternal>
0.7748

> <Gold.Chemscore.Rot>
1.4946

> <Gold.Chemscore.Internal.Correction>
   9.000000E+99

> <Gold.Chemscore.Hbonds>
donor molecule, donor type, donor heavy atom, donor atom, acceptor molecule, acceptor atom, score
      L1  H     8    28       P1  7948  0.39
      L1  H    11    29       P1  7948  0.78
      L1  H    14    46       P1  7948  0.76
      P1  H  7989  7998       L1    18  0.07

> <Gold.Chemscore.Hbond.Weighted>
-9.7452

> <Gold.Chemscore.Metal.Weighted>
-0.0000

> <Gold.Chemscore.Lipo.Weighted>
-10.6645

> <Gold.Chemscore.Internal_Hbond.Weighted>
0.0000

> <Gold.Chemscore.DEClash.Weighted>
0.3606

> <Gold.Chemscore.DEInternal.Weighted>
0.7748

> <Gold.Chemscore.Rot.Weighted>
3.8261

> <Gold.Chemscore.Internal.Correction.Weighted>
   9.000000E+99

> <Gold.Protein.RotatedTorsions>
[ 6907 6896 6895 6894 ] final   51.63 input  -60.11 | X-H torsion
[ 7974 7965 7964 7962 ] final -146.41 input  175.53 | X-H torsion
[ 8008 7997 7996 7995 ] final  147.05 input   59.86 | X-H torsion
[ 10167 10162 10161 10158 ] final   11.03 input  -65.29 | X-H torsion
[ 10718 10713 10712 10709 ] final  119.00 input   66.30 | X-H torsion
[ 10763 10752 10751 10750 ] final -163.64 input  -60.55 | X-H torsion
[ 11005 11000 10999 10996 ] final   32.96 input  -57.11 | X-H torsion

> <Gold.Protein.ActiveResidues>
 VAL166  LYS551  ARG553  GLY616  TRP617  ASP618  TYR619  PRO620  LYS621  CYS622 
 ASP623  PHE694  ASN695  SER759  ASP760  ASP761  ALA762  ILE779  LEU786  VAL792 
 PHE793  MET794  SER795  GLU796  ALA797  LYS798  CYS799  TRP800  GLU811  SER814 

> <Gold.Protein.RotatedAtoms>
  152.3147  134.7454  160.0327 H   0  0  0  0  0  0  0  0  0  0  0  0  # atno 6907 bound_to 6896
  151.7923  133.3355  159.3511 H   0  0  0  0  0  0  0  0  0  0  0  0  # atno 6908 bound_to 6896
  150.7338  134.5761  159.5959 H   0  0  0  0  0  0  0  0  0  0  0  0  # atno 6909 bound_to 6896
  144.8161  140.5459  143.5610 H   0  0  0  0  0  0  0  0  0  0  0  0  # atno 7974 bound_to 7965
  156.2837  140.2166  156.5476 H   0  0  0  0  0  0  0  0  0  0  0  0  # atno 8008 bound_to 7997
  154.7318  140.0495  157.0755 H   0  0  0  0  0  0  0  0  0  0  0  0  # atno 8009 bound_to 7997
  155.0344  140.3138  155.4750 H   0  0  0  0  0  0  0  0  0  0  0  0  # atno 8010 bound_to 7997
  140.6157  143.8313  150.7116 H   0  0  0  0  0  0  0  0  0  0  0  0  # atno 10167 bound_to 10162
  157.5992  131.1053  150.7835 H   0  0  0  0  0  0  0  0  0  0  0  0  # atno 10718 bound_to 10713
  154.7103  135.3005  154.9207 H   0  0  0  0  0  0  0  0  0  0  0  0  # atno 10763 bound_to 10752
  154.0111  135.6694  153.4769 H   0  0  0  0  0  0  0  0  0  0  0  0  # atno 10764 bound_to 10752
  153.0750  135.5040  154.8298 H   0  0  0  0  0  0  0  0  0  0  0  0  # atno 10765 bound_to 10752
  140.2680  134.3115  155.7836 H   0  0  0  0  0  0  0  0  0  0  0  0  # atno 11005 bound_to 11000
  145.5211  139.1476  143.3552 LP  0  0  0  0  0  0  0  0  0  0  0  0  # atno 17320 bound_to 7965
  146.2464  140.5352  142.8912 LP  0  0  0  0  0  0  0  0  0  0  0  0  # atno 17321 bound_to 7965
  140.1891  143.4051  152.1876 LP  0  0  0  0  0  0  0  0  0  0  0  0  # atno 17342 bound_to 10162
  139.5397  144.7244  151.4776 LP  0  0  0  0  0  0  0  0  0  0  0  0  # atno 17343 bound_to 10162
  156.8238  130.4993  149.5340 LP  0  0  0  0  0  0  0  0  0  0  0  0  # atno 17370 bound_to 10713
  156.1061  130.6005  150.9972 LP  0  0  0  0  0  0  0  0  0  0  0  0  # atno 17371 bound_to 10713
  141.2181  133.7450  156.9291 LP  0  0  0  0  0  0  0  0  0  0  0  0  # atno 17394 bound_to 11000
  140.1400  134.9300  157.2454 LP  0  0  0  0  0  0  0  0  0  0  0  0  # atno 17395 bound_to 11000

$$$$
