AV-unprocessed.smi:584|AV-procd|sdf|2999|dock2
  -GOLD-   2262023503D 1   1.00000     0.00000
 Structure written by MMmdl.
 41 42  0  0  0  0  0  0  0  0  1 V2000
  153.0519  138.5825  159.9876 O   0  0  0  0  0  0  0  0  0  0  0  0
  154.2357  138.9065  159.8803 C   0  0  0  0  0  0  0  0  0  0  0  0
  154.6349  140.3397  159.5008 C   0  0  0  0  0  0  0  0  0  0  0  0
  153.9402  141.3698  160.2911 N   0  0  0  0  0  0  0  0  0  0  0  0
  153.2313  142.3517  159.5717 C   0  0  0  0  0  0  0  0  0  0  0  0
  152.5726  143.3642  160.1667 C   0  0  0  0  0  0  0  0  0  0  0  0
  151.7795  144.3826  159.3628 C   0  0  0  0  0  0  0  0  0  0  0  0
  152.5270  144.9247  158.4013 F   0  0  0  0  0  0  0  0  0  0  0  0
  150.7322  143.7902  158.7908 F   0  0  0  0  0  0  0  0  0  0  0  0
  151.3255  145.3634  160.1441 F   0  0  0  0  0  0  0  0  0  0  0  0
  152.5942  143.3838  161.6161 C   0  0  0  0  0  0  0  0  0  0  0  0
  153.2647  142.4504  162.3197 C   0  0  0  0  0  0  0  0  0  0  0  0
  153.9998  141.3710  161.6564 C   0  0  0  0  0  0  0  0  0  0  0  0
  154.6290  140.5222  162.2886 O   0  0  0  0  0  0  0  0  0  0  0  0
  155.2525  138.0567  160.0914 N   0  0  0  0  0  0  0  0  0  0  0  0
  155.1220  136.6557  160.4817 C   0  0  0  0  0  0  0  0  0  0  0  0
  155.1174  136.4684  162.0141 C   0  0  0  0  0  0  0  0  0  0  0  0
  155.2049  134.9710  162.3759 C   0  0  0  0  0  0  0  0  0  0  0  0
  155.2145  134.7474  163.8967 C   0  0  0  0  0  0  0  0  0  0  0  0
  153.9880  135.3886  164.5617 C   0  0  0  0  0  0  0  0  0  0  0  0
  153.8974  136.8826  164.2199 C   0  0  0  0  0  0  0  0  0  0  0  0
  153.8879  137.1089  162.6992 C   0  0  0  0  0  0  0  0  0  0  0  0
  155.7139  140.4448  159.6252 H   0  0  0  0  0  0  0  0  0  0  0  0
  154.4577  140.4807  158.4332 H   0  0  0  0  0  0  0  0  0  0  0  0
  153.2646  142.2319  158.4983 H   0  0  0  0  0  0  0  0  0  0  0  0
  152.0693  144.1640  162.1474 H   0  0  0  0  0  0  0  0  0  0  0  0
  153.2634  142.4986  163.3988 H   0  0  0  0  0  0  0  0  0  0  0  0
  156.1921  138.4093  159.9803 H   0  0  0  0  0  0  0  0  0  0  0  0
  154.2313  136.2056  160.0404 H   0  0  0  0  0  0  0  0  0  0  0  0
  155.9707  136.1225  160.0525 H   0  0  0  0  0  0  0  0  0  0  0  0
  156.0100  136.9555  162.4099 H   0  0  0  0  0  0  0  0  0  0  0  0
  154.3622  134.4354  161.9360 H   0  0  0  0  0  0  0  0  0  0  0  0
  156.1052  134.5347  161.9418 H   0  0  0  0  0  0  0  0  0  0  0  0
  155.2398  133.6794  164.1149 H   0  0  0  0  0  0  0  0  0  0  0  0
  156.1247  135.1720  164.3222 H   0  0  0  0  0  0  0  0  0  0  0  0
  153.0822  134.8806  164.2284 H   0  0  0  0  0  0  0  0  0  0  0  0
  154.0383  135.2561  165.6429 H   0  0  0  0  0  0  0  0  0  0  0  0
  152.9996  137.3121  164.6654 H   0  0  0  0  0  0  0  0  0  0  0  0
  154.7436  137.4103  164.6618 H   0  0  0  0  0  0  0  0  0  0  0  0
  153.8588  138.1814  162.5074 H   0  0  0  0  0  0  0  0  0  0  0  0
  152.9721  136.6956  162.2745 H   0  0  0  0  0  0  0  0  0  0  0  0
  1  2  2  0  0  0  0
  2  3  1  0  0  0  0
  2 15  1  0  0  0  0
  3  4  1  0  0  0  0
  3 23  1  0  0  0  0
  3 24  1  0  0  0  0
  4 13  1  0  0  0  0
  4  5  1  0  0  0  0
  5  6  2  0  0  0  0
  5 25  1  0  0  0  0
  6  7  1  0  0  0  0
  6 11  1  0  0  0  0
  7  8  1  0  0  0  0
  7  9  1  0  0  0  0
  7 10  1  0  0  0  0
 11 12  2  0  0  0  0
 11 26  1  0  0  0  0
 12 13  1  0  0  0  0
 12 27  1  0  0  0  0
 13 14  2  0  0  0  0
 15 16  1  0  0  0  0
 15 28  1  0  0  0  0
 16 17  1  0  0  0  0
 16 29  1  0  0  0  0
 16 30  1  0  0  0  0
 17 22  1  0  0  0  0
 17 18  1  0  0  0  0
 17 31  1  0  0  0  0
 18 19  1  0  0  0  0
 18 32  1  0  0  0  0
 18 33  1  0  0  0  0
 19 20  1  0  0  0  0
 19 34  1  0  0  0  0
 19 35  1  0  0  0  0
 20 21  1  0  0  0  0
 20 36  1  0  0  0  0
 20 37  1  0  0  0  0
 21 22  1  0  0  0  0
 21 38  1  0  0  0  0
 21 39  1  0  0  0  0
 22 40  1  0  0  0  0
 22 41  1  0  0  0  0
M  END
> <s_m_source_file>
AV-unprocessed.smi

> <i_m_source_file_index>
584

> <i_lp_mmshare_version>
43012

> <i_f3d_flags>
0

> <s_epik_input>
W0NIMl0xW0NIMl1bQ0gyXVtDSDJdW0NIMl1bQ0hdMVtDSDJdW05IXUMoPU8pW0NIMl1uMltjSF1jKEMoRikoRilGKVtjSF1bY0hdYzI9Tw==

> <s_epik_cmdline>
J2VwaWtfcHl0aG9uJywgJy1waCcsICc3LjAnLCAnLXRuJywgJzgnLCAnLW1hJywgJzIwMCcsICctbWV0YWxfYmluZGluZycsICctaW1hZScsICc8aW5maWxlLm1hZT4nLCAnLW9tYWUnLCAnPG91dGZpbGUubWFlPic=

> <r_lp_tautomer_probability>
1

> <r_epik_Ionization_Penalty>
3.78989e-08

> <r_epik_Ionization_Penalty_Charging>
1.81011e-08

> <r_epik_Ionization_Penalty_Neutral>
1.97978e-08

> <r_epik_State_Penalty>
-0

> <r_epik_Charging_Adjusted_Penalty>
1.81011e-08

> <i_epik_Tot_Q>
0

> <i_epik_Tot_abs_Q>
0

> <r_epik_Metal_State_Penalty>
-0

> <b_epik_Metal_Only>
0

> <s_lp_Force_Field>
OPLS_2005

> <r_lp_Energy>
22.635

> <b_lp_Chiralities_Consistent>
1

> <s_lp_Variant>
AV-unprocessed.smi:584-1

> <Gold.Version>
5.8.1

> <Gold.Id.Protein>
6NUR|6NUR_protein|mol2

> <Gold.PLP.Fitness>
55.3969

> <Gold.PLP.PLP>
-56.3593

> <Gold.PLP.part.hbond>
-0.0169

> <Gold.PLP.part.metal>
0.0000

> <Gold.PLP.part.buried>
-3.9118

> <Gold.PLP.part.nonpolar>
-51.5213

> <Gold.PLP.part.repulsive>
0.0313

> <Gold.PLP.ligand.clash>
0.0000

> <Gold.PLP.ligand.torsion>
0.5656

> <Gold.PLP.Chemscore.Hbond>
0.0000

> <Gold.PLP.Chemscore.CHOScore>
0.0000

> <Gold.PLP.Chemscore.Metal>
0.0000

> <Gold.PLP.Chemscore.Internal.Correction>
0.1690

> <Gold.Rescore>
     Score         DG    S(hbond)    S(metal)    S(lipo)     H(rot)  DE(clash)    DE(int)     intcor
     12.93     -14.47       0.00        0.00     115.01       1.75       0.03       1.51       ----

> <Gold.Chemscore.Fitness>
12.9305

> <Gold.Chemscore.DG>
-14.4667

> <Gold.Chemscore.ZeroCoef>
-5.4800

> <Gold.Chemscore.Hbond>
0.0000

> <Gold.Chemscore.Metal>
0.0000

> <Gold.Chemscore.Lipo>
115.0112

> <Gold.Chemscore.Internal_Hbond>
0.0000

> <Gold.Chemscore.DEClash>
0.0276

> <Gold.Chemscore.DEInternal>
1.5086

> <Gold.Chemscore.Rot>
1.7459

> <Gold.Chemscore.Internal.Correction>
   9.000000E+99

> <Gold.Chemscore.Hbond.Weighted>
-0.0000

> <Gold.Chemscore.Metal.Weighted>
-0.0000

> <Gold.Chemscore.Lipo.Weighted>
-13.4563

> <Gold.Chemscore.Internal_Hbond.Weighted>
0.0000

> <Gold.Chemscore.DEClash.Weighted>
0.0276

> <Gold.Chemscore.DEInternal.Weighted>
1.5086

> <Gold.Chemscore.Rot.Weighted>
4.4696

> <Gold.Chemscore.Internal.Correction.Weighted>
   9.000000E+99

> <Gold.Protein.RotatedTorsions>
[ 6907 6896 6895 6894 ] final   65.02 input  -60.11 | X-H torsion
[ 7974 7965 7964 7962 ] final  114.82 input  175.53 | X-H torsion
[ 8008 7997 7996 7995 ] final    3.14 input   59.86 | X-H torsion
[ 10167 10162 10161 10158 ] final  -94.93 input  -65.29 | X-H torsion
[ 10718 10713 10712 10709 ] final  -54.34 input   66.30 | X-H torsion
[ 10763 10752 10751 10750 ] final  110.33 input  -60.55 | X-H torsion
[ 11005 11000 10999 10996 ] final  -70.45 input  -57.11 | X-H torsion

> <Gold.Protein.ActiveResidues>
 VAL166  LYS551  ARG553  GLY616  TRP617  ASP618  TYR619  PRO620  LYS621  CYS622 
 ASP623  PHE694  ASN695  SER759  ASP760  ASP761  ALA762  ILE779  LEU786  VAL792 
 PHE793  MET794  SER795  GLU796  ALA797  LYS798  CYS799  TRP800  GLU811  SER814 

> <Gold.Protein.RotatedAtoms>
  152.4376  134.5656  159.9906 H   0  0  0  0  0  0  0  0  0  0  0  0  # atno 6907 bound_to 6896
  151.5762  133.3378  159.3007 H   0  0  0  0  0  0  0  0  0  0  0  0  # atno 6908 bound_to 6896
  150.8277  134.7550  159.6891 H   0  0  0  0  0  0  0  0  0  0  0  0  # atno 6909 bound_to 6896
  145.1996  139.2959  143.4325 H   0  0  0  0  0  0  0  0  0  0  0  0  # atno 7974 bound_to 7965
  154.7000  140.2671  155.6729 H   0  0  0  0  0  0  0  0  0  0  0  0  # atno 8008 bound_to 7997
  156.2761  140.2774  156.1531 H   0  0  0  0  0  0  0  0  0  0  0  0  # atno 8009 bound_to 7997
  155.0778  140.0372  157.2619 H   0  0  0  0  0  0  0  0  0  0  0  0  # atno 8010 bound_to 7997
  140.3094  143.3114  152.0164 H   0  0  0  0  0  0  0  0  0  0  0  0  # atno 10167 bound_to 10162
  156.1459  130.4153  150.0025 H   0  0  0  0  0  0  0  0  0  0  0  0  # atno 10718 bound_to 10713
  153.4474  135.3752  155.2264 H   0  0  0  0  0  0  0  0  0  0  0  0  # atno 10763 bound_to 10752
  154.8755  135.3877  154.4079 H   0  0  0  0  0  0  0  0  0  0  0  0  # atno 10764 bound_to 10752
  153.4634  135.7087  153.6100 H   0  0  0  0  0  0  0  0  0  0  0  0  # atno 10765 bound_to 10752
  141.1574  133.6790  156.6754 H   0  0  0  0  0  0  0  0  0  0  0  0  # atno 11005 bound_to 11000
  146.3420  140.2236  142.8592 LP  0  0  0  0  0  0  0  0  0  0  0  0  # atno 17320 bound_to 7965
  144.9961  140.8590  143.5310 LP  0  0  0  0  0  0  0  0  0  0  0  0  # atno 17321 bound_to 7965
  139.4897  144.6396  151.6905 LP  0  0  0  0  0  0  0  0  0  0  0  0  # atno 17342 bound_to 10162
  140.5581  144.0314  150.6157 LP  0  0  0  0  0  0  0  0  0  0  0  0  # atno 17343 bound_to 10162
  156.7896  130.9251  151.3646 LP  0  0  0  0  0  0  0  0  0  0  0  0  # atno 17370 bound_to 10713
  157.6616  130.8971  149.9842 LP  0  0  0  0  0  0  0  0  0  0  0  0  # atno 17371 bound_to 10713
  140.3143  134.8061  157.4201 LP  0  0  0  0  0  0  0  0  0  0  0  0  # atno 17394 bound_to 11000
  140.1152  134.5293  155.8231 LP  0  0  0  0  0  0  0  0  0  0  0  0  # atno 17395 bound_to 11000

$$$$
