AV-unprocessed.smi:403|AV-procd|sdf|2496|dock4
  -GOLD-   2262022443D 1   1.00000     0.00000
 Structure written by MMmdl.
 46 47  0  0  0  0  0  0  0  0  1 V2000
  155.1946  136.9138  164.6258 C   0  0  0  0  0  0  0  0  0  0  0  0
  154.0005  136.1451  164.0348 C   0  0  0  0  0  0  0  0  0  0  0  0
  154.0465  134.6723  164.4697 C   0  0  0  0  0  0  0  0  0  0  0  0
  153.9267  136.2577  162.4980 C   0  0  0  0  0  0  0  0  0  0  0  0
  153.9490  137.7085  161.9733 C   0  0  0  0  0  0  0  0  0  0  0  0
  153.1905  137.9012  160.6554 C   0  0  0  0  0  0  0  0  0  0  0  0
  152.6658  136.9485  160.0774 O   0  0  0  0  0  0  0  0  0  0  0  0
  153.1401  139.1588  160.1898 N   0  0  0  0  0  0  0  0  0  0  0  0
  152.4655  139.5697  158.9616 C   0  0  0  0  0  0  0  0  0  0  0  0
  152.2548  141.0788  158.8101 C   0  0  0  0  0  0  0  0  0  0  0  0
  152.7137  141.9818  159.7981 C   0  0  0  0  0  0  0  0  0  0  0  0
  152.5282  143.3635  159.6131 C   0  0  0  0  0  0  0  0  0  0  0  0
  151.8931  143.7991  158.4372 C   0  0  0  0  0  0  0  0  0  0  0  0
  151.4566  142.9556  157.4804 N   0  0  0  0  0  0  0  0  0  0  0  0
  151.6320  141.6227  157.6544 C   0  0  0  0  0  0  0  0  0  0  0  0
  151.1462  140.7743  156.6440 N   0  0  0  0  0  0  0  0  0  0  0  0
  150.2538  141.4575  155.7161 C   0  0  0  0  0  0  0  0  0  0  0  0
  149.5986  140.4356  154.7712 C   0  0  0  0  0  0  0  0  0  0  0  0
  150.6089  139.6847  154.1025 O   0  0  0  0  0  0  0  0  0  0  0  0
  151.4351  138.9645  155.0135 C   0  0  0  0  0  0  0  0  0  0  0  0
  152.1385  139.9505  155.9619 C   0  0  0  0  0  0  0  0  0  0  0  0
  156.1390  136.5564  164.2143 H   0  0  0  0  0  0  0  0  0  0  0  0
  155.2390  136.7941  165.7086 H   0  0  0  0  0  0  0  0  0  0  0  0
  155.1262  137.9826  164.4255 H   0  0  0  0  0  0  0  0  0  0  0  0
  153.0875  136.5745  164.4494 H   0  0  0  0  0  0  0  0  0  0  0  0
  154.9426  134.1770  164.0943 H   0  0  0  0  0  0  0  0  0  0  0  0
  153.1815  134.1227  164.0970 H   0  0  0  0  0  0  0  0  0  0  0  0
  154.0469  134.5819  165.5562 H   0  0  0  0  0  0  0  0  0  0  0  0
  154.7436  135.6883  162.0516 H   0  0  0  0  0  0  0  0  0  0  0  0
  153.0054  135.7802  162.1604 H   0  0  0  0  0  0  0  0  0  0  0  0
  153.5119  138.3740  162.7189 H   0  0  0  0  0  0  0  0  0  0  0  0
  154.9765  138.0383  161.8201 H   0  0  0  0  0  0  0  0  0  0  0  0
  153.5980  139.8831  160.7238 H   0  0  0  0  0  0  0  0  0  0  0  0
  153.0667  139.2286  158.1190 H   0  0  0  0  0  0  0  0  0  0  0  0
  151.5162  139.0380  158.8896 H   0  0  0  0  0  0  0  0  0  0  0  0
  153.2095  141.6334  160.6916 H   0  0  0  0  0  0  0  0  0  0  0  0
  152.8675  144.0724  160.3537 H   0  0  0  0  0  0  0  0  0  0  0  0
  151.7330  144.8522  158.2587 H   0  0  0  0  0  0  0  0  0  0  0  0
  149.4872  142.0097  156.2610 H   0  0  0  0  0  0  0  0  0  0  0  0
  150.8237  142.1873  155.1390 H   0  0  0  0  0  0  0  0  0  0  0  0
  148.9378  139.7651  155.3232 H   0  0  0  0  0  0  0  0  0  0  0  0
  148.9863  140.9478  154.0292 H   0  0  0  0  0  0  0  0  0  0  0  0
  150.8353  138.2454  155.5737 H   0  0  0  0  0  0  0  0  0  0  0  0
  152.1730  138.3940  154.4494 H   0  0  0  0  0  0  0  0  0  0  0  0
  152.8204  140.5827  155.3914 H   0  0  0  0  0  0  0  0  0  0  0  0
  152.7349  139.4073  156.6956 H   0  0  0  0  0  0  0  0  0  0  0  0
  1  2  1  0  0  0  0
  1 22  1  0  0  0  0
  1 23  1  0  0  0  0
  1 24  1  0  0  0  0
  2  3  1  0  0  0  0
  2  4  1  0  0  0  0
  2 25  1  0  0  0  0
  3 26  1  0  0  0  0
  3 27  1  0  0  0  0
  3 28  1  0  0  0  0
  4  5  1  0  0  0  0
  4 29  1  0  0  0  0
  4 30  1  0  0  0  0
  5  6  1  0  0  0  0
  5 31  1  0  0  0  0
  5 32  1  0  0  0  0
  6  7  2  0  0  0  0
  6  8  1  0  0  0  0
  8  9  1  0  0  0  0
  8 33  1  0  0  0  0
  9 10  1  0  0  0  0
  9 34  1  0  0  0  0
  9 35  1  0  0  0  0
 10 15  1  0  0  0  0
 10 11  2  0  0  0  0
 11 12  1  0  0  0  0
 11 36  1  0  0  0  0
 12 13  2  0  0  0  0
 12 37  1  0  0  0  0
 13 14  1  0  0  0  0
 13 38  1  0  0  0  0
 14 15  2  0  0  0  0
 15 16  1  0  0  0  0
 16 21  1  0  0  0  0
 16 17  1  0  0  0  0
 17 18  1  0  0  0  0
 17 39  1  0  0  0  0
 17 40  1  0  0  0  0
 18 19  1  0  0  0  0
 18 41  1  0  0  0  0
 18 42  1  0  0  0  0
 19 20  1  0  0  0  0
 20 21  1  0  0  0  0
 20 43  1  0  0  0  0
 20 44  1  0  0  0  0
 21 45  1  0  0  0  0
 21 46  1  0  0  0  0
M  END
> <s_m_source_file>
AV-unprocessed.smi

> <i_m_source_file_index>
403

> <i_lp_mmshare_version>
43012

> <i_f3d_flags>
0

> <s_epik_input>
W0NIM11bQ0hdKFtDSDNdKVtDSDJdW0NIMl1DKD1PKVtOSF1bQ0gyXWMxW2NIXVtjSF1bY0hdbmMxTjJbQ0gyXVtDSDJdT1tDSDJdW0NIMl0y

> <s_epik_cmdline>
J2VwaWtfcHl0aG9uJywgJy1waCcsICc3LjAnLCAnLXRuJywgJzgnLCAnLW1hJywgJzIwMCcsICctbWV0YWxfYmluZGluZycsICctaW1hZScsICc8aW5maWxlLm1hZT4nLCAnLW9tYWUnLCAnPG91dGZpbGUubWFlPic=

> <r_lp_tautomer_probability>
1

> <r_epik_Ionization_Penalty>
0.00581842

> <r_epik_Ionization_Penalty_Charging>
0

> <r_epik_Ionization_Penalty_Neutral>
0.00581842

> <r_epik_State_Penalty>
0.00427389

> <r_epik_Charging_Adjusted_Penalty>
0.00427389

> <i_epik_Tot_Q>
0

> <i_epik_Tot_abs_Q>
0

> <r_epik_Metal_State_Penalty>
-0

> <b_epik_Metal_Only>
0

> <s_lp_Force_Field>
OPLS_2005

> <r_lp_Energy>
20.7725

> <b_lp_Chiralities_Consistent>
1

> <s_lp_Variant>
AV-unprocessed.smi:403-1

> <Gold.Version>
5.8.1

> <Gold.Id.Protein>
6NUR|6NUR_protein|mol2

> <Gold.PLP.Fitness>
49.8478

> <Gold.PLP.PLP>
-44.5768

> <Gold.PLP.part.hbond>
-2.0000

> <Gold.PLP.part.metal>
0.0000

> <Gold.PLP.part.buried>
-4.6452

> <Gold.PLP.part.nonpolar>
-38.7439

> <Gold.PLP.part.repulsive>
0.4947

> <Gold.PLP.ligand.clash>
0.0000

> <Gold.PLP.ligand.torsion>
0.4657

> <Gold.PLP.Chemscore.Hbond>
2.0000

> <Gold.PLP.Chemscore.CHOScore>
0.0000

> <Gold.PLP.Chemscore.Metal>
0.0000

> <Gold.Chemscore.Hbonds>
donor molecule, donor type, donor heavy atom, donor atom, acceptor molecule, acceptor atom, score
      P1  H  6896  6908       L1     7  1.00
      P1  H  7989  7998       L1    19  1.00

> <Gold.PLP.Chemscore.Internal.Correction>
0.2024

> <Gold.Rescore>
     Score         DG    S(hbond)    S(metal)    S(lipo)     H(rot)  DE(clash)    DE(int)     intcor
     18.70     -20.34       1.72        0.00     115.81       1.73       0.23       1.40       ----

> <Gold.Chemscore.Fitness>
18.7038

> <Gold.Chemscore.DG>
-20.3356

> <Gold.Chemscore.ZeroCoef>
-5.4800

> <Gold.Chemscore.Hbond>
1.7207

> <Gold.Chemscore.Metal>
0.0000

> <Gold.Chemscore.Lipo>
115.8059

> <Gold.Chemscore.Internal_Hbond>
0.0000

> <Gold.Chemscore.DEClash>
0.2326

> <Gold.Chemscore.DEInternal>
1.3992

> <Gold.Chemscore.Rot>
1.7347

> <Gold.Chemscore.Internal.Correction>
   9.000000E+99

> <Gold.Chemscore.Hbonds>
donor molecule, donor type, donor heavy atom, donor atom, acceptor molecule, acceptor atom, score
      P1  H  6896  6908       L1     7  0.97
      P1  H  7989  7998       L1    19  0.20

> <Gold.Chemscore.Hbond.Weighted>
-5.7472

> <Gold.Chemscore.Metal.Weighted>
-0.0000

> <Gold.Chemscore.Lipo.Weighted>
-13.5493

> <Gold.Chemscore.Internal_Hbond.Weighted>
0.0000

> <Gold.Chemscore.DEClash.Weighted>
0.2326

> <Gold.Chemscore.DEInternal.Weighted>
1.3992

> <Gold.Chemscore.Rot.Weighted>
4.4409

> <Gold.Chemscore.Internal.Correction.Weighted>
   9.000000E+99

> <Gold.Protein.RotatedTorsions>
[ 6907 6896 6895 6894 ] final  -96.87 input  -60.11 | X-H torsion
[ 7974 7965 7964 7962 ] final  103.45 input  175.53 | X-H torsion
[ 8008 7997 7996 7995 ] final   30.81 input   59.86 | X-H torsion
[ 10167 10162 10161 10158 ] final  134.14 input  -65.29 | X-H torsion
[ 10718 10713 10712 10709 ] final  116.69 input   66.30 | X-H torsion
[ 10763 10752 10751 10750 ] final  177.98 input  -60.55 | X-H torsion
[ 11005 11000 10999 10996 ] final -103.99 input  -57.11 | X-H torsion

> <Gold.Protein.ActiveResidues>
 VAL166  LYS551  ARG553  GLY616  TRP617  ASP618  TYR619  PRO620  LYS621  CYS622 
 ASP623  PHE694  ASN695  SER759  ASP760  ASP761  ALA762  ILE779  LEU786  VAL792 
 PHE793  MET794  SER795  GLU796  ALA797  LYS798  CYS799  TRP800  GLU811  SER814 

> <Gold.Protein.RotatedAtoms>
  150.7000  134.1437  159.4114 H   0  0  0  0  0  0  0  0  0  0  0  0  # atno 6907 bound_to 6896
  151.9421  135.0206  160.0546 H   0  0  0  0  0  0  0  0  0  0  0  0  # atno 6908 bound_to 6896
  152.2085  133.4858  159.5134 H   0  0  0  0  0  0  0  0  0  0  0  0  # atno 6909 bound_to 6896
  145.3457  139.2451  143.3585 H   0  0  0  0  0  0  0  0  0  0  0  0  # atno 7974 bound_to 7965
  155.0964  140.3225  155.4559 H   0  0  0  0  0  0  0  0  0  0  0  0  # atno 8008 bound_to 7997
  156.2729  140.2069  156.6037 H   0  0  0  0  0  0  0  0  0  0  0  0  # atno 8009 bound_to 7997
  154.6863  140.0521  157.0305 H   0  0  0  0  0  0  0  0  0  0  0  0  # atno 8010 bound_to 7997
  139.5268  144.6582  151.5097 H   0  0  0  0  0  0  0  0  0  0  0  0  # atno 10167 bound_to 10162
  157.6144  131.1028  150.7509 H   0  0  0  0  0  0  0  0  0  0  0  0  # atno 10718 bound_to 10713
  154.5016  135.2784  155.1416 H   0  0  0  0  0  0  0  0  0  0  0  0  # atno 10763 bound_to 10752
  154.3047  135.6241  153.5443 H   0  0  0  0  0  0  0  0  0  0  0  0  # atno 10764 bound_to 10752
  152.9903  135.5705  154.5460 H   0  0  0  0  0  0  0  0  0  0  0  0  # atno 10765 bound_to 10752
  141.1121  133.8686  157.1555 H   0  0  0  0  0  0  0  0  0  0  0  0  # atno 11005 bound_to 11000
  146.2989  140.4064  142.8711 LP  0  0  0  0  0  0  0  0  0  0  0  0  # atno 17320 bound_to 7965
  144.8756  140.7331  143.6019 LP  0  0  0  0  0  0  0  0  0  0  0  0  # atno 17321 bound_to 7965
  140.6417  143.8875  150.6698 LP  0  0  0  0  0  0  0  0  0  0  0  0  # atno 17342 bound_to 10162
  140.2212  143.3807  152.1641 LP  0  0  0  0  0  0  0  0  0  0  0  0  # atno 17343 bound_to 10162
  156.7880  130.4880  149.5389 LP  0  0  0  0  0  0  0  0  0  0  0  0  # atno 17370 bound_to 10713
  156.1260  130.6144  151.0264 LP  0  0  0  0  0  0  0  0  0  0  0  0  # atno 17371 bound_to 10713
  140.0021  135.0023  157.0212 LP  0  0  0  0  0  0  0  0  0  0  0  0  # atno 17394 bound_to 11000
  140.4747  134.1350  155.7208 LP  0  0  0  0  0  0  0  0  0  0  0  0  # atno 17395 bound_to 11000

$$$$
