#       Name:                AV-unprocessed.smi:3291
#       Creating user name   scv26
#       Creation time:       Fri Mar 27 18:55:30 2020


#       File generated by GOLD software.
#

@<TRIPOS>MOLECULE
AV-unprocessed.smi:3291
    46    48     1
SMALL
NO_CHARGES


@<TRIPOS>ATOM
      1 ****        -3.9103  -1.6767  -0.6774 C.3            1 S1                 0.0000
      2 ****        -3.3412  -0.8811   0.4625 C.2            1 S1                 0.0000
      3 ****        -3.6671  -1.1982   1.7030 N.2            1 S1                 0.0000
      4 ****        -2.9908  -0.2889   2.5196 O.3            1 S1                 0.0000
      5 ****        -2.2742   0.5511   1.7309 C.2            1 S1                 0.0000
      6 ****        -1.4780   1.5943   2.4421 C.3            1 S1                 0.0000
      7 ****        -2.4460   0.2271   0.4093 C.2            1 S1                 0.0000
      8 ****        -1.8527   0.8572  -0.8333 C.3            1 S1                 0.0000
      9 ****        -2.4845   2.2304  -1.1053 C.3            1 S1                 0.0000
     10 ****        -0.3175   0.9488  -0.7579 C.3            1 S1                 0.0000
     11 ****         0.2917  -0.3857  -0.5717 N.4            1 S1                 1.0000
     12 ****         1.7629  -0.3951  -0.4291 C.3            1 S1                 0.0000
     13 ****         2.2662  -1.8106  -0.6464 C.3            1 S1                 0.0000
     14 ****         3.6881  -2.0783  -1.0829 C.3            1 S1                 0.0000
     15 ****         2.5450  -2.3335  -2.0362 C.3            1 S1                 0.0000
     16 ****         2.1720   0.1223   0.9422 C.3            1 S1                 0.0000
     17 ****         2.5074   1.5796   1.1690 C.3            1 S1                 0.0000
     18 ****         3.5979   0.5391   1.2250 C.3            1 S1                 0.0000
     19 ****        -4.5192  -1.0461  -1.3253 H              1 S1                 0.0000
     20 ****        -4.5398  -2.4951  -0.3263 H              1 S1                 0.0000
     21 ****        -3.1162  -2.1099  -1.2855 H              1 S1                 0.0000
     22 ****        -1.5231   2.5487   1.9189 H              1 S1                 0.0000
     23 ****        -0.4325   1.2968   2.5165 H              1 S1                 0.0000
     24 ****        -1.8542   1.7518   3.4531 H              1 S1                 0.0000
     25 ****        -2.0870   0.2357  -1.6985 H              1 S1                 0.0000
     26 ****        -3.5662   2.1474  -1.2161 H              1 S1                 0.0000
     27 ****        -2.0942   2.6669  -2.0249 H              1 S1                 0.0000
     28 ****        -2.2868   2.9341  -0.2968 H              1 S1                 0.0000
     29 ****         0.0744   1.3873  -1.6766 H              1 S1                 0.0000
     30 ****        -0.0232   1.6110   0.0547 H              1 S1                 0.0000
     31 ****        -0.1142  -0.8198   0.2451 H              1 S1                 0.0000
     32 ****         2.1993   0.2446  -1.1984 H              1 S1                 0.0000
     33 ****         1.8522  -2.5322   0.0561 H              1 S1                 0.0000
     34 ****         4.3299  -1.2259  -1.2959 H              1 S1                 0.0000
     35 ****         4.1898  -2.9438  -0.6547 H              1 S1                 0.0000
     36 ****         2.2861  -3.3698  -2.2445 H              1 S1                 0.0000
     37 ****         2.4286  -1.6466  -2.8722 H              1 S1                 0.0000
     38 ****         1.6706  -0.3853   1.7648 H              1 S1                 0.0000
     39 ****         2.4961   2.2454   0.3083 H              1 S1                 0.0000
     40 ****         2.1878   2.0268   2.1080 H              1 S1                 0.0000
     41 ****         4.0085   0.2932   2.2022 H              1 S1                 0.0000
     42 ****         4.3114   0.5256   0.4038 H              1 S1                 0.0000
     43 ****         0.0545  -0.9429  -1.3801 H              1 S1                 0.0000
     44 ****        -4.2733  -1.9372   1.9969 LP             1 S1                 0.0000
     45 ****        -2.3748  -0.7815   3.1343 LP             1 S1                 0.0000
     46 ****        -3.6503   0.2353   3.0584 LP             1 S1                 0.0000
@<TRIPOS>BOND
    1    1    2 1     
    2    1   19 1     
    3    1   20 1     
    4    1   21 1     
    5    2    7 1     
    6    2    3 2     
    7    3    4 1     
    8    4    5 1     
    9    5    6 1     
   10    5    7 2     
   11    6   22 1     
   12    6   23 1     
   13    6   24 1     
   14    7    8 1     
   15    8    9 1     
   16    8   10 1     
   17    8   25 1     
   18    9   26 1     
   19    9   27 1     
   20    9   28 1     
   21   10   11 1     
   22   10   29 1     
   23   10   30 1     
   24   11   12 1     
   25   11   31 1     
   26   11   43 1     
   27   12   13 1     
   28   12   16 1     
   29   12   32 1     
   30   13   15 1     
   31   13   14 1     
   32   13   33 1     
   33   14   15 1     
   34   14   34 1     
   35   14   35 1     
   36   15   36 1     
   37   15   37 1     
   38   16   18 1     
   39   16   17 1     
   40   16   38 1     
   41   17   18 1     
   42   17   39 1     
   43   17   40 1     
   44   18   41 1     
   45   18   42 1     
   46    3   44 1     
   47    4   45 1     
   48    4   46 1     
@<TRIPOS>SUBSTRUCTURE
      1 S1             1
@<TRIPOS>SET
LONE_PAIRS      STATIC     ATOMS    <user>   **** ""
3 44 45 46
DONOR_HYDROGENS      STATIC     ATOMS    <user>   **** ""
2 31 43
ATOM$BLUE        STATIC     ATOMS    COLORGROUP SYSTEM
3 44 45 46
ATOM$RED        STATIC     ATOMS    COLORGROUP SYSTEM
2 31 43
