AV-unprocessed.smi:218|AV-procd|sdf|1673|dock1
  -GOLD-   2262020 93D 1   1.00000     0.00000
 Structure written by MMmdl.
 54 57  0  0  0  0  0  0  0  0  1 V2000
  153.0044  142.6041  159.3610 C   0  0  0  0  0  0  0  0  0  0  0  0
  152.3752  143.5143  158.2996 C   0  0  0  0  0  0  0  0  0  0  0  0
  152.1809  144.9432  158.8359 C   0  0  0  0  0  0  0  0  0  0  0  0
  151.1141  142.9379  157.9545 O   0  0  0  0  0  0  0  0  0  0  0  0
  151.0620  141.7716  157.2157 C   0  0  0  0  0  0  0  0  0  0  0  0
  150.2301  141.7392  156.0781 C   0  0  0  0  0  0  0  0  0  0  0  0
  150.1664  140.5562  155.3118 C   0  0  0  0  0  0  0  0  0  0  0  0
  149.2873  140.4684  154.0749 C   0  0  0  0  0  0  0  0  0  0  0  0
  147.8789  140.7834  154.2929 N   0  0  0  0  0  0  0  0  0  0  0  0
  146.9952  139.8080  154.5998 C   0  0  0  0  0  0  0  0  0  0  0  0
  146.5481  139.6399  155.8718 N   0  0  0  0  0  0  0  0  0  0  0  0
  145.6713  138.6704  156.1486 C   0  0  0  0  0  0  0  0  0  0  0  0
  145.1208  137.7819  155.3187 N   0  0  0  0  0  0  0  0  0  0  0  0
  145.5614  137.9497  154.0382 C   0  0  0  0  0  0  0  0  0  0  0  0
  146.4929  138.9330  153.6021 C   0  0  0  0  0  0  0  0  0  0  0  0
  146.7083  138.8056  152.2361 N   0  0  0  0  0  0  0  0  0  0  0  0
  145.9444  137.8048  151.8888 C   0  0  0  0  0  0  0  0  0  0  0  0
  145.2173  137.2336  152.9094 N   0  0  0  0  0  0  0  0  0  0  0  0
  144.2590  136.0914  152.8135 C   0  0  1  0  0  0  0  0  0  0  0  0
  144.2148  135.6693  151.4874 O   0  0  0  0  0  0  0  0  0  0  0  0
  144.0475  134.2608  151.4609 C   0  0  1  0  0  0  0  0  0  0  0  0
  144.4237  133.6907  150.0821 C   0  0  0  0  0  0  0  0  0  0  0  0
  143.8199  134.4488  149.0555 O   0  0  0  0  0  0  0  0  0  0  0  0
  144.8597  133.7668  152.6686 C   0  0  1  0  0  0  0  0  0  0  0  0
  146.2190  133.5521  152.3405 O   0  0  0  0  0  0  0  0  0  0  0  0
  144.7257  134.9056  153.6779 C   0  0  2  0  0  0  0  0  0  0  0  0
  143.7483  134.5659  154.6411 O   0  0  0  0  0  0  0  0  0  0  0  0
  150.9315  139.4466  155.7225 C   0  0  0  0  0  0  0  0  0  0  0  0
  151.7321  139.5736  156.8738 C   0  0  0  0  0  0  0  0  0  0  0  0
  151.7999  140.7036  157.6089 N   0  0  0  0  0  0  0  0  0  0  0  0
  143.2949  136.5034  153.1161 H   0  0  0  0  0  0  0  0  0  0  0  0
  142.9902  134.0666  151.6517 H   0  0  0  0  0  0  0  0  0  0  0  0
  144.4649  132.8222  153.0465 H   0  0  0  0  0  0  0  0  0  0  0  0
  145.6664  135.1288  154.1849 H   0  0  0  0  0  0  0  0  0  0  0  0
  153.9800  142.9784  159.6723 H   0  0  0  0  0  0  0  0  0  0  0  0
  153.1453  141.5946  158.9741 H   0  0  0  0  0  0  0  0  0  0  0  0
  152.3737  142.5351  160.2479 H   0  0  0  0  0  0  0  0  0  0  0  0
  153.0507  143.5253  157.4428 H   0  0  0  0  0  0  0  0  0  0  0  0
  153.1326  145.3771  159.1435 H   0  0  0  0  0  0  0  0  0  0  0  0
  151.5166  144.9511  159.7003 H   0  0  0  0  0  0  0  0  0  0  0  0
  151.7507  145.6033  158.0834 H   0  0  0  0  0  0  0  0  0  0  0  0
  149.6558  142.6105  155.7996 H   0  0  0  0  0  0  0  0  0  0  0  0
  149.6844  141.1148  153.2911 H   0  0  0  0  0  0  0  0  0  0  0  0
  149.3480  139.4504  153.6898 H   0  0  0  0  0  0  0  0  0  0  0  0
  147.5947  141.7185  154.0394 H   0  0  0  0  0  0  0  0  0  0  0  0
  145.3656  138.5968  157.1817 H   0  0  0  0  0  0  0  0  0  0  0  0
  145.8854  137.4559  150.8681 H   0  0  0  0  0  0  0  0  0  0  0  0
  145.5048  133.7318  149.9477 H   0  0  0  0  0  0  0  0  0  0  0  0
  144.1343  132.6437  149.9880 H   0  0  0  0  0  0  0  0  0  0  0  0
  144.4567  134.5873  148.3706 H   0  0  0  0  0  0  0  0  0  0  0  0
  146.7533  134.0294  152.9570 H   0  0  0  0  0  0  0  0  0  0  0  0
  143.3503  133.7478  154.3858 H   0  0  0  0  0  0  0  0  0  0  0  0
  150.9123  138.5205  155.1670 H   0  0  0  0  0  0  0  0  0  0  0  0
  152.3340  138.7443  157.2146 H   0  0  0  0  0  0  0  0  0  0  0  0
  1  2  1  0  0  0  0
  1 35  1  0  0  0  0
  1 36  1  0  0  0  0
  1 37  1  0  0  0  0
  2  3  1  0  0  0  0
  2  4  1  0  0  0  0
  2 38  1  0  0  0  0
  3 39  1  0  0  0  0
  3 40  1  0  0  0  0
  3 41  1  0  0  0  0
  4  5  1  0  0  0  0
  5 30  1  0  0  0  0
  5  6  2  0  0  0  0
  6  7  1  0  0  0  0
  6 42  1  0  0  0  0
  7  8  1  0  0  0  0
  7 28  2  0  0  0  0
  8  9  1  0  0  0  0
  8 43  1  0  0  0  0
  8 44  1  0  0  0  0
  9 10  1  0  0  0  0
  9 45  1  0  0  0  0
 10 15  1  0  0  0  0
 10 11  2  0  0  0  0
 11 12  1  0  0  0  0
 12 13  2  0  0  0  0
 12 46  1  0  0  0  0
 13 14  1  0  0  0  0
 14 18  1  0  0  0  0
 14 15  2  0  0  0  0
 15 16  1  0  0  0  0
 16 17  2  0  0  0  0
 17 18  1  0  0  0  0
 17 47  1  0  0  0  0
 18 19  1  0  0  0  0
 19 31  1  0  0  0  0
 19 26  1  0  0  0  0
 19 20  1  0  0  0  0
 20 21  1  0  0  0  0
 21 32  1  0  0  0  0
 21 22  1  0  0  0  0
 21 24  1  0  0  0  0
 22 23  1  0  0  0  0
 22 48  1  0  0  0  0
 22 49  1  0  0  0  0
 23 50  1  0  0  0  0
 24 33  1  0  0  0  0
 24 25  1  0  0  0  0
 24 26  1  0  0  0  0
 25 51  1  0  0  0  0
 26 34  1  0  0  0  0
 26 27  1  0  0  0  0
 27 52  1  0  0  0  0
 28 29  1  0  0  0  0
 28 53  1  0  0  0  0
 29 30  2  0  0  0  0
 29 54  1  0  0  0  0
M  END
> <s_m_source_file>
AV-unprocessed.smi

> <i_m_source_file_index>
218

> <i_lp_mmshare_version>
43012

> <i_f3d_flags>
0

> <s_epik_input>
W0NIM11bQ0hdKFtDSDNdKU9jMVtjSF1jKFtjSF1bY0hdbjEpW0NIMl1bTkhdYyhuW2NIXW4yKWMoYzIzKW5bY0hdbjNbQ0BASF00T1tDQEhdKFtDSDJdW09IXSlbQ0BASF0oW09IXSlbQ0BIXTRbT0hd

> <s_epik_cmdline>
J2VwaWtfcHl0aG9uJywgJy1waCcsICc3LjAnLCAnLXRuJywgJzgnLCAnLW1hJywgJzIwMCcsICctbWV0YWxfYmluZGluZycsICctaW1hZScsICc8aW5maWxlLm1hZT4nLCAnLW9tYWUnLCAnPG91dGZpbGUubWFlPic=

> <r_lp_tautomer_probability>
1

> <r_epik_Ionization_Penalty>
0.00457014

> <r_epik_Ionization_Penalty_Charging>
0

> <r_epik_Ionization_Penalty_Neutral>
0.00457014

> <r_epik_State_Penalty>
-0

> <r_epik_Charging_Adjusted_Penalty>
0

> <i_epik_Tot_Q>
0

> <i_epik_Tot_abs_Q>
0

> <r_epik_Metal_State_Penalty>
-0

> <b_epik_Metal_Only>
0

> <s_epik_Chemistry_Notes>
This compound contains an acetal/aminal-like group ( X-CH(R)-Y where X, Y are N, S, or O) that may be acid/base labile, releasing an aldehyde.

> <s_lp_Force_Field>
OPLS_2005

> <r_lp_Energy>
38.5835

> <b_lp_Chiralities_Consistent>
1

> <s_lp_Variant>
AV-unprocessed.smi:218-12

> <Gold.Version>
5.8.1

> <Gold.Id.Protein>
6NUR|6NUR_protein|mol2

> <Gold.PLP.Fitness>
48.5671

> <Gold.PLP.PLP>
-42.7666

> <Gold.PLP.part.hbond>
-3.0000

> <Gold.PLP.part.metal>
0.0000

> <Gold.PLP.part.buried>
-4.8824

> <Gold.PLP.part.nonpolar>
-36.2521

> <Gold.PLP.part.repulsive>
0.7085

> <Gold.PLP.ligand.clash>
0.0000

> <Gold.PLP.ligand.torsion>
1.1598

> <Gold.PLP.Chemscore.Hbond>
2.0000

> <Gold.PLP.Chemscore.CHOScore>
0.6094

> <Gold.PLP.Chemscore.Metal>
0.0000

> <Gold.Chemscore.Hbonds>
donor molecule, donor type, donor heavy atom, donor atom, acceptor molecule, acceptor atom, score
      L1  H    23    50       P1  7921  1.00
      L1  H    27    52       P1 10957  0.73
      L1  C    17    47       P1 10171  0.54

> <Gold.PLP.Chemscore.Internal.Correction>
0.2918

> <Gold.Rescore>
     Score         DG    S(hbond)    S(metal)    S(lipo)     H(rot)  DE(clash)    DE(int)     intcor
      8.41     -10.86       1.98        0.00      96.89       4.90       0.13       2.32       ----

> <Gold.Chemscore.Fitness>
8.4120

> <Gold.Chemscore.DG>
-10.8640

> <Gold.Chemscore.ZeroCoef>
-5.4800

> <Gold.Chemscore.Hbond>
1.9758

> <Gold.Chemscore.Metal>
0.0000

> <Gold.Chemscore.Lipo>
96.8907

> <Gold.Chemscore.Internal_Hbond>
0.0000

> <Gold.Chemscore.DEClash>
0.1325

> <Gold.Chemscore.DEInternal>
2.3194

> <Gold.Chemscore.Rot>
4.9029

> <Gold.Chemscore.Internal.Correction>
   9.000000E+99

> <Gold.Chemscore.Hbonds>
donor molecule, donor type, donor heavy atom, donor atom, acceptor molecule, acceptor atom, score
      L1  H    23    50       P1  7921  0.99
      L1  H    27    52       P1 10957  0.71

> <Gold.Chemscore.Hbond.Weighted>
-6.5993

> <Gold.Chemscore.Metal.Weighted>
-0.0000

> <Gold.Chemscore.Lipo.Weighted>
-11.3362

> <Gold.Chemscore.Internal_Hbond.Weighted>
0.0000

> <Gold.Chemscore.DEClash.Weighted>
0.1325

> <Gold.Chemscore.DEInternal.Weighted>
2.3194

> <Gold.Chemscore.Rot.Weighted>
12.5515

> <Gold.Chemscore.Internal.Correction.Weighted>
   9.000000E+99

> <Gold.Protein.RotatedTorsions>
[ 6907 6896 6895 6894 ] final   69.52 input  -60.11 | X-H torsion
[ 7974 7965 7964 7962 ] final -136.71 input  175.53 | X-H torsion
[ 8008 7997 7996 7995 ] final -101.89 input   59.86 | X-H torsion
[ 10167 10162 10161 10158 ] final   61.39 input  -65.29 | X-H torsion
[ 10718 10713 10712 10709 ] final -153.66 input   66.30 | X-H torsion
[ 10763 10752 10751 10750 ] final  -92.53 input  -60.55 | X-H torsion
[ 11005 11000 10999 10996 ] final  -34.33 input  -57.11 | X-H torsion

> <Gold.Protein.ActiveResidues>
 VAL166  LYS551  ARG553  GLY616  TRP617  ASP618  TYR619  PRO620  LYS621  CYS622 
 ASP623  PHE694  ASN695  SER759  ASP760  ASP761  ALA762  ILE779  LEU786  VAL792 
 PHE793  MET794  SER795  GLU796  ALA797  LYS798  CYS799  TRP800  GLU811  SER814 

> <Gold.Protein.RotatedAtoms>
  152.4691  134.5003  159.9722 H   0  0  0  0  0  0  0  0  0  0  0  0  # atno 6907 bound_to 6896
  151.5034  133.3494  159.2880 H   0  0  0  0  0  0  0  0  0  0  0  0  # atno 6908 bound_to 6896
  150.8692  134.8090  159.7203 H   0  0  0  0  0  0  0  0  0  0  0  0  # atno 6909 bound_to 6896
  144.8903  140.6633  143.5149 H   0  0  0  0  0  0  0  0  0  0  0  0  # atno 7974 bound_to 7965
  154.8490  140.0431  157.1591 H   0  0  0  0  0  0  0  0  0  0  0  0  # atno 8008 bound_to 7997
  154.8963  140.2994  155.5322 H   0  0  0  0  0  0  0  0  0  0  0  0  # atno 8009 bound_to 7997
  156.2995  140.2384  156.3986 H   0  0  0  0  0  0  0  0  0  0  0  0  # atno 8010 bound_to 7997
  140.1553  144.4423  150.6738 H   0  0  0  0  0  0  0  0  0  0  0  0  # atno 10167 bound_to 10162
  156.4889  130.8338  151.2562 H   0  0  0  0  0  0  0  0  0  0  0  0  # atno 10718 bound_to 10713
  154.6870  135.5227  153.8341 H   0  0  0  0  0  0  0  0  0  0  0  0  # atno 10763 bound_to 10752
  153.0605  135.6566  154.0484 H   0  0  0  0  0  0  0  0  0  0  0  0  # atno 10764 bound_to 10752
  154.0363  135.2981  155.3341 H   0  0  0  0  0  0  0  0  0  0  0  0  # atno 10765 bound_to 10752
  140.9707  133.7111  156.1519 H   0  0  0  0  0  0  0  0  0  0  0  0  # atno 11005 bound_to 11000
  145.3794  139.1640  143.4289 LP  0  0  0  0  0  0  0  0  0  0  0  0  # atno 17320 bound_to 7965
  146.3050  140.3873  142.8690 LP  0  0  0  0  0  0  0  0  0  0  0  0  # atno 17321 bound_to 7965
  140.6677  143.2274  151.5702 LP  0  0  0  0  0  0  0  0  0  0  0  0  # atno 17342 bound_to 10162
  139.5406  144.2657  152.1344 LP  0  0  0  0  0  0  0  0  0  0  0  0  # atno 17343 bound_to 10162
  157.7476  131.0020  150.2985 LP  0  0  0  0  0  0  0  0  0  0  0  0  # atno 17370 bound_to 10713
  156.3447  130.3821  149.7379 LP  0  0  0  0  0  0  0  0  0  0  0  0  # atno 17371 bound_to 10713
  140.7333  134.4231  157.5563 LP  0  0  0  0  0  0  0  0  0  0  0  0  # atno 17394 bound_to 11000
  139.8911  134.8788  156.2336 LP  0  0  0  0  0  0  0  0  0  0  0  0  # atno 17395 bound_to 11000

$$$$
