AV-unprocessed.smi:2538|AV-procd|sdf|9983|dock2
  -GOLD-   2272014 33D 1   1.00000     0.00000
 Structure written by MMmdl.
 49 50  0  0  0  0  0  0  0  0  2 V2000
  145.2433  129.6074  151.9972 C   0  0  0  0  0  0  0  0  0  0  0  0
  145.4198  131.1086  151.8436 C   0  0  0  0  0  0  0  0  0  0  0  0
  144.3995  131.8450  151.1999 C   0  0  0  0  0  0  0  0  0  0  0  0
  144.5895  133.2160  151.0740 C   0  0  0  0  0  0  0  0  0  0  0  0
  143.7853  134.2041  150.5014 N   0  3  0  0  0  0  0  0  0  0  0  0
  144.3982  135.4147  150.6202 C   0  0  0  0  0  0  0  0  0  0  0  0
  145.5814  135.2130  151.2613 N   0  0  0  0  0  0  0  0  0  0  0  0
  146.6234  136.1717  151.6520 C   0  0  0  0  0  0  0  0  0  0  0  0
  146.1492  137.6358  151.5570 C   0  0  2  0  0  0  0  0  0  0  0  0
  146.2447  138.0399  150.2052 O   0  0  0  0  0  0  0  0  0  0  0  0
  147.0124  138.5785  152.4233 C   0  0  0  0  0  0  0  0  0  0  0  0
  146.5906  138.6204  153.8366 N   0  0  0  0  0  0  0  0  0  0  0  0
  145.3047  137.9808  154.1462 C   0  0  0  0  0  0  0  0  0  0  0  0
  147.1709  139.8745  154.8899 S   0  0  0  0  0  0  0  0  0  0  0  0
  145.9951  140.4329  155.5757 O   0  0  0  0  0  0  0  0  0  0  0  0
  148.2765  139.3119  155.6809 O   0  0  0  0  0  0  0  0  0  0  0  0
  147.8411  141.1573  153.7222 C   0  0  0  0  0  0  0  0  0  0  0  0
  149.3443  141.3664  153.9542 C   0  0  0  0  0  0  0  0  0  0  0  0
  147.0637  142.4745  153.8556 C   0  0  0  0  0  0  0  0  0  0  0  0
  145.7442  133.8571  151.5622 C   0  0  0  0  0  0  0  0  0  0  0  0
  146.7593  133.1475  152.1989 C   0  0  0  0  0  0  0  0  0  0  0  0
  146.5842  131.7521  152.3379 C   0  0  0  0  0  0  0  0  0  0  0  0
  147.6738  130.9514  153.0300 C   0  0  0  0  0  0  0  0  0  0  0  0
  144.3195  129.2645  151.5302 H   0  0  0  0  0  0  0  0  0  0  0  0
  145.2057  129.3331  153.0517 H   0  0  0  0  0  0  0  0  0  0  0  0
  146.0700  129.0728  151.5289 H   0  0  0  0  0  0  0  0  0  0  0  0
  143.5097  131.3623  150.8225 H   0  0  0  0  0  0  0  0  0  0  0  0
  144.0127  136.3629  150.2744 H   0  0  0  0  0  0  0  0  0  0  0  0
  146.9441  135.9294  152.6662 H   0  0  0  0  0  0  0  0  0  0  0  0
  147.4863  136.0049  151.0055 H   0  0  0  0  0  0  0  0  0  0  0  0
  145.1038  137.6778  151.8590 H   0  0  0  0  0  0  0  0  0  0  0  0
  145.3732  138.2015  149.8772 H   0  0  0  0  0  0  0  0  0  0  0  0
  148.0481  138.2368  152.4077 H   0  0  0  0  0  0  0  0  0  0  0  0
  147.0454  139.5859  152.0072 H   0  0  0  0  0  0  0  0  0  0  0  0
  144.4803  138.6701  153.9647 H   0  0  0  0  0  0  0  0  0  0  0  0
  145.2746  137.6820  155.1939 H   0  0  0  0  0  0  0  0  0  0  0  0
  145.1561  137.0883  153.5379 H   0  0  0  0  0  0  0  0  0  0  0  0
  147.7069  140.7851  152.7097 H   0  0  0  0  0  0  0  0  0  0  0  0
  149.7461  142.1133  153.2693 H   0  0  0  0  0  0  0  0  0  0  0  0
  149.9031  140.4441  153.7956 H   0  0  0  0  0  0  0  0  0  0  0  0
  149.5418  141.7060  154.9712 H   0  0  0  0  0  0  0  0  0  0  0  0
  147.4204  143.2136  153.1380 H   0  0  0  0  0  0  0  0  0  0  0  0
  147.1720  142.9012  154.8532 H   0  0  0  0  0  0  0  0  0  0  0  0
  146.0002  142.3224  153.6691 H   0  0  0  0  0  0  0  0  0  0  0  0
  147.6451  133.6387  152.5742 H   0  0  0  0  0  0  0  0  0  0  0  0
  148.4778  131.5963  153.3859 H   0  0  0  0  0  0  0  0  0  0  0  0
  148.1084  130.2246  152.3433 H   0  0  0  0  0  0  0  0  0  0  0  0
  147.2707  130.4175  153.8908 H   0  0  0  0  0  0  0  0  0  0  0  0
  142.8836  134.0656  150.0632 H   0  0  0  0  0  0  0  0  0  0  0  0
  1  2  1  0  0  0  0
  1 24  1  0  0  0  0
  1 25  1  0  0  0  0
  1 26  1  0  0  0  0
  2 22  1  0  0  0  0
  2  3  2  0  0  0  0
  3  4  1  0  0  0  0
  3 27  1  0  0  0  0
  4 20  2  0  0  0  0
  4  5  1  0  0  0  0
  5  6  2  0  0  0  0
  5 49  1  0  0  0  0
  6  7  1  0  0  0  0
  6 28  1  0  0  0  0
  7  8  1  0  0  0  0
  7 20  1  0  0  0  0
  8  9  1  0  0  0  0
  8 29  1  0  0  0  0
  8 30  1  0  0  0  0
  9 10  1  0  0  0  0
  9 11  1  0  0  0  0
  9 31  1  0  0  0  0
 10 32  1  0  0  0  0
 11 12  1  0  0  0  0
 11 33  1  0  0  0  0
 11 34  1  0  0  0  0
 12 13  1  0  0  0  0
 12 14  1  0  0  0  0
 13 35  1  0  0  0  0
 13 36  1  0  0  0  0
 13 37  1  0  0  0  0
 14 15  2  0  0  0  0
 14 16  2  0  0  0  0
 14 17  1  0  0  0  0
 17 18  1  0  0  0  0
 17 19  1  0  0  0  0
 17 38  1  0  0  0  0
 18 39  1  0  0  0  0
 18 40  1  0  0  0  0
 18 41  1  0  0  0  0
 19 42  1  0  0  0  0
 19 43  1  0  0  0  0
 19 44  1  0  0  0  0
 20 21  1  0  0  0  0
 21 22  2  0  0  0  0
 21 45  1  0  0  0  0
 22 23  1  0  0  0  0
 23 46  1  0  0  0  0
 23 47  1  0  0  0  0
 23 48  1  0  0  0  0
M  CHG  1   5   1
M  END
> <s_m_source_file>
AV-unprocessed.smi

> <i_m_source_file_index>
2538

> <i_lp_mmshare_version>
43012

> <i_f3d_flags>
0

> <s_epik_input>
W0NIM11jKFtjSF0xKWMoW0NIM10pW2NIXWMoYzEyKW4oW2NIXW4yKVtDSDJdW0NASF0oW09IXSlbQ0gyXU4oW0NIM10pUyg9TykoPU8pW0NIXShbQ0gzXSlbQ0gzXQ==

> <s_epik_cmdline>
J2VwaWtfcHl0aG9uJywgJy1waCcsICc3LjAnLCAnLXRuJywgJzgnLCAnLW1hJywgJzIwMCcsICctbWV0YWxfYmluZGluZycsICctaW1hZScsICc8aW5maWxlLm1hZT4nLCAnLW9tYWUnLCAnPG91dGZpbGUubWFlPic=

> <r_epik_Ionization_Penalty>
1.07686

> <r_epik_Ionization_Penalty_Charging>
1.07685

> <r_epik_Ionization_Penalty_Neutral>
1.40866e-06

> <r_epik_State_Penalty>
1.13193

> <r_epik_Charging_Adjusted_Penalty>
2.20879

> <i_epik_Tot_Q>
1

> <i_epik_Tot_abs_Q>
1

> <r_epik_Metal_State_Penalty>
5.12988

> <b_epik_Metal_Only>
0

> <s_lp_Force_Field>
OPLS_2005

> <r_lp_Energy>
10.0565

> <b_lp_Chiralities_Consistent>
1

> <s_lp_Variant>
AV-unprocessed.smi:2538-3

> <Gold.Version>
5.8.1

> <Gold.Id.Protein>
6NUR|6NUR_protein|mol2

> <Gold.PLP.Fitness>
52.4329

> <Gold.PLP.PLP>
-39.8008

> <Gold.PLP.part.hbond>
-2.6889

> <Gold.PLP.part.metal>
0.0000

> <Gold.PLP.part.buried>
0.9395

> <Gold.PLP.part.nonpolar>
-38.6084

> <Gold.PLP.part.repulsive>
0.0862

> <Gold.PLP.ligand.clash>
0.1755

> <Gold.PLP.ligand.torsion>
2.0203

> <Gold.PLP.Chemscore.Hbond>
3.7113

> <Gold.PLP.Chemscore.CHOScore>
1.0000

> <Gold.PLP.Chemscore.Metal>
0.0000

> <Gold.Chemscore.Hbonds>
donor molecule, donor type, donor heavy atom, donor atom, acceptor molecule, acceptor atom, score
      L1  H     5    49       P1 10186  2.00
      L1  H    10    32       P1 10171  0.99
      P1  H  7954  7966       L1    10  0.72
      L1  C     6    28       P1 10171  1.00

> <Gold.PLP.Chemscore.Internal.Correction>
2.7145

> <Gold.Rescore>
     Score         DG    S(hbond)    S(metal)    S(lipo)     H(rot)  DE(clash)    DE(int)     intcor
     15.79     -19.61       2.72        0.00      94.88       2.36       2.01       1.82       ----

> <Gold.Chemscore.Fitness>
15.7861

> <Gold.Chemscore.DG>
-19.6135

> <Gold.Chemscore.ZeroCoef>
-5.4800

> <Gold.Chemscore.Hbond>
2.7163

> <Gold.Chemscore.Metal>
0.0000

> <Gold.Chemscore.Lipo>
94.8827

> <Gold.Chemscore.Internal_Hbond>
0.0000

> <Gold.Chemscore.DEClash>
2.0066

> <Gold.Chemscore.DEInternal>
1.8208

> <Gold.Chemscore.Rot>
2.3595

> <Gold.Chemscore.Internal.Correction>
   9.000000E+99

> <Gold.Chemscore.Hbonds>
donor molecule, donor type, donor heavy atom, donor atom, acceptor molecule, acceptor atom, score
      L1  H     5    49       P1 10186  0.96
      L1  H    10    32       P1 10171  0.92
      P1  H  7954  7966       L1    10  0.25

> <Gold.Chemscore.Hbond.Weighted>
-9.0725

> <Gold.Chemscore.Metal.Weighted>
-0.0000

> <Gold.Chemscore.Lipo.Weighted>
-11.1013

> <Gold.Chemscore.Internal_Hbond.Weighted>
0.0000

> <Gold.Chemscore.DEClash.Weighted>
2.0066

> <Gold.Chemscore.DEInternal.Weighted>
1.8208

> <Gold.Chemscore.Rot.Weighted>
6.0403

> <Gold.Chemscore.Internal.Correction.Weighted>
   9.000000E+99

> <Gold.Protein.RotatedTorsions>
[ 6907 6896 6895 6894 ] final  135.56 input  -60.11 | X-H torsion
[ 7974 7965 7964 7962 ] final  -44.32 input  175.53 | X-H torsion
[ 8008 7997 7996 7995 ] final  105.05 input   59.86 | X-H torsion
[ 10167 10162 10161 10158 ] final  119.67 input  -65.29 | X-H torsion
[ 10718 10713 10712 10709 ] final  167.01 input   66.30 | X-H torsion
[ 10763 10752 10751 10750 ] final  105.08 input  -60.55 | X-H torsion
[ 11005 11000 10999 10996 ] final -113.20 input  -57.11 | X-H torsion

> <Gold.Protein.ActiveResidues>
 VAL166  LYS551  ARG553  GLY616  TRP617  ASP618  TYR619  PRO620  LYS621  CYS622 
 ASP623  PHE694  ASN695  SER759  ASP760  ASP761  ALA762  ILE779  LEU786  VAL792 
 PHE793  MET794  SER795  GLU796  ALA797  LYS798  CYS799  TRP800  GLU811  SER814 

> <Gold.Protein.RotatedAtoms>
  152.2990  133.5637  159.5606 H   0  0  0  0  0  0  0  0  0  0  0  0  # atno 6907 bound_to 6896
  150.7269  134.0318  159.3745 H   0  0  0  0  0  0  0  0  0  0  0  0  # atno 6908 bound_to 6896
  151.8219  135.0649  160.0477 H   0  0  0  0  0  0  0  0  0  0  0  0  # atno 6909 bound_to 6896
  145.9932  140.7157  142.9306 H   0  0  0  0  0  0  0  0  0  0  0  0  # atno 7974 bound_to 7965
  156.1626  140.3137  155.8833 H   0  0  0  0  0  0  0  0  0  0  0  0  # atno 8008 bound_to 7997
  155.3752  140.0484  157.3062 H   0  0  0  0  0  0  0  0  0  0  0  0  # atno 8009 bound_to 7997
  154.5161  140.2182  155.9075 H   0  0  0  0  0  0  0  0  0  0  0  0  # atno 8010 bound_to 7997
  139.6031  144.7062  151.3017 H   0  0  0  0  0  0  0  0  0  0  0  0  # atno 10167 bound_to 10162
  157.0577  131.0331  151.2658 H   0  0  0  0  0  0  0  0  0  0  0  0  # atno 10718 bound_to 10713
  153.3745  135.3922  155.1813 H   0  0  0  0  0  0  0  0  0  0  0  0  # atno 10763 bound_to 10752
  154.8699  135.3710  154.4935 H   0  0  0  0  0  0  0  0  0  0  0  0  # atno 10764 bound_to 10752
  153.5406  135.7084  153.5699 H   0  0  0  0  0  0  0  0  0  0  0  0  # atno 10765 bound_to 10752
  141.0629  133.9506  157.2634 H   0  0  0  0  0  0  0  0  0  0  0  0  # atno 11005 bound_to 11000
  144.6895  140.3106  143.7248 LP  0  0  0  0  0  0  0  0  0  0  0  0  # atno 17320 bound_to 7965
  145.7599  139.1821  143.2273 LP  0  0  0  0  0  0  0  0  0  0  0  0  # atno 17321 bound_to 7965
  140.7264  143.6990  150.7860 LP  0  0  0  0  0  0  0  0  0  0  0  0  # atno 17342 bound_to 10162
  140.0570  143.5192  152.2646 LP  0  0  0  0  0  0  0  0  0  0  0  0  # atno 17343 bound_to 10162
  157.4980  130.7862  149.7575 LP  0  0  0  0  0  0  0  0  0  0  0  0  # atno 17370 bound_to 10713
  155.9988  130.3892  150.2688 LP  0  0  0  0  0  0  0  0  0  0  0  0  # atno 17371 bound_to 10713
  139.9449  135.0185  156.8821 LP  0  0  0  0  0  0  0  0  0  0  0  0  # atno 17394 bound_to 11000
  140.5833  134.0331  155.7472 LP  0  0  0  0  0  0  0  0  0  0  0  0  # atno 17395 bound_to 11000

$$$$
