AV-unprocessed.smi:737|AV-procd|sdf|3537|dock9
  -GOLD-   22720 0533D 1   1.00000     0.00000
 Structure written by MMmdl.
 45 47  0  0  0  0  0  0  0  0  1 V2000
  147.1577  133.2854  152.0674 C   0  0  0  0  0  0  0  0  0  0  0  0
  148.1570  133.8166  152.9802 N   0  0  0  0  0  0  0  0  0  0  0  0
  148.7555  132.9933  153.9439 C   0  0  0  0  0  0  0  0  0  0  0  0
  148.6630  131.6478  153.8332 N   0  0  0  0  0  0  0  0  0  0  0  0
  149.2541  130.8996  154.7738 C   0  0  0  0  0  0  0  0  0  0  0  0
  149.9533  131.2912  155.8505 N   0  0  0  0  0  0  0  0  0  0  0  0
  150.0493  132.6222  155.9702 C   0  0  0  0  0  0  0  0  0  0  0  0
  150.7109  133.3013  156.9792 N   0  0  0  0  0  0  0  0  0  0  0  0
  150.5036  134.5694  156.6331 C   0  0  0  0  0  0  0  0  0  0  0  0
  149.7857  134.7999  155.5165 N   0  0  0  0  0  0  0  0  0  0  0  0
  149.4432  136.0993  154.9643 C   0  0  0  0  0  0  0  0  0  0  0  0
  150.6288  137.0858  154.9928 C   0  0  1  0  0  0  0  0  0  0  0  0
  151.6681  136.6944  154.1175 O   0  0  0  0  0  0  0  0  0  0  0  0
  150.2271  138.5330  154.6704 C   0  0  0  0  0  0  0  0  0  0  0  0
  151.3160  139.4043  154.9437 O   0  0  0  0  0  0  0  0  0  0  0  0
  151.0956  140.2521  155.9976 C   0  0  0  0  0  0  0  0  0  0  0  0
  151.6680  139.9619  157.2577 C   0  0  0  0  0  0  0  0  0  0  0  0
  152.5230  138.7230  157.4472 C   0  0  0  0  0  0  0  0  0  0  0  0
  151.4441  140.8298  158.3462 C   0  0  0  0  0  0  0  0  0  0  0  0
  150.6443  141.9762  158.1852 C   0  0  0  0  0  0  0  0  0  0  0  0
  150.0589  142.2561  156.9365 C   0  0  0  0  0  0  0  0  0  0  0  0
  150.2748  141.3949  155.8409 C   0  0  0  0  0  0  0  0  0  0  0  0
  149.6159  141.7065  154.5096 C   0  0  0  0  0  0  0  0  0  0  0  0
  149.4629  133.5308  155.0385 C   0  0  0  0  0  0  0  0  0  0  0  0
  146.8201  134.0696  151.3897 H   0  0  0  0  0  0  0  0  0  0  0  0
  146.2921  132.9131  152.6164 H   0  0  0  0  0  0  0  0  0  0  0  0
  147.5715  132.4728  151.4696 H   0  0  0  0  0  0  0  0  0  0  0  0
  148.4623  134.7733  152.8717 H   0  0  0  0  0  0  0  0  0  0  0  0
  149.1546  129.8315  154.6476 H   0  0  0  0  0  0  0  0  0  0  0  0
  150.8973  135.3811  157.2275 H   0  0  0  0  0  0  0  0  0  0  0  0
  149.0693  135.9592  153.9509 H   0  0  0  0  0  0  0  0  0  0  0  0
  148.6096  136.5070  155.5375 H   0  0  0  0  0  0  0  0  0  0  0  0
  151.0604  137.0744  155.9944 H   0  0  0  0  0  0  0  0  0  0  0  0
  151.2853  136.4311  153.2945 H   0  0  0  0  0  0  0  0  0  0  0  0
  149.9686  138.6063  153.6130 H   0  0  0  0  0  0  0  0  0  0  0  0
  149.3378  138.8201  155.2333 H   0  0  0  0  0  0  0  0  0  0  0  0
  152.6553  138.4926  158.5047 H   0  0  0  0  0  0  0  0  0  0  0  0
  153.5079  138.8726  157.0050 H   0  0  0  0  0  0  0  0  0  0  0  0
  152.0596  137.8581  156.9716 H   0  0  0  0  0  0  0  0  0  0  0  0
  151.8835  140.6184  159.3102 H   0  0  0  0  0  0  0  0  0  0  0  0
  150.4744  142.6381  159.0216 H   0  0  0  0  0  0  0  0  0  0  0  0
  149.4389  143.1334  156.8235 H   0  0  0  0  0  0  0  0  0  0  0  0
  148.6937  142.2698  154.6549 H   0  0  0  0  0  0  0  0  0  0  0  0
  149.3648  140.7932  153.9694 H   0  0  0  0  0  0  0  0  0  0  0  0
  150.2838  142.3023  153.8879 H   0  0  0  0  0  0  0  0  0  0  0  0
  1  2  1  0  0  0  0
  1 25  1  0  0  0  0
  1 26  1  0  0  0  0
  1 27  1  0  0  0  0
  2  3  1  0  0  0  0
  2 28  1  0  0  0  0
  3 24  1  0  0  0  0
  3  4  2  0  0  0  0
  4  5  1  0  0  0  0
  5  6  2  0  0  0  0
  5 29  1  0  0  0  0
  6  7  1  0  0  0  0
  7 24  2  0  0  0  0
  7  8  1  0  0  0  0
  8  9  2  0  0  0  0
  9 10  1  0  0  0  0
  9 30  1  0  0  0  0
 10 11  1  0  0  0  0
 10 24  1  0  0  0  0
 11 12  1  0  0  0  0
 11 31  1  0  0  0  0
 11 32  1  0  0  0  0
 12 13  1  0  0  0  0
 12 14  1  0  0  0  0
 12 33  1  0  0  0  0
 13 34  1  0  0  0  0
 14 15  1  0  0  0  0
 14 35  1  0  0  0  0
 14 36  1  0  0  0  0
 15 16  1  0  0  0  0
 16 22  1  0  0  0  0
 16 17  2  0  0  0  0
 17 18  1  0  0  0  0
 17 19  1  0  0  0  0
 18 37  1  0  0  0  0
 18 38  1  0  0  0  0
 18 39  1  0  0  0  0
 19 20  2  0  0  0  0
 19 40  1  0  0  0  0
 20 21  1  0  0  0  0
 20 41  1  0  0  0  0
 21 22  2  0  0  0  0
 21 42  1  0  0  0  0
 22 23  1  0  0  0  0
 23 43  1  0  0  0  0
 23 44  1  0  0  0  0
 23 45  1  0  0  0  0
M  END
> <s_m_source_file>
AV-unprocessed.smi

> <i_m_source_file_index>
737

> <i_lp_mmshare_version>
43012

> <i_f3d_flags>
0

> <s_epik_input>
bjFbY0hdbmMoW05IXVtDSDNdKWMoYzEyKW4oW2NIXW4yKVtDSDJdW0NASF0oW09IXSlbQ0gyXU9jM2MoW0NIM10pW2NIXVtjSF1bY0hdYzNbQ0gzXQ==

> <s_epik_cmdline>
J2VwaWtfcHl0aG9uJywgJy1waCcsICc3LjAnLCAnLXRuJywgJzgnLCAnLW1hJywgJzIwMCcsICctbWV0YWxfYmluZGluZycsICctaW1hZScsICc8aW5maWxlLm1hZT4nLCAnLW9tYWUnLCAnPG91dGZpbGUubWFlPic=

> <r_lp_tautomer_probability>
1

> <r_epik_Ionization_Penalty>
0.0070961

> <r_epik_Ionization_Penalty_Charging>
0

> <r_epik_Ionization_Penalty_Neutral>
0.0070961

> <r_epik_State_Penalty>
-0

> <r_epik_Charging_Adjusted_Penalty>
0

> <i_epik_Tot_Q>
0

> <i_epik_Tot_abs_Q>
0

> <r_epik_Metal_State_Penalty>
-0

> <b_epik_Metal_Only>
0

> <s_lp_Force_Field>
OPLS_2005

> <r_lp_Energy>
18.2804

> <b_lp_Chiralities_Consistent>
1

> <s_lp_Variant>
AV-unprocessed.smi:737-2

> <Gold.Version>
5.8.1

> <Gold.Id.Protein>
6NUR|6NUR_protein|mol2

> <Gold.PLP.Fitness>
52.7539

> <Gold.PLP.PLP>
-42.4607

> <Gold.PLP.part.hbond>
-4.0000

> <Gold.PLP.part.metal>
0.0000

> <Gold.PLP.part.buried>
-1.4951

> <Gold.PLP.part.nonpolar>
-35.4764

> <Gold.PLP.part.repulsive>
0.1435

> <Gold.PLP.ligand.clash>
0.0000

> <Gold.PLP.ligand.torsion>
0.9630

> <Gold.PLP.Chemscore.Hbond>
4.0000

> <Gold.PLP.Chemscore.CHOScore>
0.0000

> <Gold.PLP.Chemscore.Metal>
0.0000

> <Gold.Chemscore.Hbonds>
donor molecule, donor type, donor heavy atom, donor atom, acceptor molecule, acceptor atom, score
      L1  H     2    28       P1  7948  1.00
      L1  H    13    34       P1  7949  1.00
      P1  H  7989  7998       L1    15  0.75
      P1  H 10752 10763       L1    13  1.00

> <Gold.PLP.Chemscore.Internal.Correction>
0.2191

> <Gold.Rescore>
     Score         DG    S(hbond)    S(metal)    S(lipo)     H(rot)  DE(clash)    DE(int)     intcor
     14.27     -15.34       2.48        0.00      77.21       2.91       0.09       0.98       ----

> <Gold.Chemscore.Fitness>
14.2664

> <Gold.Chemscore.DG>
-15.3438

> <Gold.Chemscore.ZeroCoef>
-5.4800

> <Gold.Chemscore.Hbond>
2.4764

> <Gold.Chemscore.Metal>
0.0000

> <Gold.Chemscore.Lipo>
77.2135

> <Gold.Chemscore.Internal_Hbond>
0.0000

> <Gold.Chemscore.DEClash>
0.0943

> <Gold.Chemscore.DEInternal>
0.9832

> <Gold.Chemscore.Rot>
2.9067

> <Gold.Chemscore.Internal.Correction>
   9.000000E+99

> <Gold.Chemscore.Hbonds>
donor molecule, donor type, donor heavy atom, donor atom, acceptor molecule, acceptor atom, score
      L1  H     2    28       P1  7948  0.43
      L1  H    13    34       P1  7949  0.65
      P1  H  6896  6907       L1     8  0.02
      P1  H  7989  7998       L1    15  0.11
      P1  H 10752 10763       L1    13  0.45

> <Gold.Chemscore.Hbond.Weighted>
-8.2710

> <Gold.Chemscore.Metal.Weighted>
-0.0000

> <Gold.Chemscore.Lipo.Weighted>
-9.0340

> <Gold.Chemscore.Internal_Hbond.Weighted>
0.0000

> <Gold.Chemscore.DEClash.Weighted>
0.0943

> <Gold.Chemscore.DEInternal.Weighted>
0.9832

> <Gold.Chemscore.Rot.Weighted>
7.4412

> <Gold.Chemscore.Internal.Correction.Weighted>
   9.000000E+99

> <Gold.Protein.RotatedTorsions>
[ 6907 6896 6895 6894 ] final -177.53 input  -60.11 | X-H torsion
[ 7974 7965 7964 7962 ] final   26.71 input  175.53 | X-H torsion
[ 8008 7997 7996 7995 ] final  175.98 input   59.86 | X-H torsion
[ 10167 10162 10161 10158 ] final -157.34 input  -65.29 | X-H torsion
[ 10718 10713 10712 10709 ] final   88.85 input   66.30 | X-H torsion
[ 10763 10752 10751 10750 ] final   44.59 input  -60.55 | X-H torsion
[ 11005 11000 10999 10996 ] final  -62.09 input  -57.11 | X-H torsion

> <Gold.Protein.ActiveResidues>
 VAL166  LYS551  ARG553  GLY616  TRP617  ASP618  TYR619  PRO620  LYS621  CYS622 
 ASP623  PHE694  ASN695  SER759  ASP760  ASP761  ALA762  ILE779  LEU786  VAL792 
 PHE793  MET794  SER795  GLU796  ALA797  LYS798  CYS799  TRP800  GLU811  SER814 

> <Gold.Protein.RotatedAtoms>
  151.6226  133.3338  159.3090 H   0  0  0  0  0  0  0  0  0  0  0  0  # atno 6907 bound_to 6896
  150.8098  134.7249  159.6689 H   0  0  0  0  0  0  0  0  0  0  0  0  # atno 6908 bound_to 6896
  152.4194  134.5987  160.0045 H   0  0  0  0  0  0  0  0  0  0  0  0  # atno 6909 bound_to 6896
  146.1823  139.7291  142.8891 H   0  0  0  0  0  0  0  0  0  0  0  0  # atno 7974 bound_to 7965
  156.0813  140.1395  156.9708 H   0  0  0  0  0  0  0  0  0  0  0  0  # atno 8008 bound_to 7997
  154.4587  140.0951  156.6880 H   0  0  0  0  0  0  0  0  0  0  0  0  # atno 8009 bound_to 7997
  155.5071  140.3452  155.4384 H   0  0  0  0  0  0  0  0  0  0  0  0  # atno 8010 bound_to 7997
  139.6778  143.9633  152.2320 H   0  0  0  0  0  0  0  0  0  0  0  0  # atno 10167 bound_to 10162
  157.6952  131.0310  150.3336 H   0  0  0  0  0  0  0  0  0  0  0  0  # atno 10718 bound_to 10713
  152.9838  135.6066  154.3299 H   0  0  0  0  0  0  0  0  0  0  0  0  # atno 10763 bound_to 10752
  154.3003  135.2773  155.2616 H   0  0  0  0  0  0  0  0  0  0  0  0  # atno 10764 bound_to 10752
  154.4871  135.5902  153.6488 H   0  0  0  0  0  0  0  0  0  0  0  0  # atno 10765 bound_to 10752
  141.1347  133.6636  156.5474 H   0  0  0  0  0  0  0  0  0  0  0  0  # atno 11005 bound_to 11000
  145.4040  141.0388  143.3054 LP  0  0  0  0  0  0  0  0  0  0  0  0  # atno 17320 bound_to 7965
  144.8336  139.5587  143.6932 LP  0  0  0  0  0  0  0  0  0  0  0  0  # atno 17321 bound_to 7965
  139.9415  144.6679  150.8262 LP  0  0  0  0  0  0  0  0  0  0  0  0  # atno 17342 bound_to 10162
  140.7642  143.3241  151.2554 LP  0  0  0  0  0  0  0  0  0  0  0  0  # atno 17343 bound_to 10162
  156.3807  130.3880  149.7104 LP  0  0  0  0  0  0  0  0  0  0  0  0  # atno 17370 bound_to 10713
  156.4487  130.7896  151.2918 LP  0  0  0  0  0  0  0  0  0  0  0  0  # atno 17371 bound_to 10713
  140.4091  134.7289  157.4825 LP  0  0  0  0  0  0  0  0  0  0  0  0  # atno 17394 bound_to 11000
  140.0440  134.6225  155.8944 LP  0  0  0  0  0  0  0  0  0  0  0  0  # atno 17395 bound_to 11000

$$$$
