#       Name:                AV-unprocessed.smi:2825
#       Creating user name   scv26
#       Creation time:       Fri Mar 27 15:33:37 2020


#       File generated by GOLD software.
#

@<TRIPOS>MOLECULE
AV-unprocessed.smi:2825
    51    52     1
SMALL
NO_CHARGES


@<TRIPOS>ATOM
      1 ****        -4.8835   0.7127   2.2172 C.3            1 S1                 0.0000
      2 ****        -4.2150   1.9449   1.5995 C.3            1 S1                 0.0000
      3 ****        -4.1137   1.8540   0.0696 C.3            1 S1                 0.0000
      4 ****        -3.2066   3.2951  -0.6473 S.o2           1 S1                 0.0000
      5 ****        -3.8401   3.6395  -1.9294 O.2            1 S1                 0.0000
      6 ****        -3.0369   4.3269   0.3880 O.2            1 S1                 0.0000
      7 ****        -1.6360   2.6437  -1.0097 N.pl3          1 S1                 0.0000
      8 ****        -1.4595   1.8490  -2.2334 C.3            1 S1                 0.0000
      9 ****        -0.6468   2.4502   0.0738 C.3            1 S1                 0.0000
     10 ****        -0.2767   0.9745   0.3597 C.3            1 S1                 0.0000
     11 ****        -1.3247   0.3466   1.0690 O.3            1 S1                 0.0000
     12 ****         0.9982   0.8807   1.2218 C.3            1 S1                 0.0000
     13 ****         1.4129  -0.5054   1.4771 N.pl3          1 S1                 0.0000
     14 ****         1.2008  -1.3001   2.5612 C.2            1 S1                 0.0000
     15 ****         1.7855  -2.5038   2.3077 N.pl3          1 S1                 1.0000
     16 ****         2.3796  -2.4767   1.0440 C.ar           1 S1                 0.0000
     17 ****         3.0874  -3.4495   0.3479 C.ar           1 S1                 0.0000
     18 ****         3.5673  -3.1035  -0.9357 C.ar           1 S1                 0.0000
     19 ****         4.3460  -4.1435  -1.7233 C.3            1 S1                 0.0000
     20 ****         3.3312  -1.8145  -1.4808 C.ar           1 S1                 0.0000
     21 ****         3.8522  -1.4524  -2.8613 C.3            1 S1                 0.0000
     22 ****         2.6077  -0.8395  -0.7575 C.ar           1 S1                 0.0000
     23 ****         2.1434  -1.1970   0.5057 C.ar           1 S1                 0.0000
     24 ****        -4.9389   0.8041   3.3023 H              1 S1                 0.0000
     25 ****        -4.3250  -0.1952   1.9874 H              1 S1                 0.0000
     26 ****        -5.8994   0.5868   1.8415 H              1 S1                 0.0000
     27 ****        -4.7789   2.8363   1.8762 H              1 S1                 0.0000
     28 ****        -3.2212   2.0662   2.0300 H              1 S1                 0.0000
     29 ****        -3.6254   0.9358  -0.2544 H              1 S1                 0.0000
     30 ****        -5.1151   1.8500  -0.3611 H              1 S1                 0.0000
     31 ****        -1.9014   0.8599  -2.1125 H              1 S1                 0.0000
     32 ****        -0.4018   1.7414  -2.4749 H              1 S1                 0.0000
     33 ****        -1.9405   2.3387  -3.0797 H              1 S1                 0.0000
     34 ****         0.2554   2.9827  -0.2291 H              1 S1                 0.0000
     35 ****        -0.9830   2.9411   0.9872 H              1 S1                 0.0000
     36 ****        -0.1019   0.4205  -0.5614 H              1 S1                 0.0000
     37 ****        -1.4900   0.8391   1.8584 H              1 S1                 0.0000
     38 ****         1.8303   1.4039   0.7490 H              1 S1                 0.0000
     39 ****         0.8420   1.3619   2.1886 H              1 S1                 0.0000
     40 ****         0.6633  -1.0270   3.4579 H              1 S1                 0.0000
     41 ****         3.2636  -4.4287   0.7690 H              1 S1                 0.0000
     42 ****         5.3712  -3.8098  -1.8847 H              1 S1                 0.0000
     43 ****         3.8817  -4.3189  -2.6937 H              1 S1                 0.0000
     44 ****         4.3839  -5.0975  -1.1964 H              1 S1                 0.0000
     45 ****         3.6343  -0.4132  -3.1095 H              1 S1                 0.0000
     46 ****         3.3882  -2.0815  -3.6213 H              1 S1                 0.0000
     47 ****         4.9331  -1.5860  -2.9119 H              1 S1                 0.0000
     48 ****         2.4252   0.1407  -1.1728 H              1 S1                 0.0000
     49 ****         1.7774  -3.2849   2.9512 H              1 S1                 0.0000
     50 ****        -1.0599  -0.5885   1.3042 LP             1 S1                 0.0000
     51 ****        -2.1499   0.3274   0.5045 LP             1 S1                 0.0000
@<TRIPOS>BOND
    1    1    2 1     
    2    1   24 1     
    3    1   25 1     
    4    1   26 1     
    5    2    3 1     
    6    2   27 1     
    7    2   28 1     
    8    3    4 1     
    9    3   29 1     
   10    3   30 1     
   11    4    5 2     
   12    4    6 2     
   13    4    7 1     
   14    7    8 1     
   15    7    9 1     
   16    8   31 1     
   17    8   32 1     
   18    8   33 1     
   19    9   10 1     
   20    9   34 1     
   21    9   35 1     
   22   10   11 1     
   23   10   12 1     
   24   10   36 1     
   25   11   37 1     
   26   12   13 1     
   27   12   38 1     
   28   12   39 1     
   29   13   23 1     
   30   13   14 1     
   31   14   15 2     
   32   14   40 1     
   33   15   16 1     
   34   15   49 1     
   35   16   23 ar    
   36   16   17 ar    
   37   17   18 ar    
   38   17   41 1     
   39   18   19 1     
   40   18   20 ar    
   41   19   42 1     
   42   19   43 1     
   43   19   44 1     
   44   20   21 1     
   45   20   22 ar    
   46   21   45 1     
   47   21   46 1     
   48   21   47 1     
   49   22   23 ar    
   50   22   48 1     
   51   11   50 1     
   52   11   51 1     
@<TRIPOS>SUBSTRUCTURE
      1 S1             1
@<TRIPOS>SET
LONE_PAIRS      STATIC     ATOMS    <user>   **** ""
4 5 6 50 51
DONOR_HYDROGENS      STATIC     ATOMS    <user>   **** ""
2 37 49
ATOM$BLUE        STATIC     ATOMS    COLORGROUP SYSTEM
4 5 6 50 51
ATOM$RED        STATIC     ATOMS    COLORGROUP SYSTEM
2 37 49
