#       Name:                AV-unprocessed.smi:1549
#       Creating user name   scv26
#       Creation time:       Fri Mar 27 06:39:45 2020


#       File generated by GOLD software.
#

@<TRIPOS>MOLECULE
AV-unprocessed.smi:1549
    48    49     1
SMALL
NO_CHARGES


@<TRIPOS>ATOM
      1 ****        -3.1735   4.3567  -0.3297 C.3            1 S1                 0.0000
      2 ****        -1.6956   4.7531  -0.3656 C.3            1 S1                 0.0000
      3 ****        -0.9040   3.5694  -0.3328 O.3            1 S1                 0.0000
      4 ****         0.4726   3.6905  -0.3465 C.ar           1 S1                 0.0000
      5 ****         1.0116   4.9355  -0.3749 N.ar           1 S1                 0.0000
      6 ****         2.3551   5.0541  -0.3936 C.ar           1 S1                 0.0000
      7 ****         3.2260   3.9491  -0.3912 C.ar           1 S1                 0.0000
      8 ****         2.6694   2.6571  -0.3604 C.ar           1 S1                 0.0000
      9 ****         1.2608   2.5164  -0.3268 C.ar           1 S1                 0.0000
     10 ****         0.5952   1.2596  -0.3222 N.am           1 S1                 0.0000
     11 ****         1.0620   0.0657   0.0805 C.2            1 S1                 0.0000
     12 ****         2.1675  -0.1305   0.5849 O.2            1 S1                 0.0000
     13 ****         0.1510  -0.8981  -0.1172 N.am           1 S1                 0.0000
     14 ****         0.3110  -2.3108   0.2183 C.3            1 S1                 0.0000
     15 ****         0.0416  -3.1742  -1.0291 C.3            1 S1                 0.0000
     16 ****         0.1093  -4.6747  -0.7011 C.3            1 S1                 0.0000
     17 ****        -0.8582  -5.0356   0.4388 C.3            1 S1                 0.0000
     18 ****        -0.7258  -6.4051   0.7562 O.3            1 S1                 0.0000
     19 ****        -0.5773  -4.1871   1.6907 C.3            1 S1                 0.0000
     20 ****        -0.6443  -2.6855   1.3682 C.3            1 S1                 0.0000
     21 ****        -3.8140   5.2384  -0.3597 H              1 S1                 0.0000
     22 ****        -3.4083   3.8032   0.5798 H              1 S1                 0.0000
     23 ****        -3.4308   3.7269  -1.1817 H              1 S1                 0.0000
     24 ****        -1.4908   5.3212  -1.2744 H              1 S1                 0.0000
     25 ****        -1.4674   5.3894   0.4908 H              1 S1                 0.0000
     26 ****         2.7476   6.0599  -0.4181 H              1 S1                 0.0000
     27 ****         4.2965   4.0892  -0.4184 H              1 S1                 0.0000
     28 ****         3.3306   1.8049  -0.3798 H              1 S1                 0.0000
     29 ****        -0.3699   1.2834  -0.6181 H              1 S1                 0.0000
     30 ****        -0.7299  -0.6324  -0.5328 H              1 S1                 0.0000
     31 ****         1.3330  -2.5086   0.5469 H              1 S1                 0.0000
     32 ****        -0.9423  -2.9395  -1.4377 H              1 S1                 0.0000
     33 ****         0.7649  -2.9368  -1.8101 H              1 S1                 0.0000
     34 ****        -0.1260  -5.2576  -1.5923 H              1 S1                 0.0000
     35 ****         1.1302  -4.9371  -0.4192 H              1 S1                 0.0000
     36 ****        -1.8840  -4.8659   0.1094 H              1 S1                 0.0000
     37 ****         0.1599  -6.5630   1.0453 H              1 S1                 0.0000
     38 ****        -1.2948  -4.4277   2.4759 H              1 S1                 0.0000
     39 ****         0.4100  -4.4270   2.0885 H              1 S1                 0.0000
     40 ****        -0.3996  -2.1075   2.2601 H              1 S1                 0.0000
     41 ****        -1.6682  -2.4209   1.1002 H              1 S1                 0.0000
     42 ****        -1.1593   3.0226  -1.1302 LP             1 S1                 0.0000
     43 ****        -1.1477   3.0756   0.5019 LP             1 S1                 0.0000
     44 ****         0.4263   5.7463  -0.3818 LP             1 S1                 0.0000
     45 ****         2.7971   0.6342   0.7225 LP             1 S1                 0.0000
     46 ****         2.4360  -1.0545   0.8570 LP             1 S1                 0.0000
     47 ****        -0.9198  -6.9589  -0.0535 LP             1 S1                 0.0000
     48 ****        -1.3663  -6.6454   1.4856 LP             1 S1                 0.0000
@<TRIPOS>BOND
    1    1    2 1     
    2    1   21 1     
    3    1   22 1     
    4    1   23 1     
    5    2    3 1     
    6    2   24 1     
    7    2   25 1     
    8    3    4 1     
    9    4    9 ar    
   10    4    5 ar    
   11    5    6 ar    
   12    6    7 ar    
   13    6   26 1     
   14    7    8 ar    
   15    7   27 1     
   16    8    9 ar    
   17    8   28 1     
   18    9   10 1     
   19   10   11 am    
   20   10   29 1     
   21   11   12 2     
   22   11   13 am    
   23   13   14 1     
   24   13   30 1     
   25   14   20 1     
   26   14   15 1     
   27   14   31 1     
   28   15   16 1     
   29   15   32 1     
   30   15   33 1     
   31   16   17 1     
   32   16   34 1     
   33   16   35 1     
   34   17   18 1     
   35   17   19 1     
   36   17   36 1     
   37   18   37 1     
   38   19   20 1     
   39   19   38 1     
   40   19   39 1     
   41   20   40 1     
   42   20   41 1     
   43    3   42 1     
   44    3   43 1     
   45    5   44 1     
   46   12   45 1     
   47   12   46 1     
   48   18   47 1     
   49   18   48 1     
@<TRIPOS>SUBSTRUCTURE
      1 S1             1
@<TRIPOS>SET
LONE_PAIRS      STATIC     ATOMS    <user>   **** ""
7 42 43 44 45 46 47 48
DONOR_HYDROGENS      STATIC     ATOMS    <user>   **** ""
3 29 30 37
ATOM$BLUE        STATIC     ATOMS    COLORGROUP SYSTEM
7 42 43 44 45 46 47 48
ATOM$RED        STATIC     ATOMS    COLORGROUP SYSTEM
3 29 30 37
