#       Name:                AV-unprocessed.smi:3067
#       Creating user name   scv26
#       Creation time:       Fri Mar 27 17:09:51 2020


#       File generated by GOLD software.
#

@<TRIPOS>MOLECULE
AV-unprocessed.smi:3067
    38    39     1
SMALL
NO_CHARGES


@<TRIPOS>ATOM
      1 ****         0.0531  -2.4216  -1.8225 C.3            1 S1                 0.0000
      2 ****        -0.1562  -1.9641  -0.4959 O.3            1 S1                 0.0000
      3 ****        -0.8306  -0.7121  -0.4058 C.3            1 S1                 0.0000
      4 ****        -2.3567  -0.9109  -0.5244 C.3            1 S1                 0.0000
      5 ****        -2.9176  -1.7315   0.6492 C.3            1 S1                 0.0000
      6 ****        -2.5468  -1.0997   1.9995 C.3            1 S1                 0.0000
      7 ****        -1.0284  -0.8976   2.1247 C.3            1 S1                 0.0000
      8 ****        -0.4777  -0.0609   0.9538 C.3            1 S1                 0.0000
      9 ****         0.9583   0.1522   1.1022 N.pl3          1 S1                 0.0000
     10 ****         1.6496   1.1145   0.3500 C.ar           1 S1                 0.0000
     11 ****         1.0167   2.1593  -0.3633 C.ar           1 S1                 0.0000
     12 ****         1.8086   3.0710  -1.0874 C.ar           1 S1                 0.0000
     13 ****         3.2099   2.9115  -1.0735 C.ar           1 S1                 0.0000
     14 ****         4.0444   3.8419  -1.8145 C.1            1 S1                 0.0000
     15 ****         4.7083   4.5834  -2.4048 N.1            1 S1                 0.0000
     16 ****         3.8242   1.9199  -0.3931 N.ar           1 S1                 0.0000
     17 ****         3.0580   1.0497   0.2985 C.ar           1 S1                 0.0000
     18 ****         0.5892  -3.3703  -1.7973 H              1 S1                 0.0000
     19 ****         0.6563  -1.7137  -2.3923 H              1 S1                 0.0000
     20 ****        -0.8866  -2.5854  -2.3495 H              1 S1                 0.0000
     21 ****        -0.4951  -0.0573  -1.2112 H              1 S1                 0.0000
     22 ****        -2.8424   0.0656  -0.5405 H              1 S1                 0.0000
     23 ****        -2.6161  -1.3874  -1.4691 H              1 S1                 0.0000
     24 ****        -4.0015  -1.8110   0.5626 H              1 S1                 0.0000
     25 ****        -2.5296  -2.7498   0.6028 H              1 S1                 0.0000
     26 ****        -3.0515  -0.1383   2.1032 H              1 S1                 0.0000
     27 ****        -2.9072  -1.7271   2.8152 H              1 S1                 0.0000
     28 ****        -0.8062  -0.4049   3.0719 H              1 S1                 0.0000
     29 ****        -0.5323  -1.8687   2.1588 H              1 S1                 0.0000
     30 ****        -0.9675   0.9109   1.0116 H              1 S1                 0.0000
     31 ****         1.4930  -0.5940   1.5237 H              1 S1                 0.0000
     32 ****        -0.0559   2.2779  -0.3694 H              1 S1                 0.0000
     33 ****         1.3443   3.8752  -1.6398 H              1 S1                 0.0000
     34 ****         3.5905   0.2724   0.8273 H              1 S1                 0.0000
     35 ****         0.7353  -1.8720  -0.0523 LP             1 S1                 0.0000
     36 ****        -0.7007  -2.6485  -0.0111 LP             1 S1                 0.0000
     37 ****         5.2821   5.2242  -2.9149 LP             1 S1                 0.0000
     38 ****         4.8204   1.8325  -0.4013 LP             1 S1                 0.0000
@<TRIPOS>BOND
    1    1    2 1     
    2    1   18 1     
    3    1   19 1     
    4    1   20 1     
    5    2    3 1     
    6    3    8 1     
    7    3    4 1     
    8    3   21 1     
    9    4    5 1     
   10    4   22 1     
   11    4   23 1     
   12    5    6 1     
   13    5   24 1     
   14    5   25 1     
   15    6    7 1     
   16    6   26 1     
   17    6   27 1     
   18    7    8 1     
   19    7   28 1     
   20    7   29 1     
   21    8    9 1     
   22    8   30 1     
   23    9   10 1     
   24    9   31 1     
   25   10   17 ar    
   26   10   11 ar    
   27   11   12 ar    
   28   11   32 1     
   29   12   13 ar    
   30   12   33 1     
   31   13   14 1     
   32   13   16 ar    
   33   14   15 3     
   34   16   17 ar    
   35   17   34 1     
   36    2   35 1     
   37    2   36 1     
   38   15   37 1     
   39   16   38 1     
@<TRIPOS>SUBSTRUCTURE
      1 S1             1
@<TRIPOS>SET
LONE_PAIRS      STATIC     ATOMS    <user>   **** ""
4 35 36 37 38
DONOR_HYDROGENS      STATIC     ATOMS    <user>   **** ""
1 31
ATOM$BLUE        STATIC     ATOMS    COLORGROUP SYSTEM
4 35 36 37 38
ATOM$RED        STATIC     ATOMS    COLORGROUP SYSTEM
1 31
