AV-unprocessed.smi:66|AV-procd|sdf|626|dock3
  -GOLD-   2262016513D 1   1.00000     0.00000
 Structure written by MMmdl.
 27 29  0  0  0  0  0  0  0  0  3 V2000
  154.0399  139.9508  158.8162 O   0  0  0  0  0  0  0  0  0  0  0  0
  153.4796  140.7911  159.5535 C   0  0  0  0  0  0  0  0  0  0  0  0
  153.9119  141.1852  160.6598 O   0  5  0  0  0  0  0  0  0  0  0  0
  152.1440  141.3642  159.0571 C   0  0  1  0  0  0  0  0  0  0  0  0
  152.1756  142.8961  158.9530 C   0  0  0  0  0  0  0  0  0  0  0  0
  151.1276  143.1739  157.8797 C   0  0  1  0  0  0  0  0  0  0  0  0
  151.2967  144.4339  157.2642 O   0  0  0  0  0  0  0  0  0  0  0  0
  151.3046  142.0083  156.9040 C   0  0  0  0  0  0  0  0  0  0  0  0
  151.7892  140.8967  157.7141 N   0  0  0  0  0  0  0  0  0  0  0  0
  151.2890  139.5950  157.4855 C   0  0  0  0  0  0  0  0  0  0  0  0
  151.0905  138.7841  158.5566 N   0  0  0  0  0  0  0  0  0  0  0  0
  150.6121  137.5553  158.3332 C   0  0  0  0  0  0  0  0  0  0  0  0
  150.2945  137.0177  157.1519 N   0  0  0  0  0  0  0  0  0  0  0  0
  150.4903  137.8078  156.0766 C   0  0  0  0  0  0  0  0  0  0  0  0
  150.2995  137.6086  154.7823 N   0  5  0  0  0  0  0  0  0  0  0  0
  150.6744  138.7438  154.1392 C   0  0  0  0  0  0  0  0  0  0  0  0
  151.1149  139.7119  154.9684 N   0  0  0  0  0  0  0  0  0  0  0  0
  150.9859  139.1067  156.1870 C   0  0  0  0  0  0  0  0  0  0  0  0
  151.3490  141.0807  159.7487 H   0  0  0  0  0  0  0  0  0  0  0  0
  151.9483  143.3872  159.8995 H   0  0  0  0  0  0  0  0  0  0  0  0
  153.1539  143.2467  158.6177 H   0  0  0  0  0  0  0  0  0  0  0  0
  150.1340  143.1243  158.3274 H   0  0  0  0  0  0  0  0  0  0  0  0
  150.4786  144.6803  156.8613 H   0  0  0  0  0  0  0  0  0  0  0  0
  150.3664  141.7887  156.3928 H   0  0  0  0  0  0  0  0  0  0  0  0
  152.0601  142.2338  156.1499 H   0  0  0  0  0  0  0  0  0  0  0  0
  150.4602  136.9327  159.2023 H   0  0  0  0  0  0  0  0  0  0  0  0
  150.6019  138.8000  153.0602 H   0  0  0  0  0  0  0  0  0  0  0  0
  1  2  2  0  0  0  0
  2  3  1  0  0  0  0
  2  4  1  0  0  0  0
  4  5  1  0  0  0  0
  4 19  1  0  0  0  0
  4  9  1  0  0  0  0
  5  6  1  0  0  0  0
  5 20  1  0  0  0  0
  5 21  1  0  0  0  0
  6  7  1  0  0  0  0
  6  8  1  0  0  0  0
  6 22  1  0  0  0  0
  7 23  1  0  0  0  0
  8 24  1  0  0  0  0
  8 25  1  0  0  0  0
  8  9  1  0  0  0  0
  9 10  1  0  0  0  0
 10 11  1  0  0  0  0
 10 18  2  0  0  0  0
 11 12  2  0  0  0  0
 12 26  1  0  0  0  0
 12 13  1  0  0  0  0
 13 14  2  0  0  0  0
 14 15  1  0  0  0  0
 14 18  1  0  0  0  0
 15 16  1  0  0  0  0
 16 17  2  0  0  0  0
 16 27  1  0  0  0  0
 17 18  1  0  0  0  0
M  CHG  1   3  -1
M  CHG  1  15  -1
M  END
> <s_m_source_file>
AV-unprocessed.smi

> <i_m_source_file_index>
66

> <i_lp_mmshare_version>
43012

> <i_f3d_flags>
0

> <s_epik_input>
Tz1DKFtPSF0pW0NAQEhdMVtDSDJdW0NAQEhdKFtPSF0pW0NIMl1OMWMobltjSF1uMiljKGMyMylbbkhdW2NIXW4z

> <s_epik_cmdline>
J2VwaWtfcHl0aG9uJywgJy1waCcsICc3LjAnLCAnLXRuJywgJzgnLCAnLW1hJywgJzIwMCcsICctbWV0YWxfYmluZGluZycsICctaW1hZScsICc8aW5maWxlLm1hZT4nLCAnLW9tYWUnLCAnPG91dGZpbGUubWFlPic=

> <r_lp_tautomer_probability>
0.955585

> <r_epik_Ionization_Penalty>
7.65809

> <r_epik_Ionization_Penalty_Charging>
3.4974

> <r_epik_Ionization_Penalty_Neutral>
4.16069

> <r_epik_State_Penalty>
3.51624

> <r_epik_Charging_Adjusted_Penalty>
7.01364

> <i_epik_Tot_Q>
-2

> <i_epik_Tot_abs_Q>
2

> <r_epik_Metal_State_Penalty>
0.522662

> <b_epik_Metal_Only>
1

> <s_lp_Force_Field>
OPLS_2005

> <r_lp_Energy>
45.116

> <b_lp_Chiralities_Consistent>
1

> <s_lp_Variant>
AV-unprocessed.smi:66-10

> <Gold.Version>
5.8.1

> <Gold.Id.Protein>
6NUR|6NUR_protein|mol2

> <Gold.PLP.Fitness>
39.5938

> <Gold.PLP.PLP>
-25.5233

> <Gold.PLP.part.hbond>
-3.0000

> <Gold.PLP.part.metal>
0.0000

> <Gold.PLP.part.buried>
-5.3082

> <Gold.PLP.part.nonpolar>
-16.8733

> <Gold.PLP.part.repulsive>
0.2198

> <Gold.PLP.ligand.clash>
0.0000

> <Gold.PLP.ligand.torsion>
0.2996

> <Gold.PLP.Chemscore.Hbond>
3.8000

> <Gold.PLP.Chemscore.CHOScore>
1.0000

> <Gold.PLP.Chemscore.Metal>
0.0000

> <Gold.Chemscore.Hbonds>
donor molecule, donor type, donor heavy atom, donor atom, acceptor molecule, acceptor atom, score
      L1  H     7    23       P1  8028  1.00
      P1  H  7989  7998       L1    17  0.65
      P1  H  7997  8008       L1     1  2.00
      L1  C    16    27       P1  7957  1.00

> <Gold.PLP.Chemscore.Internal.Correction>
0.2697

> <Gold.Rescore>
     Score         DG    S(hbond)    S(metal)    S(lipo)     H(rot)  DE(clash)    DE(int)     intcor
     14.20     -14.83       2.68        0.00      42.32       1.78       0.21       0.42       ----

> <Gold.Chemscore.Fitness>
14.1995

> <Gold.Chemscore.DG>
-14.8342

> <Gold.Chemscore.ZeroCoef>
-5.4800

> <Gold.Chemscore.Hbond>
2.6790

> <Gold.Chemscore.Metal>
0.0000

> <Gold.Chemscore.Lipo>
42.3184

> <Gold.Chemscore.Internal_Hbond>
0.0000

> <Gold.Chemscore.DEClash>
0.2138

> <Gold.Chemscore.DEInternal>
0.4209

> <Gold.Chemscore.Rot>
1.7754

> <Gold.Chemscore.Internal.Correction>
   9.000000E+99

> <Gold.Chemscore.Hbonds>
donor molecule, donor type, donor heavy atom, donor atom, acceptor molecule, acceptor atom, score
      L1  H     7    23       P1  8028  0.77
      P1  H  7989  7998       L1    17  0.06
      P1  H  7997  8008       L1     1  0.98

> <Gold.Chemscore.Hbond.Weighted>
-8.9480

> <Gold.Chemscore.Metal.Weighted>
-0.0000

> <Gold.Chemscore.Lipo.Weighted>
-4.9513

> <Gold.Chemscore.Internal_Hbond.Weighted>
0.0000

> <Gold.Chemscore.DEClash.Weighted>
0.2138

> <Gold.Chemscore.DEInternal.Weighted>
0.4209

> <Gold.Chemscore.Rot.Weighted>
4.5451

> <Gold.Chemscore.Internal.Correction.Weighted>
   9.000000E+99

> <Gold.Protein.RotatedTorsions>
[ 6907 6896 6895 6894 ] final  131.88 input  -60.11 | X-H torsion
[ 7974 7965 7964 7962 ] final  157.65 input  175.53 | X-H torsion
[ 8008 7997 7996 7995 ] final -106.96 input   59.86 | X-H torsion
[ 10167 10162 10161 10158 ] final  159.37 input  -65.29 | X-H torsion
[ 10718 10713 10712 10709 ] final   15.75 input   66.30 | X-H torsion
[ 10763 10752 10751 10750 ] final  -43.60 input  -60.55 | X-H torsion
[ 11005 11000 10999 10996 ] final  -12.70 input  -57.11 | X-H torsion

> <Gold.Protein.ActiveResidues>
 VAL166  LYS551  ARG553  GLY616  TRP617  ASP618  TYR619  PRO620  LYS621  CYS622 
 ASP623  PHE694  ASN695  SER759  ASP760  ASP761  ALA762  ILE779  LEU786  VAL792 
 PHE793  MET794  SER795  GLU796  ALA797  LYS798  CYS799  TRP800  GLU811  SER814 

> <Gold.Protein.RotatedAtoms>
  152.3381  133.6035  159.5856 H   0  0  0  0  0  0  0  0  0  0  0  0  # atno 6907 bound_to 6896
  150.7462  133.9764  159.3571 H   0  0  0  0  0  0  0  0  0  0  0  0  # atno 6908 bound_to 6896
  151.7631  135.0806  160.0399 H   0  0  0  0  0  0  0  0  0  0  0  0  # atno 6909 bound_to 6896
  144.7891  139.7370  143.6229 H   0  0  0  0  0  0  0  0  0  0  0  0  # atno 7974 bound_to 7965
  154.9223  140.0407  157.2004 H   0  0  0  0  0  0  0  0  0  0  0  0  # atno 8008 bound_to 7997
  154.8242  140.2888  155.5744 H   0  0  0  0  0  0  0  0  0  0  0  0  # atno 8009 bound_to 7997
  156.2982  140.2513  156.3155 H   0  0  0  0  0  0  0  0  0  0  0  0  # atno 8010 bound_to 7997
  139.4832  144.4736  151.8542 H   0  0  0  0  0  0  0  0  0  0  0  0  # atno 10167 bound_to 10162
  157.0581  130.6297  149.5780 H   0  0  0  0  0  0  0  0  0  0  0  0  # atno 10718 bound_to 10713
  153.9982  135.6697  153.4757 H   0  0  0  0  0  0  0  0  0  0  0  0  # atno 10763 bound_to 10752
  153.0674  135.4993  154.8227 H   0  0  0  0  0  0  0  0  0  0  0  0  # atno 10764 bound_to 10752
  154.7069  135.3089  154.9220 H   0  0  0  0  0  0  0  0  0  0  0  0  # atno 10765 bound_to 10752
  140.7684  133.8458  155.9185 H   0  0  0  0  0  0  0  0  0  0  0  0  # atno 11005 bound_to 11000
  146.2135  139.5508  142.9665 LP  0  0  0  0  0  0  0  0  0  0  0  0  # atno 17320 bound_to 7965
  145.5843  141.0378  143.2105 LP  0  0  0  0  0  0  0  0  0  0  0  0  # atno 17321 bound_to 7965
  140.4207  144.2248  150.5887 LP  0  0  0  0  0  0  0  0  0  0  0  0  # atno 17342 bound_to 10162
  140.4877  143.2358  151.8864 LP  0  0  0  0  0  0  0  0  0  0  0  0  # atno 17343 bound_to 10162
  155.9987  130.5061  150.7580 LP  0  0  0  0  0  0  0  0  0  0  0  0  # atno 17370 bound_to 10713
  157.4977  131.0916  151.0352 LP  0  0  0  0  0  0  0  0  0  0  0  0  # atno 17371 bound_to 10713
  140.9597  134.1672  157.4664 LP  0  0  0  0  0  0  0  0  0  0  0  0  # atno 17394 bound_to 11000
  139.8759  134.9940  156.5672 LP  0  0  0  0  0  0  0  0  0  0  0  0  # atno 17395 bound_to 11000

$$$$
