AV-unprocessed.smi:13|AV-procd|sdf|70|dock10
  -GOLD-   2262015193D 1   1.00000     0.00000
 Structure written by MMmdl.
 54 58  0  0  0  0  0  0  0  0  1 V2000
  146.3415  135.0292  158.9581 C   0  0  0  0  0  0  0  0  0  0  0  0
  147.8738  135.0898  158.9068 C   0  0  0  0  0  0  0  0  0  0  0  0
  148.3653  133.6509  158.7530 C   0  0  0  0  0  0  0  0  0  0  0  0
  148.4638  136.1074  157.9182 C   0  0  0  0  0  0  0  0  0  0  0  0
  148.5818  137.0244  159.0404 N   0  0  0  0  0  0  0  0  0  0  0  0
  149.7501  137.8319  159.0485 C   0  0  0  0  0  0  0  0  0  0  0  0
  150.8537  137.2899  159.6222 N   0  0  0  0  0  0  0  0  0  0  0  0
  152.0088  137.9588  159.6679 C   0  0  0  0  0  0  0  0  0  0  0  0
  152.2843  139.1770  159.2029 N   0  0  0  0  0  0  0  0  0  0  0  0
  151.1872  139.7376  158.6210 C   0  0  0  0  0  0  0  0  0  0  0  0
  149.8974  139.1439  158.5039 C   0  0  0  0  0  0  0  0  0  0  0  0
  149.0389  140.0213  157.8499 N   0  0  0  0  0  0  0  0  0  0  0  0
  149.7753  141.0684  157.5986 C   0  0  0  0  0  0  0  0  0  0  0  0
  151.0818  140.9800  158.0204 N   0  0  0  0  0  0  0  0  0  0  0  0
  152.1173  141.9897  157.8647 C   0  0  0  0  0  0  0  0  0  0  0  0
  151.5794  143.4361  157.9615 C   0  0  2  0  0  0  0  0  0  0  0  0
  151.0376  143.8089  156.7058 O   0  0  0  0  0  0  0  0  0  0  0  0
  152.6291  144.4694  158.3619 C   0  0  0  0  0  0  0  0  0  0  0  0
  151.8147  145.4969  159.1351 C   0  0  0  0  0  0  0  0  0  0  0  0
  150.9136  144.6861  159.8693 O   0  0  0  0  0  0  0  0  0  0  0  0
  150.4866  143.6137  159.0349 C   0  0  0  0  0  0  0  0  0  0  0  0
  148.5886  135.9213  159.9929 C   0  0  1  0  0  0  0  0  0  0  0  0
  147.8980  136.3016  161.3032 C   0  0  2  0  0  0  0  0  0  0  0  0
  147.2472  135.1264  162.0303 C   0  0  0  0  0  0  0  0  0  0  0  0
  146.1829  135.7949  162.8819 C   0  0  0  0  0  0  0  0  0  0  0  0
  145.9464  137.1392  162.1870 C   0  0  0  0  0  0  0  0  0  0  0  0
  146.7759  137.1260  161.0319 O   0  0  0  0  0  0  0  0  0  0  0  0
  145.9294  134.5701  158.0590 H   0  0  0  0  0  0  0  0  0  0  0  0
  145.9009  136.0234  159.0370 H   0  0  0  0  0  0  0  0  0  0  0  0
  145.9914  134.4506  159.8135 H   0  0  0  0  0  0  0  0  0  0  0  0
  149.4535  133.6055  158.6967 H   0  0  0  0  0  0  0  0  0  0  0  0
  147.9764  133.1879  157.8457 H   0  0  0  0  0  0  0  0  0  0  0  0
  148.0603  133.0328  159.5982 H   0  0  0  0  0  0  0  0  0  0  0  0
  149.4149  135.7935  157.4876 H   0  0  0  0  0  0  0  0  0  0  0  0
  147.7657  136.4461  157.1523 H   0  0  0  0  0  0  0  0  0  0  0  0
  152.8298  137.4423  160.1426 H   0  0  0  0  0  0  0  0  0  0  0  0
  149.3852  141.9376  157.0889 H   0  0  0  0  0  0  0  0  0  0  0  0
  152.8834  141.8167  158.6219 H   0  0  0  0  0  0  0  0  0  0  0  0
  152.6022  141.8348  156.9001 H   0  0  0  0  0  0  0  0  0  0  0  0
  150.1169  143.9887  156.8193 H   0  0  0  0  0  0  0  0  0  0  0  0
  153.3584  144.0233  159.0390 H   0  0  0  0  0  0  0  0  0  0  0  0
  153.1752  144.8954  157.5190 H   0  0  0  0  0  0  0  0  0  0  0  0
  152.4268  146.1161  159.7910 H   0  0  0  0  0  0  0  0  0  0  0  0
  151.2591  146.1489  158.4592 H   0  0  0  0  0  0  0  0  0  0  0  0
  149.5160  143.8547  158.5984 H   0  0  0  0  0  0  0  0  0  0  0  0
  150.3549  142.7199  159.6453 H   0  0  0  0  0  0  0  0  0  0  0  0
  149.5939  135.5310  160.1553 H   0  0  0  0  0  0  0  0  0  0  0  0
  148.5717  136.8346  161.9769 H   0  0  0  0  0  0  0  0  0  0  0  0
  146.7758  134.4531  161.3127 H   0  0  0  0  0  0  0  0  0  0  0  0
  147.9582  134.5465  162.6191 H   0  0  0  0  0  0  0  0  0  0  0  0
  145.2761  135.1917  162.9370 H   0  0  0  0  0  0  0  0  0  0  0  0
  146.5436  135.9544  163.8986 H   0  0  0  0  0  0  0  0  0  0  0  0
  144.9031  137.2835  161.9059 H   0  0  0  0  0  0  0  0  0  0  0  0
  146.2410  137.9648  162.8364 H   0  0  0  0  0  0  0  0  0  0  0  0
  1  2  1  0  0  0  0
  1 28  1  0  0  0  0
  1 29  1  0  0  0  0
  1 30  1  0  0  0  0
  2 22  1  0  0  0  0
  2  3  1  0  0  0  0
  2  4  1  0  0  0  0
  3 31  1  0  0  0  0
  3 32  1  0  0  0  0
  3 33  1  0  0  0  0
  4  5  1  0  0  0  0
  4 34  1  0  0  0  0
  4 35  1  0  0  0  0
  5  6  1  0  0  0  0
  5 22  1  0  0  0  0
  6 11  1  0  0  0  0
  6  7  2  0  0  0  0
  7  8  1  0  0  0  0
  8  9  2  0  0  0  0
  8 36  1  0  0  0  0
  9 10  1  0  0  0  0
 10 14  1  0  0  0  0
 10 11  2  0  0  0  0
 11 12  1  0  0  0  0
 12 13  2  0  0  0  0
 13 14  1  0  0  0  0
 13 37  1  0  0  0  0
 14 15  1  0  0  0  0
 15 16  1  0  0  0  0
 15 38  1  0  0  0  0
 15 39  1  0  0  0  0
 16 21  1  0  0  0  0
 16 17  1  0  0  0  0
 16 18  1  0  0  0  0
 17 40  1  0  0  0  0
 18 19  1  0  0  0  0
 18 41  1  0  0  0  0
 18 42  1  0  0  0  0
 19 20  1  0  0  0  0
 19 43  1  0  0  0  0
 19 44  1  0  0  0  0
 20 21  1  0  0  0  0
 21 45  1  0  0  0  0
 21 46  1  0  0  0  0
 22 23  1  0  0  0  0
 22 47  1  0  0  0  0
 23 27  1  0  0  0  0
 23 24  1  0  0  0  0
 23 48  1  0  0  0  0
 24 25  1  0  0  0  0
 24 49  1  0  0  0  0
 24 50  1  0  0  0  0
 25 26  1  0  0  0  0
 25 51  1  0  0  0  0
 25 52  1  0  0  0  0
 26 27  1  0  0  0  0
 26 53  1  0  0  0  0
 26 54  1  0  0  0  0
M  END
> <s_m_source_file>
AV-unprocessed.smi

> <i_m_source_file_index>
13

> <i_lp_mmshare_version>
43012

> <i_f3d_flags>
0

> <s_epik_input>
TzFbQ0gyXVtDSDJdW0NIMl1bQ0BIXTFbQ0BASF0yTihbQ0gyXUMyKFtDSDNdKVtDSDNdKWMobltjSF1uMyljKGMzNCluW2NIXW40W0NIMl1bQ0BAXTUoW09IXSlbQ0gyXVtDSDJdT1tDSDJdNQ==

> <s_epik_cmdline>
J2VwaWtfcHl0aG9uJywgJy1waCcsICc3LjAnLCAnLXRuJywgJzgnLCAnLW1hJywgJzIwMCcsICctbWV0YWxfYmluZGluZycsICctaW1hZScsICc8aW5maWxlLm1hZT4nLCAnLW9tYWUnLCAnPG91dGZpbGUubWFlPic=

> <r_lp_tautomer_probability>
1

> <r_epik_Ionization_Penalty>
0.00202764

> <r_epik_Ionization_Penalty_Charging>
0

> <r_epik_Ionization_Penalty_Neutral>
0.00202764

> <r_epik_State_Penalty>
0.00134017

> <r_epik_Charging_Adjusted_Penalty>
0.00134017

> <i_epik_Tot_Q>
0

> <i_epik_Tot_abs_Q>
0

> <r_epik_Metal_State_Penalty>
-0

> <b_epik_Metal_Only>
0

> <s_lp_Force_Field>
OPLS_2005

> <r_lp_Energy>
60.4811

> <b_lp_Chiralities_Consistent>
1

> <s_lp_Variant>
AV-unprocessed.smi:13-2

> <Gold.Version>
5.8.1

> <Gold.Id.Protein>
6NUR|6NUR_protein|mol2

> <Gold.PLP.Fitness>
46.1007

> <Gold.PLP.PLP>
-42.2383

> <Gold.PLP.part.hbond>
-2.7180

> <Gold.PLP.part.metal>
0.0000

> <Gold.PLP.part.buried>
-9.3018

> <Gold.PLP.part.nonpolar>
-31.6596

> <Gold.PLP.part.repulsive>
0.1117

> <Gold.PLP.ligand.clash>
0.0000

> <Gold.PLP.ligand.torsion>
1.6231

> <Gold.PLP.Chemscore.Hbond>
2.2177

> <Gold.PLP.Chemscore.CHOScore>
0.0000

> <Gold.PLP.Chemscore.Metal>
0.0000

> <Gold.Chemscore.Hbonds>
donor molecule, donor type, donor heavy atom, donor atom, acceptor molecule, acceptor atom, score
      L1  H    17    40       P1  8028  0.61
      P1  H  6896  6908       L1     7  0.54
      P1  H  6934  6947       L1    27  0.95

> <Gold.PLP.Chemscore.Internal.Correction>
0.4555

> <Gold.Rescore>
     Score         DG    S(hbond)    S(metal)    S(lipo)     H(rot)  DE(clash)    DE(int)     intcor
     13.76     -17.96       1.71        0.00     108.28       2.30       0.47       3.73       ----

> <Gold.Chemscore.Fitness>
13.7599

> <Gold.Chemscore.DG>
-17.9649

> <Gold.Chemscore.ZeroCoef>
-5.4800

> <Gold.Chemscore.Hbond>
1.7074

> <Gold.Chemscore.Metal>
0.0000

> <Gold.Chemscore.Lipo>
108.2827

> <Gold.Chemscore.Internal_Hbond>
0.0000

> <Gold.Chemscore.DEClash>
0.4749

> <Gold.Chemscore.DEInternal>
3.7301

> <Gold.Chemscore.Rot>
2.2996

> <Gold.Chemscore.Internal.Correction>
   9.000000E+99

> <Gold.Chemscore.Hbonds>
donor molecule, donor type, donor heavy atom, donor atom, acceptor molecule, acceptor atom, score
      L1  H    17    40       P1  8028  0.61
      P1  H  6896  6908       L1     7  0.42
      P1  H  6934  6947       L1    27  0.19

> <Gold.Chemscore.Hbond.Weighted>
-5.7027

> <Gold.Chemscore.Metal.Weighted>
-0.0000

> <Gold.Chemscore.Lipo.Weighted>
-12.6691

> <Gold.Chemscore.Internal_Hbond.Weighted>
0.0000

> <Gold.Chemscore.DEClash.Weighted>
0.4749

> <Gold.Chemscore.DEInternal.Weighted>
3.7301

> <Gold.Chemscore.Rot.Weighted>
5.8869

> <Gold.Chemscore.Internal.Correction.Weighted>
   9.000000E+99

> <Gold.Protein.RotatedTorsions>
[ 6907 6896 6895 6894 ] final -143.32 input  -60.11 | X-H torsion
[ 7974 7965 7964 7962 ] final -150.02 input  175.53 | X-H torsion
[ 8008 7997 7996 7995 ] final  107.76 input   59.86 | X-H torsion
[ 10167 10162 10161 10158 ] final -137.22 input  -65.29 | X-H torsion
[ 10718 10713 10712 10709 ] final  120.81 input   66.30 | X-H torsion
[ 10763 10752 10751 10750 ] final   80.46 input  -60.55 | X-H torsion
[ 11005 11000 10999 10996 ] final  110.58 input  -57.11 | X-H torsion

> <Gold.Protein.ActiveResidues>
 VAL166  LYS551  ARG553  GLY616  TRP617  ASP618  TYR619  PRO620  LYS621  CYS622 
 ASP623  PHE694  ASN695  SER759  ASP760  ASP761  ALA762  ILE779  LEU786  VAL792 
 PHE793  MET794  SER795  GLU796  ALA797  LYS798  CYS799  TRP800  GLU811  SER814 

> <Gold.Protein.RotatedAtoms>
  151.0989  133.5259  159.2610 H   0  0  0  0  0  0  0  0  0  0  0  0  # atno 6907 bound_to 6896
  151.2097  135.0476  159.8916 H   0  0  0  0  0  0  0  0  0  0  0  0  # atno 6908 bound_to 6896
  152.5441  134.0806  159.8287 H   0  0  0  0  0  0  0  0  0  0  0  0  # atno 6909 bound_to 6896
  144.7932  140.4987  143.5758 H   0  0  0  0  0  0  0  0  0  0  0  0  # atno 7974 bound_to 7965
  156.1850  140.3089  155.9220 H   0  0  0  0  0  0  0  0  0  0  0  0  # atno 8008 bound_to 7997
  155.3301  140.0460  157.3059 H   0  0  0  0  0  0  0  0  0  0  0  0  # atno 8009 bound_to 7997
  154.5385  140.2254  155.8691 H   0  0  0  0  0  0  0  0  0  0  0  0  # atno 8010 bound_to 7997
  139.8599  143.7090  152.2651 H   0  0  0  0  0  0  0  0  0  0  0  0  # atno 10167 bound_to 10162
  157.5864  131.1069  150.8086 H   0  0  0  0  0  0  0  0  0  0  0  0  # atno 10718 bound_to 10713
  153.1036  135.4801  154.8911 H   0  0  0  0  0  0  0  0  0  0  0  0  # atno 10763 bound_to 10752
  154.7405  135.3081  154.8738 H   0  0  0  0  0  0  0  0  0  0  0  0  # atno 10764 bound_to 10752
  153.9347  135.6840  153.4798 H   0  0  0  0  0  0  0  0  0  0  0  0  # atno 10765 bound_to 10752
  139.8885  134.9487  156.6301 H   0  0  0  0  0  0  0  0  0  0  0  0  # atno 11005 bound_to 11000
  145.5739  139.1485  143.3273 LP  0  0  0  0  0  0  0  0  0  0  0  0  # atno 17320 bound_to 7965
  146.2192  140.5872  142.9025 LP  0  0  0  0  0  0  0  0  0  0  0  0  # atno 17321 bound_to 7965
  139.7384  144.7565  151.0692 LP  0  0  0  0  0  0  0  0  0  0  0  0  # atno 17342 bound_to 10162
  140.7776  143.5003  150.9780 LP  0  0  0  0  0  0  0  0  0  0  0  0  # atno 17343 bound_to 10162
  156.8519  130.5083  149.5311 LP  0  0  0  0  0  0  0  0  0  0  0  0  # atno 17370 bound_to 10713
  156.0913  130.5898  150.9738 LP  0  0  0  0  0  0  0  0  0  0  0  0  # atno 17371 bound_to 10713
  140.7673  133.8767  155.8464 LP  0  0  0  0  0  0  0  0  0  0  0  0  # atno 17394 bound_to 11000
  140.9872  134.1327  157.4442 LP  0  0  0  0  0  0  0  0  0  0  0  0  # atno 17395 bound_to 11000

$$$$
