AV-unprocessed.smi:634|AV-procd|sdf|3135|dock2
  -GOLD-   22720 0 63D 1   1.00000     0.00000
 Structure written by MMmdl.
 32 33  0  0  0  0  0  0  0  0  2 V2000
  151.9102  145.6594  159.6607 C   0  0  0  0  0  0  0  0  0  0  0  0
  152.0596  144.2259  160.0411 C   0  0  0  0  0  0  0  0  0  0  0  0
  152.5541  143.1380  159.3796 C   0  0  0  0  0  0  0  0  0  0  0  0
  152.4042  142.0869  160.3249 C   0  0  0  0  0  0  0  0  0  0  0  0
  152.7419  140.8021  160.1342 N   0  5  0  0  0  0  0  0  0  0  0  0
  152.5459  140.2180  158.9296 C   0  0  0  0  0  0  0  0  0  0  0  0
  153.3743  139.5597  158.2969 O   0  0  0  0  0  0  0  0  0  0  0  0
  151.3131  140.4162  158.4323 N   0  0  0  0  0  0  0  0  0  0  0  0
  150.7479  139.9553  157.1566 C   0  0  1  0  0  0  0  0  0  0  0  0
  149.3362  140.5666  157.0587 C   0  0  0  0  0  0  0  0  0  0  0  0
  151.5979  140.4468  155.9362 C   0  0  0  0  0  0  0  0  0  0  0  0
  152.2166  139.2642  155.1782 C   0  0  0  0  0  0  0  0  0  0  0  0
  151.0564  137.8861  155.4331 S   0  0  0  0  0  0  0  0  0  0  0  0
  149.8840  138.0899  154.5681 O   0  0  0  0  0  0  0  0  0  0  0  0
  151.7768  136.6039  155.4515 O   0  0  0  0  0  0  0  0  0  0  0  0
  150.6332  138.4057  157.1293 C   0  0  0  0  0  0  0  0  0  0  0  0
  151.8509  142.4972  161.4541 N   0  0  0  0  0  0  0  0  0  0  0  0
  151.6324  143.8695  161.2824 O   0  0  0  0  0  0  0  0  0  0  0  0
  151.1353  145.7776  158.9032 H   0  0  0  0  0  0  0  0  0  0  0  0
  152.8436  146.0490  159.2547 H   0  0  0  0  0  0  0  0  0  0  0  0
  151.6368  146.2693  160.5221 H   0  0  0  0  0  0  0  0  0  0  0  0
  152.9624  143.0989  158.3810 H   0  0  0  0  0  0  0  0  0  0  0  0
  150.6913  140.9623  159.0106 H   0  0  0  0  0  0  0  0  0  0  0  0
  148.8294  140.2548  156.1447 H   0  0  0  0  0  0  0  0  0  0  0  0
  149.3747  141.6567  157.0587 H   0  0  0  0  0  0  0  0  0  0  0  0
  148.7106  140.2615  157.8985 H   0  0  0  0  0  0  0  0  0  0  0  0
  150.9558  140.9809  155.2344 H   0  0  0  0  0  0  0  0  0  0  0  0
  152.3663  141.1667  156.2207 H   0  0  0  0  0  0  0  0  0  0  0  0
  152.3568  139.4547  154.1146 H   0  0  0  0  0  0  0  0  0  0  0  0
  153.1739  138.9830  155.6172 H   0  0  0  0  0  0  0  0  0  0  0  0
  151.3519  137.9283  157.7955 H   0  0  0  0  0  0  0  0  0  0  0  0
  149.6439  138.0325  157.3942 H   0  0  0  0  0  0  0  0  0  0  0  0
  1  2  1  0  0  0  0
  1 19  1  0  0  0  0
  1 20  1  0  0  0  0
  1 21  1  0  0  0  0
  2 18  1  0  0  0  0
  2  3  2  0  0  0  0
  3  4  1  0  0  0  0
  3 22  1  0  0  0  0
  4  5  1  0  0  0  0
  4 17  2  0  0  0  0
  5  6  1  0  0  0  0
  6  7  2  0  0  0  0
  6  8  1  0  0  0  0
  8  9  1  0  0  0  0
  8 23  1  0  0  0  0
  9 16  1  0  0  0  0
  9 10  1  0  0  0  0
  9 11  1  0  0  0  0
 10 24  1  0  0  0  0
 10 25  1  0  0  0  0
 10 26  1  0  0  0  0
 11 12  1  0  0  0  0
 11 27  1  0  0  0  0
 11 28  1  0  0  0  0
 12 13  1  0  0  0  0
 12 29  1  0  0  0  0
 12 30  1  0  0  0  0
 13 14  2  0  0  0  0
 13 15  2  0  0  0  0
 13 16  1  0  0  0  0
 16 31  1  0  0  0  0
 16 32  1  0  0  0  0
 17 18  1  0  0  0  0
M  CHG  1   5  -1
M  END
> <s_m_source_file>
AV-unprocessed.smi

> <i_m_source_file_index>
634

> <i_lp_mmshare_version>
43012

> <i_f3d_flags>
0

> <s_epik_input>
W0NIM11jMVtjSF1jKG5vMSlbTkhdQyg9TylbTkhdW0NAQF0yKFtDSDNdKVtDSDJdW0NIMl1TKD1PKSg9TylbQ0gyXTI=

> <s_epik_cmdline>
J2VwaWtfcHl0aG9uJywgJy1waCcsICc3LjAnLCAnLXRuJywgJzgnLCAnLW1hJywgJzIwMCcsICctbWV0YWxfYmluZGluZycsICctaW1hZScsICc8aW5maWxlLm1hZT4nLCAnLW9tYWUnLCAnPG91dGZpbGUubWFlPic=

> <r_lp_tautomer_probability>
1

> <r_epik_Ionization_Penalty>
6.15572

> <r_epik_Ionization_Penalty_Charging>
6.1556

> <r_epik_Ionization_Penalty_Neutral>
0.000118136

> <r_epik_State_Penalty>
6.15558

> <r_epik_Charging_Adjusted_Penalty>
12.3112

> <i_epik_Tot_Q>
-1

> <i_epik_Tot_abs_Q>
1

> <r_epik_Metal_State_Penalty>
2.10569

> <b_epik_Metal_Only>
1

> <s_lp_Force_Field>
OPLS_2005

> <r_lp_Energy>
-1.37943

> <b_lp_Chiralities_Consistent>
1

> <s_lp_Variant>
AV-unprocessed.smi:634-3

> <Gold.Version>
5.8.1

> <Gold.Id.Protein>
6NUR|6NUR_protein|mol2

> <Gold.PLP.Fitness>
38.5443

> <Gold.PLP.PLP>
-32.7594

> <Gold.PLP.part.hbond>
-3.0000

> <Gold.PLP.part.metal>
0.0000

> <Gold.PLP.part.buried>
-5.0183

> <Gold.PLP.part.nonpolar>
-25.4580

> <Gold.PLP.part.repulsive>
0.6563

> <Gold.PLP.ligand.clash>
0.0000

> <Gold.PLP.ligand.torsion>
0.7498

> <Gold.PLP.Chemscore.Hbond>
2.4259

> <Gold.PLP.Chemscore.CHOScore>
0.0000

> <Gold.PLP.Chemscore.Metal>
0.0000

> <Gold.Chemscore.Hbonds>
donor molecule, donor type, donor heavy atom, donor atom, acceptor molecule, acceptor atom, score
      P1  H  6933  6945       L1    17  0.50
      P1  H  7997  8008       L1     7  1.00
      P1  H 10752 10763       L1    15  1.00

> <Gold.PLP.Chemscore.Internal.Correction>
0.0069

> <Gold.Rescore>
     Score         DG    S(hbond)    S(metal)    S(lipo)     H(rot)  DE(clash)    DE(int)     intcor
     17.71     -18.54       2.44        0.00      63.99       1.00       0.06       0.77       ----

> <Gold.Chemscore.Fitness>
17.7133

> <Gold.Chemscore.DG>
-18.5433

> <Gold.Chemscore.ZeroCoef>
-5.4800

> <Gold.Chemscore.Hbond>
2.4362

> <Gold.Chemscore.Metal>
0.0000

> <Gold.Chemscore.Lipo>
63.9865

> <Gold.Chemscore.Internal_Hbond>
0.0000

> <Gold.Chemscore.DEClash>
0.0551

> <Gold.Chemscore.DEInternal>
0.7749

> <Gold.Chemscore.Rot>
1.0000

> <Gold.Chemscore.Internal.Correction>
   9.000000E+99

> <Gold.Chemscore.Hbonds>
donor molecule, donor type, donor heavy atom, donor atom, acceptor molecule, acceptor atom, score
      P1  H  6933  6945       L1    17  0.25
      P1  H  7997  8008       L1     7  0.99
      P1  H 10752 10763       L1    15  1.00

> <Gold.Chemscore.Hbond.Weighted>
-8.1369

> <Gold.Chemscore.Metal.Weighted>
-0.0000

> <Gold.Chemscore.Lipo.Weighted>
-7.4864

> <Gold.Chemscore.Internal_Hbond.Weighted>
0.0000

> <Gold.Chemscore.DEClash.Weighted>
0.0551

> <Gold.Chemscore.DEInternal.Weighted>
0.7749

> <Gold.Chemscore.Rot.Weighted>
2.5600

> <Gold.Chemscore.Internal.Correction.Weighted>
   9.000000E+99

> <Gold.Protein.RotatedTorsions>
[ 6907 6896 6895 6894 ] final -176.11 input  -60.11 | X-H torsion
[ 7974 7965 7964 7962 ] final   43.91 input  175.53 | X-H torsion
[ 8008 7997 7996 7995 ] final  -75.47 input   59.86 | X-H torsion
[ 10167 10162 10161 10158 ] final -118.17 input  -65.29 | X-H torsion
[ 10718 10713 10712 10709 ] final  114.96 input   66.30 | X-H torsion
[ 10763 10752 10751 10750 ] final   75.22 input  -60.55 | X-H torsion
[ 11005 11000 10999 10996 ] final  -29.58 input  -57.11 | X-H torsion

> <Gold.Protein.ActiveResidues>
 VAL166  LYS551  ARG553  GLY616  TRP617  ASP618  TYR619  PRO620  LYS621  CYS622 
 ASP623  PHE694  ASN695  SER759  ASP760  ASP761  ALA762  ILE779  LEU786  VAL792 
 PHE793  MET794  SER795  GLU796  ALA797  LYS798  CYS799  TRP800  GLU811  SER814 

> <Gold.Protein.RotatedAtoms>
  151.5995  133.3358  159.3044 H   0  0  0  0  0  0  0  0  0  0  0  0  # atno 6907 bound_to 6896
  150.8216  134.7429  159.6788 H   0  0  0  0  0  0  0  0  0  0  0  0  # atno 6908 bound_to 6896
  152.4309  134.5786  159.9993 H   0  0  0  0  0  0  0  0  0  0  0  0  # atno 6909 bound_to 6896
  146.0615  139.5134  142.9655 H   0  0  0  0  0  0  0  0  0  0  0  0  # atno 7974 bound_to 7965
  154.5420  140.0743  156.8525 H   0  0  0  0  0  0  0  0  0  0  0  0  # atno 8008 bound_to 7997
  155.3163  140.3393  155.4224 H   0  0  0  0  0  0  0  0  0  0  0  0  # atno 8009 bound_to 7997
  156.1883  140.1677  156.8129 H   0  0  0  0  0  0  0  0  0  0  0  0  # atno 8010 bound_to 7997
  140.0604  143.4973  152.2034 H   0  0  0  0  0  0  0  0  0  0  0  0  # atno 10167 bound_to 10162
  157.6250  131.1006  150.7261 H   0  0  0  0  0  0  0  0  0  0  0  0  # atno 10718 bound_to 10713
  153.0640  135.4997  154.8157 H   0  0  0  0  0  0  0  0  0  0  0  0  # atno 10763 bound_to 10752
  154.6925  135.2987  154.9461 H   0  0  0  0  0  0  0  0  0  0  0  0  # atno 10764 bound_to 10752
  154.0211  135.6742  153.4825 H   0  0  0  0  0  0  0  0  0  0  0  0  # atno 10765 bound_to 10752
  140.9309  133.7339  156.0934 H   0  0  0  0  0  0  0  0  0  0  0  0  # atno 11005 bound_to 11000
  145.6552  141.0254  143.1738 LP  0  0  0  0  0  0  0  0  0  0  0  0  # atno 17320 bound_to 7965
  144.7177  139.8137  143.7393 LP  0  0  0  0  0  0  0  0  0  0  0  0  # atno 17321 bound_to 7965
  139.5897  144.7545  151.3431 LP  0  0  0  0  0  0  0  0  0  0  0  0  # atno 17342 bound_to 10162
  140.7174  143.7228  150.7682 LP  0  0  0  0  0  0  0  0  0  0  0  0  # atno 17343 bound_to 10162
  156.7611  130.4799  149.5437 LP  0  0  0  0  0  0  0  0  0  0  0  0  # atno 17370 bound_to 10713
  156.1417  130.6249  151.0476 LP  0  0  0  0  0  0  0  0  0  0  0  0  # atno 17371 bound_to 10713
  140.7864  134.3667  157.5475 LP  0  0  0  0  0  0  0  0  0  0  0  0  # atno 17394 bound_to 11000
  139.8796  134.9113  156.3034 LP  0  0  0  0  0  0  0  0  0  0  0  0  # atno 17395 bound_to 11000

$$$$
