AV-unprocessed.smi:1012|AV-procd|sdf|4425|dock8
  -GOLD-   22720 2383D 1   1.00000     0.00000
 Structure written by MMmdl.
 44 46  0  0  0  0  0  0  0  0  2 V2000
  146.7962  137.8863  163.5552 C   0  0  0  0  0  0  0  0  0  0  0  0
  147.1134  137.5338  162.2167 O   0  0  0  0  0  0  0  0  0  0  0  0
  147.2994  136.1989  161.9181 C   0  0  0  0  0  0  0  0  0  0  0  0
  147.1738  135.1564  162.8719 C   0  0  0  0  0  0  0  0  0  0  0  0
  147.3769  133.8143  162.4980 C   0  0  0  0  0  0  0  0  0  0  0  0
  147.7071  133.4944  161.1693 C   0  0  0  0  0  0  0  0  0  0  0  0
  147.8345  134.5188  160.2141 C   0  0  0  0  0  0  0  0  0  0  0  0
  147.6334  135.8657  160.5834 C   0  0  0  0  0  0  0  0  0  0  0  0
  147.7718  136.9557  159.5365 C   0  0  0  0  0  0  0  0  0  0  0  0
  148.8637  137.8136  159.8239 O   0  0  0  0  0  0  0  0  0  0  0  0
  149.3675  138.4666  158.6713 C   0  0  0  0  0  0  0  0  0  0  0  0
  150.9035  138.3639  158.6663 C   0  0  1  0  0  0  0  0  0  0  0  0
  151.2604  136.9982  158.6216 O   0  0  0  0  0  0  0  0  0  0  0  0
  151.5732  139.0489  157.4579 C   0  0  0  0  0  0  0  0  0  0  0  0
  151.1822  140.4581  157.3094 N   0  0  0  0  0  0  0  0  0  0  0  0
  150.4584  141.0514  156.3214 C   0  0  0  0  0  0  0  0  0  0  0  0
  150.3532  142.3744  156.6252 N   0  3  0  0  0  0  0  0  0  0  0  0
  151.0192  142.6316  157.8253 C   0  0  0  0  0  0  0  0  0  0  0  0
  151.1907  143.8158  158.5345 C   0  0  0  0  0  0  0  0  0  0  0  0
  151.9337  143.7382  159.7307 C   0  0  0  0  0  0  0  0  0  0  0  0
  152.1335  144.8620  160.4589 F   0  0  0  0  0  0  0  0  0  0  0  0
  152.4732  142.5146  160.1809 C   0  0  0  0  0  0  0  0  0  0  0  0
  153.1835  142.4841  161.3331 F   0  0  0  0  0  0  0  0  0  0  0  0
  152.2896  141.3195  159.4545 C   0  0  0  0  0  0  0  0  0  0  0  0
  151.5540  141.4048  158.2724 C   0  0  0  0  0  0  0  0  0  0  0  0
  146.6885  138.9686  163.6256 H   0  0  0  0  0  0  0  0  0  0  0  0
  147.5873  137.5889  164.2449 H   0  0  0  0  0  0  0  0  0  0  0  0
  145.8524  137.4404  163.8721 H   0  0  0  0  0  0  0  0  0  0  0  0
  146.9209  135.3592  163.9014 H   0  0  0  0  0  0  0  0  0  0  0  0
  147.2783  133.0291  163.2329 H   0  0  0  0  0  0  0  0  0  0  0  0
  147.8623  132.4646  160.8829 H   0  0  0  0  0  0  0  0  0  0  0  0
  148.0892  134.2653  159.1956 H   0  0  0  0  0  0  0  0  0  0  0  0
  147.9056  136.5089  158.5500 H   0  0  0  0  0  0  0  0  0  0  0  0
  146.8422  137.5261  159.5032 H   0  0  0  0  0  0  0  0  0  0  0  0
  148.9427  138.0503  157.7560 H   0  0  0  0  0  0  0  0  0  0  0  0
  149.0566  139.5095  158.7255 H   0  0  0  0  0  0  0  0  0  0  0  0
  151.3044  138.7967  159.5840 H   0  0  0  0  0  0  0  0  0  0  0  0
  151.1139  136.6753  157.7458 H   0  0  0  0  0  0  0  0  0  0  0  0
  152.6570  139.0386  157.5825 H   0  0  0  0  0  0  0  0  0  0  0  0
  151.3696  138.5101  156.5327 H   0  0  0  0  0  0  0  0  0  0  0  0
  150.0428  140.5605  155.4528 H   0  0  0  0  0  0  0  0  0  0  0  0
  150.7807  144.7547  158.1926 H   0  0  0  0  0  0  0  0  0  0  0  0
  152.7132  140.3924  159.8101 H   0  0  0  0  0  0  0  0  0  0  0  0
  149.8624  143.0494  156.0525 H   0  0  0  0  0  0  0  0  0  0  0  0
  1  2  1  0  0  0  0
  1 26  1  0  0  0  0
  1 27  1  0  0  0  0
  1 28  1  0  0  0  0
  2  3  1  0  0  0  0
  3  8  1  0  0  0  0
  3  4  2  0  0  0  0
  4  5  1  0  0  0  0
  4 29  1  0  0  0  0
  5  6  2  0  0  0  0
  5 30  1  0  0  0  0
  6  7  1  0  0  0  0
  6 31  1  0  0  0  0
  7  8  2  0  0  0  0
  7 32  1  0  0  0  0
  8  9  1  0  0  0  0
  9 10  1  0  0  0  0
  9 33  1  0  0  0  0
  9 34  1  0  0  0  0
 10 11  1  0  0  0  0
 11 12  1  0  0  0  0
 11 35  1  0  0  0  0
 11 36  1  0  0  0  0
 12 13  1  0  0  0  0
 12 14  1  0  0  0  0
 12 37  1  0  0  0  0
 13 38  1  0  0  0  0
 14 15  1  0  0  0  0
 14 39  1  0  0  0  0
 14 40  1  0  0  0  0
 15 25  1  0  0  0  0
 15 16  1  0  0  0  0
 16 17  2  0  0  0  0
 16 41  1  0  0  0  0
 17 18  1  0  0  0  0
 17 44  1  0  0  0  0
 18 25  2  0  0  0  0
 18 19  1  0  0  0  0
 19 20  2  0  0  0  0
 19 42  1  0  0  0  0
 20 21  1  0  0  0  0
 20 22  1  0  0  0  0
 22 23  1  0  0  0  0
 22 24  2  0  0  0  0
 24 25  1  0  0  0  0
 24 43  1  0  0  0  0
M  CHG  1  17   1
M  END
> <s_m_source_file>
AV-unprocessed.smi

> <i_m_source_file_index>
1012

> <i_lp_mmshare_version>
43012

> <i_f3d_flags>
0

> <s_epik_input>
W0NIM11PYzFbY0hdW2NIXVtjSF1bY0hdYzFbQ0gyXU9bQ0gyXVtDQEhdKFtPSF0pW0NIMl1uKFtjSF1uMiljKGMyMylbY0hdYyhGKWMoRilbY0hdMw==

> <s_epik_cmdline>
J2VwaWtfcHl0aG9uJywgJy1waCcsICc3LjAnLCAnLXRuJywgJzgnLCAnLW1hJywgJzIwMCcsICctbWV0YWxfYmluZGluZycsICctaW1hZScsICc8aW5maWxlLm1hZT4nLCAnLW9tYWUnLCAnPG91dGZpbGUubWFlPic=

> <r_lp_tautomer_probability>
1

> <r_epik_Ionization_Penalty>
2.14697

> <r_epik_Ionization_Penalty_Charging>
2.14697

> <r_epik_Ionization_Penalty_Neutral>
1.07667e-06

> <r_epik_State_Penalty>
2.28651

> <r_epik_Charging_Adjusted_Penalty>
4.43348

> <i_epik_Tot_Q>
1

> <i_epik_Tot_abs_Q>
1

> <r_epik_Metal_State_Penalty>
6.36664

> <b_epik_Metal_Only>
0

> <s_lp_Force_Field>
OPLS_2005

> <r_lp_Energy>
25.548

> <b_lp_Chiralities_Consistent>
1

> <s_lp_Variant>
AV-unprocessed.smi:1012-4

> <Gold.Version>
5.8.1

> <Gold.Id.Protein>
6NUR|6NUR_protein|mol2

> <Gold.PLP.Fitness>
66.9441

> <Gold.PLP.PLP>
-56.8127

> <Gold.PLP.part.hbond>
-5.6380

> <Gold.PLP.part.metal>
0.0000

> <Gold.PLP.part.buried>
-5.7872

> <Gold.PLP.part.nonpolar>
-45.9029

> <Gold.PLP.part.repulsive>
0.0721

> <Gold.PLP.ligand.clash>
0.0000

> <Gold.PLP.ligand.torsion>
0.5427

> <Gold.PLP.Chemscore.Hbond>
3.6793

> <Gold.PLP.Chemscore.CHOScore>
0.0000

> <Gold.PLP.Chemscore.Metal>
0.0000

> <Gold.Chemscore.Hbonds>
donor molecule, donor type, donor heavy atom, donor atom, acceptor molecule, acceptor atom, score
      L1  H    17    44       P1  8028  2.00
      P1  H  6896  6907       L1    13  0.38
      P1  H  6931  6943       L1     2  0.60
      P1  H  6934  6947       L1     2  0.61

> <Gold.PLP.Chemscore.Internal.Correction>
0.1789

> <Gold.Rescore>
     Score         DG    S(hbond)    S(metal)    S(lipo)     H(rot)  DE(clash)    DE(int)     intcor
     15.59     -17.63       1.64        0.00     123.45       3.03       0.41       1.63       ----

> <Gold.Chemscore.Fitness>
15.5944

> <Gold.Chemscore.DG>
-17.6337

> <Gold.Chemscore.ZeroCoef>
-5.4800

> <Gold.Chemscore.Hbond>
1.6350

> <Gold.Chemscore.Metal>
0.0000

> <Gold.Chemscore.Lipo>
123.4518

> <Gold.Chemscore.Internal_Hbond>
0.0000

> <Gold.Chemscore.DEClash>
0.4102

> <Gold.Chemscore.DEInternal>
1.6291

> <Gold.Chemscore.Rot>
3.0278

> <Gold.Chemscore.Internal.Correction>
   9.000000E+99

> <Gold.Chemscore.Hbonds>
donor molecule, donor type, donor heavy atom, donor atom, acceptor molecule, acceptor atom, score
      L1  H    17    44       P1  8028  0.96
      P1  H  6896  6907       L1    13  0.13
      P1  H  6931  6943       L1    10  0.15
      P1  H  6934  6947       L1     2  0.54

> <Gold.Chemscore.Hbond.Weighted>
-5.4610

> <Gold.Chemscore.Metal.Weighted>
-0.0000

> <Gold.Chemscore.Lipo.Weighted>
-14.4439

> <Gold.Chemscore.Internal_Hbond.Weighted>
0.0000

> <Gold.Chemscore.DEClash.Weighted>
0.4102

> <Gold.Chemscore.DEInternal.Weighted>
1.6291

> <Gold.Chemscore.Rot.Weighted>
7.7512

> <Gold.Chemscore.Internal.Correction.Weighted>
   9.000000E+99

> <Gold.Protein.RotatedTorsions>
[ 6907 6896 6895 6894 ] final  -24.22 input  -60.11 | X-H torsion
[ 7974 7965 7964 7962 ] final -145.93 input  175.53 | X-H torsion
[ 8008 7997 7996 7995 ] final -174.59 input   59.86 | X-H torsion
[ 10167 10162 10161 10158 ] final  -81.13 input  -65.29 | X-H torsion
[ 10718 10713 10712 10709 ] final -150.12 input   66.30 | X-H torsion
[ 10763 10752 10751 10750 ] final  126.01 input  -60.55 | X-H torsion
[ 11005 11000 10999 10996 ] final  -16.22 input  -57.11 | X-H torsion

> <Gold.Protein.ActiveResidues>
 VAL166  LYS551  ARG553  GLY616  TRP617  ASP618  TYR619  PRO620  LYS621  CYS622 
 ASP623  PHE694  ASN695  SER759  ASP760  ASP761  ALA762  ILE779  LEU786  VAL792 
 PHE793  MET794  SER795  GLU796  ALA797  LYS798  CYS799  TRP800  GLU811  SER814 

> <Gold.Protein.RotatedAtoms>
  151.1927  135.0409  159.8839 H   0  0  0  0  0  0  0  0  0  0  0  0  # atno 6907 bound_to 6896
  152.5438  134.0938  159.8298 H   0  0  0  0  0  0  0  0  0  0  0  0  # atno 6908 bound_to 6896
  151.1068  133.5155  159.2639 H   0  0  0  0  0  0  0  0  0  0  0  0  # atno 6909 bound_to 6896
  144.8193  140.5520  143.5589 H   0  0  0  0  0  0  0  0  0  0  0  0  # atno 7974 bound_to 7965
  155.9719  140.1164  157.0804 H   0  0  0  0  0  0  0  0  0  0  0  0  # atno 8008 bound_to 7997
  154.4159  140.1161  156.5386 H   0  0  0  0  0  0  0  0  0  0  0  0  # atno 8009 bound_to 7997
  155.6585  140.3473  155.4776 H   0  0  0  0  0  0  0  0  0  0  0  0  # atno 8010 bound_to 7997
  140.4440  143.2505  151.8585 H   0  0  0  0  0  0  0  0  0  0  0  0  # atno 10167 bound_to 10162
  156.4420  130.8126  151.2356 H   0  0  0  0  0  0  0  0  0  0  0  0  # atno 10718 bound_to 10713
  153.6865  135.3306  155.3191 H   0  0  0  0  0  0  0  0  0  0  0  0  # atno 10763 bound_to 10752
  154.8452  135.4421  154.1553 H   0  0  0  0  0  0  0  0  0  0  0  0  # atno 10764 bound_to 10752
  153.2583  135.6988  153.7683 H   0  0  0  0  0  0  0  0  0  0  0  0  # atno 10765 bound_to 10752
  140.8046  133.8188  155.9503 H   0  0  0  0  0  0  0  0  0  0  0  0  # atno 11005 bound_to 11000
  145.5141  139.1478  143.3588 LP  0  0  0  0  0  0  0  0  0  0  0  0  # atno 17320 bound_to 7965
  146.2498  140.5282  142.8898 LP  0  0  0  0  0  0  0  0  0  0  0  0  # atno 17321 bound_to 7965
  139.4791  144.5196  151.8819 LP  0  0  0  0  0  0  0  0  0  0  0  0  # atno 17342 bound_to 10162
  140.4285  144.2148  150.5887 LP  0  0  0  0  0  0  0  0  0  0  0  0  # atno 17343 bound_to 10162
  157.7506  131.0165  150.3548 LP  0  0  0  0  0  0  0  0  0  0  0  0  # atno 17370 bound_to 10713
  156.3907  130.3897  149.7032 LP  0  0  0  0  0  0  0  0  0  0  0  0  # atno 17371 bound_to 10713
  140.9260  134.2082  157.4895 LP  0  0  0  0  0  0  0  0  0  0  0  0  # atno 17394 bound_to 11000
  139.8719  134.9813  156.5109 LP  0  0  0  0  0  0  0  0  0  0  0  0  # atno 17395 bound_to 11000

$$$$
