AV-unprocessed.smi:1202|AV-procd|sdf|5030|dock8
  -GOLD-   22720 4 53D 1   1.00000     0.00000
 Structure written by MMmdl.
 45 46  0  0  0  0  0  0  0  0  2 V2000
  146.2071  135.1106  153.4116 C   0  0  0  0  0  0  0  0  0  0  0  0
  146.6993  136.4242  153.0246 N   0  0  0  0  0  0  0  0  0  0  0  0
  145.9332  137.5208  152.9381 C   0  0  0  0  0  0  0  0  0  0  0  0
  144.7240  137.5199  153.1720 O   0  0  0  0  0  0  0  0  0  0  0  0
  146.6411  138.8090  152.5051 C   0  0  0  0  0  0  0  0  0  0  0  0
  146.4581  139.9267  153.4668 N   0  3  2  0  0  0  0  0  0  0  0  0
  147.1962  141.1495  153.0593 C   0  0  0  0  0  0  0  0  0  0  0  0
  146.8775  142.3325  153.9923 C   0  0  0  0  0  0  0  0  0  0  0  0
  147.1491  141.9960  155.4687 C   0  0  2  0  0  0  0  0  0  0  0  0
  148.5877  141.9136  155.7183 N   0  0  0  0  0  0  0  0  0  0  0  0
  149.1565  141.6994  156.9146 C   0  0  0  0  0  0  0  0  0  0  0  0
  148.5078  141.5249  157.9468 O   0  0  0  0  0  0  0  0  0  0  0  0
  150.6909  141.6537  156.9318 C   0  0  0  0  0  0  0  0  0  0  0  0
  151.2900  142.6244  157.8630 N   0  0  0  0  0  0  0  0  0  0  0  0
  151.2431  143.9831  157.4928 C   0  0  0  0  0  0  0  0  0  0  0  0
  151.7638  144.9483  158.2669 C   0  0  0  0  0  0  0  0  0  0  0  0
  152.3856  144.5638  159.5121 C   0  0  0  0  0  0  0  0  0  0  0  0
  152.4378  143.2665  159.8746 C   0  0  0  0  0  0  0  0  0  0  0  0
  151.8719  142.2080  159.0302 C   0  0  0  0  0  0  0  0  0  0  0  0
  151.9176  141.0198  159.3510 O   0  0  0  0  0  0  0  0  0  0  0  0
  146.4263  140.6871  155.8437 C   0  0  0  0  0  0  0  0  0  0  0  0
  146.7657  139.5443  154.8710 C   0  0  0  0  0  0  0  0  0  0  0  0
  147.0126  134.3789  153.3489 H   0  0  0  0  0  0  0  0  0  0  0  0
  145.4007  134.7854  152.7529 H   0  0  0  0  0  0  0  0  0  0  0  0
  145.8366  135.1221  154.4373 H   0  0  0  0  0  0  0  0  0  0  0  0
  147.6831  136.5016  152.8090 H   0  0  0  0  0  0  0  0  0  0  0  0
  147.7047  138.6264  152.3421 H   0  0  0  0  0  0  0  0  0  0  0  0
  146.2185  139.0842  151.5377 H   0  0  0  0  0  0  0  0  0  0  0  0
  148.2679  140.9446  153.0552 H   0  0  0  0  0  0  0  0  0  0  0  0
  146.9232  141.4200  152.0386 H   0  0  0  0  0  0  0  0  0  0  0  0
  147.4498  143.2116  153.6927 H   0  0  0  0  0  0  0  0  0  0  0  0
  145.8267  142.6022  153.8759 H   0  0  0  0  0  0  0  0  0  0  0  0
  146.7483  142.8076  156.0790 H   0  0  0  0  0  0  0  0  0  0  0  0
  149.1985  142.0492  154.9257 H   0  0  0  0  0  0  0  0  0  0  0  0
  150.9964  140.6385  157.1876 H   0  0  0  0  0  0  0  0  0  0  0  0
  151.0721  141.8196  155.9221 H   0  0  0  0  0  0  0  0  0  0  0  0
  150.7676  144.1865  156.5442 H   0  0  0  0  0  0  0  0  0  0  0  0
  151.7222  145.9843  157.9645 H   0  0  0  0  0  0  0  0  0  0  0  0
  152.8116  145.3196  160.1555 H   0  0  0  0  0  0  0  0  0  0  0  0
  152.9077  142.9977  160.8093 H   0  0  0  0  0  0  0  0  0  0  0  0
  146.6667  140.3924  156.8658 H   0  0  0  0  0  0  0  0  0  0  0  0
  145.3490  140.8579  155.8276 H   0  0  0  0  0  0  0  0  0  0  0  0
  146.1958  138.6588  155.1532 H   0  0  0  0  0  0  0  0  0  0  0  0
  147.8200  139.2766  154.9553 H   0  0  0  0  0  0  0  0  0  0  0  0
  145.4761  140.1634  153.4348 H   0  0  0  0  0  0  0  0  0  0  0  0
  1  2  1  0  0  0  0
  1 23  1  0  0  0  0
  1 24  1  0  0  0  0
  1 25  1  0  0  0  0
  2  3  1  0  0  0  0
  2 26  1  0  0  0  0
  3  4  2  0  0  0  0
  3  5  1  0  0  0  0
  5  6  1  0  0  0  0
  5 27  1  0  0  0  0
  5 28  1  0  0  0  0
  6 22  1  0  0  0  0
  6  7  1  0  0  0  0
  6 45  1  0  0  0  0
  7  8  1  0  0  0  0
  7 29  1  0  0  0  0
  7 30  1  0  0  0  0
  8  9  1  0  0  0  0
  8 31  1  0  0  0  0
  8 32  1  0  0  0  0
  9 10  1  0  0  0  0
  9 21  1  0  0  0  0
  9 33  1  0  0  0  0
 10 11  1  0  0  0  0
 10 34  1  0  0  0  0
 11 12  2  0  0  0  0
 11 13  1  0  0  0  0
 13 14  1  0  0  0  0
 13 35  1  0  0  0  0
 13 36  1  0  0  0  0
 14 19  1  0  0  0  0
 14 15  1  0  0  0  0
 15 16  2  0  0  0  0
 15 37  1  0  0  0  0
 16 17  1  0  0  0  0
 16 38  1  0  0  0  0
 17 18  2  0  0  0  0
 17 39  1  0  0  0  0
 18 19  1  0  0  0  0
 18 40  1  0  0  0  0
 19 20  2  0  0  0  0
 21 22  1  0  0  0  0
 21 41  1  0  0  0  0
 21 42  1  0  0  0  0
 22 43  1  0  0  0  0
 22 44  1  0  0  0  0
M  CHG  1   6   1
M  END
> <s_m_source_file>
AV-unprocessed.smi

> <i_m_source_file_index>
1202

> <i_lp_mmshare_version>
43012

> <i_f3d_flags>
0

> <s_epik_input>
W0NIM11bTkhdQyg9TylbQ0gyXU4xW0NIMl1bQ0gyXVtDSF0oW0NIMl1bQ0gyXTEpW05IXUMoPU8pW0NIMl1uMltjSF1bY0hdW2NIXVtjSF1jMj1P

> <s_epik_cmdline>
J2VwaWtfcHl0aG9uJywgJy1waCcsICc3LjAnLCAnLXRuJywgJzgnLCAnLW1hJywgJzIwMCcsICctbWV0YWxfYmluZGluZycsICctaW1hZScsICc8aW5maWxlLm1hZT4nLCAnLW9tYWUnLCAnPG91dGZpbGUubWFlPic=

> <r_lp_tautomer_probability>
1

> <r_epik_Ionization_Penalty>
0.983979

> <r_epik_Ionization_Penalty_Charging>
0.983957

> <r_epik_Ionization_Penalty_Neutral>
2.18432e-05

> <r_epik_State_Penalty>
1.03106

> <r_epik_Charging_Adjusted_Penalty>
2.01502

> <i_epik_Tot_Q>
1

> <i_epik_Tot_abs_Q>
1

> <r_epik_Metal_State_Penalty>
1.03477

> <b_epik_Metal_Only>
0

> <s_lp_Force_Field>
OPLS_2005

> <r_lp_Energy>
22.4374

> <b_lp_Chiralities_Consistent>
1

> <s_lp_Variant>
AV-unprocessed.smi:1202-3

> <Gold.Version>
5.8.1

> <Gold.Id.Protein>
6NUR|6NUR_protein|mol2

> <Gold.PLP.Fitness>
51.8599

> <Gold.PLP.PLP>
-40.1949

> <Gold.PLP.part.hbond>
-2.8865

> <Gold.PLP.part.metal>
0.0000

> <Gold.PLP.part.buried>
-5.7598

> <Gold.PLP.part.nonpolar>
-32.9969

> <Gold.PLP.part.repulsive>
0.3470

> <Gold.PLP.ligand.clash>
0.0000

> <Gold.PLP.ligand.torsion>
0.1982

> <Gold.PLP.Chemscore.Hbond>
3.0000

> <Gold.PLP.Chemscore.CHOScore>
1.0000

> <Gold.PLP.Chemscore.Metal>
0.0000

> <Gold.Chemscore.Hbonds>
donor molecule, donor type, donor heavy atom, donor atom, acceptor molecule, acceptor atom, score
      L1  H     2    26       P1  7948  1.00
      L1  H     6    45       P1 10175  1.85
      L1  C    15    37       P1  8028  1.00

> <Gold.PLP.Chemscore.Internal.Correction>
0.0615

> <Gold.Rescore>
     Score         DG    S(hbond)    S(metal)    S(lipo)     H(rot)  DE(clash)    DE(int)     intcor
     16.38     -17.37       1.97        0.00      94.10       2.23       0.73       0.26       ----

> <Gold.Chemscore.Fitness>
16.3789

> <Gold.Chemscore.DG>
-17.3658

> <Gold.Chemscore.ZeroCoef>
-5.4800

> <Gold.Chemscore.Hbond>
1.9750

> <Gold.Chemscore.Metal>
0.0000

> <Gold.Chemscore.Lipo>
94.1009

> <Gold.Chemscore.Internal_Hbond>
0.0000

> <Gold.Chemscore.DEClash>
0.7296

> <Gold.Chemscore.DEInternal>
0.2573

> <Gold.Chemscore.Rot>
2.2346

> <Gold.Chemscore.Internal.Correction>
   9.000000E+99

> <Gold.Chemscore.Hbonds>
donor molecule, donor type, donor heavy atom, donor atom, acceptor molecule, acceptor atom, score
      L1  H     2    26       P1  7948  0.94
      L1  H     6    45       P1 10175  0.86

> <Gold.Chemscore.Hbond.Weighted>
-6.5965

> <Gold.Chemscore.Metal.Weighted>
-0.0000

> <Gold.Chemscore.Lipo.Weighted>
-11.0098

> <Gold.Chemscore.Internal_Hbond.Weighted>
0.0000

> <Gold.Chemscore.DEClash.Weighted>
0.7296

> <Gold.Chemscore.DEInternal.Weighted>
0.2573

> <Gold.Chemscore.Rot.Weighted>
5.7205

> <Gold.Chemscore.Internal.Correction.Weighted>
   9.000000E+99

> <Gold.Protein.RotatedTorsions>
[ 6907 6896 6895 6894 ] final   28.69 input  -60.11 | X-H torsion
[ 7974 7965 7964 7962 ] final  156.63 input  175.53 | X-H torsion
[ 8008 7997 7996 7995 ] final   99.14 input   59.86 | X-H torsion
[ 10167 10162 10161 10158 ] final   70.33 input  -65.29 | X-H torsion
[ 10718 10713 10712 10709 ] final  -33.42 input   66.30 | X-H torsion
[ 10763 10752 10751 10750 ] final  148.11 input  -60.55 | X-H torsion
[ 11005 11000 10999 10996 ] final -129.60 input  -57.11 | X-H torsion

> <Gold.Protein.ActiveResidues>
 VAL166  LYS551  ARG553  GLY616  TRP617  ASP618  TYR619  PRO620  LYS621  CYS622 
 ASP623  PHE694  ASN695  SER759  ASP760  ASP761  ALA762  ILE779  LEU786  VAL792 
 PHE793  MET794  SER795  GLU796  ALA797  LYS798  CYS799  TRP800  GLU811  SER814 

> <Gold.Protein.RotatedAtoms>
  152.0206  134.9825  160.0570 H   0  0  0  0  0  0  0  0  0  0  0  0  # atno 6907 bound_to 6896
  152.1341  133.4420  159.4743 H   0  0  0  0  0  0  0  0  0  0  0  0  # atno 6908 bound_to 6896
  150.6859  134.2304  159.4475 H   0  0  0  0  0  0  0  0  0  0  0  0  # atno 6909 bound_to 6896
  144.7952  139.7230  143.6205 H   0  0  0  0  0  0  0  0  0  0  0  0  # atno 7974 bound_to 7965
  156.1075  140.3233  155.8026 H   0  0  0  0  0  0  0  0  0  0  0  0  # atno 8008 bound_to 7997
  155.4730  140.0548  157.2994 H   0  0  0  0  0  0  0  0  0  0  0  0  # atno 8009 bound_to 7997
  154.4737  140.2023  155.9944 H   0  0  0  0  0  0  0  0  0  0  0  0  # atno 8010 bound_to 7997
  140.0581  144.5256  150.7314 H   0  0  0  0  0  0  0  0  0  0  0  0  # atno 10167 bound_to 10162
  156.3629  130.4326  149.7609 H   0  0  0  0  0  0  0  0  0  0  0  0  # atno 10718 bound_to 10713
  154.0494  135.2883  155.3343 H   0  0  0  0  0  0  0  0  0  0  0  0  # atno 10763 bound_to 10752
  154.6878  135.5238  153.8354 H   0  0  0  0  0  0  0  0  0  0  0  0  # atno 10764 bound_to 10752
  153.0567  135.6598  154.0692 H   0  0  0  0  0  0  0  0  0  0  0  0  # atno 10765 bound_to 10752
  140.9418  134.1183  157.4144 H   0  0  0  0  0  0  0  0  0  0  0  0  # atno 11005 bound_to 11000
  146.2217  139.5648  142.9614 LP  0  0  0  0  0  0  0  0  0  0  0  0  # atno 17320 bound_to 7965
  145.5693  141.0396  143.2183 LP  0  0  0  0  0  0  0  0  0  0  0  0  # atno 17321 bound_to 7965
  140.7185  143.2566  151.4356 LP  0  0  0  0  0  0  0  0  0  0  0  0  # atno 17342 bound_to 10162
  139.5911  144.1497  152.2089 LP  0  0  0  0  0  0  0  0  0  0  0  0  # atno 17343 bound_to 10162
  156.4766  130.8021  151.3037 LP  0  0  0  0  0  0  0  0  0  0  0  0  # atno 17370 bound_to 10713
  157.7475  131.0019  150.2980 LP  0  0  0  0  0  0  0  0  0  0  0  0  # atno 17371 bound_to 10713
  139.8822  135.0039  156.6215 LP  0  0  0  0  0  0  0  0  0  0  0  0  # atno 17394 bound_to 11000
  140.7724  133.8728  155.8502 LP  0  0  0  0  0  0  0  0  0  0  0  0  # atno 17395 bound_to 11000

$$$$
