AV-unprocessed.smi:1697|AV-procd|sdf|6812|dock6
  -GOLD-   22720 7593D 1   1.00000     0.00000
 Structure written by MMmdl.
 53 55  0  0  0  0  0  0  0  0  1 V2000
  147.3805  135.1971  162.8285 C   0  0  0  0  0  0  0  0  0  0  0  0
  146.7171  136.3698  162.0931 C   0  0  0  0  0  0  0  0  0  0  0  0
  147.6352  137.0580  161.2535 O   0  0  0  0  0  0  0  0  0  0  0  0
  148.0662  136.3355  160.1060 C   0  0  0  0  0  0  0  0  0  0  0  0
  149.1482  137.1411  159.3691 C   0  0  0  0  0  0  0  0  0  0  0  0
  149.5017  136.4642  158.0341 C   0  0  0  0  0  0  0  0  0  0  0  0
  148.3400  136.2981  157.1579 N   0  0  0  0  0  0  0  0  0  0  0  0
  148.7442  135.7092  155.8787 C   0  0  0  0  0  0  0  0  0  0  0  0
  149.9762  136.3489  155.2067 C   0  0  1  0  0  0  0  0  0  0  0  0
  150.4326  135.4773  154.1909 O   0  0  0  0  0  0  0  0  0  0  0  0
  149.6323  137.7159  154.5852 C   0  0  0  0  0  0  0  0  0  0  0  0
  150.4248  138.7976  155.1430 N   0  0  0  0  0  0  0  0  0  0  0  0
  151.7512  138.9832  155.0022 C   0  0  0  0  0  0  0  0  0  0  0  0
  152.2855  140.0431  155.6017 N   0  0  0  0  0  0  0  0  0  0  0  0
  151.1754  140.6119  156.2022 C   0  0  0  0  0  0  0  0  0  0  0  0
  151.0591  141.7709  157.0003 C   0  0  0  0  0  0  0  0  0  0  0  0
  149.8071  142.1710  157.5191 C   0  0  0  0  0  0  0  0  0  0  0  0
  149.7287  143.4229  158.3749 C   0  0  0  0  0  0  0  0  0  0  0  0
  148.6452  141.4075  157.2394 C   0  0  0  0  0  0  0  0  0  0  0  0
  147.2896  141.8179  157.7865 C   0  0  0  0  0  0  0  0  0  0  0  0
  148.7436  140.2474  156.4428 C   0  0  0  0  0  0  0  0  0  0  0  0
  149.9954  139.8578  155.9344 C   0  0  0  0  0  0  0  0  0  0  0  0
  147.3177  135.4982  157.8429 C   0  0  0  0  0  0  0  0  0  0  0  0
  146.8648  136.1262  159.1723 C   0  0  0  0  0  0  0  0  0  0  0  0
  146.6805  134.7322  163.5230 H   0  0  0  0  0  0  0  0  0  0  0  0
  148.2442  135.5347  163.4019 H   0  0  0  0  0  0  0  0  0  0  0  0
  147.7167  134.4248  162.1369 H   0  0  0  0  0  0  0  0  0  0  0  0
  145.8494  136.0365  161.5218 H   0  0  0  0  0  0  0  0  0  0  0  0
  146.3460  137.0836  162.8288 H   0  0  0  0  0  0  0  0  0  0  0  0
  148.4691  135.3564  160.3738 H   0  0  0  0  0  0  0  0  0  0  0  0
  148.7924  138.1550  159.1806 H   0  0  0  0  0  0  0  0  0  0  0  0
  150.0401  137.2348  159.9887 H   0  0  0  0  0  0  0  0  0  0  0  0
  150.2584  137.0660  157.5291 H   0  0  0  0  0  0  0  0  0  0  0  0
  149.9607  135.4936  158.2294 H   0  0  0  0  0  0  0  0  0  0  0  0
  148.9535  134.6472  156.0171 H   0  0  0  0  0  0  0  0  0  0  0  0
  147.8986  135.7519  155.1904 H   0  0  0  0  0  0  0  0  0  0  0  0
  150.7830  136.4936  155.9235 H   0  0  0  0  0  0  0  0  0  0  0  0
  150.3274  135.9113  153.3579 H   0  0  0  0  0  0  0  0  0  0  0  0
  149.7772  137.6939  153.5043 H   0  0  0  0  0  0  0  0  0  0  0  0
  148.5797  137.9486  154.7519 H   0  0  0  0  0  0  0  0  0  0  0  0
  152.3589  138.3007  154.4260 H   0  0  0  0  0  0  0  0  0  0  0  0
  151.9444  142.3522  157.2126 H   0  0  0  0  0  0  0  0  0  0  0  0
  149.3541  143.1822  159.3701 H   0  0  0  0  0  0  0  0  0  0  0  0
  149.0614  144.1553  157.9203 H   0  0  0  0  0  0  0  0  0  0  0  0
  150.7080  143.8887  158.4899 H   0  0  0  0  0  0  0  0  0  0  0  0
  146.5083  141.1244  157.4746 H   0  0  0  0  0  0  0  0  0  0  0  0
  147.0176  142.8111  157.4287 H   0  0  0  0  0  0  0  0  0  0  0  0
  147.3070  141.8342  158.8763 H   0  0  0  0  0  0  0  0  0  0  0  0
  147.8666  139.6580  156.2195 H   0  0  0  0  0  0  0  0  0  0  0  0
  146.4380  135.3829  157.2121 H   0  0  0  0  0  0  0  0  0  0  0  0
  147.6979  134.4925  158.0284 H   0  0  0  0  0  0  0  0  0  0  0  0
  146.1224  135.4897  159.6546 H   0  0  0  0  0  0  0  0  0  0  0  0
  146.3764  137.0818  158.9759 H   0  0  0  0  0  0  0  0  0  0  0  0
  1  2  1  0  0  0  0
  1 25  1  0  0  0  0
  1 26  1  0  0  0  0
  1 27  1  0  0  0  0
  2  3  1  0  0  0  0
  2 28  1  0  0  0  0
  2 29  1  0  0  0  0
  3  4  1  0  0  0  0
  4 24  1  0  0  0  0
  4  5  1  0  0  0  0
  4 30  1  0  0  0  0
  5  6  1  0  0  0  0
  5 31  1  0  0  0  0
  5 32  1  0  0  0  0
  6  7  1  0  0  0  0
  6 33  1  0  0  0  0
  6 34  1  0  0  0  0
  7  8  1  0  0  0  0
  7 23  1  0  0  0  0
  8  9  1  0  0  0  0
  8 35  1  0  0  0  0
  8 36  1  0  0  0  0
  9 10  1  0  0  0  0
  9 11  1  0  0  0  0
  9 37  1  0  0  0  0
 10 38  1  0  0  0  0
 11 12  1  0  0  0  0
 11 39  1  0  0  0  0
 11 40  1  0  0  0  0
 12 22  1  0  0  0  0
 12 13  1  0  0  0  0
 13 14  2  0  0  0  0
 13 41  1  0  0  0  0
 14 15  1  0  0  0  0
 15 22  2  0  0  0  0
 15 16  1  0  0  0  0
 16 17  2  0  0  0  0
 16 42  1  0  0  0  0
 17 18  1  0  0  0  0
 17 19  1  0  0  0  0
 18 43  1  0  0  0  0
 18 44  1  0  0  0  0
 18 45  1  0  0  0  0
 19 20  1  0  0  0  0
 19 21  2  0  0  0  0
 20 46  1  0  0  0  0
 20 47  1  0  0  0  0
 20 48  1  0  0  0  0
 21 22  1  0  0  0  0
 21 49  1  0  0  0  0
 23 24  1  0  0  0  0
 23 50  1  0  0  0  0
 23 51  1  0  0  0  0
 24 52  1  0  0  0  0
 24 53  1  0  0  0  0
M  END
> <s_m_source_file>
AV-unprocessed.smi

> <i_m_source_file_index>
1697

> <i_lp_mmshare_version>
43012

> <i_f3d_flags>
0

> <s_epik_input>
W0NIM11bQ0gyXU9bQ0hdMVtDSDJdW0NIMl1OKFtDSDJdW0NIMl0xKVtDSDJdW0NASF0oW09IXSlbQ0gyXW4oW2NIXW4yKWMoYzIzKVtjSF1jKFtDSDNdKWMoW2NIXTMpW0NIM10=

> <s_epik_cmdline>
J2VwaWtfcHl0aG9uJywgJy1waCcsICc3LjAnLCAnLXRuJywgJzgnLCAnLW1hJywgJzIwMCcsICctbWV0YWxfYmluZGluZycsICctaW1hZScsICc8aW5maWxlLm1hZT4nLCAnLW9tYWUnLCAnPG91dGZpbGUubWFlPic=

> <r_epik_Ionization_Penalty>
1.9836

> <r_epik_Ionization_Penalty_Charging>
0

> <r_epik_Ionization_Penalty_Neutral>
1.9836

> <r_epik_State_Penalty>
2.07269

> <r_epik_Charging_Adjusted_Penalty>
2.07269

> <i_epik_Tot_Q>
0

> <i_epik_Tot_abs_Q>
0

> <r_epik_Metal_State_Penalty>
2.00215

> <b_epik_Metal_Only>
0

> <s_lp_Force_Field>
OPLS_2005

> <r_lp_Energy>
35.1996

> <b_lp_Chiralities_Consistent>
1

> <s_lp_Variant>
AV-unprocessed.smi:1697-10

> <Gold.Version>
5.8.1

> <Gold.Id.Protein>
6NUR|6NUR_protein|mol2

> <Gold.PLP.Fitness>
46.7688

> <Gold.PLP.PLP>
-35.1326

> <Gold.PLP.part.hbond>
-5.5612

> <Gold.PLP.part.metal>
0.0000

> <Gold.PLP.part.buried>
-0.4669

> <Gold.PLP.part.nonpolar>
-29.0812

> <Gold.PLP.part.repulsive>
0.0000

> <Gold.PLP.ligand.clash>
0.0000

> <Gold.PLP.ligand.torsion>
1.0109

> <Gold.PLP.Chemscore.Hbond>
4.5038

> <Gold.PLP.Chemscore.CHOScore>
0.0000

> <Gold.PLP.Chemscore.Metal>
0.0000

> <Gold.Chemscore.Hbonds>
donor molecule, donor type, donor heavy atom, donor atom, acceptor molecule, acceptor atom, score
      L1  H    10    38       P1  7948  0.04
      P1  H  6931  6943       L1     3  1.00
      P1  H  6934  6947       L1     3  0.87
      P1  H  7997  8008       L1    14  0.71

> <Gold.PLP.Chemscore.Internal.Correction>
0.1467

> <Gold.Rescore>
     Score         DG    S(hbond)    S(metal)    S(lipo)     H(rot)  DE(clash)    DE(int)     intcor
     17.15     -19.40       2.86        0.00      85.29       2.19       1.31       0.95       ----

> <Gold.Chemscore.Fitness>
17.1478

> <Gold.Chemscore.DG>
-19.4039

> <Gold.Chemscore.ZeroCoef>
-5.4800

> <Gold.Chemscore.Hbond>
2.8629

> <Gold.Chemscore.Metal>
0.0000

> <Gold.Chemscore.Lipo>
85.2931

> <Gold.Chemscore.Internal_Hbond>
0.0000

> <Gold.Chemscore.DEClash>
1.3068

> <Gold.Chemscore.DEInternal>
0.9494

> <Gold.Chemscore.Rot>
2.1943

> <Gold.Chemscore.Internal.Correction>
   9.000000E+99

> <Gold.Chemscore.Hbonds>
donor molecule, donor type, donor heavy atom, donor atom, acceptor molecule, acceptor atom, score
      P1  H  6931  6943       L1     3  0.73
      P1  H  6934  6947       L1     3  0.67
      P1  H  7997  8008       L1    14  0.70

> <Gold.Chemscore.Hbond.Weighted>
-9.5620

> <Gold.Chemscore.Metal.Weighted>
-0.0000

> <Gold.Chemscore.Lipo.Weighted>
-9.9793

> <Gold.Chemscore.Internal_Hbond.Weighted>
0.0000

> <Gold.Chemscore.DEClash.Weighted>
1.3068

> <Gold.Chemscore.DEInternal.Weighted>
0.9494

> <Gold.Chemscore.Rot.Weighted>
5.6174

> <Gold.Chemscore.Internal.Correction.Weighted>
   9.000000E+99

> <Gold.Protein.RotatedTorsions>
[ 6907 6896 6895 6894 ] final   24.01 input  -60.11 | X-H torsion
[ 7974 7965 7964 7962 ] final   75.67 input  175.53 | X-H torsion
[ 8008 7997 7996 7995 ] final  -33.08 input   59.86 | X-H torsion
[ 10167 10162 10161 10158 ] final  -40.59 input  -65.29 | X-H torsion
[ 10718 10713 10712 10709 ] final   22.19 input   66.30 | X-H torsion
[ 10763 10752 10751 10750 ] final  -58.37 input  -60.55 | X-H torsion
[ 11005 11000 10999 10996 ] final -119.08 input  -57.11 | X-H torsion

> <Gold.Protein.ActiveResidues>
 VAL166  LYS551  ARG553  GLY616  TRP617  ASP618  TYR619  PRO620  LYS621  CYS622 
 ASP623  PHE694  ASN695  SER759  ASP760  ASP761  ALA762  ILE779  LEU786  VAL792 
 PHE793  MET794  SER795  GLU796  ALA797  LYS798  CYS799  TRP800  GLU811  SER814 

> <Gold.Protein.RotatedAtoms>
  151.9510  135.0169  160.0541 H   0  0  0  0  0  0  0  0  0  0  0  0  # atno 6907 bound_to 6896
  152.1953  133.4797  159.5038 H   0  0  0  0  0  0  0  0  0  0  0  0  # atno 6908 bound_to 6896
  150.6943  134.1577  159.4207 H   0  0  0  0  0  0  0  0  0  0  0  0  # atno 6909 bound_to 6896
  145.7126  139.2620  143.1642 H   0  0  0  0  0  0  0  0  0  0  0  0  # atno 7974 bound_to 7965
  154.4160  140.1720  156.1830 H   0  0  0  0  0  0  0  0  0  0  0  0  # atno 8008 bound_to 7997
  155.9667  140.3389  155.6514 H   0  0  0  0  0  0  0  0  0  0  0  0  # atno 8009 bound_to 7997
  155.6679  140.0708  157.2521 H   0  0  0  0  0  0  0  0  0  0  0  0  # atno 8010 bound_to 7997
  140.7029  143.3144  151.2945 H   0  0  0  0  0  0  0  0  0  0  0  0  # atno 10167 bound_to 10162
  157.1489  130.6665  149.6005 H   0  0  0  0  0  0  0  0  0  0  0  0  # atno 10718 bound_to 10713
  154.2370  135.6350  153.5194 H   0  0  0  0  0  0  0  0  0  0  0  0  # atno 10763 bound_to 10752
  152.9937  135.5533  154.5951 H   0  0  0  0  0  0  0  0  0  0  0  0  # atno 10764 bound_to 10752
  154.5447  135.2897  155.1038 H   0  0  0  0  0  0  0  0  0  0  0  0  # atno 10765 bound_to 10752
  141.0240  134.0081  157.3241 H   0  0  0  0  0  0  0  0  0  0  0  0  # atno 11005 bound_to 11000
  146.0698  140.7881  142.9693 LP  0  0  0  0  0  0  0  0  0  0  0  0  # atno 17320 bound_to 7965
  144.6938  140.3325  143.7213 LP  0  0  0  0  0  0  0  0  0  0  0  0  # atno 17321 bound_to 7965
  139.6578  144.0244  152.2672 LP  0  0  0  0  0  0  0  0  0  0  0  0  # atno 17342 bound_to 10162
  139.9801  144.6434  150.7908 LP  0  0  0  0  0  0  0  0  0  0  0  0  # atno 17343 bound_to 10162
  155.9774  130.4751  150.6592 LP  0  0  0  0  0  0  0  0  0  0  0  0  # atno 17370 bound_to 10713
  157.4239  131.0840  151.1104 LP  0  0  0  0  0  0  0  0  0  0  0  0  # atno 17371 bound_to 10713
  139.9164  135.0197  156.7898 LP  0  0  0  0  0  0  0  0  0  0  0  0  # atno 17394 bound_to 11000
  140.6523  133.9720  155.7761 LP  0  0  0  0  0  0  0  0  0  0  0  0  # atno 17395 bound_to 11000

$$$$
