#       Name:                AV-unprocessed.smi:311
#       Creating user name   scv26
#       Creation time:       Thu Mar 26 22:20:20 2020


#       File generated by GOLD software.
#

@<TRIPOS>MOLECULE
AV-unprocessed.smi:311
    49    51     1
SMALL
NO_CHARGES


@<TRIPOS>ATOM
      1 ****        -3.9591   2.3575  -1.6016 C.3            1 S1                 0.0000
      2 ****        -4.3918   0.9234  -1.7064 C.2            1 S1                 0.0000
      3 ****        -5.6808   0.6277  -1.7106 N.2            1 S1                 0.0000
      4 ****        -5.7538  -0.7649  -1.8129 O.3            1 S1                 0.0000
      5 ****        -4.4906  -1.2584  -1.8682 C.2            1 S1                 0.0000
      6 ****        -4.3565  -2.7395  -1.9753 C.3            1 S1                 0.0000
      7 ****        -3.5780  -0.2410  -1.8106 C.2            1 S1                 0.0000
      8 ****        -2.0714  -0.3210  -1.8465 C.3            1 S1                 0.0000
      9 ****        -1.4696  -0.3954  -0.4377 C.2            1 S1                 0.0000
     10 ****        -2.1747  -0.6037   0.5509 O.2            1 S1                 0.0000
     11 ****        -0.1415  -0.2254  -0.3625 N.am           1 S1                 0.0000
     12 ****         0.6319  -0.2497   0.8744 C.3            1 S1                 0.0000
     13 ****         0.8301  -1.6588   1.4671 C.3            1 S1                 0.0000
     14 ****         2.2680  -1.6698   2.0241 C.3            1 S1                 0.0000
     15 ****         2.7735  -0.2976   1.8273 N.4            1 S1                 1.0000
     16 ****         4.2397  -0.1227   1.7392 C.3            1 S1                 0.0000
     17 ****         4.5654   1.3800   1.6165 C.3            1 S1                 0.0000
     18 ****         3.7930   2.0423   0.4566 C.3            1 S1                 0.0000
     19 ****         2.2836   1.7461   0.5517 C.3            1 S1                 0.0000
     20 ****         2.0655   0.2278   0.6504 C.3            1 S1                 0.0000
     21 ****        -3.1168   2.4619  -0.9176 H              1 S1                 0.0000
     22 ****        -4.7629   2.9960  -1.2330 H              1 S1                 0.0000
     23 ****        -3.6479   2.7414  -2.5731 H              1 S1                 0.0000
     24 ****        -3.3934  -3.0728  -1.5881 H              1 S1                 0.0000
     25 ****        -4.4336  -3.0591  -3.0145 H              1 S1                 0.0000
     26 ****        -5.1383  -3.2429  -1.4065 H              1 S1                 0.0000
     27 ****        -1.7390  -1.1955  -2.4070 H              1 S1                 0.0000
     28 ****        -1.6511   0.5445  -2.3604 H              1 S1                 0.0000
     29 ****         0.3654  -0.0605  -1.2203 H              1 S1                 0.0000
     30 ****         0.1561   0.3910   1.6201 H              1 S1                 0.0000
     31 ****         0.0919  -1.8644   2.2432 H              1 S1                 0.0000
     32 ****         0.7250  -2.4308   0.7032 H              1 S1                 0.0000
     33 ****         2.3042  -1.9467   3.0780 H              1 S1                 0.0000
     34 ****         2.8799  -2.3799   1.4656 H              1 S1                 0.0000
     35 ****         4.7128  -0.5393   2.6291 H              1 S1                 0.0000
     36 ****         4.6290  -0.6701   0.8793 H              1 S1                 0.0000
     37 ****         4.3078   1.8815   2.5504 H              1 S1                 0.0000
     38 ****         5.6381   1.5204   1.4793 H              1 S1                 0.0000
     39 ****         3.9651   3.1191   0.4572 H              1 S1                 0.0000
     40 ****         4.1767   1.6689  -0.4937 H              1 S1                 0.0000
     41 ****         1.8617   2.2450   1.4253 H              1 S1                 0.0000
     42 ****         1.7660   2.1481  -0.3200 H              1 S1                 0.0000
     43 ****         2.4699  -0.2565  -0.2419 H              1 S1                 0.0000
     44 ****         2.4526   0.2421   2.6185 H              1 S1                 0.0000
     45 ****        -6.4463   1.2686  -1.6525 LP             1 S1                 0.0000
     46 ****        -6.2512  -1.0167  -2.6430 LP             1 S1                 0.0000
     47 ****        -6.2272  -1.1376  -1.0147 LP             1 S1                 0.0000
     48 ****        -3.1612  -0.7283   0.4442 LP             1 S1                 0.0000
     49 ****        -1.7606  -0.6481   1.4601 LP             1 S1                 0.0000
@<TRIPOS>BOND
    1    1    2 1     
    2    1   21 1     
    3    1   22 1     
    4    1   23 1     
    5    2    7 1     
    6    2    3 2     
    7    3    4 1     
    8    4    5 1     
    9    5    6 1     
   10    5    7 2     
   11    6   24 1     
   12    6   25 1     
   13    6   26 1     
   14    7    8 1     
   15    8    9 1     
   16    8   27 1     
   17    8   28 1     
   18    9   10 2     
   19    9   11 am    
   20   11   12 1     
   21   11   29 1     
   22   12   20 1     
   23   12   13 1     
   24   12   30 1     
   25   13   14 1     
   26   13   31 1     
   27   13   32 1     
   28   14   15 1     
   29   14   33 1     
   30   14   34 1     
   31   15   20 1     
   32   15   16 1     
   33   15   44 1     
   34   16   17 1     
   35   16   35 1     
   36   16   36 1     
   37   17   18 1     
   38   17   37 1     
   39   17   38 1     
   40   18   19 1     
   41   18   39 1     
   42   18   40 1     
   43   19   20 1     
   44   19   41 1     
   45   19   42 1     
   46   20   43 1     
   47    3   45 1     
   48    4   46 1     
   49    4   47 1     
   50   10   48 1     
   51   10   49 1     
@<TRIPOS>SUBSTRUCTURE
      1 S1             1
@<TRIPOS>SET
LONE_PAIRS      STATIC     ATOMS    <user>   **** ""
5 45 46 47 48 49
DONOR_HYDROGENS      STATIC     ATOMS    <user>   **** ""
2 29 44
ATOM$BLUE        STATIC     ATOMS    COLORGROUP SYSTEM
5 45 46 47 48 49
ATOM$RED        STATIC     ATOMS    COLORGROUP SYSTEM
2 29 44
