AV-unprocessed.smi:3290|AV-procd|sdf|12614|dock1
  -GOLD-   2272018543D 1   1.00000     0.00000
 Structure written by MMmdl.
 43 44  0  0  0  0  0  0  0  0  2 V2000
  151.9401  140.7819  159.5253 C   0  0  0  0  0  0  0  0  0  0  0  0
  151.6010  142.2710  159.3327 C   0  0  1  0  0  0  0  0  0  0  0  0
  152.2791  143.0995  160.4446 C   0  0  0  0  0  0  0  0  0  0  0  0
  151.9427  144.5928  160.3401 C   0  0  0  0  0  0  0  0  0  0  0  0
  152.3204  145.1396  158.9594 C   0  0  0  0  0  0  0  0  0  0  0  0
  151.6394  144.3307  157.8470 C   0  0  0  0  0  0  0  0  0  0  0  0
  151.9766  142.8248  157.9261 C   0  0  2  0  0  0  0  0  0  0  0  0
  151.2830  142.0835  156.7603 C   0  0  0  0  0  0  0  0  0  0  0  0
  149.8113  142.1808  156.8342 N   0  3  0  0  0  0  0  0  0  0  0  0
  149.0969  141.1817  156.0143 C   0  0  0  0  0  0  0  0  0  0  0  0
  149.9615  140.6925  154.8392 C   0  0  2  0  0  0  0  0  0  0  0  0
  149.1743  140.6870  153.6639 O   0  0  0  0  0  0  0  0  0  0  0  0
  150.5527  139.3215  155.1268 C   0  0  0  0  0  0  0  0  0  0  0  0
  149.8455  138.1407  154.8121 C   0  0  0  0  0  0  0  0  0  0  0  0
  150.4420  136.8986  155.1073 C   0  0  0  0  0  0  0  0  0  0  0  0
  151.6589  136.7786  155.6798 N   0  0  0  0  0  0  0  0  0  0  0  0
  152.3298  137.9106  155.9811 C   0  0  0  0  0  0  0  0  0  0  0  0
  151.8234  139.2014  155.7278 C   0  0  0  0  0  0  0  0  0  0  0  0
  152.9901  140.5820  159.3096 H   0  0  0  0  0  0  0  0  0  0  0  0
  151.3319  140.1423  158.8864 H   0  0  0  0  0  0  0  0  0  0  0  0
  151.7492  140.4678  160.5520 H   0  0  0  0  0  0  0  0  0  0  0  0
  150.5223  142.3756  159.4602 H   0  0  0  0  0  0  0  0  0  0  0  0
  151.9719  142.7330  161.4248 H   0  0  0  0  0  0  0  0  0  0  0  0
  153.3610  142.9680  160.3939 H   0  0  0  0  0  0  0  0  0  0  0  0
  150.8770  144.7437  160.5172 H   0  0  0  0  0  0  0  0  0  0  0  0
  152.4682  145.1483  161.1175 H   0  0  0  0  0  0  0  0  0  0  0  0
  152.0358  146.1895  158.8844 H   0  0  0  0  0  0  0  0  0  0  0  0
  153.4031  145.1019  158.8319 H   0  0  0  0  0  0  0  0  0  0  0  0
  150.5590  144.4703  157.9073 H   0  0  0  0  0  0  0  0  0  0  0  0
  151.9469  144.7330  156.8810 H   0  0  0  0  0  0  0  0  0  0  0  0
  153.0564  142.7331  157.7944 H   0  0  0  0  0  0  0  0  0  0  0  0
  151.6391  142.4615  155.8009 H   0  0  0  0  0  0  0  0  0  0  0  0
  151.5354  141.0226  156.7914 H   0  0  0  0  0  0  0  0  0  0  0  0
  149.5286  142.0595  157.7965 H   0  0  0  0  0  0  0  0  0  0  0  0
  148.8323  140.3362  156.6512 H   0  0  0  0  0  0  0  0  0  0  0  0
  148.1628  141.6105  155.6476 H   0  0  0  0  0  0  0  0  0  0  0  0
  150.7808  141.3949  154.6782 H   0  0  0  0  0  0  0  0  0  0  0  0
  149.2645  139.8428  153.2473 H   0  0  0  0  0  0  0  0  0  0  0  0
  148.8673  138.1805  154.3554 H   0  0  0  0  0  0  0  0  0  0  0  0
  149.9272  135.9774  154.8783 H   0  0  0  0  0  0  0  0  0  0  0  0
  153.2996  137.7849  156.4391 H   0  0  0  0  0  0  0  0  0  0  0  0
  152.4023  140.0746  155.9905 H   0  0  0  0  0  0  0  0  0  0  0  0
  149.5347  143.1036  156.5314 H   0  0  0  0  0  0  0  0  0  0  0  0
  1  2  1  0  0  0  0
  1 19  1  0  0  0  0
  1 20  1  0  0  0  0
  1 21  1  0  0  0  0
  2  7  1  0  0  0  0
  2  3  1  0  0  0  0
  2 22  1  0  0  0  0
  3  4  1  0  0  0  0
  3 23  1  0  0  0  0
  3 24  1  0  0  0  0
  4  5  1  0  0  0  0
  4 25  1  0  0  0  0
  4 26  1  0  0  0  0
  5  6  1  0  0  0  0
  5 27  1  0  0  0  0
  5 28  1  0  0  0  0
  6  7  1  0  0  0  0
  6 29  1  0  0  0  0
  6 30  1  0  0  0  0
  7  8  1  0  0  0  0
  7 31  1  0  0  0  0
  8  9  1  0  0  0  0
  8 32  1  0  0  0  0
  8 33  1  0  0  0  0
  9 10  1  0  0  0  0
  9 34  1  0  0  0  0
  9 43  1  0  0  0  0
 10 11  1  0  0  0  0
 10 35  1  0  0  0  0
 10 36  1  0  0  0  0
 11 12  1  0  0  0  0
 11 13  1  0  0  0  0
 11 37  1  0  0  0  0
 12 38  1  0  0  0  0
 13 18  1  0  0  0  0
 13 14  2  0  0  0  0
 14 15  1  0  0  0  0
 14 39  1  0  0  0  0
 15 16  2  0  0  0  0
 15 40  1  0  0  0  0
 16 17  1  0  0  0  0
 17 18  2  0  0  0  0
 17 41  1  0  0  0  0
 18 42  1  0  0  0  0
M  CHG  1   9   1
M  END
> <s_m_source_file>
AV-unprocessed.smi

> <i_m_source_file_index>
3290

> <i_lp_mmshare_version>
43012

> <i_f3d_flags>
0

> <s_epik_input>
W0NIM11bQ0BASF0xW0NIMl1bQ0gyXVtDSDJdW0NIMl1bQ0BIXTFbQ0gyXVtOSF1bQ0gyXVtDQEhdKFtPSF0pYzJbY0hdW2NIXW5bY0hdW2NIXTI=

> <s_epik_cmdline>
J2VwaWtfcHl0aG9uJywgJy1waCcsICc3LjAnLCAnLXRuJywgJzgnLCAnLW1hJywgJzIwMCcsICctbWV0YWxfYmluZGluZycsICctaW1hZScsICc8aW5maWxlLm1hZT4nLCAnLW9tYWUnLCAnPG91dGZpbGUubWFlPic=

> <r_lp_tautomer_probability>
1

> <r_epik_Ionization_Penalty>
0.00420552

> <r_epik_Ionization_Penalty_Charging>
0.00207255

> <r_epik_Ionization_Penalty_Neutral>
0.00213297

> <r_epik_State_Penalty>
-0

> <r_epik_Charging_Adjusted_Penalty>
0.00207255

> <i_epik_Tot_Q>
1

> <i_epik_Tot_abs_Q>
1

> <r_epik_Metal_State_Penalty>
-0

> <b_epik_Metal_Only>
0

> <s_lp_Force_Field>
OPLS_2005

> <r_lp_Energy>
17.7323

> <b_lp_Chiralities_Consistent>
1

> <s_lp_Variant>
AV-unprocessed.smi:3290-4

> <Gold.Version>
5.8.1

> <Gold.Id.Protein>
6NUR|6NUR_protein|mol2

> <Gold.PLP.Fitness>
56.5950

> <Gold.PLP.PLP>
-44.8144

> <Gold.PLP.part.hbond>
-4.6130

> <Gold.PLP.part.metal>
0.0000

> <Gold.PLP.part.buried>
-1.3262

> <Gold.PLP.part.nonpolar>
-38.5115

> <Gold.PLP.part.repulsive>
0.1243

> <Gold.PLP.ligand.clash>
1.2603

> <Gold.PLP.ligand.torsion>
1.6658

> <Gold.PLP.Chemscore.Hbond>
4.6320

> <Gold.PLP.Chemscore.CHOScore>
0.7810

> <Gold.PLP.Chemscore.Metal>
0.0000

> <Gold.Chemscore.Hbonds>
donor molecule, donor type, donor heavy atom, donor atom, acceptor molecule, acceptor atom, score
      L1  H     9    43       P1  8028  2.00
      L1  H    12    38       P1  7957  0.17
      P1  H  8011  8017       L1    12  0.41
      P1  H 10752 10765       L1    16  0.89

> <Gold.PLP.Chemscore.Internal.Correction>
0.1336

> <Gold.Rescore>
     Score         DG    S(hbond)    S(metal)    S(lipo)     H(rot)  DE(clash)    DE(int)     intcor
     21.65     -24.23       2.78        0.00     125.80       2.05       1.35       1.23       ----

> <Gold.Chemscore.Fitness>
21.6494

> <Gold.Chemscore.DG>
-24.2316

> <Gold.Chemscore.ZeroCoef>
-5.4800

> <Gold.Chemscore.Hbond>
2.7785

> <Gold.Chemscore.Metal>
0.0000

> <Gold.Chemscore.Lipo>
125.8040

> <Gold.Chemscore.Internal_Hbond>
0.0000

> <Gold.Chemscore.DEClash>
1.3532

> <Gold.Chemscore.DEInternal>
1.2291

> <Gold.Chemscore.Rot>
2.0498

> <Gold.Chemscore.Internal.Correction>
   9.000000E+99

> <Gold.Chemscore.Hbonds>
donor molecule, donor type, donor heavy atom, donor atom, acceptor molecule, acceptor atom, score
      L1  H     9    43       P1  8028  0.99
      L1  H    12    38       P1  7957  0.19
      P1  H  8011  8017       L1    12  0.26
      P1  H 10752 10765       L1    16  0.41

> <Gold.Chemscore.Hbond.Weighted>
-9.2801

> <Gold.Chemscore.Metal.Weighted>
-0.0000

> <Gold.Chemscore.Lipo.Weighted>
-14.7191

> <Gold.Chemscore.Internal_Hbond.Weighted>
0.0000

> <Gold.Chemscore.DEClash.Weighted>
1.3532

> <Gold.Chemscore.DEInternal.Weighted>
1.2291

> <Gold.Chemscore.Rot.Weighted>
5.2475

> <Gold.Chemscore.Internal.Correction.Weighted>
   9.000000E+99

> <Gold.Protein.RotatedTorsions>
[ 6907 6896 6895 6894 ] final   20.86 input  -60.11 | X-H torsion
[ 7974 7965 7964 7962 ] final  -89.53 input  175.53 | X-H torsion
[ 8008 7997 7996 7995 ] final  154.11 input   59.86 | X-H torsion
[ 10167 10162 10161 10158 ] final -128.79 input  -65.29 | X-H torsion
[ 10718 10713 10712 10709 ] final   86.17 input   66.30 | X-H torsion
[ 10763 10752 10751 10750 ] final  175.26 input  -60.55 | X-H torsion
[ 11005 11000 10999 10996 ] final  -21.61 input  -57.11 | X-H torsion

> <Gold.Protein.ActiveResidues>
 VAL166  LYS551  ARG553  GLY616  TRP617  ASP618  TYR619  PRO620  LYS621  CYS622 
 ASP623  PHE694  ASN695  SER759  ASP760  ASP761  ALA762  ILE779  LEU786  VAL792 
 PHE793  MET794  SER795  GLU796  ALA797  LYS798  CYS799  TRP800  GLU811  SER814 

> <Gold.Protein.RotatedAtoms>
  151.9028  135.0371  160.0507 H   0  0  0  0  0  0  0  0  0  0  0  0  # atno 6907 bound_to 6896
  152.2344  133.5079  159.5242 H   0  0  0  0  0  0  0  0  0  0  0  0  # atno 6908 bound_to 6896
  150.7035  134.1090  159.4036 H   0  0  0  0  0  0  0  0  0  0  0  0  # atno 6909 bound_to 6896
  145.4385  140.9558  143.2088 H   0  0  0  0  0  0  0  0  0  0  0  0  # atno 7974 bound_to 7965
  156.2548  140.1975  156.6594 H   0  0  0  0  0  0  0  0  0  0  0  0  # atno 8008 bound_to 7997
  154.6476  140.0576  156.9943 H   0  0  0  0  0  0  0  0  0  0  0  0  # atno 8009 bound_to 7997
  155.1468  140.3247  155.4442 H   0  0  0  0  0  0  0  0  0  0  0  0  # atno 8010 bound_to 7997
  139.9465  143.6103  152.2488 H   0  0  0  0  0  0  0  0  0  0  0  0  # atno 10167 bound_to 10162
  157.6925  131.0204  150.2932 H   0  0  0  0  0  0  0  0  0  0  0  0  # atno 10718 bound_to 10713
  154.4652  135.2769  155.1683 H   0  0  0  0  0  0  0  0  0  0  0  0  # atno 10763 bound_to 10752
  154.3455  135.6161  153.5620 H   0  0  0  0  0  0  0  0  0  0  0  0  # atno 10764 bound_to 10752
  152.9858  135.5798  154.5022 H   0  0  0  0  0  0  0  0  0  0  0  0  # atno 10765 bound_to 10752
  140.8578  133.7810  156.0039 H   0  0  0  0  0  0  0  0  0  0  0  0  # atno 11005 bound_to 11000
  144.8136  139.5916  143.7018 LP  0  0  0  0  0  0  0  0  0  0  0  0  # atno 17320 bound_to 7965
  146.2569  139.6322  142.9389 LP  0  0  0  0  0  0  0  0  0  0  0  0  # atno 17321 bound_to 7965
  139.6662  144.7662  151.1869 LP  0  0  0  0  0  0  0  0  0  0  0  0  # atno 17342 bound_to 10162
  140.7595  143.5934  150.8773 LP  0  0  0  0  0  0  0  0  0  0  0  0  # atno 17343 bound_to 10162
  156.3460  130.3823  149.7369 LP  0  0  0  0  0  0  0  0  0  0  0  0  # atno 17370 bound_to 10713
  156.4862  130.8064  151.3076 LP  0  0  0  0  0  0  0  0  0  0  0  0  # atno 17371 bound_to 10713
  140.8718  134.2718  157.5187 LP  0  0  0  0  0  0  0  0  0  0  0  0  # atno 17394 bound_to 11000
  139.8706  134.9571  156.4257 LP  0  0  0  0  0  0  0  0  0  0  0  0  # atno 17395 bound_to 11000

$$$$
