AV-unprocessed.smi:1884|AV-procd|sdf|7648|dock8
  -GOLD-   22720 9373D 1   1.00000     0.00000
 Structure written by MMmdl.
 41 43  0  0  0  0  0  0  0  0  2 V2000
  150.1729  141.1759  155.9328 C   0  0  0  0  0  0  0  0  0  0  0  0
  150.7432  142.0334  157.0122 C   0  0  0  0  0  0  0  0  0  0  0  0
  150.6571  143.3912  157.0880 N   0  3  0  0  0  0  0  0  0  0  0  0
  151.3084  143.8421  158.2370 C   0  0  0  0  0  0  0  0  0  0  0  0
  151.4847  145.1283  158.7381 C   0  0  0  0  0  0  0  0  0  0  0  0
  152.2010  145.2437  159.9474 C   0  0  0  0  0  0  0  0  0  0  0  0
  152.7096  144.1081  160.6105 C   0  0  0  0  0  0  0  0  0  0  0  0
  152.5255  142.8091  160.0925 C   0  0  0  0  0  0  0  0  0  0  0  0
  151.8173  142.7032  158.8952 C   0  0  0  0  0  0  0  0  0  0  0  0
  151.4454  141.6105  158.1017 N   0  0  0  0  0  0  0  0  0  0  0  0
  151.8293  140.2477  158.5033 C   0  0  0  0  0  0  0  0  0  0  0  0
  153.3347  139.9718  158.3186 C   0  0  2  0  0  0  0  0  0  0  0  0
  153.5380  138.6209  157.9567 O   0  0  0  0  0  0  0  0  0  0  0  0
  154.1460  140.2636  159.5891 C   0  0  0  0  0  0  0  0  0  0  0  0
  153.9257  139.2167  160.5253 O   0  0  0  0  0  0  0  0  0  0  0  0
  154.6967  139.1892  161.6673 C   0  0  0  0  0  0  0  0  0  0  0  0
  154.5887  138.0453  162.4846 C   0  0  0  0  0  0  0  0  0  0  0  0
  155.3397  137.9315  163.6706 C   0  0  0  0  0  0  0  0  0  0  0  0
  156.2128  138.9685  164.0540 C   0  0  0  0  0  0  0  0  0  0  0  0
  156.9906  138.8542  165.2763 C   0  0  0  0  0  0  0  0  0  0  0  0
  157.6096  138.7634  166.2496 N   0  0  0  0  0  0  0  0  0  0  0  0
  156.3290  140.1169  163.2466 C   0  0  0  0  0  0  0  0  0  0  0  0
  155.5771  140.2288  162.0607 C   0  0  0  0  0  0  0  0  0  0  0  0
  149.6402  141.7838  155.2009 H   0  0  0  0  0  0  0  0  0  0  0  0
  149.4761  140.4520  156.3549 H   0  0  0  0  0  0  0  0  0  0  0  0
  150.9696  140.6359  155.4210 H   0  0  0  0  0  0  0  0  0  0  0  0
  151.0946  145.9996  158.2325 H   0  0  0  0  0  0  0  0  0  0  0  0
  152.3625  146.2225  160.3758 H   0  0  0  0  0  0  0  0  0  0  0  0
  153.2516  144.2355  161.5365 H   0  0  0  0  0  0  0  0  0  0  0  0
  152.9157  141.9470  160.6128 H   0  0  0  0  0  0  0  0  0  0  0  0
  151.5560  140.1351  159.5530 H   0  0  0  0  0  0  0  0  0  0  0  0
  151.2236  139.5243  157.9572 H   0  0  0  0  0  0  0  0  0  0  0  0
  153.7223  140.5869  157.5057 H   0  0  0  0  0  0  0  0  0  0  0  0
  152.9174  138.0887  158.4303 H   0  0  0  0  0  0  0  0  0  0  0  0
  155.2067  140.3505  159.3464 H   0  0  0  0  0  0  0  0  0  0  0  0
  153.8182  141.2104  160.0226 H   0  0  0  0  0  0  0  0  0  0  0  0
  153.9225  137.2445  162.1988 H   0  0  0  0  0  0  0  0  0  0  0  0
  155.2408  137.0451  164.2808 H   0  0  0  0  0  0  0  0  0  0  0  0
  156.9950  140.9189  163.5311 H   0  0  0  0  0  0  0  0  0  0  0  0
  155.6941  141.1246  161.4701 H   0  0  0  0  0  0  0  0  0  0  0  0
  150.1863  143.9660  156.4009 H   0  0  0  0  0  0  0  0  0  0  0  0
  1  2  1  0  0  0  0
  1 24  1  0  0  0  0
  1 25  1  0  0  0  0
  1 26  1  0  0  0  0
  2 10  1  0  0  0  0
  2  3  2  0  0  0  0
  3  4  1  0  0  0  0
  3 41  1  0  0  0  0
  4  9  2  0  0  0  0
  4  5  1  0  0  0  0
  5  6  2  0  0  0  0
  5 27  1  0  0  0  0
  6  7  1  0  0  0  0
  6 28  1  0  0  0  0
  7  8  2  0  0  0  0
  7 29  1  0  0  0  0
  8  9  1  0  0  0  0
  8 30  1  0  0  0  0
  9 10  1  0  0  0  0
 10 11  1  0  0  0  0
 11 12  1  0  0  0  0
 11 31  1  0  0  0  0
 11 32  1  0  0  0  0
 12 13  1  0  0  0  0
 12 14  1  0  0  0  0
 12 33  1  0  0  0  0
 13 34  1  0  0  0  0
 14 15  1  0  0  0  0
 14 35  1  0  0  0  0
 14 36  1  0  0  0  0
 15 16  1  0  0  0  0
 16 23  1  0  0  0  0
 16 17  2  0  0  0  0
 17 18  1  0  0  0  0
 17 37  1  0  0  0  0
 18 19  2  0  0  0  0
 18 38  1  0  0  0  0
 19 20  1  0  0  0  0
 19 22  1  0  0  0  0
 20 21  3  0  0  0  0
 22 23  2  0  0  0  0
 22 39  1  0  0  0  0
 23 40  1  0  0  0  0
M  CHG  1   3   1
M  END
> <s_m_source_file>
AV-unprocessed.smi

> <i_m_source_file_index>
1884

> <i_lp_mmshare_version>
43012

> <i_f3d_flags>
0

> <s_epik_input>
W2NIXTFbY0hdW2NIXVtjSF1jKGMxMiluKGMobjIpW0NIM10pW0NIMl1bQ0BIXShbT0hdKVtDSDJdT2MzW2NIXVtjSF1jKEMjTilbY0hdW2NIXTM=

> <s_epik_cmdline>
J2VwaWtfcHl0aG9uJywgJy1waCcsICc3LjAnLCAnLXRuJywgJzgnLCAnLW1hJywgJzIwMCcsICctbWV0YWxfYmluZGluZycsICctaW1hZScsICc8aW5maWxlLm1hZT4nLCAnLW9tYWUnLCAnPG91dGZpbGUubWFlPic=

> <r_epik_Ionization_Penalty>
1.04791

> <r_epik_Ionization_Penalty_Charging>
1.04791

> <r_epik_Ionization_Penalty_Neutral>
2.3993e-06

> <r_epik_State_Penalty>
1.10051

> <r_epik_Charging_Adjusted_Penalty>
2.14841

> <i_epik_Tot_Q>
1

> <i_epik_Tot_abs_Q>
1

> <r_epik_Metal_State_Penalty>
5.09283

> <b_epik_Metal_Only>
0

> <s_lp_Force_Field>
OPLS_2005

> <r_lp_Energy>
18.2912

> <b_lp_Chiralities_Consistent>
1

> <s_lp_Variant>
AV-unprocessed.smi:1884-3

> <Gold.Version>
5.8.1

> <Gold.Id.Protein>
6NUR|6NUR_protein|mol2

> <Gold.PLP.Fitness>
52.8867

> <Gold.PLP.PLP>
-48.3409

> <Gold.PLP.part.hbond>
-3.0000

> <Gold.PLP.part.metal>
0.0000

> <Gold.PLP.part.buried>
-4.3151

> <Gold.PLP.part.nonpolar>
-40.9239

> <Gold.PLP.part.repulsive>
0.0814

> <Gold.PLP.ligand.clash>
0.0000

> <Gold.PLP.ligand.torsion>
0.7595

> <Gold.PLP.Chemscore.Hbond>
2.0000

> <Gold.PLP.Chemscore.CHOScore>
0.0000

> <Gold.PLP.Chemscore.Metal>
0.0000

> <Gold.Chemscore.Hbonds>
donor molecule, donor type, donor heavy atom, donor atom, acceptor molecule, acceptor atom, score
      L1  H     3    41       P1  8028  2.00

> <Gold.PLP.Chemscore.Internal.Correction>
0.0648

> <Gold.Rescore>
     Score         DG    S(hbond)    S(metal)    S(lipo)     H(rot)  DE(clash)    DE(int)     intcor
     15.79     -17.69       0.97        0.00     128.89       2.39       1.19       0.71       ----

> <Gold.Chemscore.Fitness>
15.7890

> <Gold.Chemscore.DG>
-17.6889

> <Gold.Chemscore.ZeroCoef>
-5.4800

> <Gold.Chemscore.Hbond>
0.9734

> <Gold.Chemscore.Metal>
0.0000

> <Gold.Chemscore.Lipo>
128.8944

> <Gold.Chemscore.Internal_Hbond>
0.0000

> <Gold.Chemscore.DEClash>
1.1933

> <Gold.Chemscore.DEInternal>
0.7066

> <Gold.Chemscore.Rot>
2.3917

> <Gold.Chemscore.Internal.Correction>
   9.000000E+99

> <Gold.Chemscore.Hbonds>
donor molecule, donor type, donor heavy atom, donor atom, acceptor molecule, acceptor atom, score
      L1  H     3    41       P1  8028  0.99

> <Gold.Chemscore.Hbond.Weighted>
-3.2511

> <Gold.Chemscore.Metal.Weighted>
-0.0000

> <Gold.Chemscore.Lipo.Weighted>
-15.0806

> <Gold.Chemscore.Internal_Hbond.Weighted>
0.0000

> <Gold.Chemscore.DEClash.Weighted>
1.1933

> <Gold.Chemscore.DEInternal.Weighted>
0.7066

> <Gold.Chemscore.Rot.Weighted>
6.1229

> <Gold.Chemscore.Internal.Correction.Weighted>
   9.000000E+99

> <Gold.Protein.RotatedTorsions>
[ 6907 6896 6895 6894 ] final   38.70 input  -60.11 | X-H torsion
[ 7974 7965 7964 7962 ] final -107.58 input  175.53 | X-H torsion
[ 8008 7997 7996 7995 ] final  120.79 input   59.86 | X-H torsion
[ 10167 10162 10161 10158 ] final -176.53 input  -65.29 | X-H torsion
[ 10718 10713 10712 10709 ] final -137.26 input   66.30 | X-H torsion
[ 10763 10752 10751 10750 ] final  -21.16 input  -60.55 | X-H torsion
[ 11005 11000 10999 10996 ] final -150.37 input  -57.11 | X-H torsion

> <Gold.Protein.ActiveResidues>
 VAL166  LYS551  ARG553  GLY616  TRP617  ASP618  TYR619  PRO620  LYS621  CYS622 
 ASP623  PHE694  ASN695  SER759  ASP760  ASP761  ALA762  ILE779  LEU786  VAL792 
 PHE793  MET794  SER795  GLU796  ALA797  LYS798  CYS799  TRP800  GLU811  SER814 

> <Gold.Protein.RotatedAtoms>
  152.1598  134.8921  160.0542 H   0  0  0  0  0  0  0  0  0  0  0  0  # atno 6907 bound_to 6896
  151.9921  133.3790  159.4156 H   0  0  0  0  0  0  0  0  0  0  0  0  # atno 6908 bound_to 6896
  150.6886  134.3848  159.5094 H   0  0  0  0  0  0  0  0  0  0  0  0  # atno 6909 bound_to 6896
  145.2036  140.9067  143.3355 H   0  0  0  0  0  0  0  0  0  0  0  0  # atno 7974 bound_to 7965
  156.2658  140.2823  156.1205 H   0  0  0  0  0  0  0  0  0  0  0  0  # atno 8008 bound_to 7997
  155.1160  140.0391  157.2754 H   0  0  0  0  0  0  0  0  0  0  0  0  # atno 8009 bound_to 7997
  154.6706  140.2587  155.7017 H   0  0  0  0  0  0  0  0  0  0  0  0  # atno 8010 bound_to 7997
  139.5525  144.2072  152.1102 H   0  0  0  0  0  0  0  0  0  0  0  0  # atno 10167 bound_to 10162
  156.2861  130.7348  151.1360 H   0  0  0  0  0  0  0  0  0  0  0  0  # atno 10718 bound_to 10713
  153.6318  135.6988  153.5273 H   0  0  0  0  0  0  0  0  0  0  0  0  # atno 10763 bound_to 10752
  153.2853  135.4173  155.1116 H   0  0  0  0  0  0  0  0  0  0  0  0  # atno 10764 bound_to 10752
  154.8520  135.3612  154.5861 H   0  0  0  0  0  0  0  0  0  0  0  0  # atno 10765 bound_to 10752
  140.7409  134.3515  157.5147 H   0  0  0  0  0  0  0  0  0  0  0  0  # atno 11005 bound_to 11000
  144.9924  139.3677  143.6208 LP  0  0  0  0  0  0  0  0  0  0  0  0  # atno 17320 bound_to 7965
  146.3412  139.9112  142.8780 LP  0  0  0  0  0  0  0  0  0  0  0  0  # atno 17321 bound_to 7965
  140.1570  144.5061  150.6654 LP  0  0  0  0  0  0  0  0  0  0  0  0  # atno 17342 bound_to 10162
  140.6791  143.2318  151.5430 LP  0  0  0  0  0  0  0  0  0  0  0  0  # atno 17343 bound_to 10162
  157.7329  131.0596  150.5605 LP  0  0  0  0  0  0  0  0  0  0  0  0  # atno 17370 bound_to 10713
  156.5716  130.4281  149.6017 LP  0  0  0  0  0  0  0  0  0  0  0  0  # atno 17371 bound_to 10713
  139.8806  134.9080  156.2958 LP  0  0  0  0  0  0  0  0  0  0  0  0  # atno 17394 bound_to 11000
  140.9837  133.7251  156.0710 LP  0  0  0  0  0  0  0  0  0  0  0  0  # atno 17395 bound_to 11000

$$$$
