AV-unprocessed.smi:2101|AV-procd|sdf|8580|dock4
  -GOLD-   2272011313D 1   1.00000     0.00000
 Structure written by MMmdl.
 42 43  0  0  0  0  0  0  0  0  2 V2000
  149.8030  132.9388  154.7932 C   0  0  0  0  0  0  0  0  0  0  0  0
  149.6456  133.7216  156.4503 S   0  0  0  0  0  0  0  0  0  0  0  0
  148.2282  134.0446  156.6746 O   0  0  0  0  0  0  0  0  0  0  0  0
  150.3671  132.8887  157.4249 O   0  0  0  0  0  0  0  0  0  0  0  0
  150.5134  135.2192  156.2821 N   0  0  0  0  0  0  0  0  0  0  0  0
  150.6460  135.8332  154.9407 C   0  0  0  0  0  0  0  0  0  0  0  0
  149.7166  137.0520  154.7789 C   0  0  0  0  0  0  0  0  0  0  0  0
  149.9748  137.9920  155.8775 N   0  0  0  0  0  0  0  0  0  0  0  0
  150.6863  139.1438  155.8035 C   0  0  0  0  0  0  0  0  0  0  0  0
  150.9738  139.6922  154.7384 O   0  0  0  0  0  0  0  0  0  0  0  0
  151.0983  139.6279  156.9881 N   0  0  0  0  0  0  0  0  0  0  0  0
  151.8873  140.8414  157.1663 C   0  0  0  0  0  0  0  0  0  0  0  0
  151.0294  142.1038  156.9775 C   0  0  0  0  0  0  0  0  0  0  0  0
  151.3373  143.1660  158.0143 C   0  0  0  0  0  0  0  0  0  0  0  0
  152.3376  142.9943  158.9959 C   0  0  0  0  0  0  0  0  0  0  0  0
  152.5749  144.0288  159.9255 C   0  0  0  0  0  0  0  0  0  0  0  0
  151.8079  145.2104  159.8543 C   0  0  0  0  0  0  0  0  0  0  0  0
  150.8227  145.3288  158.8528 C   0  0  0  0  0  0  0  0  0  0  0  0
  150.6263  144.3164  157.9796 N   0  3  0  0  0  0  0  0  0  0  0  0
  149.6088  137.3787  157.1555 C   0  0  0  0  0  0  0  0  0  0  0  0
  150.5337  136.1736  157.4145 C   0  0  0  0  0  0  0  0  0  0  0  0
  149.2844  131.9804  154.8006 H   0  0  0  0  0  0  0  0  0  0  0  0
  150.8537  132.7731  154.5607 H   0  0  0  0  0  0  0  0  0  0  0  0
  149.3520  133.5803  154.0375 H   0  0  0  0  0  0  0  0  0  0  0  0
  151.6828  136.1442  154.8071 H   0  0  0  0  0  0  0  0  0  0  0  0
  150.4433  135.0981  154.1626 H   0  0  0  0  0  0  0  0  0  0  0  0
  149.8534  137.4863  153.7887 H   0  0  0  0  0  0  0  0  0  0  0  0
  148.6722  136.7413  154.8109 H   0  0  0  0  0  0  0  0  0  0  0  0
  150.8450  139.1188  157.8225 H   0  0  0  0  0  0  0  0  0  0  0  0
  152.3137  140.8277  158.1699 H   0  0  0  0  0  0  0  0  0  0  0  0
  152.7296  140.8401  156.4722 H   0  0  0  0  0  0  0  0  0  0  0  0
  151.1921  142.5297  155.9863 H   0  0  0  0  0  0  0  0  0  0  0  0
  149.9707  141.8465  157.0301 H   0  0  0  0  0  0  0  0  0  0  0  0
  152.9182  142.0840  159.0364 H   0  0  0  0  0  0  0  0  0  0  0  0
  153.3364  143.9178  160.6837 H   0  0  0  0  0  0  0  0  0  0  0  0
  151.9734  146.0140  160.5572 H   0  0  0  0  0  0  0  0  0  0  0  0
  150.1907  146.1956  158.7240 H   0  0  0  0  0  0  0  0  0  0  0  0
  149.6713  138.0813  157.9876 H   0  0  0  0  0  0  0  0  0  0  0  0
  148.5661  137.0625  157.1213 H   0  0  0  0  0  0  0  0  0  0  0  0
  150.2518  135.6731  158.3403 H   0  0  0  0  0  0  0  0  0  0  0  0
  151.5581  136.5215  157.5528 H   0  0  0  0  0  0  0  0  0  0  0  0
  149.9085  144.4237  157.2621 H   0  0  0  0  0  0  0  0  0  0  0  0
  1  2  1  0  0  0  0
  1 22  1  0  0  0  0
  1 23  1  0  0  0  0
  1 24  1  0  0  0  0
  2  3  2  0  0  0  0
  2  4  2  0  0  0  0
  2  5  1  0  0  0  0
  5 21  1  0  0  0  0
  5  6  1  0  0  0  0
  6  7  1  0  0  0  0
  6 25  1  0  0  0  0
  6 26  1  0  0  0  0
  7  8  1  0  0  0  0
  7 27  1  0  0  0  0
  7 28  1  0  0  0  0
  8  9  1  0  0  0  0
  8 20  1  0  0  0  0
  9 10  2  0  0  0  0
  9 11  1  0  0  0  0
 11 12  1  0  0  0  0
 11 29  1  0  0  0  0
 12 13  1  0  0  0  0
 12 30  1  0  0  0  0
 12 31  1  0  0  0  0
 13 14  1  0  0  0  0
 13 32  1  0  0  0  0
 13 33  1  0  0  0  0
 14 19  1  0  0  0  0
 14 15  2  0  0  0  0
 15 16  1  0  0  0  0
 15 34  1  0  0  0  0
 16 17  2  0  0  0  0
 16 35  1  0  0  0  0
 17 18  1  0  0  0  0
 17 36  1  0  0  0  0
 18 19  2  0  0  0  0
 18 37  1  0  0  0  0
 19 42  1  0  0  0  0
 20 21  1  0  0  0  0
 20 38  1  0  0  0  0
 20 39  1  0  0  0  0
 21 40  1  0  0  0  0
 21 41  1  0  0  0  0
M  CHG  1  19   1
M  END
> <s_m_source_file>
AV-unprocessed.smi

> <i_m_source_file_index>
2101

> <i_lp_mmshare_version>
43012

> <i_f3d_flags>
0

> <s_epik_input>
W0NIM11TKD1PKSg9TylOMVtDSDJdW0NIMl1OKFtDSDJdW0NIMl0xKUMoPU8pW05IXVtDSDJdW0NIMl1jMltjSF1bY0hdW2NIXVtjSF1uMg==

> <s_epik_cmdline>
J2VwaWtfcHl0aG9uJywgJy1waCcsICc3LjAnLCAnLXRuJywgJzgnLCAnLW1hJywgJzIwMCcsICctbWV0YWxfYmluZGluZycsICctaW1hZScsICc8aW5maWxlLm1hZT4nLCAnLW9tYWUnLCAnPG91dGZpbGUubWFlPic=

> <r_epik_Ionization_Penalty>
1.56137

> <r_epik_Ionization_Penalty_Charging>
1.56133

> <r_epik_Ionization_Penalty_Neutral>
3.86464e-05

> <r_epik_State_Penalty>
1.65637

> <r_epik_Charging_Adjusted_Penalty>
3.2177

> <i_epik_Tot_Q>
1

> <i_epik_Tot_abs_Q>
1

> <r_epik_Metal_State_Penalty>
1.69784

> <b_epik_Metal_Only>
0

> <s_lp_Force_Field>
OPLS_2005

> <r_lp_Energy>
29.4976

> <b_lp_Chiralities_Consistent>
1

> <s_lp_Variant>
AV-unprocessed.smi:2101-2

> <Gold.Version>
5.8.1

> <Gold.Id.Protein>
6NUR|6NUR_protein|mol2

> <Gold.PLP.Fitness>
43.2928

> <Gold.PLP.PLP>
-34.2187

> <Gold.PLP.part.hbond>
-3.3044

> <Gold.PLP.part.metal>
0.0000

> <Gold.PLP.part.buried>
-4.4152

> <Gold.PLP.part.nonpolar>
-27.1646

> <Gold.PLP.part.repulsive>
0.1862

> <Gold.PLP.ligand.clash>
1.6974

> <Gold.PLP.ligand.torsion>
1.6825

> <Gold.PLP.Chemscore.Hbond>
4.0000

> <Gold.PLP.Chemscore.CHOScore>
0.0000

> <Gold.PLP.Chemscore.Metal>
0.0000

> <Gold.Chemscore.Hbonds>
donor molecule, donor type, donor heavy atom, donor atom, acceptor molecule, acceptor atom, score
      L1  H    19    42       P1  8028  2.00
      P1  H  6896  6909       L1     4  1.00
      P1  H  7989  7998       L1    10  1.00

> <Gold.PLP.Chemscore.Internal.Correction>
2.1364

> <Gold.Rescore>
     Score         DG    S(hbond)    S(metal)    S(lipo)     H(rot)  DE(clash)    DE(int)     intcor
     20.21     -22.16       2.78        0.00      95.43       1.47       0.32       1.63       ----

> <Gold.Chemscore.Fitness>
20.2127

> <Gold.Chemscore.DG>
-22.1623

> <Gold.Chemscore.ZeroCoef>
-5.4800

> <Gold.Chemscore.Hbond>
2.7797

> <Gold.Chemscore.Metal>
0.0000

> <Gold.Chemscore.Lipo>
95.4266

> <Gold.Chemscore.Internal_Hbond>
0.0000

> <Gold.Chemscore.DEClash>
0.3168

> <Gold.Chemscore.DEInternal>
1.6328

> <Gold.Chemscore.Rot>
1.4714

> <Gold.Chemscore.Internal.Correction>
   9.000000E+99

> <Gold.Chemscore.Hbonds>
donor molecule, donor type, donor heavy atom, donor atom, acceptor molecule, acceptor atom, score
      L1  H    19    42       P1  8028  0.35
      P1  H  6896  6909       L1     4  0.95
      P1  H  7989  7998       L1    10  1.00

> <Gold.Chemscore.Hbond.Weighted>
-9.2841

> <Gold.Chemscore.Metal.Weighted>
-0.0000

> <Gold.Chemscore.Lipo.Weighted>
-11.1649

> <Gold.Chemscore.Internal_Hbond.Weighted>
0.0000

> <Gold.Chemscore.DEClash.Weighted>
0.3168

> <Gold.Chemscore.DEInternal.Weighted>
1.6328

> <Gold.Chemscore.Rot.Weighted>
3.7667

> <Gold.Chemscore.Internal.Correction.Weighted>
   9.000000E+99

> <Gold.Protein.RotatedTorsions>
[ 6907 6896 6895 6894 ] final  -21.31 input  -60.11 | X-H torsion
[ 7974 7965 7964 7962 ] final  122.89 input  175.53 | X-H torsion
[ 8008 7997 7996 7995 ] final   84.98 input   59.86 | X-H torsion
[ 10167 10162 10161 10158 ] final  -81.56 input  -65.29 | X-H torsion
[ 10718 10713 10712 10709 ] final  -55.65 input   66.30 | X-H torsion
[ 10763 10752 10751 10750 ] final   38.35 input  -60.55 | X-H torsion
[ 11005 11000 10999 10996 ] final   -8.27 input  -57.11 | X-H torsion

> <Gold.Protein.ActiveResidues>
 VAL166  LYS551  ARG553  GLY616  TRP617  ASP618  TYR619  PRO620  LYS621  CYS622 
 ASP623  PHE694  ASN695  SER759  ASP760  ASP761  ALA762  ILE779  LEU786  VAL792 
 PHE793  MET794  SER795  GLU796  ALA797  LYS798  CYS799  TRP800  GLU811  SER814 

> <Gold.Protein.RotatedAtoms>
  151.2352  135.0569  159.9002 H   0  0  0  0  0  0  0  0  0  0  0  0  # atno 6907 bound_to 6896
  152.5400  134.0494  159.8113 H   0  0  0  0  0  0  0  0  0  0  0  0  # atno 6908 bound_to 6896
  151.0679  133.5441  159.2661 H   0  0  0  0  0  0  0  0  0  0  0  0  # atno 6909 bound_to 6896
  145.1023  139.3510  143.4805 H   0  0  0  0  0  0  0  0  0  0  0  0  # atno 7974 bound_to 7965
  155.9441  140.3406  155.6352 H   0  0  0  0  0  0  0  0  0  0  0  0  # atno 8008 bound_to 7997
  155.7002  140.0759  157.2431 H   0  0  0  0  0  0  0  0  0  0  0  0  # atno 8009 bound_to 7997
  154.4108  140.1641  156.2170 H   0  0  0  0  0  0  0  0  0  0  0  0  # atno 8010 bound_to 7997
  140.4401  143.2518  151.8638 H   0  0  0  0  0  0  0  0  0  0  0  0  # atno 10167 bound_to 10162
  156.1352  130.4157  150.0199 H   0  0  0  0  0  0  0  0  0  0  0  0  # atno 10718 bound_to 10713
  153.0004  135.6252  154.2291 H   0  0  0  0  0  0  0  0  0  0  0  0  # atno 10763 bound_to 10752
  154.2034  135.2803  155.2985 H   0  0  0  0  0  0  0  0  0  0  0  0  # atno 10764 bound_to 10752
  154.5665  135.5689  153.7114 H   0  0  0  0  0  0  0  0  0  0  0  0  # atno 10765 bound_to 10752
  140.7217  133.8823  155.8826 H   0  0  0  0  0  0  0  0  0  0  0  0  # atno 11005 bound_to 11000
  146.3529  140.0906  142.8613 LP  0  0  0  0  0  0  0  0  0  0  0  0  # atno 17320 bound_to 7965
  145.0941  140.9304  143.4751 LP  0  0  0  0  0  0  0  0  0  0  0  0  # atno 17321 bound_to 7965
  139.4789  144.5239  151.8763 LP  0  0  0  0  0  0  0  0  0  0  0  0  # atno 17342 bound_to 10162
  140.4329  144.2092  150.5888 LP  0  0  0  0  0  0  0  0  0  0  0  0  # atno 17343 bound_to 10162
  156.8100  130.9321  151.3644 LP  0  0  0  0  0  0  0  0  0  0  0  0  # atno 17370 bound_to 10713
  157.6525  130.8896  149.9662 LP  0  0  0  0  0  0  0  0  0  0  0  0  # atno 17371 bound_to 10713
  140.9998  134.1166  157.4328 LP  0  0  0  0  0  0  0  0  0  0  0  0  # atno 17394 bound_to 11000
  139.8846  135.0065  156.6383 LP  0  0  0  0  0  0  0  0  0  0  0  0  # atno 17395 bound_to 11000

$$$$
