#       Name:                AV-unprocessed.smi:47
#       Creating user name   scv26
#       Creation time:       Thu Mar 26 16:30:59 2020


#       File generated by GOLD software.
#

@<TRIPOS>MOLECULE
AV-unprocessed.smi:47
    36    38     1
SMALL
NO_CHARGES


@<TRIPOS>ATOM
      1 ****        -4.8848  -0.1537  -2.1432 O.3            1 S1                 0.0000
      2 ****        -3.6523   0.5362  -2.1372 C.3            1 S1                 0.0000
      3 ****        -3.7045   1.7509  -1.1994 C.3            1 S1                 0.0000
      4 ****        -2.3803   1.8100  -0.5639 N.4            1 S1                 1.0000
      5 ****        -1.9388   0.4144  -0.4053 C.3            1 S1                 0.0000
      6 ****        -0.4417   0.4705  -0.3393 C.2            1 S1                 0.0000
      7 ****         0.3484   1.1991  -1.1319 N.2            1 S1                 0.0000
      8 ****         1.6369   0.9243  -0.7143 N.2            1 S1                 0.0000
      9 ****         1.5321   0.0483   0.2956 C.2            1 S1                 0.0000
     10 ****         2.6749  -0.5080   1.0235 C.ar           1 S1                 0.0000
     11 ****         2.4729  -1.3068   2.1732 C.ar           1 S1                 0.0000
     12 ****         3.5718  -1.8454   2.8706 C.ar           1 S1                 0.0000
     13 ****         4.8827  -1.5937   2.4249 C.ar           1 S1                 0.0000
     14 ****         5.0943  -0.8017   1.2811 C.ar           1 S1                 0.0000
     15 ****         3.9964  -0.2612   0.5838 C.ar           1 S1                 0.0000
     16 ****         0.2470  -0.2541   0.5527 N.pl3          1 S1                 0.0000
     17 ****        -2.5107  -0.3480  -1.6079 C.3            1 S1                 0.0000
     18 ****        -3.4223   0.8614  -3.1528 H              1 S1                 0.0000
     19 ****        -2.3494   0.0218   0.5263 H              1 S1                 0.0000
     20 ****        -0.1113  -0.8873   1.2531 H              1 S1                 0.0000
     21 ****        -4.8253  -0.8761  -2.7505 H              1 S1                 0.0000
     22 ****        -3.9473   2.6780  -1.7195 H              1 S1                 0.0000
     23 ****        -4.4460   1.6019  -0.4127 H              1 S1                 0.0000
     24 ****        -1.7410   2.2703  -1.1965 H              1 S1                 0.0000
     25 ****         1.4762  -1.5129   2.5342 H              1 S1                 0.0000
     26 ****         3.4090  -2.4532   3.7484 H              1 S1                 0.0000
     27 ****         5.7249  -2.0081   2.9592 H              1 S1                 0.0000
     28 ****         6.0998  -0.6088   0.9368 H              1 S1                 0.0000
     29 ****         4.1819   0.3420  -0.2928 H              1 S1                 0.0000
     30 ****        -2.8305  -1.3521  -1.3260 H              1 S1                 0.0000
     31 ****        -1.7583  -0.4590  -2.3903 H              1 S1                 0.0000
     32 ****        -2.4033   2.3001   0.3190 H              1 S1                 0.0000
     33 ****        -5.6160   0.4662  -2.4283 LP             1 S1                 0.0000
     34 ****        -5.0807  -0.5005  -1.2259 LP             1 S1                 0.0000
     35 ****         0.0676   1.8126  -1.8700 LP             1 S1                 0.0000
     36 ****         2.4816   1.3042  -1.0913 LP             1 S1                 0.0000
@<TRIPOS>BOND
    1    1    2 1     
    2    1   21 1     
    3    2   18 1     
    4    2   17 1     
    5    2    3 1     
    6    3    4 1     
    7    3   22 1     
    8    3   23 1     
    9    4    5 1     
   10    4   24 1     
   11    4   32 1     
   12    5   19 1     
   13    5   17 1     
   14    5    6 1     
   15    6    7 2     
   16    6   16 1     
   17    7    8 1     
   18    8    9 2     
   19    9   16 1     
   20    9   10 1     
   21   10   15 ar    
   22   10   11 ar    
   23   11   12 ar    
   24   11   25 1     
   25   12   13 ar    
   26   12   26 1     
   27   13   14 ar    
   28   13   27 1     
   29   14   15 ar    
   30   14   28 1     
   31   15   29 1     
   32   16   20 1     
   33   17   30 1     
   34   17   31 1     
   35    1   33 1     
   36    1   34 1     
   37    7   35 1     
   38    8   36 1     
@<TRIPOS>SUBSTRUCTURE
      1 S1             1
@<TRIPOS>SET
LONE_PAIRS      STATIC     ATOMS    <user>   **** ""
4 33 34 35 36
DONOR_HYDROGENS      STATIC     ATOMS    <user>   **** ""
4 21 24 32 20
ATOM$BLUE        STATIC     ATOMS    COLORGROUP SYSTEM
4 33 34 35 36
ATOM$RED        STATIC     ATOMS    COLORGROUP SYSTEM
4 21 24 32 20
