AV-unprocessed.smi:2195|AV-procd|sdf|8906|dock4
  -GOLD-   2272012123D 1   1.00000     0.00000
 Structure written by MMmdl.
 40 42  0  0  0  0  0  0  0  0  2 V2000
  154.0101  143.0190  162.8825 C   0  0  0  0  0  0  0  0  0  0  0  0
  153.7791  142.1537  161.6607 C   0  0  0  0  0  0  0  0  0  0  0  0
  154.1809  140.8032  161.6546 C   0  0  0  0  0  0  0  0  0  0  0  0
  153.9615  140.0065  160.5145 C   0  0  0  0  0  0  0  0  0  0  0  0
  153.3404  140.5417  159.3671 C   0  0  0  0  0  0  0  0  0  0  0  0
  153.1645  139.6904  158.2976 O   0  0  0  0  0  0  0  0  0  0  0  0
  153.1002  138.2924  158.5509 C   0  0  0  0  0  0  0  0  0  0  0  0
  152.6902  137.5451  157.2709 C   0  0  2  0  0  0  0  0  0  0  0  0
  153.4433  136.3532  157.1645 O   0  0  0  0  0  0  0  0  0  0  0  0
  152.7952  138.4061  155.9954 C   0  0  0  0  0  0  0  0  0  0  0  0
  151.5586  138.4049  155.2014 N   0  0  0  0  0  0  0  0  0  0  0  0
  150.9980  137.4051  154.4683 C   0  0  0  0  0  0  0  0  0  0  0  0
  149.8483  137.8894  153.9220 N   0  3  0  0  0  0  0  0  0  0  0  0
  149.6718  139.2192  154.3102 C   0  0  0  0  0  0  0  0  0  0  0  0
  148.6617  140.1287  154.0121 C   0  0  0  0  0  0  0  0  0  0  0  0
  148.7848  141.4175  154.5716 C   0  0  0  0  0  0  0  0  0  0  0  0
  149.8805  141.7613  155.3899 C   0  0  0  0  0  0  0  0  0  0  0  0
  150.8984  140.8311  155.6862 C   0  0  0  0  0  0  0  0  0  0  0  0
  150.7684  139.5583  155.1313 C   0  0  0  0  0  0  0  0  0  0  0  0
  152.9408  141.9019  159.3790 C   0  0  0  0  0  0  0  0  0  0  0  0
  153.1605  142.6997  160.5190 C   0  0  0  0  0  0  0  0  0  0  0  0
  154.3810  142.4303  163.7220 H   0  0  0  0  0  0  0  0  0  0  0  0
  153.0801  143.4980  163.1898 H   0  0  0  0  0  0  0  0  0  0  0  0
  154.7411  143.7970  162.6614 H   0  0  0  0  0  0  0  0  0  0  0  0
  154.6583  140.3723  162.5224 H   0  0  0  0  0  0  0  0  0  0  0  0
  154.2724  138.9720  160.5206 H   0  0  0  0  0  0  0  0  0  0  0  0
  154.0550  137.9159  158.9220 H   0  0  0  0  0  0  0  0  0  0  0  0
  152.3487  138.1046  159.3195 H   0  0  0  0  0  0  0  0  0  0  0  0
  151.6518  137.2339  157.3907 H   0  0  0  0  0  0  0  0  0  0  0  0
  154.1084  136.3568  157.8360 H   0  0  0  0  0  0  0  0  0  0  0  0
  152.9993  139.4424  156.2674 H   0  0  0  0  0  0  0  0  0  0  0  0
  153.6244  138.0889  155.3624 H   0  0  0  0  0  0  0  0  0  0  0  0
  151.3925  136.4068  154.3443 H   0  0  0  0  0  0  0  0  0  0  0  0
  147.8223  139.8687  153.3839 H   0  0  0  0  0  0  0  0  0  0  0  0
  148.0248  142.1576  154.3680 H   0  0  0  0  0  0  0  0  0  0  0  0
  149.9429  142.7597  155.7980 H   0  0  0  0  0  0  0  0  0  0  0  0
  151.7367  141.1069  156.3088 H   0  0  0  0  0  0  0  0  0  0  0  0
  152.4631  142.3590  158.5258 H   0  0  0  0  0  0  0  0  0  0  0  0
  152.8521  143.7349  160.5139 H   0  0  0  0  0  0  0  0  0  0  0  0
  149.2314  137.3496  153.3285 H   0  0  0  0  0  0  0  0  0  0  0  0
  1  2  1  0  0  0  0
  1 22  1  0  0  0  0
  1 23  1  0  0  0  0
  1 24  1  0  0  0  0
  2 21  1  0  0  0  0
  2  3  2  0  0  0  0
  3  4  1  0  0  0  0
  3 25  1  0  0  0  0
  4  5  2  0  0  0  0
  4 26  1  0  0  0  0
  5  6  1  0  0  0  0
  5 20  1  0  0  0  0
  6  7  1  0  0  0  0
  7  8  1  0  0  0  0
  7 27  1  0  0  0  0
  7 28  1  0  0  0  0
  8  9  1  0  0  0  0
  8 10  1  0  0  0  0
  8 29  1  0  0  0  0
  9 30  1  0  0  0  0
 10 11  1  0  0  0  0
 10 31  1  0  0  0  0
 10 32  1  0  0  0  0
 11 19  1  0  0  0  0
 11 12  1  0  0  0  0
 12 13  2  0  0  0  0
 12 33  1  0  0  0  0
 13 14  1  0  0  0  0
 13 40  1  0  0  0  0
 14 19  2  0  0  0  0
 14 15  1  0  0  0  0
 15 16  2  0  0  0  0
 15 34  1  0  0  0  0
 16 17  1  0  0  0  0
 16 35  1  0  0  0  0
 17 18  2  0  0  0  0
 17 36  1  0  0  0  0
 18 19  1  0  0  0  0
 18 37  1  0  0  0  0
 20 21  2  0  0  0  0
 20 38  1  0  0  0  0
 21 39  1  0  0  0  0
M  CHG  1  13   1
M  END
> <s_m_source_file>
AV-unprocessed.smi

> <i_m_source_file_index>
2195

> <i_lp_mmshare_version>
43012

> <i_f3d_flags>
0

> <s_epik_input>
W0NIM11jMVtjSF1bY0hdYyhbY0hdW2NIXTEpT1tDSDJdW0NASF0oW09IXSlbQ0gyXW4oW2NIXW4yKWMoYzIzKVtjSF1bY0hdW2NIXVtjSF0z

> <s_epik_cmdline>
J2VwaWtfcHl0aG9uJywgJy1waCcsICc3LjAnLCAnLXRuJywgJzgnLCAnLW1hJywgJzIwMCcsICctbWV0YWxfYmluZGluZycsICctaW1hZScsICc8aW5maWxlLm1hZT4nLCAnLW9tYWUnLCAnPG91dGZpbGUubWFlPic=

> <r_lp_tautomer_probability>
1

> <r_epik_Ionization_Penalty>
1.3774

> <r_epik_Ionization_Penalty_Charging>
1.37739

> <r_epik_Ionization_Penalty_Neutral>
2.3993e-06

> <r_epik_State_Penalty>
1.45762

> <r_epik_Charging_Adjusted_Penalty>
2.83501

> <i_epik_Tot_Q>
1

> <i_epik_Tot_abs_Q>
1

> <r_epik_Metal_State_Penalty>
5.49752

> <b_epik_Metal_Only>
0

> <s_lp_Force_Field>
OPLS_2005

> <r_lp_Energy>
21.3932

> <b_lp_Chiralities_Consistent>
1

> <s_lp_Variant>
AV-unprocessed.smi:2195-3

> <Gold.Version>
5.8.1

> <Gold.Id.Protein>
6NUR|6NUR_protein|mol2

> <Gold.PLP.Fitness>
57.5125

> <Gold.PLP.PLP>
-47.4980

> <Gold.PLP.part.hbond>
-3.9565

> <Gold.PLP.part.metal>
0.0000

> <Gold.PLP.part.buried>
3.0820

> <Gold.PLP.part.nonpolar>
-46.0189

> <Gold.PLP.part.repulsive>
0.0629

> <Gold.PLP.ligand.clash>
0.1763

> <Gold.PLP.ligand.torsion>
1.7673

> <Gold.PLP.Chemscore.Hbond>
3.8960

> <Gold.PLP.Chemscore.CHOScore>
0.6614

> <Gold.PLP.Chemscore.Metal>
0.0000

> <Gold.Chemscore.Hbonds>
donor molecule, donor type, donor heavy atom, donor atom, acceptor molecule, acceptor atom, score
      L1  H    13    40       P1  7948  1.95
      P1  H  7997  8009       L1     6  1.00
      P1  H 10752 10764       L1     9  0.93
      L1  C    12    33       P1  7949  0.05

> <Gold.PLP.Chemscore.Internal.Correction>
0.0533

> <Gold.Rescore>
     Score         DG    S(hbond)    S(metal)    S(lipo)     H(rot)  DE(clash)    DE(int)     intcor
     18.17     -19.93       1.61        0.00     127.10       2.27       0.17       1.59       ----

> <Gold.Chemscore.Fitness>
18.1678

> <Gold.Chemscore.DG>
-19.9254

> <Gold.Chemscore.ZeroCoef>
-5.4800

> <Gold.Chemscore.Hbond>
1.6142

> <Gold.Chemscore.Metal>
0.0000

> <Gold.Chemscore.Lipo>
127.1036

> <Gold.Chemscore.Internal_Hbond>
0.0000

> <Gold.Chemscore.DEClash>
0.1684

> <Gold.Chemscore.DEInternal>
1.5893

> <Gold.Chemscore.Rot>
2.2723

> <Gold.Chemscore.Internal.Correction>
   9.000000E+99

> <Gold.Chemscore.Hbonds>
donor molecule, donor type, donor heavy atom, donor atom, acceptor molecule, acceptor atom, score
      L1  H    13    40       P1  7948  0.92
      P1  H  7997  8009       L1     6  0.54
      P1  H 10752 10764       L1     9  0.86

> <Gold.Chemscore.Hbond.Weighted>
-5.3913

> <Gold.Chemscore.Metal.Weighted>
-0.0000

> <Gold.Chemscore.Lipo.Weighted>
-14.8711

> <Gold.Chemscore.Internal_Hbond.Weighted>
0.0000

> <Gold.Chemscore.DEClash.Weighted>
0.1684

> <Gold.Chemscore.DEInternal.Weighted>
1.5893

> <Gold.Chemscore.Rot.Weighted>
5.8170

> <Gold.Chemscore.Internal.Correction.Weighted>
   9.000000E+99

> <Gold.Protein.RotatedTorsions>
[ 6907 6896 6895 6894 ] final -103.25 input  -60.11 | X-H torsion
[ 7974 7965 7964 7962 ] final -102.97 input  175.53 | X-H torsion
[ 8008 7997 7996 7995 ] final  164.99 input   59.86 | X-H torsion
[ 10167 10162 10161 10158 ] final -131.45 input  -65.29 | X-H torsion
[ 10718 10713 10712 10709 ] final  141.57 input   66.30 | X-H torsion
[ 10763 10752 10751 10750 ] final   12.43 input  -60.55 | X-H torsion
[ 11005 11000 10999 10996 ] final -125.84 input  -57.11 | X-H torsion

> <Gold.Protein.ActiveResidues>
 VAL166  LYS551  ARG553  GLY616  TRP617  ASP618  TYR619  PRO620  LYS621  CYS622 
 ASP623  PHE694  ASN695  SER759  ASP760  ASP761  ALA762  ILE779  LEU786  VAL792 
 PHE793  MET794  SER795  GLU796  ALA797  LYS798  CYS799  TRP800  GLU811  SER814 

> <Gold.Protein.RotatedAtoms>
  150.7232  134.0458  159.3781 H   0  0  0  0  0  0  0  0  0  0  0  0  # atno 6907 bound_to 6896
  151.8433  135.0580  160.0460 H   0  0  0  0  0  0  0  0  0  0  0  0  # atno 6908 bound_to 6896
  152.2846  133.5466  159.5555 H   0  0  0  0  0  0  0  0  0  0  0  0  # atno 6909 bound_to 6896
  145.2618  140.9271  143.3036 H   0  0  0  0  0  0  0  0  0  0  0  0  # atno 7974 bound_to 7965
  156.1837  140.1682  156.8227 H   0  0  0  0  0  0  0  0  0  0  0  0  # atno 8008 bound_to 7997
  154.5389  140.0741  156.8508 H   0  0  0  0  0  0  0  0  0  0  0  0  # atno 8009 bound_to 7997
  155.3255  140.3376  155.4242 H   0  0  0  0  0  0  0  0  0  0  0  0  # atno 8010 bound_to 7997
  139.9188  143.6406  152.2558 H   0  0  0  0  0  0  0  0  0  0  0  0  # atno 10167 bound_to 10162
  157.3904  131.1004  151.0652 H   0  0  0  0  0  0  0  0  0  0  0  0  # atno 10718 bound_to 10713
  153.1824  135.6830  153.8461 H   0  0  0  0  0  0  0  0  0  0  0  0  # atno 10763 bound_to 10752
  153.7788  135.3185  155.3364 H   0  0  0  0  0  0  0  0  0  0  0  0  # atno 10764 bound_to 10752
  154.8067  135.4743  154.0507 H   0  0  0  0  0  0  0  0  0  0  0  0  # atno 10765 bound_to 10752
  140.9730  134.0779  157.3849 H   0  0  0  0  0  0  0  0  0  0  0  0  # atno 11005 bound_to 11000
  144.9411  139.4188  143.6448 LP  0  0  0  0  0  0  0  0  0  0  0  0  # atno 17320 bound_to 7965
  146.3273  139.8372  142.8897 LP  0  0  0  0  0  0  0  0  0  0  0  0  # atno 17321 bound_to 7965
  139.6879  144.7650  151.1491 LP  0  0  0  0  0  0  0  0  0  0  0  0  # atno 17342 bound_to 10162
  140.7667  143.5631  150.9077 LP  0  0  0  0  0  0  0  0  0  0  0  0  # atno 17343 bound_to 10162
  157.1687  130.6258  149.5634 LP  0  0  0  0  0  0  0  0  0  0  0  0  # atno 17370 bound_to 10713
  155.9797  130.4792  150.6730 LP  0  0  0  0  0  0  0  0  0  0  0  0  # atno 17371 bound_to 10713
  139.8919  135.0121  156.6819 LP  0  0  0  0  0  0  0  0  0  0  0  0  # atno 17394 bound_to 11000
  140.7301  133.9066  155.8205 LP  0  0  0  0  0  0  0  0  0  0  0  0  # atno 17395 bound_to 11000

$$$$
