AV-unprocessed.smi:1007|AV-procd|sdf|4398|dock6
  -GOLD-   22720 2333D 1   1.00000     0.00000
 Structure written by MMmdl.
 56 58  0  0  0  0  0  0  0  0  2 V2000
  143.0748  137.2205  153.7291 C   0  0  0  0  0  0  0  0  0  0  0  0
  143.5066  137.4699  155.0579 O   0  0  0  0  0  0  0  0  0  0  0  0
  143.8767  138.8190  155.3040 C   0  0  0  0  0  0  0  0  0  0  0  0
  145.3586  139.0676  154.9656 C   0  0  0  0  0  0  0  0  0  0  0  0
  145.8535  138.3362  153.7952 N   0  0  0  0  0  0  0  0  0  0  0  0
  147.0171  138.9740  153.1799 C   0  0  0  0  0  0  0  0  0  0  0  0
  148.3026  138.8438  154.0230 C   0  0  0  0  0  0  0  0  0  0  0  0
  148.6030  137.4121  154.2944 N   0  3  0  0  0  0  0  0  0  0  0  0
  149.8540  137.2039  155.0665 C   0  0  0  0  0  0  0  0  0  0  0  0
  151.0068  138.1161  154.5910 C   0  0  2  0  0  0  0  0  0  0  0  0
  151.9424  137.3344  153.8760 O   0  0  0  0  0  0  0  0  0  0  0  0
  151.7581  138.8118  155.7428 C   0  0  0  0  0  0  0  0  0  0  0  0
  151.2317  140.1335  156.0302 N   0  0  0  0  0  0  0  0  0  0  0  0
  150.3292  140.8201  155.3032 C   0  0  0  0  0  0  0  0  0  0  0  0
  149.9708  142.0188  155.7531 N   0  0  0  0  0  0  0  0  0  0  0  0
  150.7350  142.1265  156.9022 C   0  0  0  0  0  0  0  0  0  0  0  0
  150.8205  143.1674  157.8523 C   0  0  0  0  0  0  0  0  0  0  0  0
  151.6775  143.0591  158.9706 C   0  0  0  0  0  0  0  0  0  0  0  0
  151.7366  144.2027  159.9682 C   0  0  0  0  0  0  0  0  0  0  0  0
  152.4660  141.8944  159.1517 C   0  0  0  0  0  0  0  0  0  0  0  0
  153.3937  141.7559  160.3459 C   0  0  0  0  0  0  0  0  0  0  0  0
  152.3938  140.8457  158.2113 C   0  0  0  0  0  0  0  0  0  0  0  0
  151.5368  140.9650  157.1029 C   0  0  0  0  0  0  0  0  0  0  0  0
  147.4346  136.7413  154.9206 C   0  0  0  0  0  0  0  0  0  0  0  0
  146.1760  136.9303  154.0500 C   0  0  0  0  0  0  0  0  0  0  0  0
  142.7562  136.1818  153.6416 H   0  0  0  0  0  0  0  0  0  0  0  0
  143.8733  137.3819  153.0051 H   0  0  0  0  0  0  0  0  0  0  0  0
  142.2268  137.8524  153.4629 H   0  0  0  0  0  0  0  0  0  0  0  0
  143.2145  139.4944  154.7613 H   0  0  0  0  0  0  0  0  0  0  0  0
  143.7166  139.0109  156.3656 H   0  0  0  0  0  0  0  0  0  0  0  0
  145.4732  140.1361  154.7786 H   0  0  0  0  0  0  0  0  0  0  0  0
  145.9763  138.8523  155.8357 H   0  0  0  0  0  0  0  0  0  0  0  0
  147.1911  138.5252  152.2009 H   0  0  0  0  0  0  0  0  0  0  0  0
  146.8044  140.0266  152.9890 H   0  0  0  0  0  0  0  0  0  0  0  0
  149.1254  139.3053  153.4790 H   0  0  0  0  0  0  0  0  0  0  0  0
  148.2066  139.3903  154.9622 H   0  0  0  0  0  0  0  0  0  0  0  0
  149.6354  137.3615  156.1233 H   0  0  0  0  0  0  0  0  0  0  0  0
  150.1756  136.1651  154.9765 H   0  0  0  0  0  0  0  0  0  0  0  0
  150.6300  138.8851  153.9175 H   0  0  0  0  0  0  0  0  0  0  0  0
  151.5067  136.9399  153.1354 H   0  0  0  0  0  0  0  0  0  0  0  0
  151.7080  138.2111  156.6521 H   0  0  0  0  0  0  0  0  0  0  0  0
  152.8161  138.9144  155.4970 H   0  0  0  0  0  0  0  0  0  0  0  0
  149.9071  140.4139  154.3954 H   0  0  0  0  0  0  0  0  0  0  0  0
  150.2195  144.0544  157.7148 H   0  0  0  0  0  0  0  0  0  0  0  0
  152.7615  144.5524  160.0922 H   0  0  0  0  0  0  0  0  0  0  0  0
  151.3604  143.8802  160.9393 H   0  0  0  0  0  0  0  0  0  0  0  0
  151.1340  145.0498  159.6394 H   0  0  0  0  0  0  0  0  0  0  0  0
  153.8714  140.7760  160.3674 H   0  0  0  0  0  0  0  0  0  0  0  0
  152.8414  141.8780  161.2775 H   0  0  0  0  0  0  0  0  0  0  0  0
  154.1792  142.5108  160.3072 H   0  0  0  0  0  0  0  0  0  0  0  0
  152.9901  139.9543  158.3381 H   0  0  0  0  0  0  0  0  0  0  0  0
  147.6402  135.6753  155.0232 H   0  0  0  0  0  0  0  0  0  0  0  0
  147.2762  137.1281  155.9280 H   0  0  0  0  0  0  0  0  0  0  0  0
  145.3278  136.4194  154.5040 H   0  0  0  0  0  0  0  0  0  0  0  0
  146.3356  136.4285  153.0945 H   0  0  0  0  0  0  0  0  0  0  0  0
  148.7391  136.9638  153.3995 H   0  0  0  0  0  0  0  0  0  0  0  0
  1  2  1  0  0  0  0
  1 26  1  0  0  0  0
  1 27  1  0  0  0  0
  1 28  1  0  0  0  0
  2  3  1  0  0  0  0
  3  4  1  0  0  0  0
  3 29  1  0  0  0  0
  3 30  1  0  0  0  0
  4  5  1  0  0  0  0
  4 31  1  0  0  0  0
  4 32  1  0  0  0  0
  5 25  1  0  0  0  0
  5  6  1  0  0  0  0
  6  7  1  0  0  0  0
  6 33  1  0  0  0  0
  6 34  1  0  0  0  0
  7  8  1  0  0  0  0
  7 35  1  0  0  0  0
  7 36  1  0  0  0  0
  8  9  1  0  0  0  0
  8 24  1  0  0  0  0
  8 56  1  0  0  0  0
  9 10  1  0  0  0  0
  9 37  1  0  0  0  0
  9 38  1  0  0  0  0
 10 11  1  0  0  0  0
 10 12  1  0  0  0  0
 10 39  1  0  0  0  0
 11 40  1  0  0  0  0
 12 13  1  0  0  0  0
 12 41  1  0  0  0  0
 12 42  1  0  0  0  0
 13 23  1  0  0  0  0
 13 14  1  0  0  0  0
 14 15  2  0  0  0  0
 14 43  1  0  0  0  0
 15 16  1  0  0  0  0
 16 23  2  0  0  0  0
 16 17  1  0  0  0  0
 17 18  2  0  0  0  0
 17 44  1  0  0  0  0
 18 19  1  0  0  0  0
 18 20  1  0  0  0  0
 19 45  1  0  0  0  0
 19 46  1  0  0  0  0
 19 47  1  0  0  0  0
 20 21  1  0  0  0  0
 20 22  2  0  0  0  0
 21 48  1  0  0  0  0
 21 49  1  0  0  0  0
 21 50  1  0  0  0  0
 22 23  1  0  0  0  0
 22 51  1  0  0  0  0
 24 25  1  0  0  0  0
 24 52  1  0  0  0  0
 24 53  1  0  0  0  0
 25 54  1  0  0  0  0
 25 55  1  0  0  0  0
M  CHG  1   8   1
M  END
> <s_m_source_file>
AV-unprocessed.smi

> <i_m_source_file_index>
1007

> <i_lp_mmshare_version>
43012

> <i_f3d_flags>
0

> <s_epik_input>
W0NIM11PW0NIMl1bQ0gyXU4xW0NIMl1bQ0gyXU4oW0NIMl1bQ0gyXTEpW0NIMl1bQ0BIXShbT0hdKVtDSDJdbihbY0hdbjIpYyhjMjMpW2NIXWMoW0NIM10pYyhbY0hdMylbQ0gzXQ==

> <s_epik_cmdline>
J2VwaWtfcHl0aG9uJywgJy1waCcsICc3LjAnLCAnLXRuJywgJzgnLCAnLW1hJywgJzIwMCcsICctbWV0YWxfYmluZGluZycsICctaW1hZScsICc8aW5maWxlLm1hZT4nLCAnLW9tYWUnLCAnPG91dGZpbGUubWFlPic=

> <r_epik_Ionization_Penalty>
0.102698

> <r_epik_Ionization_Penalty_Charging>
0.00226046

> <r_epik_Ionization_Penalty_Neutral>
0.100438

> <r_epik_State_Penalty>
0.191223

> <r_epik_Charging_Adjusted_Penalty>
0.193484

> <i_epik_Tot_Q>
1

> <i_epik_Tot_abs_Q>
1

> <r_epik_Metal_State_Penalty>
0.102154

> <b_epik_Metal_Only>
0

> <s_lp_Force_Field>
OPLS_2005

> <r_lp_Energy>
34.1063

> <b_lp_Chiralities_Consistent>
1

> <s_lp_Variant>
AV-unprocessed.smi:1007-1

> <Gold.Version>
5.8.1

> <Gold.Id.Protein>
6NUR|6NUR_protein|mol2

> <Gold.PLP.Fitness>
49.4680

> <Gold.PLP.PLP>
-41.4427

> <Gold.PLP.part.hbond>
-3.0000

> <Gold.PLP.part.metal>
0.0000

> <Gold.PLP.part.buried>
-4.0277

> <Gold.PLP.part.nonpolar>
-35.3366

> <Gold.PLP.part.repulsive>
0.5693

> <Gold.PLP.ligand.clash>
0.0000

> <Gold.PLP.ligand.torsion>
1.8077

> <Gold.PLP.Chemscore.Hbond>
3.8480

> <Gold.PLP.Chemscore.CHOScore>
0.0000

> <Gold.PLP.Chemscore.Metal>
0.0000

> <Gold.Chemscore.Hbonds>
donor molecule, donor type, donor heavy atom, donor atom, acceptor molecule, acceptor atom, score
      L1  H     8    56       P1  7948  2.00
      L1  H    11    40       P1  7949  1.00
      P1  H 10752 10764       L1    11  0.60

> <Gold.PLP.Chemscore.Internal.Correction>
0.0967

> <Gold.Rescore>
     Score         DG    S(hbond)    S(metal)    S(lipo)     H(rot)  DE(clash)    DE(int)     intcor
     17.08     -19.19       2.44        0.00     103.56       2.56       0.05       2.05       ----

> <Gold.Chemscore.Fitness>
17.0805

> <Gold.Chemscore.DG>
-19.1888

> <Gold.Chemscore.ZeroCoef>
-5.4800

> <Gold.Chemscore.Hbond>
2.4384

> <Gold.Chemscore.Metal>
0.0000

> <Gold.Chemscore.Lipo>
103.5627

> <Gold.Chemscore.Internal_Hbond>
0.0000

> <Gold.Chemscore.DEClash>
0.0536

> <Gold.Chemscore.DEInternal>
2.0547

> <Gold.Chemscore.Rot>
2.5594

> <Gold.Chemscore.Internal.Correction>
   9.000000E+99

> <Gold.Chemscore.Hbonds>
donor molecule, donor type, donor heavy atom, donor atom, acceptor molecule, acceptor atom, score
      L1  H     8    56       P1  7948  1.00
      L1  H    11    40       P1  7949  0.90
      P1  H 10752 10764       L1    11  0.06

> <Gold.Chemscore.Hbond.Weighted>
-8.1441

> <Gold.Chemscore.Metal.Weighted>
-0.0000

> <Gold.Chemscore.Lipo.Weighted>
-12.1168

> <Gold.Chemscore.Internal_Hbond.Weighted>
0.0000

> <Gold.Chemscore.DEClash.Weighted>
0.0536

> <Gold.Chemscore.DEInternal.Weighted>
2.0547

> <Gold.Chemscore.Rot.Weighted>
6.5522

> <Gold.Chemscore.Internal.Correction.Weighted>
   9.000000E+99

> <Gold.Protein.RotatedTorsions>
[ 6907 6896 6895 6894 ] final  -16.33 input  -60.11 | X-H torsion
[ 7974 7965 7964 7962 ] final -103.61 input  175.53 | X-H torsion
[ 8008 7997 7996 7995 ] final  143.08 input   59.86 | X-H torsion
[ 10167 10162 10161 10158 ] final   76.36 input  -65.29 | X-H torsion
[ 10718 10713 10712 10709 ] final  177.71 input   66.30 | X-H torsion
[ 10763 10752 10751 10750 ] final  -72.07 input  -60.55 | X-H torsion
[ 11005 11000 10999 10996 ] final -172.10 input  -57.11 | X-H torsion

> <Gold.Protein.ActiveResidues>
 VAL166  LYS551  ARG553  GLY616  TRP617  ASP618  TYR619  PRO620  LYS621  CYS622 
 ASP623  PHE694  ASN695  SER759  ASP760  ASP761  ALA762  ILE779  LEU786  VAL792 
 PHE793  MET794  SER795  GLU796  ALA797  LYS798  CYS799  TRP800  GLU811  SER814 

> <Gold.Protein.RotatedAtoms>
  151.3102  135.0792  159.9269 H   0  0  0  0  0  0  0  0  0  0  0  0  # atno 6907 bound_to 6896
  152.5279  133.9743  159.7787 H   0  0  0  0  0  0  0  0  0  0  0  0  # atno 6908 bound_to 6896
  151.0045  133.5972  159.2721 H   0  0  0  0  0  0  0  0  0  0  0  0  # atno 6909 bound_to 6896
  145.2537  140.9246  143.3081 H   0  0  0  0  0  0  0  0  0  0  0  0  # atno 7974 bound_to 7965
  156.2937  140.2272  156.4832 H   0  0  0  0  0  0  0  0  0  0  0  0  # atno 8008 bound_to 7997
  154.7834  140.0459  157.1166 H   0  0  0  0  0  0  0  0  0  0  0  0  # atno 8009 bound_to 7997
  154.9731  140.3069  155.4982 H   0  0  0  0  0  0  0  0  0  0  0  0  # atno 8010 bound_to 7997
  139.9931  144.5742  150.7801 H   0  0  0  0  0  0  0  0  0  0  0  0  # atno 10167 bound_to 10162
  156.9013  130.9879  151.3035 H   0  0  0  0  0  0  0  0  0  0  0  0  # atno 10718 bound_to 10713
  154.4405  135.5942  153.6126 H   0  0  0  0  0  0  0  0  0  0  0  0  # atno 10763 bound_to 10752
  152.9805  135.5997  154.3728 H   0  0  0  0  0  0  0  0  0  0  0  0  # atno 10764 bound_to 10752
  154.3577  135.2841  155.2316 H   0  0  0  0  0  0  0  0  0  0  0  0  # atno 10765 bound_to 10752
  140.5007  134.5896  157.4987 H   0  0  0  0  0  0  0  0  0  0  0  0  # atno 11005 bound_to 11000
  144.9480  139.4114  143.6416 LP  0  0  0  0  0  0  0  0  0  0  0  0  # atno 17320 bound_to 7965
  146.3295  139.8474  142.8879 LP  0  0  0  0  0  0  0  0  0  0  0  0  # atno 17321 bound_to 7965
  140.7447  143.2865  151.3450 LP  0  0  0  0  0  0  0  0  0  0  0  0  # atno 17342 bound_to 10162
  139.6325  144.0693  152.2488 LP  0  0  0  0  0  0  0  0  0  0  0  0  # atno 17343 bound_to 10162
  157.6025  130.8523  149.8823 LP  0  0  0  0  0  0  0  0  0  0  0  0  # atno 17370 bound_to 10713
  156.0581  130.3705  150.1045 LP  0  0  0  0  0  0  0  0  0  0  0  0  # atno 17371 bound_to 10713
  139.9715  134.7285  156.0033 LP  0  0  0  0  0  0  0  0  0  0  0  0  # atno 17394 bound_to 11000
  141.1437  133.6560  156.3804 LP  0  0  0  0  0  0  0  0  0  0  0  0  # atno 17395 bound_to 11000

$$$$
