AV-unprocessed.smi:1796|AV-procd|sdf|7254|dock6
  -GOLD-   22720 8503D 1   1.00000     0.00000
 Structure written by MMmdl.
 42 43  0  0  0  0  0  0  0  0  1 V2000
  151.8626  145.0471  160.4084 C   0  0  0  0  0  0  0  0  0  0  0  0
  151.5515  144.5205  159.0054 C   0  0  0  0  0  0  0  0  0  0  0  0
  150.7169  145.1260  158.3327 O   0  0  0  0  0  0  0  0  0  0  0  0
  152.1941  143.4161  158.5548 N   0  0  0  0  0  0  0  0  0  0  0  0
  153.1388  142.6052  159.3343 C   0  0  0  0  0  0  0  0  0  0  0  0
  152.4739  141.2579  159.6674 C   0  0  0  0  0  0  0  0  0  0  0  0
  152.0156  140.5388  158.3843 C   0  0  0  0  0  0  0  0  0  0  0  0
  151.1661  141.4646  157.4811 C   0  0  2  0  0  0  0  0  0  0  0  0
  150.8406  140.8004  156.1378 C   0  0  0  0  0  0  0  0  0  0  0  0
  151.7481  140.4694  155.3736 O   0  0  0  0  0  0  0  0  0  0  0  0
  149.5385  140.6408  155.8508 N   0  0  0  0  0  0  0  0  0  0  0  0
  149.0001  140.1439  154.5852 C   0  0  1  0  0  0  0  0  0  0  0  0
  149.7448  138.8610  154.1921 C   0  0  0  0  0  0  0  0  0  0  0  0
  147.4792  139.9006  154.6959 C   0  0  0  0  0  0  0  0  0  0  0  0
  146.9496  139.1417  153.5756 N   0  0  0  0  0  0  0  0  0  0  0  0
  147.1029  139.3862  152.2271 C   0  0  0  0  0  0  0  0  0  0  0  0
  146.4068  138.4212  151.5575 C   0  0  0  0  0  0  0  0  0  0  0  0
  145.8568  137.6189  152.5959 C   0  0  0  0  0  0  0  0  0  0  0  0
  146.1878  138.0490  153.8025 N   0  0  0  0  0  0  0  0  0  0  0  0
  151.9009  142.8050  157.2525 C   0  0  0  0  0  0  0  0  0  0  0  0
  151.6551  144.2875  161.1625 H   0  0  0  0  0  0  0  0  0  0  0  0
  151.2484  145.9189  160.6369 H   0  0  0  0  0  0  0  0  0  0  0  0
  152.9080  145.3473  160.4846 H   0  0  0  0  0  0  0  0  0  0  0  0
  154.0397  142.4382  158.7420 H   0  0  0  0  0  0  0  0  0  0  0  0
  153.4795  143.0874  160.2492 H   0  0  0  0  0  0  0  0  0  0  0  0
  153.1664  140.6247  160.2222 H   0  0  0  0  0  0  0  0  0  0  0  0
  151.6159  141.4262  160.3199 H   0  0  0  0  0  0  0  0  0  0  0  0
  152.9005  140.1992  157.8435 H   0  0  0  0  0  0  0  0  0  0  0  0
  151.4517  139.6422  158.6444 H   0  0  0  0  0  0  0  0  0  0  0  0
  150.2278  141.6743  157.9986 H   0  0  0  0  0  0  0  0  0  0  0  0
  148.8656  140.9426  156.5406 H   0  0  0  0  0  0  0  0  0  0  0  0
  149.1795  140.8738  153.7936 H   0  0  0  0  0  0  0  0  0  0  0  0
  149.3836  138.4754  153.2383 H   0  0  0  0  0  0  0  0  0  0  0  0
  149.6101  138.0773  154.9385 H   0  0  0  0  0  0  0  0  0  0  0  0
  150.8149  139.0434  154.0883 H   0  0  0  0  0  0  0  0  0  0  0  0
  147.2561  139.3444  155.6071 H   0  0  0  0  0  0  0  0  0  0  0  0
  146.9434  140.8485  154.7726 H   0  0  0  0  0  0  0  0  0  0  0  0
  147.6811  140.2222  151.8620 H   0  0  0  0  0  0  0  0  0  0  0  0
  146.3035  138.3078  150.4886 H   0  0  0  0  0  0  0  0  0  0  0  0
  145.2313  136.7428  152.5094 H   0  0  0  0  0  0  0  0  0  0  0  0
  151.3043  143.4568  156.6117 H   0  0  0  0  0  0  0  0  0  0  0  0
  152.8372  142.6445  156.7151 H   0  0  0  0  0  0  0  0  0  0  0  0
  1  2  1  0  0  0  0
  1 21  1  0  0  0  0
  1 22  1  0  0  0  0
  1 23  1  0  0  0  0
  2  3  2  0  0  0  0
  2  4  1  0  0  0  0
  4 20  1  0  0  0  0
  4  5  1  0  0  0  0
  5  6  1  0  0  0  0
  5 24  1  0  0  0  0
  5 25  1  0  0  0  0
  6  7  1  0  0  0  0
  6 26  1  0  0  0  0
  6 27  1  0  0  0  0
  7  8  1  0  0  0  0
  7 28  1  0  0  0  0
  7 29  1  0  0  0  0
  8  9  1  0  0  0  0
  8 20  1  0  0  0  0
  8 30  1  0  0  0  0
  9 10  2  0  0  0  0
  9 11  1  0  0  0  0
 11 12  1  0  0  0  0
 11 31  1  0  0  0  0
 12 13  1  0  0  0  0
 12 14  1  0  0  0  0
 12 32  1  0  0  0  0
 13 33  1  0  0  0  0
 13 34  1  0  0  0  0
 13 35  1  0  0  0  0
 14 15  1  0  0  0  0
 14 36  1  0  0  0  0
 14 37  1  0  0  0  0
 15 19  1  0  0  0  0
 15 16  1  0  0  0  0
 16 17  2  0  0  0  0
 16 38  1  0  0  0  0
 17 18  1  0  0  0  0
 17 39  1  0  0  0  0
 18 19  2  0  0  0  0
 18 40  1  0  0  0  0
 20 41  1  0  0  0  0
 20 42  1  0  0  0  0
M  END
> <s_m_source_file>
AV-unprocessed.smi

> <i_m_source_file_index>
1796

> <i_lp_mmshare_version>
43012

> <i_f3d_flags>
0

> <s_epik_input>
W0NIM11DKD1PKU4xW0NIMl1bQ0gyXVtDSDJdW0NASF0oW0NIMl0xKUMoPU8pW05IXVtDQEhdKFtDSDNdKVtDSDJdbjJbY0hdW2NIXVtjSF1uMg==

> <s_epik_cmdline>
J2VwaWtfcHl0aG9uJywgJy1waCcsICc3LjAnLCAnLXRuJywgJzgnLCAnLW1hJywgJzIwMCcsICctbWV0YWxfYmluZGluZycsICctaW1hZScsICc8aW5maWxlLm1hZT4nLCAnLW9tYWUnLCAnPG91dGZpbGUubWFlPic=

> <r_lp_tautomer_probability>
1

> <r_epik_Ionization_Penalty>
0.000315051

> <r_epik_Ionization_Penalty_Charging>
0

> <r_epik_Ionization_Penalty_Neutral>
0.000315051

> <r_epik_State_Penalty>
-0

> <r_epik_Charging_Adjusted_Penalty>
0

> <i_epik_Tot_Q>
0

> <i_epik_Tot_abs_Q>
0

> <r_epik_Metal_State_Penalty>
-0

> <b_epik_Metal_Only>
0

> <s_lp_Force_Field>
OPLS_2005

> <r_lp_Energy>
22.8322

> <b_lp_Chiralities_Consistent>
1

> <s_lp_Variant>
AV-unprocessed.smi:1796-4

> <Gold.Version>
5.8.1

> <Gold.Id.Protein>
6NUR|6NUR_protein|mol2

> <Gold.PLP.Fitness>
42.8976

> <Gold.PLP.PLP>
-38.4582

> <Gold.PLP.part.hbond>
-1.0000

> <Gold.PLP.part.metal>
0.0000

> <Gold.PLP.part.buried>
-0.7485

> <Gold.PLP.part.nonpolar>
-37.8524

> <Gold.PLP.part.repulsive>
0.6330

> <Gold.PLP.ligand.clash>
0.0000

> <Gold.PLP.ligand.torsion>
0.2618

> <Gold.PLP.Chemscore.Hbond>
0.7680

> <Gold.PLP.Chemscore.CHOScore>
0.8750

> <Gold.PLP.Chemscore.Metal>
0.0000

> <Gold.Chemscore.Hbonds>
donor molecule, donor type, donor heavy atom, donor atom, acceptor molecule, acceptor atom, score
      P1  H  7989  7998       L1    10  0.77
      L1  C    16    38       P1  7957  0.86

> <Gold.PLP.Chemscore.Internal.Correction>
0.0340

> <Gold.Rescore>
     Score         DG    S(hbond)    S(metal)    S(lipo)     H(rot)  DE(clash)    DE(int)     intcor
     11.34     -14.89       0.73        0.00      95.39       1.63       1.95       1.60       ----

> <Gold.Chemscore.Fitness>
11.3377

> <Gold.Chemscore.DG>
-14.8868

> <Gold.Chemscore.ZeroCoef>
-5.4800

> <Gold.Chemscore.Hbond>
0.7271

> <Gold.Chemscore.Metal>
0.0000

> <Gold.Chemscore.Lipo>
95.3875

> <Gold.Chemscore.Internal_Hbond>
0.0000

> <Gold.Chemscore.DEClash>
1.9505

> <Gold.Chemscore.DEInternal>
1.5986

> <Gold.Chemscore.Rot>
1.6336

> <Gold.Chemscore.Internal.Correction>
   9.000000E+99

> <Gold.Chemscore.Hbonds>
donor molecule, donor type, donor heavy atom, donor atom, acceptor molecule, acceptor atom, score
      P1  H  7989  7998       L1    10  0.74

> <Gold.Chemscore.Hbond.Weighted>
-2.4286

> <Gold.Chemscore.Metal.Weighted>
-0.0000

> <Gold.Chemscore.Lipo.Weighted>
-11.1603

> <Gold.Chemscore.Internal_Hbond.Weighted>
0.0000

> <Gold.Chemscore.DEClash.Weighted>
1.9505

> <Gold.Chemscore.DEInternal.Weighted>
1.5986

> <Gold.Chemscore.Rot.Weighted>
4.1821

> <Gold.Chemscore.Internal.Correction.Weighted>
   9.000000E+99

> <Gold.Protein.RotatedTorsions>
[ 6907 6896 6895 6894 ] final  -13.54 input  -60.11 | X-H torsion
[ 7974 7965 7964 7962 ] final -163.46 input  175.53 | X-H torsion
[ 8008 7997 7996 7995 ] final   82.15 input   59.86 | X-H torsion
[ 10167 10162 10161 10158 ] final  155.18 input  -65.29 | X-H torsion
[ 10718 10713 10712 10709 ] final  160.19 input   66.30 | X-H torsion
[ 10763 10752 10751 10750 ] final  -53.58 input  -60.55 | X-H torsion
[ 11005 11000 10999 10996 ] final -140.25 input  -57.11 | X-H torsion

> <Gold.Protein.ActiveResidues>
 VAL166  LYS551  ARG553  GLY616  TRP617  ASP618  TYR619  PRO620  LYS621  CYS622 
 ASP623  PHE694  ASN695  SER759  ASP760  ASP761  ALA762  ILE779  LEU786  VAL792 
 PHE793  MET794  SER795  GLU796  ALA797  LYS798  CYS799  TRP800  GLU811  SER814 

> <Gold.Protein.RotatedAtoms>
  151.3534  135.0889  159.9410 H   0  0  0  0  0  0  0  0  0  0  0  0  # atno 6907 bound_to 6896
  152.5181  133.9330  159.7600 H   0  0  0  0  0  0  0  0  0  0  0  0  # atno 6908 bound_to 6896
  150.9710  133.6290  159.2767 H   0  0  0  0  0  0  0  0  0  0  0  0  # atno 6909 bound_to 6896
  144.7325  140.3104  143.6189 H   0  0  0  0  0  0  0  0  0  0  0  0  # atno 7974 bound_to 7965
  155.9068  140.3430  155.6068 H   0  0  0  0  0  0  0  0  0  0  0  0  # atno 8008 bound_to 7997
  155.7435  140.0810  157.2253 H   0  0  0  0  0  0  0  0  0  0  0  0  # atno 8009 bound_to 7997
  154.4050  140.1566  156.2630 H   0  0  0  0  0  0  0  0  0  0  0  0  # atno 8010 bound_to 7997
  139.4822  144.5121  151.8008 H   0  0  0  0  0  0  0  0  0  0  0  0  # atno 10167 bound_to 10162
  157.1538  131.0570  151.2267 H   0  0  0  0  0  0  0  0  0  0  0  0  # atno 10718 bound_to 10713
  154.1612  135.6474  153.4986 H   0  0  0  0  0  0  0  0  0  0  0  0  # atno 10763 bound_to 10752
  153.0110  135.5361  154.6709 H   0  0  0  0  0  0  0  0  0  0  0  0  # atno 10764 bound_to 10752
  154.6023  135.2945  155.0494 H   0  0  0  0  0  0  0  0  0  0  0  0  # atno 10765 bound_to 10752
  140.8441  134.2366  157.4795 H   0  0  0  0  0  0  0  0  0  0  0  0  # atno 11005 bound_to 11000
  145.7670  139.1844  143.2234 LP  0  0  0  0  0  0  0  0  0  0  0  0  # atno 17320 bound_to 7965
  146.0941  140.7622  142.9581 LP  0  0  0  0  0  0  0  0  0  0  0  0  # atno 17321 bound_to 7965
  140.4625  144.1701  150.5908 LP  0  0  0  0  0  0  0  0  0  0  0  0  # atno 17342 bound_to 10162
  140.4469  143.2503  151.9400 LP  0  0  0  0  0  0  0  0  0  0  0  0  # atno 17343 bound_to 10162
  157.4196  130.7430  149.6903 LP  0  0  0  0  0  0  0  0  0  0  0  0  # atno 17370 bound_to 10713
  155.9766  130.4074  150.3770 LP  0  0  0  0  0  0  0  0  0  0  0  0  # atno 17371 bound_to 10713
  139.8703  134.9650  156.4514 LP  0  0  0  0  0  0  0  0  0  0  0  0  # atno 17394 bound_to 11000
  140.8863  133.7881  155.9522 LP  0  0  0  0  0  0  0  0  0  0  0  0  # atno 17395 bound_to 11000

$$$$
