AV-unprocessed.smi:1702|AV-procd|sdf|6846|dock10
  -GOLD-   22720 8 23D 1   1.00000     0.00000
 Structure written by MMmdl.
 44 46  0  0  0  0  0  0  0  0  2 V2000
  143.3346  143.0345  156.9013 C   0  0  0  0  0  0  0  0  0  0  0  0
  144.3499  142.2916  156.0220 C   0  0  2  0  0  0  0  0  0  0  0  0
  145.5386  141.7671  156.8442 C   0  0  0  0  0  0  0  0  0  0  0  0
  146.5655  141.0531  155.9492 C   0  0  0  0  0  0  0  0  0  0  0  0
  147.0437  141.9452  154.8616 N   0  3  1  0  0  0  0  0  0  0  0  0
  148.1339  141.3242  154.0664 C   0  0  0  0  0  0  0  0  0  0  0  0
  149.2634  140.7377  154.9442 C   0  0  1  0  0  0  0  0  0  0  0  0
  150.0789  139.8997  154.1500 O   0  0  0  0  0  0  0  0  0  0  0  0
  150.1759  141.8154  155.5621 C   0  0  0  0  0  0  0  0  0  0  0  0
  150.8944  141.3357  156.7286 N   0  0  0  0  0  0  0  0  0  0  0  0
  151.4083  140.1040  156.9107 C   0  0  0  0  0  0  0  0  0  0  0  0
  152.0272  139.8667  158.0635 N   0  0  0  0  0  0  0  0  0  0  0  0
  151.9085  141.0887  158.7025 C   0  0  0  0  0  0  0  0  0  0  0  0
  152.3582  141.5057  159.9755 C   0  0  0  0  0  0  0  0  0  0  0  0
  152.1126  142.8197  160.4256 C   0  0  0  0  0  0  0  0  0  0  0  0
  152.5484  143.2022  161.6492 F   0  0  0  0  0  0  0  0  0  0  0  0
  151.4149  143.7353  159.6098 C   0  0  0  0  0  0  0  0  0  0  0  0
  151.1801  144.9939  160.0502 F   0  0  0  0  0  0  0  0  0  0  0  0
  150.9586  143.3432  158.3369 C   0  0  0  0  0  0  0  0  0  0  0  0
  151.2056  142.0311  157.8926 C   0  0  0  0  0  0  0  0  0  0  0  0
  145.9146  142.4368  154.0275 C   0  0  0  0  0  0  0  0  0  0  0  0
  144.8759  143.1809  154.8830 C   0  0  0  0  0  0  0  0  0  0  0  0
  143.7860  143.9031  157.3820 H   0  0  0  0  0  0  0  0  0  0  0  0
  142.9452  142.3848  157.6857 H   0  0  0  0  0  0  0  0  0  0  0  0
  142.4863  143.3838  156.3120 H   0  0  0  0  0  0  0  0  0  0  0  0
  143.8396  141.4357  155.5775 H   0  0  0  0  0  0  0  0  0  0  0  0
  146.0231  142.5942  157.3654 H   0  0  0  0  0  0  0  0  0  0  0  0
  145.1857  141.0813  157.6153 H   0  0  0  0  0  0  0  0  0  0  0  0
  147.4090  140.7335  156.5623 H   0  0  0  0  0  0  0  0  0  0  0  0
  146.1278  140.1519  155.5167 H   0  0  0  0  0  0  0  0  0  0  0  0
  147.7308  140.5212  153.4471 H   0  0  0  0  0  0  0  0  0  0  0  0
  148.5210  142.0721  153.3736 H   0  0  0  0  0  0  0  0  0  0  0  0
  148.8514  140.1360  155.7535 H   0  0  0  0  0  0  0  0  0  0  0  0
  150.4710  139.2389  154.7000 H   0  0  0  0  0  0  0  0  0  0  0  0
  150.9099  142.1547  154.8293 H   0  0  0  0  0  0  0  0  0  0  0  0
  149.5944  142.6934  155.8466 H   0  0  0  0  0  0  0  0  0  0  0  0
  151.3181  139.3365  156.1557 H   0  0  0  0  0  0  0  0  0  0  0  0
  152.8928  140.8132  160.6088 H   0  0  0  0  0  0  0  0  0  0  0  0
  150.4243  144.0432  157.7122 H   0  0  0  0  0  0  0  0  0  0  0  0
  146.2769  143.1100  153.2518 H   0  0  0  0  0  0  0  0  0  0  0  0
  145.4436  141.5951  153.5171 H   0  0  0  0  0  0  0  0  0  0  0  0
  144.0482  143.5069  154.2521 H   0  0  0  0  0  0  0  0  0  0  0  0
  145.3249  144.0859  155.2951 H   0  0  0  0  0  0  0  0  0  0  0  0
  147.4475  142.7497  155.3196 H   0  0  0  0  0  0  0  0  0  0  0  0
  1  2  1  0  0  0  0
  1 23  1  0  0  0  0
  1 24  1  0  0  0  0
  1 25  1  0  0  0  0
  2 22  1  0  0  0  0
  2  3  1  0  0  0  0
  2 26  1  0  0  0  0
  3  4  1  0  0  0  0
  3 27  1  0  0  0  0
  3 28  1  0  0  0  0
  4  5  1  0  0  0  0
  4 29  1  0  0  0  0
  4 30  1  0  0  0  0
  5  6  1  0  0  0  0
  5 21  1  0  0  0  0
  5 44  1  0  0  0  0
  6  7  1  0  0  0  0
  6 31  1  0  0  0  0
  6 32  1  0  0  0  0
  7  8  1  0  0  0  0
  7  9  1  0  0  0  0
  7 33  1  0  0  0  0
  8 34  1  0  0  0  0
  9 10  1  0  0  0  0
  9 35  1  0  0  0  0
  9 36  1  0  0  0  0
 10 20  1  0  0  0  0
 10 11  1  0  0  0  0
 11 12  2  0  0  0  0
 11 37  1  0  0  0  0
 12 13  1  0  0  0  0
 13 20  2  0  0  0  0
 13 14  1  0  0  0  0
 14 15  2  0  0  0  0
 14 38  1  0  0  0  0
 15 16  1  0  0  0  0
 15 17  1  0  0  0  0
 17 18  1  0  0  0  0
 17 19  2  0  0  0  0
 19 20  1  0  0  0  0
 19 39  1  0  0  0  0
 21 22  1  0  0  0  0
 21 40  1  0  0  0  0
 21 41  1  0  0  0  0
 22 42  1  0  0  0  0
 22 43  1  0  0  0  0
M  CHG  1   5   1
M  END
> <s_m_source_file>
AV-unprocessed.smi

> <i_m_source_file_index>
1702

> <i_lp_mmshare_version>
43012

> <i_f3d_flags>
0

> <s_epik_input>
W0NIM11bQ0hdMVtDSDJdW0NIMl1OKFtDSDJdW0NIMl0xKVtDSDJdW0NASF0oW09IXSlbQ0gyXW4oW2NIXW4yKWMoYzIzKVtjSF1jKEYpYyhGKVtjSF0z

> <s_epik_cmdline>
J2VwaWtfcHl0aG9uJywgJy1waCcsICc3LjAnLCAnLXRuJywgJzgnLCAnLW1hJywgJzIwMCcsICctbWV0YWxfYmluZGluZycsICctaW1hZScsICc8aW5maWxlLm1hZT4nLCAnLW9tYWUnLCAnPG91dGZpbGUubWFlPic=

> <r_epik_Ionization_Penalty>
0.0135195

> <r_epik_Ionization_Penalty_Charging>
0.00181365

> <r_epik_Ionization_Penalty_Neutral>
0.0117059

> <r_epik_State_Penalty>
0.00902283

> <r_epik_Charging_Adjusted_Penalty>
0.0108365

> <i_epik_Tot_Q>
1

> <i_epik_Tot_abs_Q>
1

> <r_epik_Metal_State_Penalty>
9.09181e-06

> <b_epik_Metal_Only>
0

> <s_lp_Force_Field>
OPLS_2005

> <r_lp_Energy>
23.1307

> <b_lp_Chiralities_Consistent>
1

> <s_lp_Variant>
AV-unprocessed.smi:1702-2

> <Gold.Version>
5.8.1

> <Gold.Id.Protein>
6NUR|6NUR_protein|mol2

> <Gold.PLP.Fitness>
57.3275

> <Gold.PLP.PLP>
-49.6149

> <Gold.PLP.part.hbond>
-2.9209

> <Gold.PLP.part.metal>
0.0000

> <Gold.PLP.part.buried>
-6.1463

> <Gold.PLP.part.nonpolar>
-39.6945

> <Gold.PLP.part.repulsive>
0.1204

> <Gold.PLP.ligand.clash>
0.0000

> <Gold.PLP.ligand.torsion>
0.6590

> <Gold.PLP.Chemscore.Hbond>
3.0000

> <Gold.PLP.Chemscore.CHOScore>
0.0000

> <Gold.PLP.Chemscore.Metal>
0.0000

> <Gold.Chemscore.Hbonds>
donor molecule, donor type, donor heavy atom, donor atom, acceptor molecule, acceptor atom, score
      P1  H  7989  7998       L1     8  1.00

> <Gold.PLP.Chemscore.Internal.Correction>
0.0306

> <Gold.Rescore>
     Score         DG    S(hbond)    S(metal)    S(lipo)     H(rot)  DE(clash)    DE(int)     intcor
     16.42     -17.20       1.59        0.00     104.21       2.26       0.20       0.58       ----

> <Gold.Chemscore.Fitness>
16.4162

> <Gold.Chemscore.DG>
-17.2002

> <Gold.Chemscore.ZeroCoef>
-5.4800

> <Gold.Chemscore.Hbond>
1.5924

> <Gold.Chemscore.Metal>
0.0000

> <Gold.Chemscore.Lipo>
104.2053

> <Gold.Chemscore.Internal_Hbond>
0.0000

> <Gold.Chemscore.DEClash>
0.2017

> <Gold.Chemscore.DEInternal>
0.5823

> <Gold.Chemscore.Rot>
2.2619

> <Gold.Chemscore.Internal.Correction>
   9.000000E+99

> <Gold.Chemscore.Hbonds>
donor molecule, donor type, donor heavy atom, donor atom, acceptor molecule, acceptor atom, score
      L1  H     5    44       P1  8028  0.03
      P1  H  7989  7998       L1     8  0.29

> <Gold.Chemscore.Hbond.Weighted>
-5.3186

> <Gold.Chemscore.Metal.Weighted>
-0.0000

> <Gold.Chemscore.Lipo.Weighted>
-12.1920

> <Gold.Chemscore.Internal_Hbond.Weighted>
0.0000

> <Gold.Chemscore.DEClash.Weighted>
0.2017

> <Gold.Chemscore.DEInternal.Weighted>
0.5823

> <Gold.Chemscore.Rot.Weighted>
5.7904

> <Gold.Chemscore.Internal.Correction.Weighted>
   9.000000E+99

> <Gold.Protein.RotatedTorsions>
[ 6907 6896 6895 6894 ] final -100.75 input  -60.11 | X-H torsion
[ 7974 7965 7964 7962 ] final -175.28 input  175.53 | X-H torsion
[ 8008 7997 7996 7995 ] final  116.48 input   59.86 | X-H torsion
[ 10167 10162 10161 10158 ] final  -68.50 input  -65.29 | X-H torsion
[ 10718 10713 10712 10709 ] final  -50.47 input   66.30 | X-H torsion
[ 10763 10752 10751 10750 ] final    2.34 input  -60.55 | X-H torsion
[ 11005 11000 10999 10996 ] final -106.66 input  -57.11 | X-H torsion

> <Gold.Protein.ActiveResidues>
 VAL166  LYS551  ARG553  GLY616  TRP617  ASP618  TYR619  PRO620  LYS621  CYS622 
 ASP623  PHE694  ASN695  SER759  ASP760  ASP761  ALA762  ILE779  LEU786  VAL792 
 PHE793  MET794  SER795  GLU796  ALA797  LYS798  CYS799  TRP800  GLU811  SER814 

> <Gold.Protein.RotatedAtoms>
  150.7128  134.0839  159.3907 H   0  0  0  0  0  0  0  0  0  0  0  0  # atno 6907 bound_to 6896
  151.8823  135.0446  160.0499 H   0  0  0  0  0  0  0  0  0  0  0  0  # atno 6908 bound_to 6896
  152.2557  133.5218  159.5388 H   0  0  0  0  0  0  0  0  0  0  0  0  # atno 6909 bound_to 6896
  144.7128  140.1344  143.6396 H   0  0  0  0  0  0  0  0  0  0  0  0  # atno 7974 bound_to 7965
  156.2441  140.2916  156.0530 H   0  0  0  0  0  0  0  0  0  0  0  0  # atno 8008 bound_to 7997
  155.1861  140.0405  157.2908 H   0  0  0  0  0  0  0  0  0  0  0  0  # atno 8009 bound_to 7997
  154.6227  140.2480  155.7537 H   0  0  0  0  0  0  0  0  0  0  0  0  # atno 8010 bound_to 7997
  140.5503  143.2312  151.6924 H   0  0  0  0  0  0  0  0  0  0  0  0  # atno 10167 bound_to 10162
  156.1798  130.4150  149.9523 H   0  0  0  0  0  0  0  0  0  0  0  0  # atno 10718 bound_to 10713
  153.2968  135.6953  153.7241 H   0  0  0  0  0  0  0  0  0  0  0  0  # atno 10763 bound_to 10752
  153.6170  135.3434  155.2999 H   0  0  0  0  0  0  0  0  0  0  0  0  # atno 10764 bound_to 10752
  154.8539  135.4377  154.2067 H   0  0  0  0  0  0  0  0  0  0  0  0  # atno 10765 bound_to 10752
  141.0993  133.8913  157.1883 H   0  0  0  0  0  0  0  0  0  0  0  0  # atno 11005 bound_to 11000
  145.9258  139.2574  143.1354 LP  0  0  0  0  0  0  0  0  0  0  0  0  # atno 17320 bound_to 7965
  145.9574  140.8862  143.0228 LP  0  0  0  0  0  0  0  0  0  0  0  0  # atno 17321 bound_to 7965
  139.5024  144.3829  152.0358 LP  0  0  0  0  0  0  0  0  0  0  0  0  # atno 17342 bound_to 10162
  140.2945  144.3716  150.6078 LP  0  0  0  0  0  0  0  0  0  0  0  0  # atno 17343 bound_to 10162
  156.7297  130.9038  151.3625 LP  0  0  0  0  0  0  0  0  0  0  0  0  # atno 17370 bound_to 10713
  157.6860  130.9186  150.0389 LP  0  0  0  0  0  0  0  0  0  0  0  0  # atno 17371 bound_to 10713
  139.9839  135.0088  156.9817 LP  0  0  0  0  0  0  0  0  0  0  0  0  # atno 17394 bound_to 11000
  140.5062  134.1048  155.7260 LP  0  0  0  0  0  0  0  0  0  0  0  0  # atno 17395 bound_to 11000

$$$$
