AV-unprocessed.smi:3294|AV-procd|sdf|12634|dock9
  -GOLD-   2272018573D 1   1.00000     0.00000
 Structure written by MMmdl.
 38 40  0  0  0  0  0  0  0  0  2 V2000
  147.9513  139.8061  153.7803 C   0  0  0  0  0  0  0  0  0  0  0  0
  149.3256  139.4346  154.2959 C   0  0  0  0  0  0  0  0  0  0  0  0
  149.9506  140.1356  155.3495 C   0  0  0  0  0  0  0  0  0  0  0  0
  151.2408  139.7371  155.7829 C   0  0  0  0  0  0  0  0  0  0  0  0
  151.9446  140.3649  156.8462 N   0  0  0  0  0  0  0  0  0  0  0  0
  151.5499  141.3973  157.6113 C   0  0  0  0  0  0  0  0  0  0  0  0
  150.4882  142.0062  157.4828 O   0  0  0  0  0  0  0  0  0  0  0  0
  152.4782  141.7006  158.5319 N   0  0  0  0  0  0  0  0  0  0  0  0
  152.4054  142.7694  159.5271 C   0  0  0  0  0  0  0  0  0  0  0  0
  152.4832  144.1691  158.9345 C   0  0  0  0  0  0  0  0  0  0  0  0
  151.8293  145.3469  159.6169 C   0  0  0  0  0  0  0  0  0  0  0  0
  151.2729  144.8223  158.3121 C   0  0  0  0  0  0  0  0  0  0  0  0
  153.3942  142.6093  160.6724 C   0  0  0  0  0  0  0  0  0  0  0  0
  153.5083  141.3084  161.4301 C   0  0  0  0  0  0  0  0  0  0  0  0
  152.9261  142.5297  162.1061 C   0  0  0  0  0  0  0  0  0  0  0  0
  151.8497  138.6264  155.1585 C   0  0  0  0  0  0  0  0  0  0  0  0
  151.1786  137.9643  154.1107 C   0  0  0  0  0  0  0  0  0  0  0  0
  149.9576  138.3880  153.7204 N   0  3  0  0  0  0  0  0  0  0  0  0
  147.5935  140.7267  154.2425 H   0  0  0  0  0  0  0  0  0  0  0  0
  147.2365  139.0132  154.0018 H   0  0  0  0  0  0  0  0  0  0  0  0
  147.9763  139.9562  152.7006 H   0  0  0  0  0  0  0  0  0  0  0  0
  149.4272  140.9566  155.8156 H   0  0  0  0  0  0  0  0  0  0  0  0
  152.8824  140.0273  157.0063 H   0  0  0  0  0  0  0  0  0  0  0  0
  153.3181  141.1408  158.5484 H   0  0  0  0  0  0  0  0  0  0  0  0
  151.4086  142.6682  159.9587 H   0  0  0  0  0  0  0  0  0  0  0  0
  153.4344  144.3870  158.4526 H   0  0  0  0  0  0  0  0  0  0  0  0
  151.2499  145.1584  160.5183 H   0  0  0  0  0  0  0  0  0  0  0  0
  152.3590  146.2970  159.5935 H   0  0  0  0  0  0  0  0  0  0  0  0
  151.4316  145.4229  157.4188 H   0  0  0  0  0  0  0  0  0  0  0  0
  150.3284  144.2834  158.3508 H   0  0  0  0  0  0  0  0  0  0  0  0
  154.3276  143.1486  160.5213 H   0  0  0  0  0  0  0  0  0  0  0  0
  152.8224  140.5056  161.1671 H   0  0  0  0  0  0  0  0  0  0  0  0
  154.5039  140.9909  161.7330 H   0  0  0  0  0  0  0  0  0  0  0  0
  153.5336  143.0266  162.8598 H   0  0  0  0  0  0  0  0  0  0  0  0
  151.8545  142.5324  162.2951 H   0  0  0  0  0  0  0  0  0  0  0  0
  152.8260  138.2861  155.4724 H   0  0  0  0  0  0  0  0  0  0  0  0
  151.5778  137.1134  153.5785 H   0  0  0  0  0  0  0  0  0  0  0  0
  149.4889  137.8933  152.9610 H   0  0  0  0  0  0  0  0  0  0  0  0
  1  2  1  0  0  0  0
  1 19  1  0  0  0  0
  1 20  1  0  0  0  0
  1 21  1  0  0  0  0
  2 18  1  0  0  0  0
  2  3  2  0  0  0  0
  3  4  1  0  0  0  0
  3 22  1  0  0  0  0
  4  5  1  0  0  0  0
  4 16  2  0  0  0  0
  5  6  1  0  0  0  0
  5 23  1  0  0  0  0
  6  7  2  0  0  0  0
  6  8  1  0  0  0  0
  8  9  1  0  0  0  0
  8 24  1  0  0  0  0
  9 10  1  0  0  0  0
  9 13  1  0  0  0  0
  9 25  1  0  0  0  0
 10 12  1  0  0  0  0
 10 11  1  0  0  0  0
 10 26  1  0  0  0  0
 11 12  1  0  0  0  0
 11 27  1  0  0  0  0
 11 28  1  0  0  0  0
 12 29  1  0  0  0  0
 12 30  1  0  0  0  0
 13 15  1  0  0  0  0
 13 14  1  0  0  0  0
 13 31  1  0  0  0  0
 14 15  1  0  0  0  0
 14 32  1  0  0  0  0
 14 33  1  0  0  0  0
 15 34  1  0  0  0  0
 15 35  1  0  0  0  0
 16 17  1  0  0  0  0
 16 36  1  0  0  0  0
 17 18  2  0  0  0  0
 17 37  1  0  0  0  0
 18 38  1  0  0  0  0
M  CHG  1  18   1
M  END
> <s_m_source_file>
AV-unprocessed.smi

> <i_m_source_file_index>
3294

> <i_lp_mmshare_version>
43012

> <i_f3d_flags>
0

> <s_epik_input>
W0NIM11jMVtjSF1jKFtjSF1bY0hdbjEpW05IXUMoPU8pW05IXVtDSF0oW0NIXTJbQ0gyXVtDSDJdMilbQ0hdM1tDSDJdW0NIMl0z

> <s_epik_cmdline>
J2VwaWtfcHl0aG9uJywgJy1waCcsICc3LjAnLCAnLXRuJywgJzgnLCAnLW1hJywgJzIwMCcsICctbWV0YWxfYmluZGluZycsICctaW1hZScsICc8aW5maWxlLm1hZT4nLCAnLW9tYWUnLCAnPG91dGZpbGUubWFlPic=

> <r_epik_Ionization_Penalty>
0.432398

> <r_epik_Ionization_Penalty_Charging>
0.432376

> <r_epik_Ionization_Penalty_Neutral>
2.18467e-05

> <r_epik_State_Penalty>
0.433859

> <r_epik_Charging_Adjusted_Penalty>
0.866235

> <i_epik_Tot_Q>
1

> <i_epik_Tot_abs_Q>
1

> <r_epik_Metal_State_Penalty>
0.667026

> <b_epik_Metal_Only>
0

> <s_lp_Force_Field>
OPLS_2005

> <r_lp_Energy>
34.1615

> <b_lp_Chiralities_Consistent>
1

> <s_lp_Variant>
AV-unprocessed.smi:3294-2

> <Gold.Version>
5.8.1

> <Gold.Id.Protein>
6NUR|6NUR_protein|mol2

> <Gold.PLP.Fitness>
51.9119

> <Gold.PLP.PLP>
-46.5875

> <Gold.PLP.part.hbond>
-1.9463

> <Gold.PLP.part.metal>
0.0000

> <Gold.PLP.part.buried>
-4.2781

> <Gold.PLP.part.nonpolar>
-41.3463

> <Gold.PLP.part.repulsive>
0.3733

> <Gold.PLP.ligand.clash>
0.0000

> <Gold.PLP.ligand.torsion>
1.4216

> <Gold.PLP.Chemscore.Hbond>
2.0000

> <Gold.PLP.Chemscore.CHOScore>
0.0000

> <Gold.PLP.Chemscore.Metal>
0.0000

> <Gold.Chemscore.Hbonds>
donor molecule, donor type, donor heavy atom, donor atom, acceptor molecule, acceptor atom, score
      L1  H    18    38       P1  7948  2.00

> <Gold.PLP.Chemscore.Internal.Correction>
2.1676

> <Gold.Rescore>
     Score         DG    S(hbond)    S(metal)    S(lipo)     H(rot)  DE(clash)    DE(int)     intcor
     17.20     -20.18       0.95        0.00     127.15       1.31       0.24       2.74       ----

> <Gold.Chemscore.Fitness>
17.2000

> <Gold.Chemscore.DG>
-20.1810

> <Gold.Chemscore.ZeroCoef>
-5.4800

> <Gold.Chemscore.Hbond>
0.9523

> <Gold.Chemscore.Metal>
0.0000

> <Gold.Chemscore.Lipo>
127.1503

> <Gold.Chemscore.Internal_Hbond>
0.0000

> <Gold.Chemscore.DEClash>
0.2377

> <Gold.Chemscore.DEInternal>
2.7433

> <Gold.Chemscore.Rot>
1.3111

> <Gold.Chemscore.Internal.Correction>
   9.000000E+99

> <Gold.Chemscore.Hbonds>
donor molecule, donor type, donor heavy atom, donor atom, acceptor molecule, acceptor atom, score
      L1  H    18    38       P1  7948  0.78

> <Gold.Chemscore.Hbond.Weighted>
-3.1808

> <Gold.Chemscore.Metal.Weighted>
-0.0000

> <Gold.Chemscore.Lipo.Weighted>
-14.8766

> <Gold.Chemscore.Internal_Hbond.Weighted>
0.0000

> <Gold.Chemscore.DEClash.Weighted>
0.2377

> <Gold.Chemscore.DEInternal.Weighted>
2.7433

> <Gold.Chemscore.Rot.Weighted>
3.3564

> <Gold.Chemscore.Internal.Correction.Weighted>
   9.000000E+99

> <Gold.Protein.RotatedTorsions>
[ 6907 6896 6895 6894 ] final  -13.35 input  -60.11 | X-H torsion
[ 7974 7965 7964 7962 ] final -104.02 input  175.53 | X-H torsion
[ 8008 7997 7996 7995 ] final  150.66 input   59.86 | X-H torsion
[ 10167 10162 10161 10158 ] final  136.57 input  -65.29 | X-H torsion
[ 10718 10713 10712 10709 ] final -155.36 input   66.30 | X-H torsion
[ 10763 10752 10751 10750 ] final  124.62 input  -60.55 | X-H torsion
[ 11005 11000 10999 10996 ] final   54.68 input  -57.11 | X-H torsion

> <Gold.Protein.ActiveResidues>
 VAL166  LYS551  ARG553  GLY616  TRP617  ASP618  TYR619  PRO620  LYS621  CYS622 
 ASP623  PHE694  ASN695  SER759  ASP760  ASP761  ALA762  ILE779  LEU786  VAL792 
 PHE793  MET794  SER795  GLU796  ALA797  LYS798  CYS799  TRP800  GLU811  SER814 

> <Gold.Protein.RotatedAtoms>
  151.3563  135.0895  159.9419 H   0  0  0  0  0  0  0  0  0  0  0  0  # atno 6907 bound_to 6896
  152.5174  133.9303  159.7587 H   0  0  0  0  0  0  0  0  0  0  0  0  # atno 6908 bound_to 6896
  150.9688  133.6312  159.2771 H   0  0  0  0  0  0  0  0  0  0  0  0  # atno 6909 bound_to 6896
  145.2485  140.9230  143.3109 H   0  0  0  0  0  0  0  0  0  0  0  0  # atno 7974 bound_to 7965
  156.2706  140.2069  156.6052 H   0  0  0  0  0  0  0  0  0  0  0  0  # atno 8008 bound_to 7997
  154.6875  140.0533  157.0353 H   0  0  0  0  0  0  0  0  0  0  0  0  # atno 8009 bound_to 7997
  155.0914  140.3197  155.4575 H   0  0  0  0  0  0  0  0  0  0  0  0  # atno 8010 bound_to 7997
  139.5175  144.6457  151.5446 H   0  0  0  0  0  0  0  0  0  0  0  0  # atno 10167 bound_to 10162
  156.5117  130.8438  151.2649 H   0  0  0  0  0  0  0  0  0  0  0  0  # atno 10718 bound_to 10713
  153.6643  135.3341  155.3136 H   0  0  0  0  0  0  0  0  0  0  0  0  # atno 10763 bound_to 10752
  154.8507  135.4371  154.1772 H   0  0  0  0  0  0  0  0  0  0  0  0  # atno 10764 bound_to 10752
  153.2747  135.7003  153.7521 H   0  0  0  0  0  0  0  0  0  0  0  0  # atno 10765 bound_to 10752
  140.0667  134.5527  155.9091 H   0  0  0  0  0  0  0  0  0  0  0  0  # atno 11005 bound_to 11000
  144.9524  139.4068  143.6396 LP  0  0  0  0  0  0  0  0  0  0  0  0  # atno 17320 bound_to 7965
  146.3309  139.8538  142.8868 LP  0  0  0  0  0  0  0  0  0  0  0  0  # atno 17321 bound_to 7965
  140.6241  143.9202  150.6550 LP  0  0  0  0  0  0  0  0  0  0  0  0  # atno 17342 bound_to 10162
  140.2485  143.3611  152.1426 LP  0  0  0  0  0  0  0  0  0  0  0  0  # atno 17343 bound_to 10162
  157.7449  130.9947  150.2718 LP  0  0  0  0  0  0  0  0  0  0  0  0  # atno 17370 bound_to 10713
  156.3233  130.3789  149.7555 LP  0  0  0  0  0  0  0  0  0  0  0  0  # atno 17371 bound_to 10713
  141.1995  133.6607  156.5849 LP  0  0  0  0  0  0  0  0  0  0  0  0  # atno 17394 bound_to 11000
  140.3688  134.7623  157.4585 LP  0  0  0  0  0  0  0  0  0  0  0  0  # atno 17395 bound_to 11000

$$$$
