#       Name:                AV-unprocessed.smi:375
#       Creating user name   scv26
#       Creation time:       Thu Mar 26 22:39:21 2020


#       File generated by GOLD software.
#

@<TRIPOS>MOLECULE
AV-unprocessed.smi:375
    40    42     1
SMALL
NO_CHARGES


@<TRIPOS>ATOM
      1 ****        -2.2294   3.8346   1.7189 C.3            1 S1                 0.0000
      2 ****        -1.7289   2.6477   1.0362 N.am           1 S1                 0.0000
      3 ****        -1.3433   1.4807   1.6040 C.2            1 S1                 0.0000
      4 ****        -1.3495   1.2243   2.8079 O.2            1 S1                 0.0000
      5 ****        -0.9476   0.6448   0.6150 N.am           1 S1                 0.0000
      6 ****        -0.4371  -0.7153   0.7757 C.3            1 S1                 0.0000
      7 ****         1.1028  -0.7604   0.7237 C.3            1 S1                 0.0000
      8 ****         1.6107  -0.3051   1.9630 O.3            1 S1                 0.0000
      9 ****         1.5908  -2.1670   0.4004 C.ar           1 S1                 0.0000
     10 ****         1.6193  -3.1624   1.4034 C.ar           1 S1                 0.0000
     11 ****         2.0595  -4.4657   1.1024 C.ar           1 S1                 0.0000
     12 ****         2.4704  -4.7854  -0.2053 C.ar           1 S1                 0.0000
     13 ****         2.4368  -3.8019  -1.2117 C.ar           1 S1                 0.0000
     14 ****         1.9967  -2.4974  -0.9131 C.ar           1 S1                 0.0000
     15 ****         1.9627  -1.5675  -1.8980 F              1 S1                 0.0000
     16 ****        -1.0766   1.2988  -0.6187 C.ar           1 S1                 0.0000
     17 ****        -0.7917   0.8725  -1.9276 C.ar           1 S1                 0.0000
     18 ****        -1.0363   1.7925  -2.9742 C.ar           1 S1                 0.0000
     19 ****        -1.5482   3.0875  -2.6995 C.ar           1 S1                 0.0000
     20 ****        -1.8243   3.4912  -1.3720 C.ar           1 S1                 0.0000
     21 ****        -1.5707   2.5581  -0.3524 C.ar           1 S1                 0.0000
     22 ****        -2.2113   3.7228   2.8037 H              1 S1                 0.0000
     23 ****        -3.2573   4.0362   1.4167 H              1 S1                 0.0000
     24 ****        -1.6208   4.7020   1.4619 H              1 S1                 0.0000
     25 ****        -0.8147  -1.1788   1.6890 H              1 S1                 0.0000
     26 ****        -0.8456  -1.3068  -0.0446 H              1 S1                 0.0000
     27 ****         1.4689  -0.0777  -0.0439 H              1 S1                 0.0000
     28 ****         2.5525  -0.2567   1.9013 H              1 S1                 0.0000
     29 ****         1.2995  -2.9312   2.4090 H              1 S1                 0.0000
     30 ****         2.0800  -5.2206   1.8747 H              1 S1                 0.0000
     31 ****         2.8073  -5.7850  -0.4371 H              1 S1                 0.0000
     32 ****         2.7469  -4.0488  -2.2164 H              1 S1                 0.0000
     33 ****        -0.4015  -0.1138  -2.1302 H              1 S1                 0.0000
     34 ****        -0.8306   1.5054  -3.9949 H              1 S1                 0.0000
     35 ****        -1.7280   3.7742  -3.5137 H              1 S1                 0.0000
     36 ****        -2.2122   4.4752  -1.1539 H              1 S1                 0.0000
     37 ****        -1.6602   1.9120   3.4640 LP             1 S1                 0.0000
     38 ****        -1.0438   0.3282   3.1299 LP             1 S1                 0.0000
     39 ****         1.3525  -0.9432   2.6884 LP             1 S1                 0.0000
     40 ****         1.2391   0.6004   2.1678 LP             1 S1                 0.0000
@<TRIPOS>BOND
    1    1    2 1     
    2    1   22 1     
    3    1   23 1     
    4    1   24 1     
    5    2   21 1     
    6    2    3 am    
    7    3    4 2     
    8    3    5 am    
    9    5    6 1     
   10    5   16 1     
   11    6    7 1     
   12    6   25 1     
   13    6   26 1     
   14    7    8 1     
   15    7    9 1     
   16    7   27 1     
   17    8   28 1     
   18    9   14 ar    
   19    9   10 ar    
   20   10   11 ar    
   21   10   29 1     
   22   11   12 ar    
   23   11   30 1     
   24   12   13 ar    
   25   12   31 1     
   26   13   14 ar    
   27   13   32 1     
   28   14   15 1     
   29   16   21 ar    
   30   16   17 ar    
   31   17   18 ar    
   32   17   33 1     
   33   18   19 ar    
   34   18   34 1     
   35   19   20 ar    
   36   19   35 1     
   37   20   21 ar    
   38   20   36 1     
   39    4   37 1     
   40    4   38 1     
   41    8   39 1     
   42    8   40 1     
@<TRIPOS>SUBSTRUCTURE
      1 S1             1
@<TRIPOS>SET
LONE_PAIRS      STATIC     ATOMS    <user>   **** ""
4 37 38 39 40
DONOR_HYDROGENS      STATIC     ATOMS    <user>   **** ""
1 28
ATOM$BLUE        STATIC     ATOMS    COLORGROUP SYSTEM
4 37 38 39 40
ATOM$RED        STATIC     ATOMS    COLORGROUP SYSTEM
1 28
