#       Name:                AV-unprocessed.smi:767
#       Creating user name   scv26
#       Creation time:       Fri Mar 27 01:07:03 2020


#       File generated by GOLD software.
#

@<TRIPOS>MOLECULE
AV-unprocessed.smi:767
    52    54     1
SMALL
NO_CHARGES


@<TRIPOS>ATOM
      1 ****        -2.0840   3.6624  -2.8912 C.3            1 S1                 0.0000
      2 ****        -2.4825   2.9417  -1.6204 C.ar           1 S1                 0.0000
      3 ****        -1.8737   3.2608  -0.3885 C.ar           1 S1                 0.0000
      4 ****        -2.2792   2.5575   0.7618 C.ar           1 S1                 0.0000
      5 ****        -3.2720   1.5638   0.6369 C.ar           1 S1                 0.0000
      6 ****        -3.7212   0.7505   1.8385 C.3            1 S1                 0.0000
      7 ****        -3.1361  -0.6748   1.8721 C.3            1 S1                 0.0000
      8 ****        -1.6751  -0.6739   1.8676 N.am           1 S1                 0.0000
      9 ****        -0.9025  -0.8339   0.7834 C.2            1 S1                 0.0000
     10 ****        -1.3344  -1.0349  -0.3518 O.2            1 S1                 0.0000
     11 ****         0.3993  -0.7335   1.0806 N.am           1 S1                 0.0000
     12 ****         1.4716  -0.8090   0.0942 C.3            1 S1                 0.0000
     13 ****         2.8584  -0.5707   0.7111 C.3            1 S1                 0.0000
     14 ****         3.6506   0.6479   0.3234 C.3            1 S1                 0.0000
     15 ****         4.5484   0.1276  -0.8029 C.3            1 S1                 0.0000
     16 ****         3.8870  -1.0404  -1.2841 O.3            1 S1                 0.0000
     17 ****         3.3436  -1.7224  -0.1563 C.3            1 S1                 0.0000
     18 ****         1.8986  -2.2472  -0.2948 C.3            1 S1                 0.0000
     19 ****         1.5441  -3.3812   0.6780 C.3            1 S1                 0.0000
     20 ****         1.4868  -2.7189  -1.6902 C.3            1 S1                 0.0000
     21 ****        -3.8207   1.3257  -0.6409 C.ar           1 S1                 0.0000
     22 ****        -3.4406   1.9976  -1.7488 N.ar           1 S1                 0.0000
     23 ****        -1.1348   4.1840  -2.7652 H              1 S1                 0.0000
     24 ****        -2.8440   4.3952  -3.1628 H              1 S1                 0.0000
     25 ****        -1.9741   2.9573  -3.7160 H              1 S1                 0.0000
     26 ****        -1.1116   4.0234  -0.3246 H              1 S1                 0.0000
     27 ****        -1.8261   2.7704   1.7187 H              1 S1                 0.0000
     28 ****        -3.4460   1.2813   2.7509 H              1 S1                 0.0000
     29 ****        -4.8105   0.6981   1.8359 H              1 S1                 0.0000
     30 ****        -3.4712  -1.1847   2.7754 H              1 S1                 0.0000
     31 ****        -3.5220  -1.2591   1.0349 H              1 S1                 0.0000
     32 ****        -1.2197  -0.5132   2.7539 H              1 S1                 0.0000
     33 ****         0.6652  -0.5670   2.0400 H              1 S1                 0.0000
     34 ****         1.3060  -0.1762  -0.7811 H              1 S1                 0.0000
     35 ****         2.8974  -0.8231   1.7725 H              1 S1                 0.0000
     36 ****         2.9942   1.4407  -0.0368 H              1 S1                 0.0000
     37 ****         4.2371   1.0478   1.1510 H              1 S1                 0.0000
     38 ****         4.6949   0.8608  -1.5962 H              1 S1                 0.0000
     39 ****         5.5271  -0.1556  -0.4129 H              1 S1                 0.0000
     40 ****         4.0539  -2.3862   0.3392 H              1 S1                 0.0000
     41 ****         2.0759  -4.2996   0.4283 H              1 S1                 0.0000
     42 ****         0.4775  -3.6081   0.6622 H              1 S1                 0.0000
     43 ****         1.8075  -3.1304   1.7059 H              1 S1                 0.0000
     44 ****         2.0389  -3.6097  -1.9903 H              1 S1                 0.0000
     45 ****         1.6727  -1.9544  -2.4447 H              1 S1                 0.0000
     46 ****         0.4235  -2.9566  -1.7337 H              1 S1                 0.0000
     47 ****        -4.5785   0.5688  -0.7804 H              1 S1                 0.0000
     48 ****        -2.3205  -1.0878  -0.5096 LP             1 S1                 0.0000
     49 ****        -0.6992  -1.1452  -1.1162 LP             1 S1                 0.0000
     50 ****         4.5398  -1.6312  -1.7581 LP             1 S1                 0.0000
     51 ****         3.1534  -0.7824  -1.9129 LP             1 S1                 0.0000
     52 ****        -3.8556   1.8024  -2.6375 LP             1 S1                 0.0000
@<TRIPOS>BOND
    1    1    2 1     
    2    1   23 1     
    3    1   24 1     
    4    1   25 1     
    5    2   22 ar    
    6    2    3 ar    
    7    3    4 ar    
    8    3   26 1     
    9    4    5 ar    
   10    4   27 1     
   11    5    6 1     
   12    5   21 ar    
   13    6    7 1     
   14    6   28 1     
   15    6   29 1     
   16    7    8 1     
   17    7   30 1     
   18    7   31 1     
   19    8    9 am    
   20    8   32 1     
   21    9   10 2     
   22    9   11 am    
   23   11   12 1     
   24   11   33 1     
   25   12   18 1     
   26   12   13 1     
   27   12   34 1     
   28   13   17 1     
   29   13   14 1     
   30   13   35 1     
   31   14   15 1     
   32   14   36 1     
   33   14   37 1     
   34   15   16 1     
   35   15   38 1     
   36   15   39 1     
   37   16   17 1     
   38   17   18 1     
   39   17   40 1     
   40   18   19 1     
   41   18   20 1     
   42   19   41 1     
   43   19   42 1     
   44   19   43 1     
   45   20   44 1     
   46   20   45 1     
   47   20   46 1     
   48   21   22 ar    
   49   21   47 1     
   50   10   48 1     
   51   10   49 1     
   52   16   50 1     
   53   16   51 1     
   54   22   52 1     
@<TRIPOS>SUBSTRUCTURE
      1 S1             1
@<TRIPOS>SET
LONE_PAIRS      STATIC     ATOMS    <user>   **** ""
5 48 49 50 51 52
DONOR_HYDROGENS      STATIC     ATOMS    <user>   **** ""
2 32 33
ATOM$BLUE        STATIC     ATOMS    COLORGROUP SYSTEM
5 48 49 50 51 52
ATOM$RED        STATIC     ATOMS    COLORGROUP SYSTEM
2 32 33
