AV-unprocessed.smi:1207|AV-procd|sdf|5056|dock9
  -GOLD-   22720 4 93D 1   1.00000     0.00000
 Structure written by MMmdl.
 52 54  0  0  0  0  0  0  0  0  2 V2000
  152.2611  144.0731  161.8162 C   0  0  0  0  0  0  0  0  0  0  0  0
  152.1159  143.1649  160.6067 C   0  0  0  0  0  0  0  0  0  0  0  0
  151.3167  143.6032  159.5264 C   0  0  0  0  0  0  0  0  0  0  0  0
  151.1982  142.7477  158.4374 C   0  0  0  0  0  0  0  0  0  0  0  0
  150.4928  142.8817  157.2393 N   0  3  0  0  0  0  0  0  0  0  0  0
  150.6793  141.7696  156.4754 C   0  0  0  0  0  0  0  0  0  0  0  0
  151.4949  140.9294  157.1681 N   0  0  0  0  0  0  0  0  0  0  0  0
  152.0059  139.6000  156.8100 C   0  0  0  0  0  0  0  0  0  0  0  0
  151.9103  139.3112  155.2996 C   0  0  1  0  0  0  0  0  0  0  0  0
  153.1854  139.4923  154.7152 O   0  0  0  0  0  0  0  0  0  0  0  0
  151.4467  137.8660  155.0289 C   0  0  0  0  0  0  0  0  0  0  0  0
  150.8523  137.1669  156.1713 N   0  0  0  0  0  0  0  0  0  0  0  0
  150.7907  135.7214  155.9506 C   0  0  0  0  0  0  0  0  0  0  0  0
  149.5246  137.7075  156.4667 C   0  0  0  0  0  0  0  0  0  0  0  0
  149.1228  137.5276  157.9086 C   0  0  0  0  0  0  0  0  0  0  0  0
  149.9683  137.4124  159.0488 C   0  0  0  0  0  0  0  0  0  0  0  0
  151.4686  137.4436  159.1042 C   0  0  0  0  0  0  0  0  0  0  0  0
  149.2748  137.2658  160.1655 N   0  0  0  0  0  0  0  0  0  0  0  0
  147.9291  137.2832  159.7857 O   0  0  0  0  0  0  0  0  0  0  0  0
  147.8651  137.4395  158.4390 C   0  0  0  0  0  0  0  0  0  0  0  0
  146.5028  137.4878  157.8347 C   0  0  0  0  0  0  0  0  0  0  0  0
  151.8439  141.4969  158.3973 C   0  0  0  0  0  0  0  0  0  0  0  0
  152.6374  141.0506  159.4509 C   0  0  0  0  0  0  0  0  0  0  0  0
  152.7678  141.9050  160.5691 C   0  0  0  0  0  0  0  0  0  0  0  0
  153.6233  141.4434  161.7364 C   0  0  0  0  0  0  0  0  0  0  0  0
  151.7267  145.0131  161.6761 H   0  0  0  0  0  0  0  0  0  0  0  0
  153.3098  144.3109  161.9958 H   0  0  0  0  0  0  0  0  0  0  0  0
  151.8576  143.5899  162.7064 H   0  0  0  0  0  0  0  0  0  0  0  0
  150.8173  144.5607  159.5480 H   0  0  0  0  0  0  0  0  0  0  0  0
  150.2541  141.5849  155.4993 H   0  0  0  0  0  0  0  0  0  0  0  0
  153.0437  139.5472  157.1427 H   0  0  0  0  0  0  0  0  0  0  0  0
  151.4577  138.8542  157.3868 H   0  0  0  0  0  0  0  0  0  0  0  0
  151.2236  140.0286  154.8538 H   0  0  0  0  0  0  0  0  0  0  0  0
  153.1047  140.1285  154.0205 H   0  0  0  0  0  0  0  0  0  0  0  0
  150.7273  137.8991  154.2091 H   0  0  0  0  0  0  0  0  0  0  0  0
  152.2896  137.2823  154.6559 H   0  0  0  0  0  0  0  0  0  0  0  0
  150.3416  135.2098  156.8020 H   0  0  0  0  0  0  0  0  0  0  0  0
  151.7830  135.2920  155.8231 H   0  0  0  0  0  0  0  0  0  0  0  0
  150.1988  135.4830  155.0662 H   0  0  0  0  0  0  0  0  0  0  0  0
  149.5125  138.7727  156.2319 H   0  0  0  0  0  0  0  0  0  0  0  0
  148.7906  137.2580  155.7968 H   0  0  0  0  0  0  0  0  0  0  0  0
  151.8631  138.2694  158.5120 H   0  0  0  0  0  0  0  0  0  0  0  0
  151.8913  136.5196  158.7094 H   0  0  0  0  0  0  0  0  0  0  0  0
  151.8334  137.5670  160.1249 H   0  0  0  0  0  0  0  0  0  0  0  0
  146.5347  137.2146  156.7798 H   0  0  0  0  0  0  0  0  0  0  0  0
  146.0848  138.4915  157.9110 H   0  0  0  0  0  0  0  0  0  0  0  0
  145.8268  136.7985  158.3407 H   0  0  0  0  0  0  0  0  0  0  0  0
  153.1324  140.0911  159.4211 H   0  0  0  0  0  0  0  0  0  0  0  0
  154.0402  140.4516  161.5585 H   0  0  0  0  0  0  0  0  0  0  0  0
  153.0311  141.3963  162.6507 H   0  0  0  0  0  0  0  0  0  0  0  0
  154.4546  142.1303  161.8960 H   0  0  0  0  0  0  0  0  0  0  0  0
  149.9237  143.6709  156.9614 H   0  0  0  0  0  0  0  0  0  0  0  0
  1  2  1  0  0  0  0
  1 26  1  0  0  0  0
  1 27  1  0  0  0  0
  1 28  1  0  0  0  0
  2 24  1  0  0  0  0
  2  3  2  0  0  0  0
  3  4  1  0  0  0  0
  3 29  1  0  0  0  0
  4 22  2  0  0  0  0
  4  5  1  0  0  0  0
  5  6  2  0  0  0  0
  5 52  1  0  0  0  0
  6  7  1  0  0  0  0
  6 30  1  0  0  0  0
  7  8  1  0  0  0  0
  7 22  1  0  0  0  0
  8  9  1  0  0  0  0
  8 31  1  0  0  0  0
  8 32  1  0  0  0  0
  9 10  1  0  0  0  0
  9 11  1  0  0  0  0
  9 33  1  0  0  0  0
 10 34  1  0  0  0  0
 11 12  1  0  0  0  0
 11 35  1  0  0  0  0
 11 36  1  0  0  0  0
 12 13  1  0  0  0  0
 12 14  1  0  0  0  0
 13 37  1  0  0  0  0
 13 38  1  0  0  0  0
 13 39  1  0  0  0  0
 14 15  1  0  0  0  0
 14 40  1  0  0  0  0
 14 41  1  0  0  0  0
 15 20  2  0  0  0  0
 15 16  1  0  0  0  0
 16 17  1  0  0  0  0
 16 18  2  0  0  0  0
 17 42  1  0  0  0  0
 17 43  1  0  0  0  0
 17 44  1  0  0  0  0
 18 19  1  0  0  0  0
 19 20  1  0  0  0  0
 20 21  1  0  0  0  0
 21 45  1  0  0  0  0
 21 46  1  0  0  0  0
 21 47  1  0  0  0  0
 22 23  1  0  0  0  0
 23 24  2  0  0  0  0
 23 48  1  0  0  0  0
 24 25  1  0  0  0  0
 25 49  1  0  0  0  0
 25 50  1  0  0  0  0
 25 51  1  0  0  0  0
M  CHG  1   5   1
M  END
> <s_m_source_file>
AV-unprocessed.smi

> <i_m_source_file_index>
1207

> <i_lp_mmshare_version>
43012

> <i_f3d_flags>
0

> <s_epik_input>
W0NIM11jKFtjSF0xKWMoW0NIM10pW2NIXWMoYzEyKW4oW2NIXW4yKVtDSDJdW0NASF0oW09IXSlbQ0gyXU4oW0NIM10pW0NIMl1jM2MoW0NIM10pbm9jM1tDSDNd

> <s_epik_cmdline>
J2VwaWtfcHl0aG9uJywgJy1waCcsICc3LjAnLCAnLXRuJywgJzgnLCAnLW1hJywgJzIwMCcsICctbWV0YWxfYmluZGluZycsICctaW1hZScsICc8aW5maWxlLm1hZT4nLCAnLW9tYWUnLCAnPG91dGZpbGUubWFlPic=

> <r_epik_Ionization_Penalty>
1.48114

> <r_epik_Ionization_Penalty_Charging>
1.21121

> <r_epik_Ionization_Penalty_Neutral>
0.269933

> <r_epik_State_Penalty>
1.53013

> <r_epik_Charging_Adjusted_Penalty>
2.74134

> <i_epik_Tot_Q>
1

> <i_epik_Tot_abs_Q>
1

> <r_epik_Metal_State_Penalty>
1.60462

> <b_epik_Metal_Only>
0

> <s_lp_Force_Field>
OPLS_2005

> <r_lp_Energy>
20.0432

> <b_lp_Chiralities_Consistent>
1

> <s_lp_Variant>
AV-unprocessed.smi:1207-8

> <Gold.Version>
5.8.1

> <Gold.Id.Protein>
6NUR|6NUR_protein|mol2

> <Gold.PLP.Fitness>
56.1123

> <Gold.PLP.PLP>
-48.3272

> <Gold.PLP.part.hbond>
-5.8168

> <Gold.PLP.part.metal>
0.0000

> <Gold.PLP.part.buried>
-6.4994

> <Gold.PLP.part.nonpolar>
-36.3539

> <Gold.PLP.part.repulsive>
0.0301

> <Gold.PLP.ligand.clash>
0.0000

> <Gold.PLP.ligand.torsion>
2.1854

> <Gold.PLP.Chemscore.Hbond>
4.0023

> <Gold.PLP.Chemscore.CHOScore>
0.0000

> <Gold.PLP.Chemscore.Metal>
0.0000

> <Gold.Chemscore.Hbonds>
donor molecule, donor type, donor heavy atom, donor atom, acceptor molecule, acceptor atom, score
      L1  H     5    52       P1  8028  2.00
      P1  H  6931  6943       L1    18  0.37
      P1  H  6934  6947       L1    19  0.41
      P1  H  7997  8009       L1    10  1.00

> <Gold.PLP.Chemscore.Internal.Correction>
0.1491

> <Gold.Rescore>
     Score         DG    S(hbond)    S(metal)    S(lipo)     H(rot)  DE(clash)    DE(int)     intcor
     17.59     -20.77       2.27        0.00     119.53       2.46       0.06       3.13       ----

> <Gold.Chemscore.Fitness>
17.5861

> <Gold.Chemscore.DG>
-20.7731

> <Gold.Chemscore.ZeroCoef>
-5.4800

> <Gold.Chemscore.Hbond>
2.2735

> <Gold.Chemscore.Metal>
0.0000

> <Gold.Chemscore.Lipo>
119.5347

> <Gold.Chemscore.Internal_Hbond>
0.0000

> <Gold.Chemscore.DEClash>
0.0580

> <Gold.Chemscore.DEInternal>
3.1290

> <Gold.Chemscore.Rot>
2.4555

> <Gold.Chemscore.Internal.Correction>
   9.000000E+99

> <Gold.Chemscore.Hbonds>
donor molecule, donor type, donor heavy atom, donor atom, acceptor molecule, acceptor atom, score
      L1  H     5    52       P1  8028  0.95
      P1  H  6931  6943       L1    18  0.07
      P1  H  6934  6947       L1    19  0.10
      P1  H  7997  8009       L1    10  0.47

> <Gold.Chemscore.Hbond.Weighted>
-7.5936

> <Gold.Chemscore.Metal.Weighted>
-0.0000

> <Gold.Chemscore.Lipo.Weighted>
-13.9856

> <Gold.Chemscore.Internal_Hbond.Weighted>
0.0000

> <Gold.Chemscore.DEClash.Weighted>
0.0580

> <Gold.Chemscore.DEInternal.Weighted>
3.1290

> <Gold.Chemscore.Rot.Weighted>
6.2861

> <Gold.Chemscore.Internal.Correction.Weighted>
   9.000000E+99

> <Gold.Protein.RotatedTorsions>
[ 6907 6896 6895 6894 ] final   50.19 input  -60.11 | X-H torsion
[ 7974 7965 7964 7962 ] final   71.84 input  175.53 | X-H torsion
[ 8008 7997 7996 7995 ] final -138.06 input   59.86 | X-H torsion
[ 10167 10162 10161 10158 ] final  156.05 input  -65.29 | X-H torsion
[ 10718 10713 10712 10709 ] final   69.68 input   66.30 | X-H torsion
[ 10763 10752 10751 10750 ] final  150.19 input  -60.55 | X-H torsion
[ 11005 11000 10999 10996 ] final -103.27 input  -57.11 | X-H torsion

> <Gold.Protein.ActiveResidues>
 VAL166  LYS551  ARG553  GLY616  TRP617  ASP618  TYR619  PRO620  LYS621  CYS622 
 ASP623  PHE694  ASN695  SER759  ASP760  ASP761  ALA762  ILE779  LEU786  VAL792 
 PHE793  MET794  SER795  GLU796  ALA797  LYS798  CYS799  TRP800  GLU811  SER814 

> <Gold.Protein.RotatedAtoms>
  152.2991  134.7632  160.0361 H   0  0  0  0  0  0  0  0  0  0  0  0  # atno 6907 bound_to 6896
  151.8151  133.3382  159.3575 H   0  0  0  0  0  0  0  0  0  0  0  0  # atno 6908 bound_to 6896
  150.7265  134.5556  159.5861 H   0  0  0  0  0  0  0  0  0  0  0  0  # atno 6909 bound_to 6896
  145.7608  139.2800  143.1377 H   0  0  0  0  0  0  0  0  0  0  0  0  # atno 7974 bound_to 7965
  155.4221  140.0519  157.3025 H   0  0  0  0  0  0  0  0  0  0  0  0  # atno 8008 bound_to 7997
  154.4898  140.2115  155.9533 H   0  0  0  0  0  0  0  0  0  0  0  0  # atno 8009 bound_to 7997
  156.1326  140.3169  155.8377 H   0  0  0  0  0  0  0  0  0  0  0  0  # atno 8010 bound_to 7997
  139.4821  144.5043  151.8121 H   0  0  0  0  0  0  0  0  0  0  0  0  # atno 10167 bound_to 10162
  157.6359  130.9438  150.0547 H   0  0  0  0  0  0  0  0  0  0  0  0  # atno 10718 bound_to 10713
  154.0835  135.2857  155.3286 H   0  0  0  0  0  0  0  0  0  0  0  0  # atno 10763 bound_to 10752
  154.6668  135.5314  153.8091 H   0  0  0  0  0  0  0  0  0  0  0  0  # atno 10764 bound_to 10752
  153.0440  135.6547  154.1008 H   0  0  0  0  0  0  0  0  0  0  0  0  # atno 10765 bound_to 10752
  141.1153  133.8627  157.1465 H   0  0  0  0  0  0  0  0  0  0  0  0  # atno 11005 bound_to 11000
  146.0266  140.8298  142.9897 LP  0  0  0  0  0  0  0  0  0  0  0  0  # atno 17320 bound_to 7965
  144.6831  140.2707  143.7306 LP  0  0  0  0  0  0  0  0  0  0  0  0  # atno 17321 bound_to 7965
  140.4540  144.1816  150.5900 LP  0  0  0  0  0  0  0  0  0  0  0  0  # atno 17342 bound_to 10162
  140.4555  143.2469  151.9290 LP  0  0  0  0  0  0  0  0  0  0  0  0  # atno 17343 bound_to 10162
  156.1598  130.3643  149.9315 LP  0  0  0  0  0  0  0  0  0  0  0  0  # atno 17370 bound_to 10713
  156.7316  130.9045  151.3626 LP  0  0  0  0  0  0  0  0  0  0  0  0  # atno 17371 bound_to 10713
  140.0071  135.0004  157.0316 LP  0  0  0  0  0  0  0  0  0  0  0  0  # atno 17394 bound_to 11000
  140.4663  134.1432  155.7197 LP  0  0  0  0  0  0  0  0  0  0  0  0  # atno 17395 bound_to 11000

$$$$
