AV-unprocessed.smi:881|AV-procd|sdf|4036|dock6
  -GOLD-   22720 1533D 1   1.00000     0.00000
 Structure written by MMmdl.
 31 32  0  0  0  0  0  0  0  0  2 V2000
  150.6870  141.1487  157.9356 O   0  0  0  0  0  0  0  0  0  0  0  0
  151.8696  140.8792  158.1581 C   0  0  0  0  0  0  0  0  0  0  0  0
  152.6053  139.9298  157.5355 N   0  5  0  0  0  0  0  0  0  0  0  0
  152.0001  139.0011  156.7769 C   0  0  0  0  0  0  0  0  0  0  0  0
  152.4743  137.7505  156.6578 N   0  0  0  0  0  0  0  0  0  0  0  0
  151.6988  136.9488  155.8312 N   0  0  0  0  0  0  0  0  0  0  0  0
  150.6490  137.6163  155.3529 C   0  0  0  0  0  0  0  0  0  0  0  0
  150.5105  139.2830  155.8709 S   0  0  0  0  0  0  0  0  0  0  0  0
  152.5482  141.5573  159.0957 N   0  0  0  0  0  0  0  0  0  0  0  0
  152.0272  142.6335  159.9374 C   0  0  0  0  0  0  0  0  0  0  0  0
  151.5657  143.8023  159.0420 C   0  0  0  0  0  0  0  0  0  0  0  0
  151.0328  145.0349  159.7928 C   0  0  0  0  0  0  0  0  0  0  0  0
  152.1508  145.8628  160.4464 C   0  0  0  0  0  0  0  0  0  0  0  0
  152.5721  145.4076  161.8546 C   0  0  0  0  0  0  0  0  0  0  0  0
  152.5690  143.8913  162.1166 C   0  0  0  0  0  0  0  0  0  0  0  0
  153.1069  143.0177  160.9707 C   0  0  0  0  0  0  0  0  0  0  0  0
  149.9503  137.1234  154.6936 H   0  0  0  0  0  0  0  0  0  0  0  0
  153.5137  141.3004  159.2377 H   0  0  0  0  0  0  0  0  0  0  0  0
  151.1636  142.2515  160.4852 H   0  0  0  0  0  0  0  0  0  0  0  0
  152.3771  144.1033  158.3776 H   0  0  0  0  0  0  0  0  0  0  0  0
  150.7726  143.4412  158.3860 H   0  0  0  0  0  0  0  0  0  0  0  0
  150.5292  145.6703  159.0637 H   0  0  0  0  0  0  0  0  0  0  0  0
  150.2698  144.7556  160.5203 H   0  0  0  0  0  0  0  0  0  0  0  0
  153.0223  145.8733  159.7908 H   0  0  0  0  0  0  0  0  0  0  0  0
  151.8308  146.9031  160.5120 H   0  0  0  0  0  0  0  0  0  0  0  0
  153.5679  145.8042  162.0558 H   0  0  0  0  0  0  0  0  0  0  0  0
  151.9177  145.8769  162.5902 H   0  0  0  0  0  0  0  0  0  0  0  0
  153.1674  143.7076  163.0098 H   0  0  0  0  0  0  0  0  0  0  0  0
  151.5612  143.5665  162.3783 H   0  0  0  0  0  0  0  0  0  0  0  0
  153.4895  142.0978  161.4158 H   0  0  0  0  0  0  0  0  0  0  0  0
  153.9628  143.4923  160.4888 H   0  0  0  0  0  0  0  0  0  0  0  0
  1  2  2  0  0  0  0
  2  3  1  0  0  0  0
  2  9  1  0  0  0  0
  3  4  1  0  0  0  0
  4  8  1  0  0  0  0
  4  5  2  0  0  0  0
  5  6  1  0  0  0  0
  6  7  2  0  0  0  0
  7  8  1  0  0  0  0
  7 17  1  0  0  0  0
  9 10  1  0  0  0  0
  9 18  1  0  0  0  0
 10 16  1  0  0  0  0
 10 11  1  0  0  0  0
 10 19  1  0  0  0  0
 11 12  1  0  0  0  0
 11 20  1  0  0  0  0
 11 21  1  0  0  0  0
 12 13  1  0  0  0  0
 12 22  1  0  0  0  0
 12 23  1  0  0  0  0
 13 14  1  0  0  0  0
 13 24  1  0  0  0  0
 13 25  1  0  0  0  0
 14 15  1  0  0  0  0
 14 26  1  0  0  0  0
 14 27  1  0  0  0  0
 15 16  1  0  0  0  0
 15 28  1  0  0  0  0
 15 29  1  0  0  0  0
 16 30  1  0  0  0  0
 16 31  1  0  0  0  0
M  CHG  1   3  -1
M  END
> <s_m_source_file>
AV-unprocessed.smi

> <i_m_source_file_index>
881

> <i_lp_mmshare_version>
43012

> <i_f3d_flags>
0

> <s_epik_input>
czFbY0hdbm5jMVtOSF1DKD1PKVtOSF1bQ0hdMltDSDJdW0NIMl1bQ0gyXVtDSDJdW0NIMl1bQ0gyXTI=

> <s_epik_cmdline>
J2VwaWtfcHl0aG9uJywgJy1waCcsICc3LjAnLCAnLXRuJywgJzgnLCAnLW1hJywgJzIwMCcsICctbWV0YWxfYmluZGluZycsICctaW1hZScsICc8aW5maWxlLm1hZT4nLCAnLW9tYWUnLCAnPG91dGZpbGUubWFlPic=

> <r_lp_tautomer_probability>
1

> <r_epik_Ionization_Penalty>
4.55263

> <r_epik_Ionization_Penalty_Charging>
4.50588

> <r_epik_Ionization_Penalty_Neutral>
0.0467569

> <r_epik_State_Penalty>
4.50558

> <r_epik_Charging_Adjusted_Penalty>
9.01146

> <i_epik_Tot_Q>
-1

> <i_epik_Tot_abs_Q>
1

> <r_epik_Metal_State_Penalty>
0.822218

> <b_epik_Metal_Only>
1

> <s_lp_Force_Field>
OPLS_2005

> <r_lp_Energy>
12.3928

> <b_lp_Chiralities_Consistent>
1

> <s_lp_Variant>
AV-unprocessed.smi:881-2

> <Gold.Version>
5.8.1

> <Gold.Id.Protein>
6NUR|6NUR_protein|mol2

> <Gold.PLP.Fitness>
46.6368

> <Gold.PLP.PLP>
-35.3054

> <Gold.PLP.part.hbond>
-2.6618

> <Gold.PLP.part.metal>
0.0000

> <Gold.PLP.part.buried>
-1.1291

> <Gold.PLP.part.nonpolar>
-30.5855

> <Gold.PLP.part.repulsive>
0.2783

> <Gold.PLP.ligand.clash>
0.0000

> <Gold.PLP.ligand.torsion>
0.2651

> <Gold.PLP.Chemscore.Hbond>
2.9440

> <Gold.PLP.Chemscore.CHOScore>
1.0053

> <Gold.PLP.Chemscore.Metal>
0.0000

> <Gold.Chemscore.Hbonds>
donor molecule, donor type, donor heavy atom, donor atom, acceptor molecule, acceptor atom, score
      P1  H  7997  8008       L1     3  2.00

> <Gold.PLP.Chemscore.Internal.Correction>
0.0138

> <Gold.Rescore>
     Score         DG    S(hbond)    S(metal)    S(lipo)     H(rot)  DE(clash)    DE(int)     intcor
     15.52     -17.95       1.60        0.00      82.81       1.00       0.75       1.69       ----

> <Gold.Chemscore.Fitness>
15.5182

> <Gold.Chemscore.DG>
-17.9529

> <Gold.Chemscore.ZeroCoef>
-5.4800

> <Gold.Chemscore.Hbond>
1.6000

> <Gold.Chemscore.Metal>
0.0000

> <Gold.Chemscore.Lipo>
82.8110

> <Gold.Chemscore.Internal_Hbond>
0.0000

> <Gold.Chemscore.DEClash>
0.7467

> <Gold.Chemscore.DEInternal>
1.6880

> <Gold.Chemscore.Rot>
1.0000

> <Gold.Chemscore.Internal.Correction>
   9.000000E+99

> <Gold.Chemscore.Hbonds>
donor molecule, donor type, donor heavy atom, donor atom, acceptor molecule, acceptor atom, score
      P1  H  7997  8008       L1     3  0.23
      P1  H 10752 10764       L1     6  0.03

> <Gold.Chemscore.Hbond.Weighted>
-5.3441

> <Gold.Chemscore.Metal.Weighted>
-0.0000

> <Gold.Chemscore.Lipo.Weighted>
-9.6889

> <Gold.Chemscore.Internal_Hbond.Weighted>
0.0000

> <Gold.Chemscore.DEClash.Weighted>
0.7467

> <Gold.Chemscore.DEInternal.Weighted>
1.6880

> <Gold.Chemscore.Rot.Weighted>
2.5600

> <Gold.Chemscore.Internal.Correction.Weighted>
   9.000000E+99

> <Gold.Protein.RotatedTorsions>
[ 6907 6896 6895 6894 ] final  -27.99 input  -60.11 | X-H torsion
[ 7974 7965 7964 7962 ] final  -22.23 input  175.53 | X-H torsion
[ 8008 7997 7996 7995 ] final  -53.11 input   59.86 | X-H torsion
[ 10167 10162 10161 10158 ] final  154.14 input  -65.29 | X-H torsion
[ 10718 10713 10712 10709 ] final -142.71 input   66.30 | X-H torsion
[ 10763 10752 10751 10750 ] final  -85.30 input  -60.55 | X-H torsion
[ 11005 11000 10999 10996 ] final -124.66 input  -57.11 | X-H torsion

> <Gold.Protein.ActiveResidues>
 VAL166  LYS551  ARG553  GLY616  TRP617  ASP618  TYR619  PRO620  LYS621  CYS622 
 ASP623  PHE694  ASN695  SER759  ASP760  ASP761  ALA762  ILE779  LEU786  VAL792 
 PHE793  MET794  SER795  GLU796  ALA797  LYS798  CYS799  TRP800  GLU811  SER814 

> <Gold.Protein.RotatedAtoms>
  151.1391  135.0170  159.8617 H   0  0  0  0  0  0  0  0  0  0  0  0  # atno 6907 bound_to 6896
  152.5452  134.1520  159.8532 H   0  0  0  0  0  0  0  0  0  0  0  0  # atno 6908 bound_to 6896
  151.1594  133.4810  159.2627 H   0  0  0  0  0  0  0  0  0  0  0  0  # atno 6909 bound_to 6896
  146.1688  140.4450  142.8541 H   0  0  0  0  0  0  0  0  0  0  0  0  # atno 7974 bound_to 7965
  154.4124  140.1208  156.5101 H   0  0  0  0  0  0  0  0  0  0  0  0  # atno 8008 bound_to 7997
  155.6808  140.3496  155.4835 H   0  0  0  0  0  0  0  0  0  0  0  0  # atno 8009 bound_to 7997
  155.9553  140.1112  157.0932 H   0  0  0  0  0  0  0  0  0  0  0  0  # atno 8010 bound_to 7997
  139.4824  144.5212  151.7872 H   0  0  0  0  0  0  0  0  0  0  0  0  # atno 10167 bound_to 10162
  156.3492  130.7679  151.1829 H   0  0  0  0  0  0  0  0  0  0  0  0  # atno 10718 bound_to 10713
  154.6095  135.5490  153.7458 H   0  0  0  0  0  0  0  0  0  0  0  0  # atno 10763 bound_to 10752
  153.0189  135.6386  154.1599 H   0  0  0  0  0  0  0  0  0  0  0  0  # atno 10764 bound_to 10752
  154.1537  135.2901  155.3108 H   0  0  0  0  0  0  0  0  0  0  0  0  # atno 10765 bound_to 10752
  140.9823  134.0656  157.3751 H   0  0  0  0  0  0  0  0  0  0  0  0  # atno 11005 bound_to 11000
  144.8131  140.6421  143.6402 LP  0  0  0  0  0  0  0  0  0  0  0  0  # atno 17320 bound_to 7965
  145.4397  139.1537  143.3977 LP  0  0  0  0  0  0  0  0  0  0  0  0  # atno 17321 bound_to 7965
  140.4727  144.1564  150.5920 LP  0  0  0  0  0  0  0  0  0  0  0  0  # atno 17342 bound_to 10162
  140.4365  143.2545  151.9528 LP  0  0  0  0  0  0  0  0  0  0  0  0  # atno 17343 bound_to 10162
  157.7458  131.0432  150.4733 LP  0  0  0  0  0  0  0  0  0  0  0  0  # atno 17370 bound_to 10713
  156.4926  130.4098  149.6398 LP  0  0  0  0  0  0  0  0  0  0  0  0  # atno 17371 bound_to 10713
  139.8955  135.0141  156.7007 LP  0  0  0  0  0  0  0  0  0  0  0  0  # atno 17394 bound_to 11000
  140.7167  133.9176  155.8120 LP  0  0  0  0  0  0  0  0  0  0  0  0  # atno 17395 bound_to 11000

$$$$
