AV-unprocessed.smi:106|AV-procd|sdf|1012|dock7
  -GOLD-   2262018 13D 1   1.00000     0.00000
 Structure written by MMmdl.
 51 54  0  0  0  0  0  0  0  0  1 V2000
  148.8010  135.3273  156.6281 O   0  0  0  0  0  0  0  0  0  0  0  0
  148.5762  136.1298  157.5366 C   0  0  0  0  0  0  0  0  0  0  0  0
  147.1504  136.2161  158.1250 C   0  0  0  0  0  0  0  0  0  0  0  0
  146.9612  135.3981  159.3440 N   0  0  0  0  0  0  0  0  0  0  0  0
  146.8642  136.0563  160.5951 C   0  0  0  0  0  0  0  0  0  0  0  0
  146.9314  137.2836  160.6778 O   0  0  0  0  0  0  0  0  0  0  0  0
  146.6894  135.1867  161.7528 C   0  0  0  0  0  0  0  0  0  0  0  0
  146.5731  135.7259  162.9781 F   0  0  0  0  0  0  0  0  0  0  0  0
  146.6405  133.8459  161.6142 C   0  0  0  0  0  0  0  0  0  0  0  0
  146.7553  133.2150  160.3884 N   0  0  0  0  0  0  0  0  0  0  0  0
  146.7105  131.7078  160.2513 C   0  0  1  0  0  0  0  0  0  0  0  0
  147.9829  131.1891  159.5553 C   0  0  0  0  0  0  0  0  0  0  0  0
  148.4577  130.0986  160.4949 C   0  0  0  0  0  0  0  0  0  0  0  0
  147.9505  130.5986  161.8392 C   0  0  0  0  0  0  0  0  0  0  0  0
  146.6656  131.1157  161.5186 O   0  0  0  0  0  0  0  0  0  0  0  0
  146.9164  133.9888  159.2186 C   0  0  0  0  0  0  0  0  0  0  0  0
  147.0244  133.4454  158.1169 O   0  0  0  0  0  0  0  0  0  0  0  0
  149.5369  136.9449  158.0366 N   0  0  0  0  0  0  0  0  0  0  0  0
  150.9295  136.9250  157.5612 C   0  0  0  0  0  0  0  0  0  0  0  0
  151.8896  137.7987  158.3978 C   0  0  0  0  0  0  0  0  0  0  0  0
  151.3749  139.1580  158.6360 N   0  0  0  0  0  0  0  0  0  0  0  0
  152.2332  140.1879  158.8495 C   0  0  0  0  0  0  0  0  0  0  0  0
  153.4490  140.0157  158.9558 O   0  0  0  0  0  0  0  0  0  0  0  0
  151.6988  141.5691  158.9520 C   0  0  0  0  0  0  0  0  0  0  0  0
  151.8687  142.5692  159.8792 C   0  0  0  0  0  0  0  0  0  0  0  0
  151.1084  143.7403  159.5897 C   0  0  0  0  0  0  0  0  0  0  0  0
  150.3449  143.6132  158.4602 C   0  0  0  0  0  0  0  0  0  0  0  0
  150.5350  142.0411  157.7343 S   0  0  0  0  0  0  0  0  0  0  0  0
  149.9150  139.2678  158.7881 C   0  0  0  0  0  0  0  0  0  0  0  0
  149.2539  137.9154  159.1011 C   0  0  0  0  0  0  0  0  0  0  0  0
  146.9094  137.2599  158.3312 H   0  0  0  0  0  0  0  0  0  0  0  0
  146.4347  135.9218  157.3565 H   0  0  0  0  0  0  0  0  0  0  0  0
  146.5060  133.2606  162.5107 H   0  0  0  0  0  0  0  0  0  0  0  0
  145.7855  131.4856  159.7164 H   0  0  0  0  0  0  0  0  0  0  0  0
  147.7596  130.8257  158.5520 H   0  0  0  0  0  0  0  0  0  0  0  0
  148.7278  131.9836  159.4873 H   0  0  0  0  0  0  0  0  0  0  0  0
  147.9792  129.1510  160.2437 H   0  0  0  0  0  0  0  0  0  0  0  0
  149.5383  129.9553  160.4723 H   0  0  0  0  0  0  0  0  0  0  0  0
  147.8899  129.8094  162.5887 H   0  0  0  0  0  0  0  0  0  0  0  0
  148.5921  131.3923  162.2244 H   0  0  0  0  0  0  0  0  0  0  0  0
  151.3143  135.9047  157.5546 H   0  0  0  0  0  0  0  0  0  0  0  0
  150.9457  137.2784  156.5291 H   0  0  0  0  0  0  0  0  0  0  0  0
  152.0696  137.3275  159.3653 H   0  0  0  0  0  0  0  0  0  0  0  0
  152.8528  137.8230  157.8851 H   0  0  0  0  0  0  0  0  0  0  0  0
  152.5018  142.5065  160.7513 H   0  0  0  0  0  0  0  0  0  0  0  0
  151.1413  144.6193  160.2163 H   0  0  0  0  0  0  0  0  0  0  0  0
  149.6768  144.3380  158.0189 H   0  0  0  0  0  0  0  0  0  0  0  0
  149.6624  139.9613  159.5916 H   0  0  0  0  0  0  0  0  0  0  0  0
  149.4899  139.6684  157.8675 H   0  0  0  0  0  0  0  0  0  0  0  0
  148.1848  138.0849  159.2363 H   0  0  0  0  0  0  0  0  0  0  0  0
  149.6204  137.5208  160.0500 H   0  0  0  0  0  0  0  0  0  0  0  0
  1  2  2  0  0  0  0
  2  3  1  0  0  0  0
  2 18  1  0  0  0  0
  3  4  1  0  0  0  0
  3 31  1  0  0  0  0
  3 32  1  0  0  0  0
  4 16  1  0  0  0  0
  4  5  1  0  0  0  0
  5  6  2  0  0  0  0
  5  7  1  0  0  0  0
  7  8  1  0  0  0  0
  7  9  2  0  0  0  0
  9 10  1  0  0  0  0
  9 33  1  0  0  0  0
 10 11  1  0  0  0  0
 10 16  1  0  0  0  0
 11 15  1  0  0  0  0
 11 12  1  0  0  0  0
 11 34  1  0  0  0  0
 12 13  1  0  0  0  0
 12 35  1  0  0  0  0
 12 36  1  0  0  0  0
 13 14  1  0  0  0  0
 13 37  1  0  0  0  0
 13 38  1  0  0  0  0
 14 15  1  0  0  0  0
 14 39  1  0  0  0  0
 14 40  1  0  0  0  0
 16 17  2  0  0  0  0
 18 30  1  0  0  0  0
 18 19  1  0  0  0  0
 19 20  1  0  0  0  0
 19 41  1  0  0  0  0
 19 42  1  0  0  0  0
 20 21  1  0  0  0  0
 20 43  1  0  0  0  0
 20 44  1  0  0  0  0
 21 22  1  0  0  0  0
 21 29  1  0  0  0  0
 22 23  2  0  0  0  0
 22 24  1  0  0  0  0
 24 28  1  0  0  0  0
 24 25  2  0  0  0  0
 25 26  1  0  0  0  0
 25 45  1  0  0  0  0
 26 27  2  0  0  0  0
 26 46  1  0  0  0  0
 27 28  1  0  0  0  0
 27 47  1  0  0  0  0
 29 30  1  0  0  0  0
 29 48  1  0  0  0  0
 29 49  1  0  0  0  0
 30 50  1  0  0  0  0
 30 51  1  0  0  0  0
M  END
> <s_m_source_file>
AV-unprocessed.smi

> <i_m_source_file_index>
106

> <i_lp_mmshare_version>
43012

> <i_f3d_flags>
0

> <s_epik_input>
czFbY0hdW2NIXVtjSF1jMUMoPU8pTihbQ0gyXVtDSDJdMilbQ0gyXVtDSDJdTjJDKD1PKVtDSDJdbjNjKD1PKWMoRilbY0hdbihjMz1PKVtDQEBIXTRbQ0gyXVtDSDJdW0NIMl1PNA==

> <s_epik_cmdline>
J2VwaWtfcHl0aG9uJywgJy1waCcsICc3LjAnLCAnLXRuJywgJzgnLCAnLW1hJywgJzIwMCcsICctbWV0YWxfYmluZGluZycsICctaW1hZScsICc8aW5maWxlLm1hZT4nLCAnLW9tYWUnLCAnPG91dGZpbGUubWFlPic=

> <r_lp_tautomer_probability>
1

> <r_epik_Ionization_Penalty>
4.82844e-09

> <r_epik_Ionization_Penalty_Charging>
4.20153e-09

> <r_epik_Ionization_Penalty_Neutral>
6.26919e-10

> <r_epik_State_Penalty>
-0

> <r_epik_Charging_Adjusted_Penalty>
4.20153e-09

> <i_epik_Tot_Q>
0

> <i_epik_Tot_abs_Q>
0

> <r_epik_Metal_State_Penalty>
-0

> <b_epik_Metal_Only>
0

> <s_epik_Chemistry_Notes>
This compound contains an acetal/aminal-like group ( X-CH(R)-Y where X, Y are N, S, or O) that may be acid/base labile, releasing an aldehyde.

> <s_lp_Force_Field>
OPLS_2005

> <r_lp_Energy>
72.1787

> <b_lp_Chiralities_Consistent>
1

> <s_lp_Variant>
AV-unprocessed.smi:106-2

> <Gold.Version>
5.8.1

> <Gold.Id.Protein>
6NUR|6NUR_protein|mol2

> <Gold.PLP.Fitness>
54.7393

> <Gold.PLP.PLP>
-46.4992

> <Gold.PLP.part.hbond>
-3.0000

> <Gold.PLP.part.metal>
0.0000

> <Gold.PLP.part.buried>
-4.4913

> <Gold.PLP.part.nonpolar>
-39.3335

> <Gold.PLP.part.repulsive>
0.0000

> <Gold.PLP.ligand.clash>
0.0000

> <Gold.PLP.ligand.torsion>
1.4190

> <Gold.PLP.Chemscore.Hbond>
2.5149

> <Gold.PLP.Chemscore.CHOScore>
0.9671

> <Gold.PLP.Chemscore.Metal>
0.0000

> <Gold.Chemscore.Hbonds>
donor molecule, donor type, donor heavy atom, donor atom, acceptor molecule, acceptor atom, score
      P1  H  6934  6947       L1     6  1.00
      P1  H  7997  8009       L1    23  0.44
      L1  C    27    47       P1  8028  0.61
      L1  C    27    47       P1  8029  0.57

> <Gold.PLP.Chemscore.Internal.Correction>
0.6321

> <Gold.Rescore>
     Score         DG    S(hbond)    S(metal)    S(lipo)     H(rot)  DE(clash)    DE(int)     intcor
     13.09     -19.02       1.80        0.00      99.83       1.63       0.03       5.90       ----

> <Gold.Chemscore.Fitness>
13.0904

> <Gold.Chemscore.DG>
-19.0234

> <Gold.Chemscore.ZeroCoef>
-5.4800

> <Gold.Chemscore.Hbond>
1.8035

> <Gold.Chemscore.Metal>
0.0000

> <Gold.Chemscore.Lipo>
99.8307

> <Gold.Chemscore.Internal_Hbond>
0.0000

> <Gold.Chemscore.DEClash>
0.0325

> <Gold.Chemscore.DEInternal>
5.9005

> <Gold.Chemscore.Rot>
1.6252

> <Gold.Chemscore.Internal.Correction>
   9.000000E+99

> <Gold.Chemscore.Hbonds>
donor molecule, donor type, donor heavy atom, donor atom, acceptor molecule, acceptor atom, score
      P1  H  6934  6947       L1     6  1.00
      P1  H  7997  8009       L1    23  0.43

> <Gold.Chemscore.Hbond.Weighted>
-6.0237

> <Gold.Chemscore.Metal.Weighted>
-0.0000

> <Gold.Chemscore.Lipo.Weighted>
-11.6802

> <Gold.Chemscore.Internal_Hbond.Weighted>
0.0000

> <Gold.Chemscore.DEClash.Weighted>
0.0325

> <Gold.Chemscore.DEInternal.Weighted>
5.9005

> <Gold.Chemscore.Rot.Weighted>
4.1605

> <Gold.Chemscore.Internal.Correction.Weighted>
   9.000000E+99

> <Gold.Protein.RotatedTorsions>
[ 6907 6896 6895 6894 ] final   23.09 input  -60.11 | X-H torsion
[ 7974 7965 7964 7962 ] final  -30.51 input  175.53 | X-H torsion
[ 8008 7997 7996 7995 ] final  128.52 input   59.86 | X-H torsion
[ 10167 10162 10161 10158 ] final -118.63 input  -65.29 | X-H torsion
[ 10718 10713 10712 10709 ] final   26.06 input   66.30 | X-H torsion
[ 10763 10752 10751 10750 ] final -124.05 input  -60.55 | X-H torsion
[ 11005 11000 10999 10996 ] final   26.88 input  -57.11 | X-H torsion

> <Gold.Protein.ActiveResidues>
 VAL166  LYS551  ARG553  GLY616  TRP617  ASP618  TYR619  PRO620  LYS621  CYS622 
 ASP623  PHE694  ASN695  SER759  ASP760  ASP761  ALA762  ILE779  LEU786  VAL792 
 PHE793  MET794  SER795  GLU796  ALA797  LYS798  CYS799  TRP800  GLU811  SER814 

> <Gold.Protein.RotatedAtoms>
  151.9370  135.0231  160.0532 H   0  0  0  0  0  0  0  0  0  0  0  0  # atno 6907 bound_to 6896
  152.2069  133.4877  159.5097 H   0  0  0  0  0  0  0  0  0  0  0  0  # atno 6908 bound_to 6896
  150.6967  134.1435  159.4156 H   0  0  0  0  0  0  0  0  0  0  0  0  # atno 6909 bound_to 6896
  146.1138  140.5549  142.8766 H   0  0  0  0  0  0  0  0  0  0  0  0  # atno 7974 bound_to 7965
  156.2917  140.2642  156.2450 H   0  0  0  0  0  0  0  0  0  0  0  0  # atno 8008 bound_to 7997
  154.9939  140.0388  157.2350 H   0  0  0  0  0  0  0  0  0  0  0  0  # atno 8009 bound_to 7997
  154.7661  140.2769  155.6180 H   0  0  0  0  0  0  0  0  0  0  0  0  # atno 8010 bound_to 7997
  140.0555  143.5019  152.2060 H   0  0  0  0  0  0  0  0  0  0  0  0  # atno 10167 bound_to 10162
  157.2017  130.6893  149.6191 H   0  0  0  0  0  0  0  0  0  0  0  0  # atno 10718 bound_to 10713
  154.8717  135.4077  154.3043 H   0  0  0  0  0  0  0  0  0  0  0  0  # atno 10763 bound_to 10752
  153.3897  135.7014  153.6509 H   0  0  0  0  0  0  0  0  0  0  0  0  # atno 10764 bound_to 10752
  153.5297  135.3670  155.2641 H   0  0  0  0  0  0  0  0  0  0  0  0  # atno 10765 bound_to 10752
  140.3323  134.2424  155.7701 H   0  0  0  0  0  0  0  0  0  0  0  0  # atno 11005 bound_to 11000
  144.7534  140.5248  143.6785 LP  0  0  0  0  0  0  0  0  0  0  0  0  # atno 17320 bound_to 7965
  145.5610  139.1479  143.3341 LP  0  0  0  0  0  0  0  0  0  0  0  0  # atno 17321 bound_to 7965
  139.5926  144.7556  151.3363 LP  0  0  0  0  0  0  0  0  0  0  0  0  # atno 17342 bound_to 10162
  140.7197  143.7170  150.7725 LP  0  0  0  0  0  0  0  0  0  0  0  0  # atno 17343 bound_to 10162
  155.9700  130.4580  150.5985 LP  0  0  0  0  0  0  0  0  0  0  0  0  # atno 17370 bound_to 10713
  157.3761  131.0773  151.1517 LP  0  0  0  0  0  0  0  0  0  0  0  0  # atno 17371 bound_to 10713
  141.2060  133.7844  157.0201 LP  0  0  0  0  0  0  0  0  0  0  0  0  # atno 17394 bound_to 11000
  140.0850  134.9626  157.1686 LP  0  0  0  0  0  0  0  0  0  0  0  0  # atno 17395 bound_to 11000

$$$$
