#       Name:                AV-unprocessed.smi:3341
#       Creating user name   scv26
#       Creation time:       Fri Mar 27 19:29:05 2020


#       File generated by GOLD software.
#

@<TRIPOS>MOLECULE
AV-unprocessed.smi:3341
    49    50     1
SMALL
NO_CHARGES


@<TRIPOS>ATOM
      1 ****        -6.4430   3.8903   1.0655 C.3            1 S1                 0.0000
      2 ****        -5.8762   3.8542  -0.3587 C.3            1 S1                 0.0000
      3 ****        -5.3220   2.5546  -0.6841 N.pl3          1 S1                 0.0000
      4 ****        -3.9967   2.1669  -0.6821 C.2            1 S1                 0.0000
      5 ****        -3.9958   0.8533  -1.0580 C.2            1 S1                 0.0000
      6 ****        -2.9029  -0.0345  -1.2247 N.am           1 S1                 0.0000
      7 ****        -1.6032   0.2219  -1.0049 C.2            1 S1                 0.0000
      8 ****        -1.1498   1.2916  -0.5977 O.2            1 S1                 0.0000
      9 ****        -0.8415  -0.8463  -1.2796 N.am           1 S1                 0.0000
     10 ****         0.6101  -0.8937  -1.1484 C.3            1 S1                 0.0000
     11 ****         1.0388  -1.1080   0.3162 C.3            1 S1                 0.0000
     12 ****         2.5146  -1.1295   0.4776 N.4            1 S1                 1.0000
     13 ****         2.9323  -0.7893   1.8624 C.3            1 S1                 0.0000
     14 ****         4.4604  -0.6659   1.9670 C.3            1 S1                 0.0000
     15 ****         5.1519  -1.9482   1.4836 C.3            1 S1                 0.0000
     16 ****         4.6776  -2.3399   0.0721 C.3            1 S1                 0.0000
     17 ****         5.2637  -1.4366  -1.0274 C.3            1 S1                 0.0000
     18 ****         3.1369  -2.4009   0.0164 C.3            1 S1                 0.0000
     19 ****        -5.3562   0.5111  -1.2728 C.2            1 S1                 0.0000
     20 ****        -6.1522   1.5443  -1.0433 N.2            1 S1                 0.0000
     21 ****        -6.8476   4.8757   1.2967 H              1 S1                 0.0000
     22 ****        -5.6706   3.6662   1.8019 H              1 S1                 0.0000
     23 ****        -7.2463   3.1635   1.1897 H              1 S1                 0.0000
     24 ****        -6.6544   4.0964  -1.0838 H              1 S1                 0.0000
     25 ****        -5.0934   4.6052  -0.4714 H              1 S1                 0.0000
     26 ****        -3.2005   2.8481  -0.4206 H              1 S1                 0.0000
     27 ****        -3.1373  -0.9620  -1.5471 H              1 S1                 0.0000
     28 ****        -1.2982  -1.6839  -1.6107 H              1 S1                 0.0000
     29 ****         0.9629  -1.7063  -1.7818 H              1 S1                 0.0000
     30 ****         1.0505   0.0227  -1.5454 H              1 S1                 0.0000
     31 ****         0.6296  -0.2925   0.9143 H              1 S1                 0.0000
     32 ****         0.6091  -2.0272   0.7172 H              1 S1                 0.0000
     33 ****         2.4797   0.1558   2.1649 H              1 S1                 0.0000
     34 ****         2.5662  -1.5519   2.5518 H              1 S1                 0.0000
     35 ****         4.8021   0.1870   1.3796 H              1 S1                 0.0000
     36 ****         4.7457  -0.4585   2.9988 H              1 S1                 0.0000
     37 ****         6.2354  -1.8265   1.5050 H              1 S1                 0.0000
     38 ****         4.9225  -2.7588   2.1768 H              1 S1                 0.0000
     39 ****         5.0513  -3.3453  -0.1270 H              1 S1                 0.0000
     40 ****         4.9270  -0.4045  -0.9307 H              1 S1                 0.0000
     41 ****         4.9696  -1.7858  -2.0177 H              1 S1                 0.0000
     42 ****         6.3535  -1.4346  -0.9930 H              1 S1                 0.0000
     43 ****         2.7790  -3.2183   0.6446 H              1 S1                 0.0000
     44 ****         2.8255  -2.6365  -1.0006 H              1 S1                 0.0000
     45 ****        -5.7839  -0.4315  -1.5809 H              1 S1                 0.0000
     46 ****         2.8762  -0.3930  -0.1115 H              1 S1                 0.0000
     47 ****        -1.7664   2.0546  -0.4037 LP             1 S1                 0.0000
     48 ****        -0.1649   1.3975  -0.4609 LP             1 S1                 0.0000
     49 ****        -7.1490   1.5732  -1.1185 LP             1 S1                 0.0000
@<TRIPOS>BOND
    1    1    2 1     
    2    1   21 1     
    3    1   22 1     
    4    1   23 1     
    5    2    3 1     
    6    2   24 1     
    7    2   25 1     
    8    3   20 1     
    9    3    4 1     
   10    4    5 2     
   11    4   26 1     
   12    5    6 1     
   13    5   19 1     
   14    6    7 am    
   15    6   27 1     
   16    7    8 2     
   17    7    9 am    
   18    9   10 1     
   19    9   28 1     
   20   10   11 1     
   21   10   29 1     
   22   10   30 1     
   23   11   12 1     
   24   11   31 1     
   25   11   32 1     
   26   12   18 1     
   27   12   13 1     
   28   12   46 1     
   29   13   14 1     
   30   13   33 1     
   31   13   34 1     
   32   14   15 1     
   33   14   35 1     
   34   14   36 1     
   35   15   16 1     
   36   15   37 1     
   37   15   38 1     
   38   16   17 1     
   39   16   18 1     
   40   16   39 1     
   41   17   40 1     
   42   17   41 1     
   43   17   42 1     
   44   18   43 1     
   45   18   44 1     
   46   19   20 2     
   47   19   45 1     
   48    8   47 1     
   49    8   48 1     
   50   20   49 1     
@<TRIPOS>SUBSTRUCTURE
      1 S1             1
@<TRIPOS>SET
LONE_PAIRS      STATIC     ATOMS    <user>   **** ""
3 47 48 49
DONOR_HYDROGENS      STATIC     ATOMS    <user>   **** ""
3 27 28 46
ATOM$BLUE        STATIC     ATOMS    COLORGROUP SYSTEM
3 47 48 49
ATOM$RED        STATIC     ATOMS    COLORGROUP SYSTEM
3 27 28 46
