AV-unprocessed.smi:51|AV-procd|sdf|506|dock3
  -GOLD-   2262016373D 1   1.00000     0.00000
 Structure written by MMmdl.
 26 27  0  0  0  0  0  0  0  0  3 V2000
  151.0900  140.5989  154.9510 O   0  0  0  0  0  0  0  0  0  0  0  0
  151.6291  139.9658  155.8840 C   0  0  0  0  0  0  0  0  0  0  0  0
  152.7226  139.3623  155.8138 O   0  5  0  0  0  0  0  0  0  0  0  0
  150.8868  139.9568  157.2295 C   0  0  1  0  0  0  0  0  0  0  0  0
  150.5212  138.5338  157.6897 C   0  0  0  0  0  0  0  0  0  0  0  0
  151.6509  138.1555  158.6512 C   0  0  2  0  0  0  0  0  0  0  0  0
  151.2598  137.1747  159.5888 O   0  0  0  0  0  0  0  0  0  0  0  0
  152.0079  139.4871  159.3150 C   0  0  0  0  0  0  0  0  0  0  0  0
  151.7258  140.4920  158.2991 N   0  0  0  0  0  0  0  0  0  0  0  0
  151.9255  141.8693  158.5225 C   0  0  0  0  0  0  0  0  0  0  0  0
  152.5909  142.3590  159.6671 C   0  0  0  0  0  0  0  0  0  0  0  0
  152.7234  143.7537  159.7906 C   0  0  0  0  0  0  0  0  0  0  0  0
  152.2297  144.5766  158.8348 N   0  3  0  0  0  0  0  0  0  0  0  0
  151.6117  144.0505  157.7679 C   0  0  0  0  0  0  0  0  0  0  0  0
  151.4535  142.7334  157.5944 N   0  0  0  0  0  0  0  0  0  0  0  0
  149.9738  140.5465  157.1355 H   0  0  0  0  0  0  0  0  0  0  0  0
  149.5698  138.5662  158.2231 H   0  0  0  0  0  0  0  0  0  0  0  0
  150.4114  137.8205  156.8711 H   0  0  0  0  0  0  0  0  0  0  0  0
  152.5065  137.7873  158.0829 H   0  0  0  0  0  0  0  0  0  0  0  0
  151.1810  137.5848  160.4364 H   0  0  0  0  0  0  0  0  0  0  0  0
  151.3775  139.6775  160.1851 H   0  0  0  0  0  0  0  0  0  0  0  0
  153.0512  139.5054  159.6327 H   0  0  0  0  0  0  0  0  0  0  0  0
  152.9833  141.7074  160.4334 H   0  0  0  0  0  0  0  0  0  0  0  0
  153.2088  144.2381  160.6251 H   0  0  0  0  0  0  0  0  0  0  0  0
  151.2352  144.7455  157.0320 H   0  0  0  0  0  0  0  0  0  0  0  0
  152.3309  145.5867  158.9352 H   0  0  0  0  0  0  0  0  0  0  0  0
  1  2  2  0  0  0  0
  2  3  1  0  0  0  0
  2  4  1  0  0  0  0
  4  9  1  0  0  0  0
  4  5  1  0  0  0  0
  4 16  1  0  0  0  0
  5  6  1  0  0  0  0
  5 17  1  0  0  0  0
  5 18  1  0  0  0  0
  6  7  1  0  0  0  0
  6  8  1  0  0  0  0
  6 19  1  0  0  0  0
  7 20  1  0  0  0  0
  8  9  1  0  0  0  0
  8 21  1  0  0  0  0
  8 22  1  0  0  0  0
  9 10  1  0  0  0  0
 10 15  1  0  0  0  0
 10 11  2  0  0  0  0
 11 12  1  0  0  0  0
 11 23  1  0  0  0  0
 12 13  2  0  0  0  0
 12 24  1  0  0  0  0
 13 14  1  0  0  0  0
 13 26  1  0  0  0  0
 14 15  2  0  0  0  0
 14 25  1  0  0  0  0
M  CHG  1   3  -1
M  CHG  1  13   1
M  END
> <s_m_source_file>
AV-unprocessed.smi

> <i_m_source_file_index>
51

> <i_lp_mmshare_version>
43012

> <i_f3d_flags>
0

> <s_epik_input>
Tz1DKFtPSF0pW0NAQEhdMVtDSDJdW0NAQEhdKFtPSF0pW0NIMl1OMWMyW2NIXVtjSF1uW2NIXW4y

> <s_epik_cmdline>
J2VwaWtfcHl0aG9uJywgJy1waCcsICc3LjAnLCAnLXRuJywgJzgnLCAnLW1hJywgJzIwMCcsICctbWV0YWxfYmluZGluZycsICctaW1hZScsICc8aW5maWxlLm1hZT4nLCAnLW9tYWUnLCAnPG91dGZpbGUubWFlPic=

> <r_lp_tautomer_probability>
0.999336

> <r_epik_Ionization_Penalty>
0.688427

> <r_epik_Ionization_Penalty_Charging>
0.688427

> <r_epik_Ionization_Penalty_Neutral>
1.98379e-07

> <r_epik_State_Penalty>
0.709817

> <r_epik_Charging_Adjusted_Penalty>
1.39824

> <i_epik_Tot_Q>
0

> <i_epik_Tot_abs_Q>
2

> <r_epik_Metal_State_Penalty>
0.873261

> <b_epik_Metal_Only>
0

> <s_lp_Force_Field>
OPLS_2005

> <r_lp_Energy>
13.9279

> <b_lp_Chiralities_Consistent>
1

> <s_lp_Variant>
AV-unprocessed.smi:51-8

> <Gold.Version>
5.8.1

> <Gold.Id.Protein>
6NUR|6NUR_protein|mol2

> <Gold.PLP.Fitness>
43.9964

> <Gold.PLP.PLP>
-29.0048

> <Gold.PLP.part.hbond>
-3.0000

> <Gold.PLP.part.metal>
0.0000

> <Gold.PLP.part.buried>
-5.3603

> <Gold.PLP.part.nonpolar>
-21.0137

> <Gold.PLP.part.repulsive>
0.1816

> <Gold.PLP.ligand.clash>
0.0000

> <Gold.PLP.ligand.torsion>
0.0463

> <Gold.PLP.Chemscore.Hbond>
4.0000

> <Gold.PLP.Chemscore.CHOScore>
1.0000

> <Gold.PLP.Chemscore.Metal>
0.0000

> <Gold.Chemscore.Hbonds>
donor molecule, donor type, donor heavy atom, donor atom, acceptor molecule, acceptor atom, score
      P1  H  6896  6909       L1     7  0.94
      P1  H  7989  7998       L1     1  0.96
      P1  H  7997  8009       L1     3  2.00
      L1  C    14    25       P1  8028  0.63

> <Gold.PLP.Chemscore.Internal.Correction>
0.0842

> <Gold.Rescore>
     Score         DG    S(hbond)    S(metal)    S(lipo)     H(rot)  DE(clash)    DE(int)     intcor
     15.55     -15.59       2.91        0.00      40.46       1.70       0.00       0.05       ----

> <Gold.Chemscore.Fitness>
15.5464

> <Gold.Chemscore.DG>
-15.5921

> <Gold.Chemscore.ZeroCoef>
-5.4800

> <Gold.Chemscore.Hbond>
2.9146

> <Gold.Chemscore.Metal>
0.0000

> <Gold.Chemscore.Lipo>
40.4644

> <Gold.Chemscore.Internal_Hbond>
0.0000

> <Gold.Chemscore.DEClash>
0.0000

> <Gold.Chemscore.DEInternal>
0.0457

> <Gold.Chemscore.Rot>
1.7020

> <Gold.Chemscore.Internal.Correction>
   9.000000E+99

> <Gold.Chemscore.Hbonds>
donor molecule, donor type, donor heavy atom, donor atom, acceptor molecule, acceptor atom, score
      P1  H  6896  6909       L1     7  0.45
      P1  H  7989  7998       L1     1  0.89
      P1  H  7997  8009       L1     3  1.00

> <Gold.Chemscore.Hbond.Weighted>
-9.7349

> <Gold.Chemscore.Metal.Weighted>
-0.0000

> <Gold.Chemscore.Lipo.Weighted>
-4.7343

> <Gold.Chemscore.Internal_Hbond.Weighted>
0.0000

> <Gold.Chemscore.DEClash.Weighted>
0.0000

> <Gold.Chemscore.DEInternal.Weighted>
0.0457

> <Gold.Chemscore.Rot.Weighted>
4.3571

> <Gold.Chemscore.Internal.Correction.Weighted>
   9.000000E+99

> <Gold.Protein.RotatedTorsions>
[ 6907 6896 6895 6894 ] final  117.52 input  -60.11 | X-H torsion
[ 7974 7965 7964 7962 ] final -157.76 input  175.53 | X-H torsion
[ 8008 7997 7996 7995 ] final -144.02 input   59.86 | X-H torsion
[ 10167 10162 10161 10158 ] final   62.29 input  -65.29 | X-H torsion
[ 10718 10713 10712 10709 ] final  -22.10 input   66.30 | X-H torsion
[ 10763 10752 10751 10750 ] final  105.55 input  -60.55 | X-H torsion
[ 11005 11000 10999 10996 ] final -124.45 input  -57.11 | X-H torsion

> <Gold.Protein.ActiveResidues>
 VAL166  LYS551  ARG553  GLY616  TRP617  ASP618  TYR619  PRO620  LYS621  CYS622 
 ASP623  PHE694  ASN695  SER759  ASP760  ASP761  ALA762  ILE779  LEU786  VAL792 
 PHE793  MET794  SER795  GLU796  ALA797  LYS798  CYS799  TRP800  GLU811  SER814 

> <Gold.Protein.RotatedAtoms>
  152.4606  133.7814  159.6852 H   0  0  0  0  0  0  0  0  0  0  0  0  # atno 6907 bound_to 6896
  150.8548  133.7722  159.3019 H   0  0  0  0  0  0  0  0  0  0  0  0  # atno 6908 bound_to 6896
  151.5306  135.1071  159.9953 H   0  0  0  0  0  0  0  0  0  0  0  0  # atno 6909 bound_to 6896
  144.7534  140.3924  143.6030 H   0  0  0  0  0  0  0  0  0  0  0  0  # atno 7974 bound_to 7965
  155.5201  140.0591  157.2908 H   0  0  0  0  0  0  0  0  0  0  0  0  # atno 8008 bound_to 7997
  154.4520  140.1954  156.0436 H   0  0  0  0  0  0  0  0  0  0  0  0  # atno 8009 bound_to 7997
  156.0724  140.3258  155.7596 H   0  0  0  0  0  0  0  0  0  0  0  0  # atno 8010 bound_to 7997
  140.1455  144.4513  150.6788 H   0  0  0  0  0  0  0  0  0  0  0  0  # atno 10167 bound_to 10162
  156.5092  130.4606  149.6657 H   0  0  0  0  0  0  0  0  0  0  0  0  # atno 10718 bound_to 10713
  153.3810  135.3906  155.1856 H   0  0  0  0  0  0  0  0  0  0  0  0  # atno 10763 bound_to 10752
  154.8707  135.3725  154.4858 H   0  0  0  0  0  0  0  0  0  0  0  0  # atno 10764 bound_to 10752
  153.5335  135.7085  153.5733 H   0  0  0  0  0  0  0  0  0  0  0  0  # atno 10765 bound_to 10752
  140.9840  134.0633  157.3732 H   0  0  0  0  0  0  0  0  0  0  0  0  # atno 11005 bound_to 11000
  145.6862  139.1629  143.2672 LP  0  0  0  0  0  0  0  0  0  0  0  0  # atno 17320 bound_to 7965
  146.1515  140.6919  142.9320 LP  0  0  0  0  0  0  0  0  0  0  0  0  # atno 17321 bound_to 7965
  140.6735  143.2295  151.5567 LP  0  0  0  0  0  0  0  0  0  0  0  0  # atno 17342 bound_to 10162
  139.5451  144.2542  152.1427 LP  0  0  0  0  0  0  0  0  0  0  0  0  # atno 17343 bound_to 10162
  156.3257  130.7304  151.2225 LP  0  0  0  0  0  0  0  0  0  0  0  0  # atno 17370 bound_to 10713
  157.7453  131.0443  150.4789 LP  0  0  0  0  0  0  0  0  0  0  0  0  # atno 17371 bound_to 10713
  139.8962  135.0145  156.7041 LP  0  0  0  0  0  0  0  0  0  0  0  0  # atno 17394 bound_to 11000
  140.7143  133.9196  155.8105 LP  0  0  0  0  0  0  0  0  0  0  0  0  # atno 17395 bound_to 11000

$$$$
