#       Name:                AV-unprocessed.smi:2398
#       Creating user name   scv26
#       Creation time:       Fri Mar 27 13:12:57 2020


#       File generated by GOLD software.
#

@<TRIPOS>MOLECULE
AV-unprocessed.smi:2398
    39    40     1
SMALL
NO_CHARGES


@<TRIPOS>ATOM
      1 ****        -0.3621   1.8077  -0.5935 O.2            1 S1                 0.0000
      2 ****        -0.8171   0.8283  -0.0032 C.2            1 S1                 0.0000
      3 ****        -2.1085   0.6401   0.3202 N.am           1 S1                 0.0000
      4 ****        -3.2342   1.4711   0.0600 C.ar           1 S1                 0.0000
      5 ****        -3.2442   2.5445  -0.8646 C.ar           1 S1                 0.0000
      6 ****        -4.4351   3.2790  -1.0344 C.ar           1 S1                 0.0000
      7 ****        -5.5765   3.0126  -0.3652 N.ar           1 S1                 0.0000
      8 ****        -5.5671   1.9830   0.5071 C.ar           1 S1                 0.0000
      9 ****        -4.4313   1.1851   0.7508 C.ar           1 S1                 0.0000
     10 ****        -4.4938   0.1622   1.6373 F              1 S1                 0.0000
     11 ****        -0.0603  -0.1981   0.4126 N.am           1 S1                 0.0000
     12 ****         1.3817  -0.3162   0.2146 C.3            1 S1                 0.0000
     13 ****         1.9919  -1.1815   1.3320 C.3            1 S1                 0.0000
     14 ****         3.5077  -1.3649   1.1367 C.3            1 S1                 0.0000
     15 ****         3.8538  -1.9307  -0.2538 C.3            1 S1                 0.0000
     16 ****         3.4448  -3.2813  -0.3431 O.3            1 S1                 0.0000
     17 ****         3.2030  -1.1065  -1.3809 C.3            1 S1                 0.0000
     18 ****         1.6902  -0.9198  -1.1702 C.3            1 S1                 0.0000
     19 ****         1.8327   0.6764   0.2752 H              1 S1                 0.0000
     20 ****         4.9364  -1.9189  -0.3846 H              1 S1                 0.0000
     21 ****        -2.3106  -0.1914   0.8561 H              1 S1                 0.0000
     22 ****        -2.3805   2.8143  -1.4510 H              1 S1                 0.0000
     23 ****        -4.4726   4.1018  -1.7332 H              1 S1                 0.0000
     24 ****        -6.4941   1.7869   1.0256 H              1 S1                 0.0000
     25 ****        -0.5151  -0.9598   0.8944 H              1 S1                 0.0000
     26 ****         1.8028  -0.7236   2.3035 H              1 S1                 0.0000
     27 ****         1.5057  -2.1581   1.3533 H              1 S1                 0.0000
     28 ****         3.9969  -0.3976   1.2572 H              1 S1                 0.0000
     29 ****         3.9121  -2.0080   1.9192 H              1 S1                 0.0000
     30 ****         3.8980  -3.7770   0.3216 H              1 S1                 0.0000
     31 ****         3.6762  -0.1246  -1.4209 H              1 S1                 0.0000
     32 ****         3.3921  -1.5731  -2.3485 H              1 S1                 0.0000
     33 ****         1.1871  -1.8820  -1.2738 H              1 S1                 0.0000
     34 ****         1.2915  -0.2789  -1.9574 H              1 S1                 0.0000
     35 ****        -0.9710   2.5496  -0.8743 LP             1 S1                 0.0000
     36 ****         0.6164   1.8616  -0.7922 LP             1 S1                 0.0000
     37 ****        -6.4010   3.5594  -0.5108 LP             1 S1                 0.0000
     38 ****         3.6718  -3.6433  -1.2472 LP             1 S1                 0.0000
     39 ****         2.4576  -3.3450  -0.1968 LP             1 S1                 0.0000
@<TRIPOS>BOND
    1    1    2 2     
    2    2    3 am    
    3    2   11 am    
    4    3    4 1     
    5    3   21 1     
    6    4    9 ar    
    7    4    5 ar    
    8    5    6 ar    
    9    5   22 1     
   10    6    7 ar    
   11    6   23 1     
   12    7    8 ar    
   13    8    9 ar    
   14    8   24 1     
   15    9   10 1     
   16   11   12 1     
   17   11   25 1     
   18   12   19 1     
   19   12   18 1     
   20   12   13 1     
   21   13   14 1     
   22   13   26 1     
   23   13   27 1     
   24   14   15 1     
   25   14   28 1     
   26   14   29 1     
   27   15   20 1     
   28   15   16 1     
   29   15   17 1     
   30   16   30 1     
   31   17   18 1     
   32   17   31 1     
   33   17   32 1     
   34   18   33 1     
   35   18   34 1     
   36    1   35 1     
   37    1   36 1     
   38    7   37 1     
   39   16   38 1     
   40   16   39 1     
@<TRIPOS>SUBSTRUCTURE
      1 S1             1
@<TRIPOS>SET
LONE_PAIRS      STATIC     ATOMS    <user>   **** ""
5 35 36 37 38 39
DONOR_HYDROGENS      STATIC     ATOMS    <user>   **** ""
3 21 25 30
ATOM$BLUE        STATIC     ATOMS    COLORGROUP SYSTEM
5 35 36 37 38 39
ATOM$RED        STATIC     ATOMS    COLORGROUP SYSTEM
3 21 25 30
