AV-unprocessed.smi:104|AV-procd|sdf|998|dock5
  -GOLD-   2262017583D 1   1.00000     0.00000
 Structure written by MMmdl.
 47 49  0  0  0  0  0  0  0  0  1 V2000
  152.4111  144.7916  158.7237 C   0  0  0  0  0  0  0  0  0  0  0  0
  152.6205  143.4034  159.3141 C   0  0  0  0  0  0  0  0  0  0  0  0
  152.6957  143.2307  160.5301 O   0  0  0  0  0  0  0  0  0  0  0  0
  152.7067  142.4521  158.3674 O   0  0  0  0  0  0  0  0  0  0  0  0
  152.7889  141.0773  158.7199 C   0  0  0  0  0  0  0  0  0  0  0  0
  151.4003  140.4159  158.6603 C   0  0  1  0  0  0  0  0  0  0  0  0
  150.7605  140.6679  157.4213 O   0  0  0  0  0  0  0  0  0  0  0  0
  149.6741  139.8045  157.3356 C   0  0  1  0  0  0  0  0  0  0  0  0
  149.4076  139.5212  155.8950 N   0  0  0  0  0  0  0  0  0  0  0  0
  150.2975  139.3008  154.8684 C   0  0  0  0  0  0  0  0  0  0  0  0
  152.1842  139.3315  155.1272 Br  0  0  0  0  0  0  0  0  0  0  0  0
  149.7964  139.0789  153.6852 N   0  0  0  0  0  0  0  0  0  0  0  0
  148.4277  139.1556  153.9129 C   0  0  0  0  0  0  0  0  0  0  0  0
  147.2819  139.0239  153.0886 C   0  0  0  0  0  0  0  0  0  0  0  0
  147.3520  138.7660  151.7755 N   0  0  0  0  0  0  0  0  0  0  0  0
  146.0591  139.1663  153.6519 N   0  0  0  0  0  0  0  0  0  0  0  0
  145.9614  139.4243  154.9603 C   0  0  0  0  0  0  0  0  0  0  0  0
  146.9393  139.5726  155.8576 N   0  0  0  0  0  0  0  0  0  0  0  0
  148.1720  139.4294  155.2881 C   0  0  0  0  0  0  0  0  0  0  0  0
  150.0523  138.5125  158.0778 C   0  0  2  0  0  0  0  0  0  0  0  0
  149.0538  138.1566  159.0241 O   0  0  0  0  0  0  0  0  0  0  0  0
  148.9448  136.8829  159.4407 C   0  0  0  0  0  0  0  0  0  0  0  0
  148.0832  136.7522  160.6893 C   0  0  0  0  0  0  0  0  0  0  0  0
  149.4546  135.8986  158.9052 O   0  0  0  0  0  0  0  0  0  0  0  0
  151.3466  138.8888  158.7972 C   0  0  1  0  0  0  0  0  0  0  0  0
  152.4536  138.2700  158.1518 O   0  0  0  0  0  0  0  0  0  0  0  0
  153.2141  137.3771  158.8079 C   0  0  0  0  0  0  0  0  0  0  0  0
  154.3024  136.7851  157.9230 C   0  0  0  0  0  0  0  0  0  0  0  0
  153.0836  137.0397  159.9845 O   0  0  0  0  0  0  0  0  0  0  0  0
  151.3519  144.9640  158.5341 H   0  0  0  0  0  0  0  0  0  0  0  0
  152.9537  144.8948  157.7838 H   0  0  0  0  0  0  0  0  0  0  0  0
  152.7691  145.5568  159.4129 H   0  0  0  0  0  0  0  0  0  0  0  0
  153.4301  140.6054  157.9754 H   0  0  0  0  0  0  0  0  0  0  0  0
  153.2786  140.9168  159.6814 H   0  0  0  0  0  0  0  0  0  0  0  0
  150.7652  140.8613  159.4288 H   0  0  0  0  0  0  0  0  0  0  0  0
  148.7786  140.2891  157.7245 H   0  0  0  0  0  0  0  0  0  0  0  0
  148.2527  138.6567  151.3320 H   0  0  0  0  0  0  0  0  0  0  0  0
  146.5050  138.6834  151.2319 H   0  0  0  0  0  0  0  0  0  0  0  0
  144.9568  139.5268  155.3433 H   0  0  0  0  0  0  0  0  0  0  0  0
  150.2284  137.7006  157.3697 H   0  0  0  0  0  0  0  0  0  0  0  0
  147.0507  137.0201  160.4649 H   0  0  0  0  0  0  0  0  0  0  0  0
  148.4509  137.4118  161.4754 H   0  0  0  0  0  0  0  0  0  0  0  0
  148.1014  135.7278  161.0614 H   0  0  0  0  0  0  0  0  0  0  0  0
  151.3319  138.6067  159.8516 H   0  0  0  0  0  0  0  0  0  0  0  0
  155.0039  137.5616  157.6178 H   0  0  0  0  0  0  0  0  0  0  0  0
  153.8631  136.3427  157.0286 H   0  0  0  0  0  0  0  0  0  0  0  0
  154.8533  136.0109  158.4575 H   0  0  0  0  0  0  0  0  0  0  0  0
  1  2  1  0  0  0  0
  1 30  1  0  0  0  0
  1 31  1  0  0  0  0
  1 32  1  0  0  0  0
  2  3  2  0  0  0  0
  2  4  1  0  0  0  0
  4  5  1  0  0  0  0
  5  6  1  0  0  0  0
  5 33  1  0  0  0  0
  5 34  1  0  0  0  0
  6 25  1  0  0  0  0
  6  7  1  0  0  0  0
  6 35  1  0  0  0  0
  7  8  1  0  0  0  0
  8  9  1  0  0  0  0
  8 20  1  0  0  0  0
  8 36  1  0  0  0  0
  9 19  1  0  0  0  0
  9 10  1  0  0  0  0
 10 11  1  0  0  0  0
 10 12  2  0  0  0  0
 12 13  1  0  0  0  0
 13 19  2  0  0  0  0
 13 14  1  0  0  0  0
 14 15  1  0  0  0  0
 14 16  2  0  0  0  0
 15 37  1  0  0  0  0
 15 38  1  0  0  0  0
 16 17  1  0  0  0  0
 17 18  2  0  0  0  0
 17 39  1  0  0  0  0
 18 19  1  0  0  0  0
 20 21  1  0  0  0  0
 20 25  1  0  0  0  0
 20 40  1  0  0  0  0
 21 22  1  0  0  0  0
 22 23  1  0  0  0  0
 22 24  2  0  0  0  0
 23 41  1  0  0  0  0
 23 42  1  0  0  0  0
 23 43  1  0  0  0  0
 25 26  1  0  0  0  0
 25 44  1  0  0  0  0
 26 27  1  0  0  0  0
 27 28  1  0  0  0  0
 27 29  2  0  0  0  0
 28 45  1  0  0  0  0
 28 46  1  0  0  0  0
 28 47  1  0  0  0  0
M  END
> <s_m_source_file>
AV-unprocessed.smi

> <i_m_source_file_index>
104

> <i_lp_mmshare_version>
43012

> <i_f3d_flags>
0

> <s_epik_input>
W0NIM11DKD1PKU9bQ0gyXVtDQEBIXTFPW0NASF0oW0NAQEhdKE9DKD1PKVtDSDNdKVtDQEhdMU9DKD1PKVtDSDNdKW4oYyhCciluMiljKGMyMyluW2NIXW5jM1tOSDJd

> <s_epik_cmdline>
J2VwaWtfcHl0aG9uJywgJy1waCcsICc3LjAnLCAnLXRuJywgJzgnLCAnLW1hJywgJzIwMCcsICctbWV0YWxfYmluZGluZycsICctaW1hZScsICc8aW5maWxlLm1hZT4nLCAnLW9tYWUnLCAnPG91dGZpbGUubWFlPic=

> <r_lp_tautomer_probability>
1

> <r_epik_Ionization_Penalty>
7.36622e-05

> <r_epik_Ionization_Penalty_Charging>
0

> <r_epik_Ionization_Penalty_Neutral>
7.36622e-05

> <r_epik_State_Penalty>
-0

> <r_epik_Charging_Adjusted_Penalty>
0

> <i_epik_Tot_Q>
0

> <i_epik_Tot_abs_Q>
0

> <r_epik_Metal_State_Penalty>
-0

> <b_epik_Metal_Only>
0

> <s_epik_Chemistry_Notes>
This compound has an ester and may undergo hydrolysis at high or low pH. This compound contains an acetal/aminal-like group ( X-CH(R)-Y where X, Y are N, S, or O) that may be acid/base labile, releasing an aldehyde.

> <s_lp_Force_Field>
OPLS_2005

> <r_lp_Energy>
14.1863

> <b_lp_Chiralities_Consistent>
1

> <s_lp_Variant>
AV-unprocessed.smi:104-6

> <Gold.Version>
5.8.1

> <Gold.Id.Protein>
6NUR|6NUR_protein|mol2

> <Gold.PLP.Fitness>
42.6941

> <Gold.PLP.PLP>
-38.7150

> <Gold.PLP.part.hbond>
-4.9539

> <Gold.PLP.part.metal>
0.0000

> <Gold.PLP.part.buried>
-8.8826

> <Gold.PLP.part.nonpolar>
-27.8876

> <Gold.PLP.part.repulsive>
2.3508

> <Gold.PLP.ligand.clash>
0.0000

> <Gold.PLP.ligand.torsion>
2.0503

> <Gold.PLP.Chemscore.Hbond>
2.6313

> <Gold.PLP.Chemscore.CHOScore>
0.0000

> <Gold.PLP.Chemscore.Metal>
0.0000

> <Gold.Chemscore.Hbonds>
donor molecule, donor type, donor heavy atom, donor atom, acceptor molecule, acceptor atom, score
      L1  H    15    37       P1  7957  0.54
      P1  H  6896  6907       L1    24  0.94
      P1  H  6896  6908       L1    29  0.41

> <Gold.PLP.Chemscore.Internal.Correction>
0.1859

> <Gold.Rescore>
     Score         DG    S(hbond)    S(metal)    S(lipo)     H(rot)  DE(clash)    DE(int)     intcor
      7.34     -10.52       2.89        0.00      54.92       4.31       0.36       2.82       ----

> <Gold.Chemscore.Fitness>
7.3437

> <Gold.Chemscore.DG>
-10.5219

> <Gold.Chemscore.ZeroCoef>
-5.4800

> <Gold.Chemscore.Hbond>
2.8869

> <Gold.Chemscore.Metal>
0.0000

> <Gold.Chemscore.Lipo>
54.9203

> <Gold.Chemscore.Internal_Hbond>
0.0000

> <Gold.Chemscore.DEClash>
0.3557

> <Gold.Chemscore.DEInternal>
2.8226

> <Gold.Chemscore.Rot>
4.3070

> <Gold.Chemscore.Internal.Correction>
   9.000000E+99

> <Gold.Chemscore.Hbonds>
donor molecule, donor type, donor heavy atom, donor atom, acceptor molecule, acceptor atom, score
      L1  H    15    37       P1  7957  0.14
      P1  H  6896  6907       L1    24  0.89
      P1  H  6896  6908       L1    29  0.29

> <Gold.Chemscore.Hbond.Weighted>
-9.6421

> <Gold.Chemscore.Metal.Weighted>
-0.0000

> <Gold.Chemscore.Lipo.Weighted>
-6.4257

> <Gold.Chemscore.Internal_Hbond.Weighted>
0.0000

> <Gold.Chemscore.DEClash.Weighted>
0.3557

> <Gold.Chemscore.DEInternal.Weighted>
2.8226

> <Gold.Chemscore.Rot.Weighted>
11.0259

> <Gold.Chemscore.Internal.Correction.Weighted>
   9.000000E+99

> <Gold.Protein.RotatedTorsions>
[ 6907 6896 6895 6894 ] final  -82.44 input  -60.11 | X-H torsion
[ 7974 7965 7964 7962 ] final   79.14 input  175.53 | X-H torsion
[ 8008 7997 7996 7995 ] final  -47.28 input   59.86 | X-H torsion
[ 10167 10162 10161 10158 ] final   16.76 input  -65.29 | X-H torsion
[ 10718 10713 10712 10709 ] final   -9.15 input   66.30 | X-H torsion
[ 10763 10752 10751 10750 ] final  -83.56 input  -60.55 | X-H torsion
[ 11005 11000 10999 10996 ] final -123.87 input  -57.11 | X-H torsion

> <Gold.Protein.ActiveResidues>
 VAL166  LYS551  ARG553  GLY616  TRP617  ASP618  TYR619  PRO620  LYS621  CYS622 
 ASP623  PHE694  ASN695  SER759  ASP760  ASP761  ALA762  ILE779  LEU786  VAL792 
 PHE793  MET794  SER795  GLU796  ALA797  LYS798  CYS799  TRP800  GLU811  SER814 

> <Gold.Protein.RotatedAtoms>
  150.6897  134.3665  159.4973 H   0  0  0  0  0  0  0  0  0  0  0  0  # atno 6907 bound_to 6896
  152.1487  134.9003  160.0558 H   0  0  0  0  0  0  0  0  0  0  0  0  # atno 6908 bound_to 6896
  152.0109  133.3826  159.4256 H   0  0  0  0  0  0  0  0  0  0  0  0  # atno 6909 bound_to 6896
  145.6681  139.2489  143.1884 H   0  0  0  0  0  0  0  0  0  0  0  0  # atno 7974 bound_to 7965
  154.4015  140.1350  156.4150 H   0  0  0  0  0  0  0  0  0  0  0  0  # atno 8008 bound_to 7997
  155.7697  140.3484  155.5220 H   0  0  0  0  0  0  0  0  0  0  0  0  # atno 8009 bound_to 7997
  155.8778  140.0982  157.1496 H   0  0  0  0  0  0  0  0  0  0  0  0  # atno 8010 bound_to 7997
  140.5774  143.9046  150.6761 H   0  0  0  0  0  0  0  0  0  0  0  0  # atno 10167 bound_to 10162
  156.6922  130.5068  149.5940 H   0  0  0  0  0  0  0  0  0  0  0  0  # atno 10718 bound_to 10713
  154.5892  135.5551  153.7261 H   0  0  0  0  0  0  0  0  0  0  0  0  # atno 10763 bound_to 10752
  153.0110  135.6339  154.1873 H   0  0  0  0  0  0  0  0  0  0  0  0  # atno 10764 bound_to 10752
  154.1814  135.2887  155.3031 H   0  0  0  0  0  0  0  0  0  0  0  0  # atno 10765 bound_to 10752
  140.9885  134.0572  157.3682 H   0  0  0  0  0  0  0  0  0  0  0  0  # atno 11005 bound_to 11000
  146.1068  140.7477  142.9522 LP  0  0  0  0  0  0  0  0  0  0  0  0  # atno 17320 bound_to 7965
  144.7066  140.3876  143.7113 LP  0  0  0  0  0  0  0  0  0  0  0  0  # atno 17321 bound_to 7965
  140.2537  143.3574  152.1383 LP  0  0  0  0  0  0  0  0  0  0  0  0  # atno 17342 bound_to 10162
  139.5150  144.6957  151.5638 LP  0  0  0  0  0  0  0  0  0  0  0  0  # atno 17343 bound_to 10162
  156.1789  130.6486  151.0928 LP  0  0  0  0  0  0  0  0  0  0  0  0  # atno 17370 bound_to 10713
  157.7004  131.0778  150.6836 LP  0  0  0  0  0  0  0  0  0  0  0  0  # atno 17371 bound_to 10713
  139.8981  135.0153  156.7134 LP  0  0  0  0  0  0  0  0  0  0  0  0  # atno 17394 bound_to 11000
  140.7077  133.9251  155.8064 LP  0  0  0  0  0  0  0  0  0  0  0  0  # atno 17395 bound_to 11000

$$$$
