AV-unprocessed.smi:1455|AV-procd|sdf|5915|dock2
  -GOLD-   22720 6 03D 1   1.00000     0.00000
 Structure written by MMmdl.
 32 33  0  0  0  0  0  0  0  0  1 V2000
  153.3643  140.6082  157.0811 O   0  0  0  0  0  0  0  0  0  0  0  0
  152.2724  140.6690  157.6486 C   0  0  0  0  0  0  0  0  0  0  0  0
  151.2801  139.4987  157.5840 C   0  0  0  0  0  0  0  0  0  0  0  0
  150.0488  139.8164  156.8456 N   0  0  0  0  0  0  0  0  0  0  0  0
  148.8588  140.0264  157.5279 C   0  0  0  0  0  0  0  0  0  0  0  0
  147.6876  140.3162  156.9132 C   0  0  0  0  0  0  0  0  0  0  0  0
  147.6230  140.4229  155.4597 C   0  0  0  0  0  0  0  0  0  0  0  0
  146.6118  140.6833  154.8117 O   0  0  0  0  0  0  0  0  0  0  0  0
  148.8395  140.2012  154.8087 N   0  0  0  0  0  0  0  0  0  0  0  0
  150.0496  139.9009  155.4363 C   0  0  0  0  0  0  0  0  0  0  0  0
  151.0653  139.7201  154.7658 O   0  0  0  0  0  0  0  0  0  0  0  0
  151.8795  141.7296  158.3704 N   0  0  0  0  0  0  0  0  0  0  0  0
  152.6648  142.9433  158.5795 C   0  0  0  0  0  0  0  0  0  0  0  0
  153.0949  143.0929  160.0528 C   0  0  0  0  0  0  0  0  0  0  0  0
  152.2420  144.2241  160.6269 C   0  0  0  0  0  0  0  0  0  0  0  0
  151.9989  145.1462  159.4367 C   0  0  0  0  0  0  0  0  0  0  0  0
  151.8321  144.1973  158.2483 C   0  0  0  0  0  0  0  0  0  0  0  0
  148.8429  140.2601  153.8009 H   0  0  0  0  0  0  0  0  0  0  0  0
  151.7862  138.6504  157.1209 H   0  0  0  0  0  0  0  0  0  0  0  0
  151.0390  139.1705  158.5970 H   0  0  0  0  0  0  0  0  0  0  0  0
  148.8584  139.9533  158.6063 H   0  0  0  0  0  0  0  0  0  0  0  0
  146.7935  140.4694  157.5002 H   0  0  0  0  0  0  0  0  0  0  0  0
  150.9697  141.6946  158.8070 H   0  0  0  0  0  0  0  0  0  0  0  0
  153.5509  142.9169  157.9425 H   0  0  0  0  0  0  0  0  0  0  0  0
  152.9977  142.1740  160.6327 H   0  0  0  0  0  0  0  0  0  0  0  0
  154.1458  143.3826  160.0902 H   0  0  0  0  0  0  0  0  0  0  0  0
  151.2918  143.8243  160.9831 H   0  0  0  0  0  0  0  0  0  0  0  0
  152.7256  144.7316  161.4619 H   0  0  0  0  0  0  0  0  0  0  0  0
  151.1358  145.7973  159.5785 H   0  0  0  0  0  0  0  0  0  0  0  0
  152.8729  145.7802  159.2812 H   0  0  0  0  0  0  0  0  0  0  0  0
  152.1436  144.6617  157.3121 H   0  0  0  0  0  0  0  0  0  0  0  0
  150.7761  143.9427  158.1439 H   0  0  0  0  0  0  0  0  0  0  0  0
  1  2  2  0  0  0  0
  2  3  1  0  0  0  0
  2 12  1  0  0  0  0
  3  4  1  0  0  0  0
  3 19  1  0  0  0  0
  3 20  1  0  0  0  0
  4 10  1  0  0  0  0
  4  5  1  0  0  0  0
  5  6  2  0  0  0  0
  5 21  1  0  0  0  0
  6  7  1  0  0  0  0
  6 22  1  0  0  0  0
  7  8  2  0  0  0  0
  7  9  1  0  0  0  0
  9 18  1  0  0  0  0
  9 10  1  0  0  0  0
 10 11  2  0  0  0  0
 12 13  1  0  0  0  0
 12 23  1  0  0  0  0
 13 17  1  0  0  0  0
 13 14  1  0  0  0  0
 13 24  1  0  0  0  0
 14 15  1  0  0  0  0
 14 25  1  0  0  0  0
 14 26  1  0  0  0  0
 15 16  1  0  0  0  0
 15 27  1  0  0  0  0
 15 28  1  0  0  0  0
 16 17  1  0  0  0  0
 16 29  1  0  0  0  0
 16 30  1  0  0  0  0
 17 31  1  0  0  0  0
 17 32  1  0  0  0  0
M  END
> <s_m_source_file>
AV-unprocessed.smi

> <i_m_source_file_index>
1455

> <i_lp_mmshare_version>
43012

> <i_f3d_flags>
0

> <s_epik_input>
W0NIMl0xW0NIMl1bQ0gyXVtDSDJdW0NIXTFbTkhdQyg9TylbQ0gyXW4yW2NIXVtjSF1jKD1PKVtuSF1jMj1P

> <s_epik_cmdline>
J2VwaWtfcHl0aG9uJywgJy1waCcsICc3LjAnLCAnLXRuJywgJzgnLCAnLW1hJywgJzIwMCcsICctbWV0YWxfYmluZGluZycsICctaW1hZScsICc8aW5maWxlLm1hZT4nLCAnLW9tYWUnLCAnPG91dGZpbGUubWFlPic=

> <r_lp_tautomer_probability>
0.999537

> <r_epik_Ionization_Penalty>
0.00322093

> <r_epik_Ionization_Penalty_Charging>
0.00322091

> <r_epik_Ionization_Penalty_Neutral>
1.93017e-08

> <r_epik_State_Penalty>
0.00227242

> <r_epik_Charging_Adjusted_Penalty>
0.00549333

> <i_epik_Tot_Q>
0

> <i_epik_Tot_abs_Q>
0

> <r_epik_Metal_State_Penalty>
0.364362

> <b_epik_Metal_Only>
0

> <s_lp_Force_Field>
OPLS_2005

> <r_lp_Energy>
17.501

> <b_lp_Chiralities_Consistent>
1

> <s_lp_Variant>
AV-unprocessed.smi:1455-1

> <Gold.Version>
5.8.1

> <Gold.Id.Protein>
6NUR|6NUR_protein|mol2

> <Gold.PLP.Fitness>
41.7222

> <Gold.PLP.PLP>
-33.3035

> <Gold.PLP.part.hbond>
-3.0000

> <Gold.PLP.part.metal>
0.0000

> <Gold.PLP.part.buried>
-2.4648

> <Gold.PLP.part.nonpolar>
-27.7083

> <Gold.PLP.part.repulsive>
0.5057

> <Gold.PLP.ligand.clash>
0.0000

> <Gold.PLP.ligand.torsion>
0.2806

> <Gold.PLP.Chemscore.Hbond>
2.9920

> <Gold.PLP.Chemscore.CHOScore>
0.0000

> <Gold.PLP.Chemscore.Metal>
0.0000

> <Gold.Chemscore.Hbonds>
donor molecule, donor type, donor heavy atom, donor atom, acceptor molecule, acceptor atom, score
      P1  H  7989  7998       L1    11  1.00
      P1  H  7997  8008       L1     1  0.13

> <Gold.PLP.Chemscore.Internal.Correction>
0.0039

> <Gold.Rescore>
     Score         DG    S(hbond)    S(metal)    S(lipo)     H(rot)  DE(clash)    DE(int)     intcor
     17.50     -18.05       2.63        0.00      69.87       1.72       0.15       0.39       ----

> <Gold.Chemscore.Fitness>
17.5032

> <Gold.Chemscore.DG>
-18.0456

> <Gold.Chemscore.ZeroCoef>
-5.4800

> <Gold.Chemscore.Hbond>
2.6329

> <Gold.Chemscore.Metal>
0.0000

> <Gold.Chemscore.Lipo>
69.8732

> <Gold.Chemscore.Internal_Hbond>
0.0000

> <Gold.Chemscore.DEClash>
0.1482

> <Gold.Chemscore.DEInternal>
0.3941

> <Gold.Chemscore.Rot>
1.7201

> <Gold.Chemscore.Internal.Correction>
   9.000000E+99

> <Gold.Chemscore.Hbonds>
donor molecule, donor type, donor heavy atom, donor atom, acceptor molecule, acceptor atom, score
      P1  H  7989  7998       L1    11  1.00
      P1  H  7997  8008       L1     1  0.13

> <Gold.Chemscore.Hbond.Weighted>
-8.7937

> <Gold.Chemscore.Metal.Weighted>
-0.0000

> <Gold.Chemscore.Lipo.Weighted>
-8.1752

> <Gold.Chemscore.Internal_Hbond.Weighted>
0.0000

> <Gold.Chemscore.DEClash.Weighted>
0.1482

> <Gold.Chemscore.DEInternal.Weighted>
0.3941

> <Gold.Chemscore.Rot.Weighted>
4.4033

> <Gold.Chemscore.Internal.Correction.Weighted>
   9.000000E+99

> <Gold.Protein.RotatedTorsions>
[ 6907 6896 6895 6894 ] final  112.93 input  -60.11 | X-H torsion
[ 7974 7965 7964 7962 ] final  -55.22 input  175.53 | X-H torsion
[ 8008 7997 7996 7995 ] final  -69.29 input   59.86 | X-H torsion
[ 10167 10162 10161 10158 ] final  -84.48 input  -65.29 | X-H torsion
[ 10718 10713 10712 10709 ] final  -87.00 input   66.30 | X-H torsion
[ 10763 10752 10751 10750 ] final  163.81 input  -60.55 | X-H torsion
[ 11005 11000 10999 10996 ] final  144.74 input  -57.11 | X-H torsion

> <Gold.Protein.ActiveResidues>
 VAL166  LYS551  ARG553  GLY616  TRP617  ASP618  TYR619  PRO620  LYS621  CYS622 
 ASP623  PHE694  ASN695  SER759  ASP760  ASP761  ALA762  ILE779  LEU786  VAL792 
 PHE793  MET794  SER795  GLU796  ALA797  LYS798  CYS799  TRP800  GLU811  SER814 

> <Gold.Protein.RotatedAtoms>
  152.4889  133.8447  159.7170 H   0  0  0  0  0  0  0  0  0  0  0  0  # atno 6907 bound_to 6896
  150.9001  133.7121  159.2888 H   0  0  0  0  0  0  0  0  0  0  0  0  # atno 6908 bound_to 6896
  151.4565  135.1038  159.9765 H   0  0  0  0  0  0  0  0  0  0  0  0  # atno 6909 bound_to 6896
  145.8767  140.8175  142.9860 H   0  0  0  0  0  0  0  0  0  0  0  0  # atno 7974 bound_to 7965
  154.4928  140.0856  156.7632 H   0  0  0  0  0  0  0  0  0  0  0  0  # atno 8008 bound_to 7997
  155.4189  140.3445  155.4251 H   0  0  0  0  0  0  0  0  0  0  0  0  # atno 8009 bound_to 7997
  156.1353  140.1513  156.8991 H   0  0  0  0  0  0  0  0  0  0  0  0  # atno 8010 bound_to 7997
  140.4128  143.2615  151.8994 H   0  0  0  0  0  0  0  0  0  0  0  0  # atno 10167 bound_to 10162
  155.9987  130.4784  150.4800 H   0  0  0  0  0  0  0  0  0  0  0  0  # atno 10718 bound_to 10713
  154.2994  135.2759  155.2618 H   0  0  0  0  0  0  0  0  0  0  0  0  # atno 10763 bound_to 10752
  154.5061  135.5795  153.6572 H   0  0  0  0  0  0  0  0  0  0  0  0  # atno 10764 bound_to 10752
  152.9902  135.6170  154.3164 H   0  0  0  0  0  0  0  0  0  0  0  0  # atno 10765 bound_to 10752
  140.0656  134.9180  157.1259 H   0  0  0  0  0  0  0  0  0  0  0  0  # atno 11005 bound_to 11000
  144.6726  140.1321  143.7443 LP  0  0  0  0  0  0  0  0  0  0  0  0  # atno 17320 bound_to 7965
  145.9072  139.2465  143.1458 LP  0  0  0  0  0  0  0  0  0  0  0  0  # atno 17321 bound_to 7965
  139.4782  144.5519  151.8373 LP  0  0  0  0  0  0  0  0  0  0  0  0  # atno 17342 bound_to 10162
  140.4619  144.1710  150.5907 LP  0  0  0  0  0  0  0  0  0  0  0  0  # atno 17343 bound_to 10162
  157.2806  131.0606  151.2200 LP  0  0  0  0  0  0  0  0  0  0  0  0  # atno 17370 bound_to 10713
  157.3248  130.6955  149.6290 LP  0  0  0  0  0  0  0  0  0  0  0  0  # atno 17371 bound_to 10713
  140.3704  134.2397  155.7178 LP  0  0  0  0  0  0  0  0  0  0  0  0  # atno 17394 bound_to 11000
  141.1991  133.8019  157.0551 LP  0  0  0  0  0  0  0  0  0  0  0  0  # atno 17395 bound_to 11000

$$$$
