AV-unprocessed.smi:2054|AV-procd|sdf|8333|dock6
  -GOLD-   2272011 03D 1   1.00000     0.00000
 Structure written by MMmdl.
 43 44  0  0  0  0  0  0  0  0  2 V2000
  149.0805  132.7869  154.0899 C   0  0  0  0  0  0  0  0  0  0  0  0
  147.9649  133.7570  155.1861 S   0  0  0  0  0  0  0  0  0  0  0  0
  146.6898  133.9368  154.4747 O   0  0  0  0  0  0  0  0  0  0  0  0
  147.9774  133.1654  156.5327 O   0  0  0  0  0  0  0  0  0  0  0  0
  148.7471  135.3030  155.2793 N   0  0  0  0  0  0  0  0  0  0  0  0
  147.9334  136.4953  154.9672 C   0  0  0  0  0  0  0  0  0  0  0  0
  148.6029  137.7857  155.4678 C   0  0  0  0  0  0  0  0  0  0  0  0
  150.0287  137.9247  154.9102 C   0  0  0  0  0  0  0  0  0  0  0  0
  150.7052  139.2062  155.4149 C   0  0  0  0  0  0  0  0  0  0  0  0
  150.9249  140.1403  154.6429 O   0  0  0  0  0  0  0  0  0  0  0  0
  151.0311  139.2396  156.7164 N   0  0  0  0  0  0  0  0  0  0  0  0
  151.6656  140.3670  157.3891 C   0  0  0  0  0  0  0  0  0  0  0  0
  151.0231  141.7047  156.9850 C   0  0  0  0  0  0  0  0  0  0  0  0
  151.4921  142.8522  157.8578 C   0  0  0  0  0  0  0  0  0  0  0  0
  152.3891  142.6629  158.9314 C   0  0  0  0  0  0  0  0  0  0  0  0
  152.7775  143.7744  159.7083 C   0  0  0  0  0  0  0  0  0  0  0  0
  152.2612  145.0492  159.3961 C   0  0  0  0  0  0  0  0  0  0  0  0
  151.3678  145.1808  158.3134 C   0  0  0  0  0  0  0  0  0  0  0  0
  151.0192  144.0920  157.5934 N   0  3  0  0  0  0  0  0  0  0  0  0
  150.8276  136.6772  155.3189 C   0  0  0  0  0  0  0  0  0  0  0  0
  150.1495  135.3891  154.8238 C   0  0  0  0  0  0  0  0  0  0  0  0
  148.6352  131.8109  153.8996 H   0  0  0  0  0  0  0  0  0  0  0  0
  150.0493  132.6481  154.5671 H   0  0  0  0  0  0  0  0  0  0  0  0
  149.2102  133.3141  153.1450 H   0  0  0  0  0  0  0  0  0  0  0  0
  147.7786  136.5441  153.8886 H   0  0  0  0  0  0  0  0  0  0  0  0
  146.9478  136.4000  155.4203 H   0  0  0  0  0  0  0  0  0  0  0  0
  147.9983  138.6448  155.1743 H   0  0  0  0  0  0  0  0  0  0  0  0
  148.6205  137.7796  156.5591 H   0  0  0  0  0  0  0  0  0  0  0  0
  149.9745  137.9634  153.8206 H   0  0  0  0  0  0  0  0  0  0  0  0
  150.8136  138.4312  157.2815 H   0  0  0  0  0  0  0  0  0  0  0  0
  151.6177  140.2275  158.4704 H   0  0  0  0  0  0  0  0  0  0  0  0
  152.7230  140.3679  157.1231 H   0  0  0  0  0  0  0  0  0  0  0  0
  151.2542  141.9300  155.9429 H   0  0  0  0  0  0  0  0  0  0  0  0
  149.9362  141.6401  157.0515 H   0  0  0  0  0  0  0  0  0  0  0  0
  152.7743  141.6798  159.1599 H   0  0  0  0  0  0  0  0  0  0  0  0
  153.4626  143.6503  160.5343 H   0  0  0  0  0  0  0  0  0  0  0  0
  152.5461  145.9132  159.9790 H   0  0  0  0  0  0  0  0  0  0  0  0
  150.9251  146.1163  158.0040 H   0  0  0  0  0  0  0  0  0  0  0  0
  151.8401  136.7310  154.9171 H   0  0  0  0  0  0  0  0  0  0  0  0
  150.9297  136.6327  156.4044 H   0  0  0  0  0  0  0  0  0  0  0  0
  150.7122  134.5307  155.1898 H   0  0  0  0  0  0  0  0  0  0  0  0
  150.1709  135.3410  153.7344 H   0  0  0  0  0  0  0  0  0  0  0  0
  150.3709  144.2102  156.8141 H   0  0  0  0  0  0  0  0  0  0  0  0
  1  2  1  0  0  0  0
  1 22  1  0  0  0  0
  1 23  1  0  0  0  0
  1 24  1  0  0  0  0
  2  3  2  0  0  0  0
  2  4  2  0  0  0  0
  2  5  1  0  0  0  0
  5 21  1  0  0  0  0
  5  6  1  0  0  0  0
  6  7  1  0  0  0  0
  6 25  1  0  0  0  0
  6 26  1  0  0  0  0
  7  8  1  0  0  0  0
  7 27  1  0  0  0  0
  7 28  1  0  0  0  0
  8  9  1  0  0  0  0
  8 20  1  0  0  0  0
  8 29  1  0  0  0  0
  9 10  2  0  0  0  0
  9 11  1  0  0  0  0
 11 12  1  0  0  0  0
 11 30  1  0  0  0  0
 12 13  1  0  0  0  0
 12 31  1  0  0  0  0
 12 32  1  0  0  0  0
 13 14  1  0  0  0  0
 13 33  1  0  0  0  0
 13 34  1  0  0  0  0
 14 19  1  0  0  0  0
 14 15  2  0  0  0  0
 15 16  1  0  0  0  0
 15 35  1  0  0  0  0
 16 17  2  0  0  0  0
 16 36  1  0  0  0  0
 17 18  1  0  0  0  0
 17 37  1  0  0  0  0
 18 19  2  0  0  0  0
 18 38  1  0  0  0  0
 19 43  1  0  0  0  0
 20 21  1  0  0  0  0
 20 39  1  0  0  0  0
 20 40  1  0  0  0  0
 21 41  1  0  0  0  0
 21 42  1  0  0  0  0
M  CHG  1  19   1
M  END
> <s_m_source_file>
AV-unprocessed.smi

> <i_m_source_file_index>
2054

> <i_lp_mmshare_version>
43012

> <i_f3d_flags>
0

> <s_epik_input>
W0NIM11TKD1PKSg9TylOMVtDSDJdW0NIMl1bQ0hdKFtDSDJdW0NIMl0xKUMoPU8pW05IXVtDSDJdW0NIMl1jMltjSF1bY0hdW2NIXVtjSF1uMg==

> <s_epik_cmdline>
J2VwaWtfcHl0aG9uJywgJy1waCcsICc3LjAnLCAnLXRuJywgJzgnLCAnLW1hJywgJzIwMCcsICctbWV0YWxfYmluZGluZycsICctaW1hZScsICc8aW5maWxlLm1hZT4nLCAnLW9tYWUnLCAnPG91dGZpbGUubWFlPic=

> <r_epik_Ionization_Penalty>
1.82741

> <r_epik_Ionization_Penalty_Charging>
1.82741

> <r_epik_Ionization_Penalty_Neutral>
1.85342e-08

> <r_epik_State_Penalty>
1.94311

> <r_epik_Charging_Adjusted_Penalty>
3.77052

> <i_epik_Tot_Q>
1

> <i_epik_Tot_abs_Q>
1

> <r_epik_Metal_State_Penalty>
1.96983

> <b_epik_Metal_Only>
0

> <s_lp_Force_Field>
OPLS_2005

> <r_lp_Energy>
8.70127

> <b_lp_Chiralities_Consistent>
1

> <s_lp_Variant>
AV-unprocessed.smi:2054-2

> <Gold.Version>
5.8.1

> <Gold.Id.Protein>
6NUR|6NUR_protein|mol2

> <Gold.PLP.Fitness>
44.7532

> <Gold.PLP.PLP>
-36.3873

> <Gold.PLP.part.hbond>
-1.9472

> <Gold.PLP.part.metal>
0.0000

> <Gold.PLP.part.buried>
-4.9099

> <Gold.PLP.part.nonpolar>
-29.0286

> <Gold.PLP.part.repulsive>
0.3316

> <Gold.PLP.ligand.clash>
0.0000

> <Gold.PLP.ligand.torsion>
0.6789

> <Gold.PLP.Chemscore.Hbond>
2.9913

> <Gold.PLP.Chemscore.CHOScore>
0.0000

> <Gold.PLP.Chemscore.Metal>
0.0000

> <Gold.Chemscore.Hbonds>
donor molecule, donor type, donor heavy atom, donor atom, acceptor molecule, acceptor atom, score
      L1  H    19    43       P1  8028  2.00
      P1  H  7989  7998       L1    10  1.00

> <Gold.PLP.Chemscore.Internal.Correction>
0.7500

> <Gold.Rescore>
     Score         DG    S(hbond)    S(metal)    S(lipo)     H(rot)  DE(clash)    DE(int)     intcor
     16.33     -18.45       1.98        0.00      97.03       1.95       0.01       2.12       ----

> <Gold.Chemscore.Fitness>
16.3315

> <Gold.Chemscore.DG>
-18.4535

> <Gold.Chemscore.ZeroCoef>
-5.4800

> <Gold.Chemscore.Hbond>
1.9772

> <Gold.Chemscore.Metal>
0.0000

> <Gold.Chemscore.Lipo>
97.0330

> <Gold.Chemscore.Internal_Hbond>
0.0000

> <Gold.Chemscore.DEClash>
0.0060

> <Gold.Chemscore.DEInternal>
2.1161

> <Gold.Chemscore.Rot>
1.9466

> <Gold.Chemscore.Internal.Correction>
   9.000000E+99

> <Gold.Chemscore.Hbonds>
donor molecule, donor type, donor heavy atom, donor atom, acceptor molecule, acceptor atom, score
      L1  H    19    43       P1  8028  0.97
      P1  H  7989  7998       L1    10  0.93

> <Gold.Chemscore.Hbond.Weighted>
-6.6039

> <Gold.Chemscore.Metal.Weighted>
-0.0000

> <Gold.Chemscore.Lipo.Weighted>
-11.3529

> <Gold.Chemscore.Internal_Hbond.Weighted>
0.0000

> <Gold.Chemscore.DEClash.Weighted>
0.0060

> <Gold.Chemscore.DEInternal.Weighted>
2.1161

> <Gold.Chemscore.Rot.Weighted>
4.9832

> <Gold.Chemscore.Internal.Correction.Weighted>
   9.000000E+99

> <Gold.Protein.RotatedTorsions>
[ 6907 6896 6895 6894 ] final  117.20 input  -60.11 | X-H torsion
[ 7974 7965 7964 7962 ] final  -21.17 input  175.53 | X-H torsion
[ 8008 7997 7996 7995 ] final -159.13 input   59.86 | X-H torsion
[ 10167 10162 10161 10158 ] final -155.37 input  -65.29 | X-H torsion
[ 10718 10713 10712 10709 ] final  -56.65 input   66.30 | X-H torsion
[ 10763 10752 10751 10750 ] final -105.16 input  -60.55 | X-H torsion
[ 11005 11000 10999 10996 ] final -176.03 input  -57.11 | X-H torsion

> <Gold.Protein.ActiveResidues>
 VAL166  LYS551  ARG553  GLY616  TRP617  ASP618  TYR619  PRO620  LYS621  CYS622 
 ASP623  PHE694  ASN695  SER759  ASP760  ASP761  ALA762  ILE779  LEU786  VAL792 
 PHE793  MET794  SER795  GLU796  ALA797  LYS798  CYS799  TRP800  GLU811  SER814 

> <Gold.Protein.RotatedAtoms>
  152.4628  133.7858  159.6874 H   0  0  0  0  0  0  0  0  0  0  0  0  # atno 6907 bound_to 6896
  150.8579  133.7678  159.3009 H   0  0  0  0  0  0  0  0  0  0  0  0  # atno 6908 bound_to 6896
  151.5253  135.1071  159.9941 H   0  0  0  0  0  0  0  0  0  0  0  0  # atno 6909 bound_to 6896
  146.1748  140.4304  142.8518 H   0  0  0  0  0  0  0  0  0  0  0  0  # atno 7974 bound_to 7965
  155.7579  140.0835  157.2169 H   0  0  0  0  0  0  0  0  0  0  0  0  # atno 8008 bound_to 7997
  154.4006  140.1548  156.2855 H   0  0  0  0  0  0  0  0  0  0  0  0  # atno 8009 bound_to 7997
  155.8867  140.3417  155.5929 H   0  0  0  0  0  0  0  0  0  0  0  0  # atno 8010 bound_to 7997
  139.6937  143.9378  152.2397 H   0  0  0  0  0  0  0  0  0  0  0  0  # atno 10167 bound_to 10162
  156.1272  130.4162  150.0334 H   0  0  0  0  0  0  0  0  0  0  0  0  # atno 10718 bound_to 10713
  154.7928  135.4759  154.0091 H   0  0  0  0  0  0  0  0  0  0  0  0  # atno 10763 bound_to 10752
  153.1657  135.6816  153.8686 H   0  0  0  0  0  0  0  0  0  0  0  0  # atno 10764 bound_to 10752
  153.8285  135.3195  155.3394 H   0  0  0  0  0  0  0  0  0  0  0  0  # atno 10765 bound_to 10752
  140.4567  134.6293  157.4825 H   0  0  0  0  0  0  0  0  0  0  0  0  # atno 11005 bound_to 11000
  144.8219  140.6563  143.6347 LP  0  0  0  0  0  0  0  0  0  0  0  0  # atno 17320 bound_to 7965
  145.4242  139.1559  143.4057 LP  0  0  0  0  0  0  0  0  0  0  0  0  # atno 17321 bound_to 7965
  139.9201  144.6805  150.8470 LP  0  0  0  0  0  0  0  0  0  0  0  0  # atno 17342 bound_to 10162
  140.7690  143.3381  151.2266 LP  0  0  0  0  0  0  0  0  0  0  0  0  # atno 17343 bound_to 10162
  156.8256  130.9374  151.3639 LP  0  0  0  0  0  0  0  0  0  0  0  0  # atno 17370 bound_to 10713
  157.6453  130.8839  149.9526 LP  0  0  0  0  0  0  0  0  0  0  0  0  # atno 17371 bound_to 10713
  139.9972  134.6893  155.9590 LP  0  0  0  0  0  0  0  0  0  0  0  0  # atno 17394 bound_to 11000
  141.1640  133.6537  156.4415 LP  0  0  0  0  0  0  0  0  0  0  0  0  # atno 17395 bound_to 11000

$$$$
