AV-unprocessed.smi:814|AV-procd|sdf|3824|dock9
  -GOLD-   22720 1263D 1   1.00000     0.00000
 Structure written by MMmdl.
 36 37  0  0  0  0  0  0  0  0  1 V2000
  146.8212  138.6399  153.0997 C   0  0  0  0  0  0  0  0  0  0  0  0
  147.4266  139.8588  153.6014 N   0  0  0  0  0  0  0  0  0  0  0  0
  146.8980  141.1382  153.4917 C   0  0  0  0  0  0  0  0  0  0  0  0
  147.7961  141.9880  154.0911 C   0  0  0  0  0  0  0  0  0  0  0  0
  148.8757  141.2547  154.5719 N   0  0  0  0  0  0  0  0  0  0  0  0
  148.5944  139.9932  154.2594 C   0  0  0  0  0  0  0  0  0  0  0  0
  149.4935  138.8381  154.5713 C   0  0  0  0  0  0  0  0  0  0  0  0
  150.9154  139.2848  154.9486 C   0  0  0  0  0  0  0  0  0  0  0  0
  150.8934  140.3883  155.9015 N   0  0  0  0  0  0  0  0  0  0  0  0
  151.7225  140.5125  156.9496 C   0  0  0  0  0  0  0  0  0  0  0  0
  152.6097  139.6976  157.2063 O   0  0  0  0  0  0  0  0  0  0  0  0
  151.5181  141.7406  157.8466 C   0  0  1  0  0  0  0  0  0  0  0  0
  152.4936  141.7215  159.0462 C   0  0  0  0  0  0  0  0  0  0  0  0
  152.5042  143.0394  159.8000 C   0  0  0  0  0  0  0  0  0  0  0  0
  151.9993  144.1806  159.3009 C   0  0  0  0  0  0  0  0  0  0  0  0
  151.3646  144.2826  157.9254 C   0  0  0  0  0  0  0  0  0  0  0  0
  151.6680  143.0520  157.0496 C   0  0  0  0  0  0  0  0  0  0  0  0
  145.9576  138.8774  152.4783 H   0  0  0  0  0  0  0  0  0  0  0  0
  146.4961  138.0200  153.9353 H   0  0  0  0  0  0  0  0  0  0  0  0
  147.5425  138.0845  152.4998 H   0  0  0  0  0  0  0  0  0  0  0  0
  145.9529  141.3338  153.0068 H   0  0  0  0  0  0  0  0  0  0  0  0
  147.7496  143.0603  154.2117 H   0  0  0  0  0  0  0  0  0  0  0  0
  149.0548  138.2728  155.3944 H   0  0  0  0  0  0  0  0  0  0  0  0
  149.5160  138.1589  153.7185 H   0  0  0  0  0  0  0  0  0  0  0  0
  151.4831  138.4493  155.3615 H   0  0  0  0  0  0  0  0  0  0  0  0
  151.4513  139.6124  154.0574 H   0  0  0  0  0  0  0  0  0  0  0  0
  150.1949  141.1033  155.7586 H   0  0  0  0  0  0  0  0  0  0  0  0
  150.4998  141.7101  158.2396 H   0  0  0  0  0  0  0  0  0  0  0  0
  152.2095  140.9280  159.7385 H   0  0  0  0  0  0  0  0  0  0  0  0
  153.5151  141.5121  158.7254 H   0  0  0  0  0  0  0  0  0  0  0  0
  152.9584  143.0366  160.7800 H   0  0  0  0  0  0  0  0  0  0  0  0
  152.0262  145.0836  159.8932 H   0  0  0  0  0  0  0  0  0  0  0  0
  150.2882  144.3945  158.0588 H   0  0  0  0  0  0  0  0  0  0  0  0
  151.7196  145.1868  157.4306 H   0  0  0  0  0  0  0  0  0  0  0  0
  152.6870  143.1306  156.6666 H   0  0  0  0  0  0  0  0  0  0  0  0
  151.0118  143.0525  156.1782 H   0  0  0  0  0  0  0  0  0  0  0  0
  1  2  1  0  0  0  0
  1 18  1  0  0  0  0
  1 19  1  0  0  0  0
  1 20  1  0  0  0  0
  2  6  1  0  0  0  0
  2  3  1  0  0  0  0
  3  4  2  0  0  0  0
  3 21  1  0  0  0  0
  4  5  1  0  0  0  0
  4 22  1  0  0  0  0
  5  6  2  0  0  0  0
  6  7  1  0  0  0  0
  7  8  1  0  0  0  0
  7 23  1  0  0  0  0
  7 24  1  0  0  0  0
  8  9  1  0  0  0  0
  8 25  1  0  0  0  0
  8 26  1  0  0  0  0
  9 10  1  0  0  0  0
  9 27  1  0  0  0  0
 10 11  2  0  0  0  0
 10 12  1  0  0  0  0
 12 17  1  0  0  0  0
 12 13  1  0  0  0  0
 12 28  1  0  0  0  0
 13 14  1  0  0  0  0
 13 29  1  0  0  0  0
 13 30  1  0  0  0  0
 14 15  2  0  0  0  0
 14 31  1  0  0  0  0
 15 16  1  0  0  0  0
 15 32  1  0  0  0  0
 16 17  1  0  0  0  0
 16 33  1  0  0  0  0
 16 34  1  0  0  0  0
 17 35  1  0  0  0  0
 17 36  1  0  0  0  0
M  END
> <s_m_source_file>
AV-unprocessed.smi

> <i_m_source_file_index>
814

> <i_lp_mmshare_version>
43012

> <i_f3d_flags>
0

> <s_epik_input>
W0NIM11uMVtjSF1bY0hdbmMxW0NIMl1bQ0gyXVtOSF1DKD1PKVtDQEBIXTJbQ0gyXVtDSF09W0NIXVtDSDJdW0NIMl0y

> <s_epik_cmdline>
J2VwaWtfcHl0aG9uJywgJy1waCcsICc3LjAnLCAnLXRuJywgJzgnLCAnLW1hJywgJzIwMCcsICctbWV0YWxfYmluZGluZycsICctaW1hZScsICc8aW5maWxlLm1hZT4nLCAnLW9tYWUnLCAnPG91dGZpbGUubWFlPic=

> <r_lp_tautomer_probability>
1

> <r_epik_Ionization_Penalty>
1.21249

> <r_epik_Ionization_Penalty_Charging>
1.21249

> <r_epik_Ionization_Penalty_Neutral>
1.60917e-08

> <r_epik_State_Penalty>
1.27906

> <r_epik_Charging_Adjusted_Penalty>
2.49154

> <i_epik_Tot_Q>
0

> <i_epik_Tot_abs_Q>
0

> <r_epik_Metal_State_Penalty>
0.409603

> <b_epik_Metal_Only>
0

> <s_lp_Force_Field>
OPLS_2005

> <r_lp_Energy>
6.01065

> <b_lp_Chiralities_Consistent>
1

> <s_lp_Variant>
AV-unprocessed.smi:814-4

> <Gold.Version>
5.8.1

> <Gold.Id.Protein>
6NUR|6NUR_protein|mol2

> <Gold.PLP.Fitness>
45.1114

> <Gold.PLP.PLP>
-37.4996

> <Gold.PLP.part.hbond>
-1.0000

> <Gold.PLP.part.metal>
0.0000

> <Gold.PLP.part.buried>
-3.2864

> <Gold.PLP.part.nonpolar>
-33.6752

> <Gold.PLP.part.repulsive>
0.2738

> <Gold.PLP.ligand.clash>
0.0000

> <Gold.PLP.ligand.torsion>
0.3944

> <Gold.PLP.Chemscore.Hbond>
1.0000

> <Gold.PLP.Chemscore.CHOScore>
1.7922

> <Gold.PLP.Chemscore.Metal>
0.0000

> <Gold.Chemscore.Hbonds>
donor molecule, donor type, donor heavy atom, donor atom, acceptor molecule, acceptor atom, score
      P1  H  7997  8008       L1    11  0.94
      L1  C     3    21       P1 10175  0.77
      L1  C     4    22       P1  8028  1.00

> <Gold.PLP.Chemscore.Internal.Correction>
0.0240

> <Gold.Rescore>
     Score         DG    S(hbond)    S(metal)    S(lipo)     H(rot)  DE(clash)    DE(int)     intcor
     15.55     -16.36       0.99        0.00      99.28       1.58       0.49       0.32       ----

> <Gold.Chemscore.Fitness>
15.5459

> <Gold.Chemscore.DG>
-16.3553

> <Gold.Chemscore.ZeroCoef>
-5.4800

> <Gold.Chemscore.Hbond>
0.9899

> <Gold.Chemscore.Metal>
0.0000

> <Gold.Chemscore.Lipo>
99.2830

> <Gold.Chemscore.Internal_Hbond>
0.0000

> <Gold.Chemscore.DEClash>
0.4861

> <Gold.Chemscore.DEInternal>
0.3233

> <Gold.Chemscore.Rot>
1.5809

> <Gold.Chemscore.Internal.Correction>
   9.000000E+99

> <Gold.Chemscore.Hbonds>
donor molecule, donor type, donor heavy atom, donor atom, acceptor molecule, acceptor atom, score
      P1  H  7997  8008       L1    11  0.76

> <Gold.Chemscore.Hbond.Weighted>
-3.3064

> <Gold.Chemscore.Metal.Weighted>
-0.0000

> <Gold.Chemscore.Lipo.Weighted>
-11.6161

> <Gold.Chemscore.Internal_Hbond.Weighted>
0.0000

> <Gold.Chemscore.DEClash.Weighted>
0.4861

> <Gold.Chemscore.DEInternal.Weighted>
0.3233

> <Gold.Chemscore.Rot.Weighted>
4.0472

> <Gold.Chemscore.Internal.Correction.Weighted>
   9.000000E+99

> <Gold.Protein.RotatedTorsions>
[ 6907 6896 6895 6894 ] final  173.24 input  -60.11 | X-H torsion
[ 7974 7965 7964 7962 ] final  -52.26 input  175.53 | X-H torsion
[ 8008 7997 7996 7995 ] final  -40.85 input   59.86 | X-H torsion
[ 10167 10162 10161 10158 ] final  138.50 input  -65.29 | X-H torsion
[ 10718 10713 10712 10709 ] final -109.50 input   66.30 | X-H torsion
[ 10763 10752 10751 10750 ] final -177.63 input  -60.55 | X-H torsion
[ 11005 11000 10999 10996 ] final   45.06 input  -57.11 | X-H torsion

> <Gold.Protein.ActiveResidues>
 VAL166  LYS551  ARG553  GLY616  TRP617  ASP618  TYR619  PRO620  LYS621  CYS622 
 ASP623  PHE694  ASN695  SER759  ASP760  ASP761  ALA762  ILE779  LEU786  VAL792 
 PHE793  MET794  SER795  GLU796  ALA797  LYS798  CYS799  TRP800  GLU811  SER814 

> <Gold.Protein.RotatedAtoms>
  151.7714  133.3341  159.3445 H   0  0  0  0  0  0  0  0  0  0  0  0  # atno 6907 bound_to 6896
  150.7460  134.6015  159.6048 H   0  0  0  0  0  0  0  0  0  0  0  0  # atno 6908 bound_to 6896
  152.3338  134.7226  160.0334 H   0  0  0  0  0  0  0  0  0  0  0  0  # atno 6909 bound_to 6896
  145.9099  140.7924  142.9701 H   0  0  0  0  0  0  0  0  0  0  0  0  # atno 7974 bound_to 7965
  154.4008  140.1515  156.3094 H   0  0  0  0  0  0  0  0  0  0  0  0  # atno 8008 bound_to 7997
  155.8629  140.3452  155.5747 H   0  0  0  0  0  0  0  0  0  0  0  0  # atno 8009 bound_to 7997
  155.7860  140.0850  157.2024 H   0  0  0  0  0  0  0  0  0  0  0  0  # atno 8010 bound_to 7997
  139.5109  144.6350  151.5720 H   0  0  0  0  0  0  0  0  0  0  0  0  # atno 10167 bound_to 10162
  156.0540  130.5767  150.8108 H   0  0  0  0  0  0  0  0  0  0  0  0  # atno 10718 bound_to 10713
  154.5577  135.2817  155.0949 H   0  0  0  0  0  0  0  0  0  0  0  0  # atno 10763 bound_to 10752
  154.2370  135.6364  153.5198 H   0  0  0  0  0  0  0  0  0  0  0  0  # atno 10764 bound_to 10752
  153.0020  135.5551  154.6161 H   0  0  0  0  0  0  0  0  0  0  0  0  # atno 10765 bound_to 10752
  140.1495  134.4480  155.8392 H   0  0  0  0  0  0  0  0  0  0  0  0  # atno 11005 bound_to 11000
  144.6742  140.1809  143.7406 LP  0  0  0  0  0  0  0  0  0  0  0  0  # atno 17320 bound_to 7965
  145.8685  139.2259  143.1675 LP  0  0  0  0  0  0  0  0  0  0  0  0  # atno 17321 bound_to 7965
  140.6096  143.9461  150.6443 LP  0  0  0  0  0  0  0  0  0  0  0  0  # atno 17342 bound_to 10162
  140.2699  143.3463  152.1247 LP  0  0  0  0  0  0  0  0  0  0  0  0  # atno 17343 bound_to 10162
  157.5493  131.0943  150.9718 LP  0  0  0  0  0  0  0  0  0  0  0  0  # atno 17370 bound_to 10713
  156.9981  130.5589  149.5309 LP  0  0  0  0  0  0  0  0  0  0  0  0  # atno 17371 bound_to 10713
  141.2197  133.6866  156.7395 LP  0  0  0  0  0  0  0  0  0  0  0  0  # atno 17394 bound_to 11000
  140.2622  134.8457  157.3770 LP  0  0  0  0  0  0  0  0  0  0  0  0  # atno 17395 bound_to 11000

$$$$
