AV-unprocessed.smi:148|AV-procd|sdf|1226|dock2
  -GOLD-   2262018423D 1   1.00000     0.00000
 Structure written by MMmdl.
 63 67  0  0  0  0  0  0  0  0  1 V2000
  148.1708  131.9534  159.2753 O   0  0  0  0  0  0  0  0  0  0  0  0
  148.2106  133.2821  159.7543 C   0  0  0  0  0  0  0  0  0  0  0  0
  146.8213  133.9594  159.6592 C   0  0  2  0  0  0  0  0  0  0  0  0
  146.4785  134.4212  158.2210 C   0  0  0  0  0  0  0  0  0  0  0  0
  146.4856  133.3380  157.2528 N   0  0  0  0  0  0  0  0  0  0  0  0
  145.8012  132.1470  157.3479 C   0  0  0  0  0  0  0  0  0  0  0  0
  145.9646  131.3284  156.3442 N   0  0  0  0  0  0  0  0  0  0  0  0
  146.8202  132.0129  155.4910 C   0  0  0  0  0  0  0  0  0  0  0  0
  147.3923  131.7207  154.2255 C   0  0  0  0  0  0  0  0  0  0  0  0
  147.1509  130.5566  153.5843 N   0  0  0  0  0  0  0  0  0  0  0  0
  148.2777  129.6401  153.7757 C   0  0  0  0  0  0  0  0  0  0  0  0
  147.9298  128.2206  153.3179 C   0  0  0  0  0  0  0  0  0  0  0  0
  147.4677  128.2466  151.8604 C   0  0  0  0  0  0  0  0  0  0  0  0
  146.2899  129.2170  151.7045 C   0  0  0  0  0  0  0  0  0  0  0  0
  146.6178  130.6490  152.2088 C   0  0  1  0  0  0  0  0  0  0  0  0
  145.3572  131.5754  152.0789 C   0  0  2  0  0  0  0  0  0  0  0  0
  144.6555  131.5376  150.7079 C   0  0  0  0  0  0  0  0  0  0  0  0
  143.7613  132.7801  150.6429 C   0  0  0  0  0  0  0  0  0  0  0  0
  144.2865  133.7400  151.7161 C   0  0  0  0  0  0  0  0  0  0  0  0
  145.5570  133.0958  152.2825 C   0  0  2  0  0  0  0  0  0  0  0  0
  146.6738  133.5705  151.5539 O   0  0  0  0  0  0  0  0  0  0  0  0
  148.2074  132.6514  153.6617 N   0  0  0  0  0  0  0  0  0  0  0  0
  148.4403  133.8037  154.2978 C   0  0  0  0  0  0  0  0  0  0  0  0
  147.9701  134.2163  155.4774 N   0  0  0  0  0  0  0  0  0  0  0  0
  147.1564  133.2793  156.0440 C   0  0  0  0  0  0  0  0  0  0  0  0
  146.6621  135.1120  160.6827 C   0  0  1  0  0  0  0  0  0  0  0  0
  147.2662  134.8428  162.0496 C   0  0  0  0  0  0  0  0  0  0  0  0
  147.3679  136.2468  162.6335 C   0  0  0  0  0  0  0  0  0  0  0  0
  147.6458  137.0972  161.5275 O   0  0  0  0  0  0  0  0  0  0  0  0
  147.3872  136.4092  160.3069 C   0  0  0  0  0  0  0  0  0  0  0  0
  149.0571  131.6548  159.1396 H   0  0  0  0  0  0  0  0  0  0  0  0
  148.5731  133.2724  160.7822 H   0  0  0  0  0  0  0  0  0  0  0  0
  148.9532  133.8371  159.1813 H   0  0  0  0  0  0  0  0  0  0  0  0
  146.0907  133.1938  159.9246 H   0  0  0  0  0  0  0  0  0  0  0  0
  145.4900  134.8797  158.1902 H   0  0  0  0  0  0  0  0  0  0  0  0
  147.1821  135.1878  157.8940 H   0  0  0  0  0  0  0  0  0  0  0  0
  145.1747  131.9026  158.1936 H   0  0  0  0  0  0  0  0  0  0  0  0
  149.1415  130.0007  153.2147 H   0  0  0  0  0  0  0  0  0  0  0  0
  148.5680  129.6195  154.8276 H   0  0  0  0  0  0  0  0  0  0  0  0
  148.7962  127.5681  153.4277 H   0  0  0  0  0  0  0  0  0  0  0  0
  147.1429  127.8091  153.9511 H   0  0  0  0  0  0  0  0  0  0  0  0
  148.2906  128.5570  151.2151 H   0  0  0  0  0  0  0  0  0  0  0  0
  147.1770  127.2461  151.5393 H   0  0  0  0  0  0  0  0  0  0  0  0
  146.0107  129.2301  150.6515 H   0  0  0  0  0  0  0  0  0  0  0  0
  145.4288  128.8261  152.2488 H   0  0  0  0  0  0  0  0  0  0  0  0
  147.4121  131.0387  151.5713 H   0  0  0  0  0  0  0  0  0  0  0  0
  144.6213  131.2383  152.8116 H   0  0  0  0  0  0  0  0  0  0  0  0
  145.3983  131.5932  149.9104 H   0  0  0  0  0  0  0  0  0  0  0  0
  144.0787  130.6243  150.5575 H   0  0  0  0  0  0  0  0  0  0  0  0
  143.7934  133.2301  149.6500 H   0  0  0  0  0  0  0  0  0  0  0  0
  142.7227  132.5190  150.8504 H   0  0  0  0  0  0  0  0  0  0  0  0
  144.4581  134.7459  151.3303 H   0  0  0  0  0  0  0  0  0  0  0  0
  143.5429  133.8262  152.5095 H   0  0  0  0  0  0  0  0  0  0  0  0
  145.6763  133.3793  153.3260 H   0  0  0  0  0  0  0  0  0  0  0  0
  147.1462  134.1830  152.0975 H   0  0  0  0  0  0  0  0  0  0  0  0
  149.0944  134.4952  153.7875 H   0  0  0  0  0  0  0  0  0  0  0  0
  145.6024  135.3349  160.8190 H   0  0  0  0  0  0  0  0  0  0  0  0
  146.6596  134.1796  162.6669 H   0  0  0  0  0  0  0  0  0  0  0  0
  148.2610  134.4055  161.9503 H   0  0  0  0  0  0  0  0  0  0  0  0
  146.4144  136.5460  163.0708 H   0  0  0  0  0  0  0  0  0  0  0  0
  148.1349  136.3262  163.4042 H   0  0  0  0  0  0  0  0  0  0  0  0
  148.3442  136.1951  159.8293 H   0  0  0  0  0  0  0  0  0  0  0  0
  146.8028  137.0288  159.6260 H   0  0  0  0  0  0  0  0  0  0  0  0
  1  2  1  0  0  0  0
  1 31  1  0  0  0  0
  2  3  1  0  0  0  0
  2 32  1  0  0  0  0
  2 33  1  0  0  0  0
  3  4  1  0  0  0  0
  3 26  1  0  0  0  0
  3 34  1  0  0  0  0
  4  5  1  0  0  0  0
  4 35  1  0  0  0  0
  4 36  1  0  0  0  0
  5 25  1  0  0  0  0
  5  6  1  0  0  0  0
  6  7  2  0  0  0  0
  6 37  1  0  0  0  0
  7  8  1  0  0  0  0
  8 25  2  0  0  0  0
  8  9  1  0  0  0  0
  9 10  1  0  0  0  0
  9 22  2  0  0  0  0
 10 15  1  0  0  0  0
 10 11  1  0  0  0  0
 11 12  1  0  0  0  0
 11 38  1  0  0  0  0
 11 39  1  0  0  0  0
 12 13  1  0  0  0  0
 12 40  1  0  0  0  0
 12 41  1  0  0  0  0
 13 14  1  0  0  0  0
 13 42  1  0  0  0  0
 13 43  1  0  0  0  0
 14 15  1  0  0  0  0
 14 44  1  0  0  0  0
 14 45  1  0  0  0  0
 15 16  1  0  0  0  0
 15 46  1  0  0  0  0
 16 20  1  0  0  0  0
 16 17  1  0  0  0  0
 16 47  1  0  0  0  0
 17 18  1  0  0  0  0
 17 48  1  0  0  0  0
 17 49  1  0  0  0  0
 18 19  1  0  0  0  0
 18 50  1  0  0  0  0
 18 51  1  0  0  0  0
 19 20  1  0  0  0  0
 19 52  1  0  0  0  0
 19 53  1  0  0  0  0
 20 21  1  0  0  0  0
 20 54  1  0  0  0  0
 21 55  1  0  0  0  0
 22 23  1  0  0  0  0
 23 24  2  0  0  0  0
 23 56  1  0  0  0  0
 24 25  1  0  0  0  0
 26 30  1  0  0  0  0
 26 27  1  0  0  0  0
 26 57  1  0  0  0  0
 27 28  1  0  0  0  0
 27 58  1  0  0  0  0
 27 59  1  0  0  0  0
 28 29  1  0  0  0  0
 28 60  1  0  0  0  0
 28 61  1  0  0  0  0
 29 30  1  0  0  0  0
 30 62  1  0  0  0  0
 30 63  1  0  0  0  0
M  END
> <s_m_source_file>
AV-unprocessed.smi

> <i_m_source_file_index>
148

> <i_lp_mmshare_version>
43012

> <i_f3d_flags>
0

> <s_epik_input>
W0NIMl0xT1tDSDJdW0NIMl1bQ0BIXTFbQ0BIXShbQ0gyXVtPSF0pW0NIMl1uKFtjSF1uMiljKGMyMyluW2NIXW5jM040W0NIMl1bQ0gyXVtDSDJdW0NIMl1bQ0BIXTRbQ0BASF01W0NIMl1bQ0gyXVtDSDJdW0NASF01W09IXQ==

> <s_epik_cmdline>
J2VwaWtfcHl0aG9uJywgJy1waCcsICc3LjAnLCAnLXRuJywgJzgnLCAnLW1hJywgJzIwMCcsICctbWV0YWxfYmluZGluZycsICctaW1hZScsICc8aW5maWxlLm1hZT4nLCAnLW9tYWUnLCAnPG91dGZpbGUubWFlPic=

> <r_lp_tautomer_probability>
1

> <r_epik_Ionization_Penalty>
0.00556303

> <r_epik_Ionization_Penalty_Charging>
0

> <r_epik_Ionization_Penalty_Neutral>
0.00556303

> <r_epik_State_Penalty>
0.00401767

> <r_epik_Charging_Adjusted_Penalty>
0.00401767

> <i_epik_Tot_Q>
0

> <i_epik_Tot_abs_Q>
0

> <r_epik_Metal_State_Penalty>
-0

> <b_epik_Metal_Only>
0

> <s_lp_Force_Field>
OPLS_2005

> <r_lp_Energy>
70.5735

> <b_lp_Chiralities_Consistent>
1

> <s_lp_Variant>
AV-unprocessed.smi:148-25

> <Gold.Version>
5.8.1

> <Gold.Id.Protein>
6NUR|6NUR_protein|mol2

> <Gold.PLP.Fitness>
49.1193

> <Gold.PLP.PLP>
-41.8790

> <Gold.PLP.part.hbond>
-2.0000

> <Gold.PLP.part.metal>
0.0000

> <Gold.PLP.part.buried>
-6.2420

> <Gold.PLP.part.nonpolar>
-33.5578

> <Gold.PLP.part.repulsive>
0.4126

> <Gold.PLP.ligand.clash>
0.0000

> <Gold.PLP.ligand.torsion>
0.8949

> <Gold.PLP.Chemscore.Hbond>
1.7930

> <Gold.PLP.Chemscore.CHOScore>
1.0000

> <Gold.PLP.Chemscore.Metal>
0.0000

> <Gold.Chemscore.Hbonds>
donor molecule, donor type, donor heavy atom, donor atom, acceptor molecule, acceptor atom, score
      P1  H  6931  6943       L1    29  1.00
      P1  H  6934  6947       L1    29  0.74
      L1  C    23    56       P1  7948  0.80

> <Gold.PLP.Chemscore.Internal.Correction>
0.6512

> <Gold.Rescore>
     Score         DG    S(hbond)    S(metal)    S(lipo)     H(rot)  DE(clash)    DE(int)     intcor
     11.06     -14.42       1.38        0.00     109.53       3.32       0.28       3.08       ----

> <Gold.Chemscore.Fitness>
11.0593

> <Gold.Chemscore.DG>
-14.4201

> <Gold.Chemscore.ZeroCoef>
-5.4800

> <Gold.Chemscore.Hbond>
1.3847

> <Gold.Chemscore.Metal>
0.0000

> <Gold.Chemscore.Lipo>
109.5306

> <Gold.Chemscore.Internal_Hbond>
0.0000

> <Gold.Chemscore.DEClash>
0.2821

> <Gold.Chemscore.DEInternal>
3.0787

> <Gold.Chemscore.Rot>
3.3203

> <Gold.Chemscore.Internal.Correction>
   9.000000E+99

> <Gold.Chemscore.Hbonds>
donor molecule, donor type, donor heavy atom, donor atom, acceptor molecule, acceptor atom, score
      P1  H  6931  6943       L1    29  0.75
      P1  H  6934  6947       L1    29  0.18

> <Gold.Chemscore.Hbond.Weighted>
-4.6250

> <Gold.Chemscore.Metal.Weighted>
-0.0000

> <Gold.Chemscore.Lipo.Weighted>
-12.8151

> <Gold.Chemscore.Internal_Hbond.Weighted>
0.0000

> <Gold.Chemscore.DEClash.Weighted>
0.2821

> <Gold.Chemscore.DEInternal.Weighted>
3.0787

> <Gold.Chemscore.Rot.Weighted>
8.5000

> <Gold.Chemscore.Internal.Correction.Weighted>
   9.000000E+99

> <Gold.Protein.RotatedTorsions>
[ 6907 6896 6895 6894 ] final -173.07 input  -60.11 | X-H torsion
[ 7974 7965 7964 7962 ] final -109.91 input  175.53 | X-H torsion
[ 8008 7997 7996 7995 ] final  158.18 input   59.86 | X-H torsion
[ 10167 10162 10161 10158 ] final  164.64 input  -65.29 | X-H torsion
[ 10718 10713 10712 10709 ] final   59.24 input   66.30 | X-H torsion
[ 10763 10752 10751 10750 ] final -124.67 input  -60.55 | X-H torsion
[ 11005 11000 10999 10996 ] final   44.12 input  -57.11 | X-H torsion

> <Gold.Protein.ActiveResidues>
 VAL166  LYS551  ARG553  GLY616  TRP617  ASP618  TYR619  PRO620  LYS621  CYS622 
 ASP623  PHE694  ASN695  SER759  ASP760  ASP761  ALA762  ILE779  LEU786  VAL792 
 PHE793  MET794  SER795  GLU796  ALA797  LYS798  CYS799  TRP800  GLU811  SER814 

> <Gold.Protein.RotatedAtoms>
  151.5502  133.3419  159.2951 H   0  0  0  0  0  0  0  0  0  0  0  0  # atno 6907 bound_to 6896
  150.8483  134.7802  159.6999 H   0  0  0  0  0  0  0  0  0  0  0  0  # atno 6908 bound_to 6896
  152.4536  134.5349  159.9873 H   0  0  0  0  0  0  0  0  0  0  0  0  # atno 6909 bound_to 6896
  145.1747  140.8942  143.3515 H   0  0  0  0  0  0  0  0  0  0  0  0  # atno 7974 bound_to 7965
  156.2318  140.1865  156.7222 H   0  0  0  0  0  0  0  0  0  0  0  0  # atno 8008 bound_to 7997
  154.6036  140.0632  156.9429 H   0  0  0  0  0  0  0  0  0  0  0  0  # atno 8009 bound_to 7997
  155.2133  140.3301  155.4328 H   0  0  0  0  0  0  0  0  0  0  0  0  # atno 8010 bound_to 7997
  139.4892  144.4214  151.9182 H   0  0  0  0  0  0  0  0  0  0  0  0  # atno 10167 bound_to 10162
  157.5660  130.8871  149.9188 H   0  0  0  0  0  0  0  0  0  0  0  0  # atno 10718 bound_to 10713
  154.8726  135.4055  154.3144 H   0  0  0  0  0  0  0  0  0  0  0  0  # atno 10763 bound_to 10752
  153.3983  135.7017  153.6450 H   0  0  0  0  0  0  0  0  0  0  0  0  # atno 10764 bound_to 10752
  153.5204  135.3688  155.2600 H   0  0  0  0  0  0  0  0  0  0  0  0  # atno 10765 bound_to 10752
  140.1581  134.4375  155.8336 H   0  0  0  0  0  0  0  0  0  0  0  0  # atno 11005 bound_to 11000
  145.0197  139.3435  143.6078 LP  0  0  0  0  0  0  0  0  0  0  0  0  # atno 17320 bound_to 7965
  146.3463  139.9492  142.8731 LP  0  0  0  0  0  0  0  0  0  0  0  0  # atno 17321 bound_to 7965
  140.3658  144.2916  150.5927 LP  0  0  0  0  0  0  0  0  0  0  0  0  # atno 17342 bound_to 10162
  140.5362  143.2233  151.8158 LP  0  0  0  0  0  0  0  0  0  0  0  0  # atno 17343 bound_to 10162
  156.0708  130.3685  150.0779 LP  0  0  0  0  0  0  0  0  0  0  0  0  # atno 17370 bound_to 10713
  156.8938  130.9597  151.3585 LP  0  0  0  0  0  0  0  0  0  0  0  0  # atno 17371 bound_to 10713
  141.2206  133.6901  156.7545 LP  0  0  0  0  0  0  0  0  0  0  0  0  # atno 17394 bound_to 11000
  140.2522  134.8531  157.3678 LP  0  0  0  0  0  0  0  0  0  0  0  0  # atno 17395 bound_to 11000

$$$$
