AV-unprocessed.smi:2079|AV-procd|sdf|8483|dock4
  -GOLD-   2272011183D 1   1.00000     0.00000
 Structure written by MMmdl.
 41 42  0  0  0  0  0  0  0  0  3 V2000
  153.4500  137.6162  155.6944 C   0  0  0  0  0  0  0  0  0  0  0  0
  152.2365  138.4071  155.3421 C   0  0  0  0  0  0  0  0  0  0  0  0
  151.0041  138.0527  154.8706 C   0  0  0  0  0  0  0  0  0  0  0  0
  150.3320  139.2989  154.7593 C   0  0  0  0  0  0  0  0  0  0  0  0
  148.9943  139.3605  154.2879 N   0  0  0  0  0  0  0  0  0  0  0  0
  148.2345  140.4450  154.0517 C   0  0  0  0  0  0  0  0  0  0  0  0
  148.6719  141.5786  154.2826 O   0  0  0  0  0  0  0  0  0  0  0  0
  147.0140  140.1201  153.5426 N   0  5  0  0  0  0  0  0  0  0  0  0
  146.7279  138.9370  152.7269 C   0  0  0  0  0  0  0  0  0  0  0  0
  146.5616  137.6813  153.6121 C   0  0  0  0  0  0  0  0  0  0  0  0
  146.3133  136.4468  152.8082 N   0  3  2  0  0  0  0  0  0  0  0  0
  145.2595  136.6770  151.7770 C   0  0  0  0  0  0  0  0  0  0  0  0
  145.0942  135.4763  150.8389 C   0  0  0  0  0  0  0  0  0  0  0  0
  144.7500  134.2257  151.6461 C   0  0  0  0  0  0  0  0  0  0  0  0
  145.8458  133.9835  152.6864 C   0  0  0  0  0  0  0  0  0  0  0  0
  146.0711  135.2025  153.6110 C   0  0  1  0  0  0  0  0  0  0  0  0
  147.2385  134.8583  154.5628 C   0  0  0  0  0  0  0  0  0  0  0  0
  151.0892  140.3229  155.1250 N   0  0  0  0  0  0  0  0  0  0  0  0
  152.3123  139.7563  155.5024 O   0  0  0  0  0  0  0  0  0  0  0  0
  153.7548  136.9852  154.8595 H   0  0  0  0  0  0  0  0  0  0  0  0
  153.2541  136.9719  156.5516 H   0  0  0  0  0  0  0  0  0  0  0  0
  154.2863  138.2686  155.9467 H   0  0  0  0  0  0  0  0  0  0  0  0
  150.6421  137.0608  154.6449 H   0  0  0  0  0  0  0  0  0  0  0  0
  148.5586  138.4704  154.0972 H   0  0  0  0  0  0  0  0  0  0  0  0
  145.8091  139.0777  152.1581 H   0  0  0  0  0  0  0  0  0  0  0  0
  147.4999  138.7493  151.9795 H   0  0  0  0  0  0  0  0  0  0  0  0
  147.4285  137.5866  154.2618 H   0  0  0  0  0  0  0  0  0  0  0  0
  145.7318  137.8412  154.3022 H   0  0  0  0  0  0  0  0  0  0  0  0
  144.3102  136.8921  152.2705 H   0  0  0  0  0  0  0  0  0  0  0  0
  145.5096  137.5561  151.1818 H   0  0  0  0  0  0  0  0  0  0  0  0
  144.3093  135.6777  150.1092 H   0  0  0  0  0  0  0  0  0  0  0  0
  146.0138  135.3170  150.2737 H   0  0  0  0  0  0  0  0  0  0  0  0
  143.7854  134.3502  152.1398 H   0  0  0  0  0  0  0  0  0  0  0  0
  144.6586  133.3628  150.9857 H   0  0  0  0  0  0  0  0  0  0  0  0
  145.5889  133.1061  153.2814 H   0  0  0  0  0  0  0  0  0  0  0  0
  146.7761  133.7401  152.1704 H   0  0  0  0  0  0  0  0  0  0  0  0
  145.1700  135.3596  154.2059 H   0  0  0  0  0  0  0  0  0  0  0  0
  147.0561  133.9091  155.0672 H   0  0  0  0  0  0  0  0  0  0  0  0
  147.3899  135.5944  155.3498 H   0  0  0  0  0  0  0  0  0  0  0  0
  148.1769  134.7568  154.0172 H   0  0  0  0  0  0  0  0  0  0  0  0
  147.1758  136.2822  152.3068 H   0  0  0  0  0  0  0  0  0  0  0  0
  1  2  1  0  0  0  0
  1 20  1  0  0  0  0
  1 21  1  0  0  0  0
  1 22  1  0  0  0  0
  2 19  1  0  0  0  0
  2  3  2  0  0  0  0
  3  4  1  0  0  0  0
  3 23  1  0  0  0  0
  4  5  1  0  0  0  0
  4 18  2  0  0  0  0
  5  6  1  0  0  0  0
  5 24  1  0  0  0  0
  6  7  2  0  0  0  0
  6  8  1  0  0  0  0
  8  9  1  0  0  0  0
  9 10  1  0  0  0  0
  9 25  1  0  0  0  0
  9 26  1  0  0  0  0
 10 11  1  0  0  0  0
 10 27  1  0  0  0  0
 10 28  1  0  0  0  0
 11 16  1  0  0  0  0
 11 12  1  0  0  0  0
 11 41  1  0  0  0  0
 12 13  1  0  0  0  0
 12 29  1  0  0  0  0
 12 30  1  0  0  0  0
 13 14  1  0  0  0  0
 13 31  1  0  0  0  0
 13 32  1  0  0  0  0
 14 15  1  0  0  0  0
 14 33  1  0  0  0  0
 14 34  1  0  0  0  0
 15 16  1  0  0  0  0
 15 35  1  0  0  0  0
 15 36  1  0  0  0  0
 16 17  1  0  0  0  0
 16 37  1  0  0  0  0
 17 38  1  0  0  0  0
 17 39  1  0  0  0  0
 17 40  1  0  0  0  0
 18 19  1  0  0  0  0
M  CHG  1   8  -1
M  CHG  1  11   1
M  END
> <s_m_source_file>
AV-unprocessed.smi

> <i_m_source_file_index>
2079

> <i_lp_mmshare_version>
43012

> <i_f3d_flags>
0

> <s_epik_input>
W0NIM11jMVtjSF1jKG5vMSlbTkhdQyg9TylbTkhdW0NIMl1bQ0gyXU4yW0NIMl1bQ0gyXVtDSDJdW0NIMl1bQ0BIXTJbQ0gzXQ==

> <s_epik_cmdline>
J2VwaWtfcHl0aG9uJywgJy1waCcsICc3LjAnLCAnLXRuJywgJzgnLCAnLW1hJywgJzIwMCcsICctbWV0YWxfYmluZGluZycsICctaW1hZScsICc8aW5maWxlLm1hZT4nLCAnLW9tYWUnLCAnPG91dGZpbGUubWFlPic=

> <r_epik_Ionization_Penalty>
6.7666

> <r_epik_Ionization_Penalty_Charging>
6.7666

> <r_epik_Ionization_Penalty_Neutral>
5.77131e-06

> <r_epik_State_Penalty>
6.79217

> <r_epik_Charging_Adjusted_Penalty>
13.5588

> <i_epik_Tot_Q>
0

> <i_epik_Tot_abs_Q>
2

> <r_epik_Metal_State_Penalty>
2.72569

> <b_epik_Metal_Only>
1

> <s_lp_Force_Field>
OPLS_2005

> <r_lp_Energy>
12.5834

> <b_lp_Chiralities_Consistent>
1

> <s_lp_Variant>
AV-unprocessed.smi:2079-9

> <Gold.Version>
5.8.1

> <Gold.Id.Protein>
6NUR|6NUR_protein|mol2

> <Gold.PLP.Fitness>
41.0734

> <Gold.PLP.PLP>
-28.1955

> <Gold.PLP.part.hbond>
-5.7308

> <Gold.PLP.part.metal>
0.0000

> <Gold.PLP.part.buried>
4.1159

> <Gold.PLP.part.nonpolar>
-26.3421

> <Gold.PLP.part.repulsive>
0.5530

> <Gold.PLP.ligand.clash>
0.0000

> <Gold.PLP.ligand.torsion>
0.3687

> <Gold.PLP.Chemscore.Hbond>
4.4948

> <Gold.PLP.Chemscore.CHOScore>
0.0000

> <Gold.PLP.Chemscore.Metal>
0.0000

> <Gold.Chemscore.Hbonds>
donor molecule, donor type, donor heavy atom, donor atom, acceptor molecule, acceptor atom, score
      L1  H    11    41       P1  7948  2.00
      P1  H  7989  7998       L1    18  0.80
      P1  H  7997  8008       L1    19  0.63
      P1  H  8011  8017       L1     7  0.05

> <Gold.PLP.Chemscore.Internal.Correction>
0.1310

> <Gold.Rescore>
     Score         DG    S(hbond)    S(metal)    S(lipo)     H(rot)  DE(clash)    DE(int)     intcor
     14.84     -18.36       3.31        0.00      49.42       1.54       0.65       2.88       ----

> <Gold.Chemscore.Fitness>
14.8410

> <Gold.Chemscore.DG>
-18.3644

> <Gold.Chemscore.ZeroCoef>
-5.4800

> <Gold.Chemscore.Hbond>
3.3076

> <Gold.Chemscore.Metal>
0.0000

> <Gold.Chemscore.Lipo>
49.4166

> <Gold.Chemscore.Internal_Hbond>
0.0000

> <Gold.Chemscore.DEClash>
0.6477

> <Gold.Chemscore.DEInternal>
2.8757

> <Gold.Chemscore.Rot>
1.5409

> <Gold.Chemscore.Internal.Correction>
   9.000000E+99

> <Gold.Chemscore.Hbonds>
donor molecule, donor type, donor heavy atom, donor atom, acceptor molecule, acceptor atom, score
      L1  H    11    41       P1  7948  1.00
      P1  H  7989  7998       L1    18  0.03
      P1  H  7997  8008       L1    19  0.35
      P1  H  8011  8017       L1     7  0.05

> <Gold.Chemscore.Hbond.Weighted>
-11.0472

> <Gold.Chemscore.Metal.Weighted>
-0.0000

> <Gold.Chemscore.Lipo.Weighted>
-5.7817

> <Gold.Chemscore.Internal_Hbond.Weighted>
0.0000

> <Gold.Chemscore.DEClash.Weighted>
0.6477

> <Gold.Chemscore.DEInternal.Weighted>
2.8757

> <Gold.Chemscore.Rot.Weighted>
3.9446

> <Gold.Chemscore.Internal.Correction.Weighted>
   9.000000E+99

> <Gold.Protein.RotatedTorsions>
[ 6907 6896 6895 6894 ] final   29.57 input  -60.11 | X-H torsion
[ 7974 7965 7964 7962 ] final  169.03 input  175.53 | X-H torsion
[ 8008 7997 7996 7995 ] final  -27.64 input   59.86 | X-H torsion
[ 10167 10162 10161 10158 ] final  -87.37 input  -65.29 | X-H torsion
[ 10718 10713 10712 10709 ] final  103.94 input   66.30 | X-H torsion
[ 10763 10752 10751 10750 ] final  122.58 input  -60.55 | X-H torsion
[ 11005 11000 10999 10996 ] final   50.86 input  -57.11 | X-H torsion

> <Gold.Protein.ActiveResidues>
 VAL166  LYS551  ARG553  GLY616  TRP617  ASP618  TYR619  PRO620  LYS621  CYS622 
 ASP623  PHE694  ASN695  SER759  ASP760  ASP761  ALA762  ILE779  LEU786  VAL792 
 PHE793  MET794  SER795  GLU796  ALA797  LYS798  CYS799  TRP800  GLU811  SER814 

> <Gold.Protein.RotatedAtoms>
  152.0334  134.9754  160.0572 H   0  0  0  0  0  0  0  0  0  0  0  0  # atno 6907 bound_to 6896
  152.1222  133.4355  159.4689 H   0  0  0  0  0  0  0  0  0  0  0  0  # atno 6908 bound_to 6896
  150.6850  134.2440  159.4527 H   0  0  0  0  0  0  0  0  0  0  0  0  # atno 6909 bound_to 6896
  144.7368  139.8995  143.6408 H   0  0  0  0  0  0  0  0  0  0  0  0  # atno 7974 bound_to 7965
  154.4368  140.1867  156.0963 H   0  0  0  0  0  0  0  0  0  0  0  0  # atno 8008 bound_to 7997
  156.0327  140.3329  155.7131 H   0  0  0  0  0  0  0  0  0  0  0  0  # atno 8009 bound_to 7997
  155.5816  140.0622  157.2772 H   0  0  0  0  0  0  0  0  0  0  0  0  # atno 8010 bound_to 7997
  140.3851  143.2730  151.9335 H   0  0  0  0  0  0  0  0  0  0  0  0  # atno 10167 bound_to 10162
  157.6756  131.0791  150.5631 H   0  0  0  0  0  0  0  0  0  0  0  0  # atno 10718 bound_to 10713
  153.6320  135.3394  155.3045 H   0  0  0  0  0  0  0  0  0  0  0  0  # atno 10763 bound_to 10752
  154.8578  135.4298  154.2095 H   0  0  0  0  0  0  0  0  0  0  0  0  # atno 10764 bound_to 10752
  153.2993  135.7023  153.7291 H   0  0  0  0  0  0  0  0  0  0  0  0  # atno 10765 bound_to 10752
  140.0981  134.5118  155.8788 H   0  0  0  0  0  0  0  0  0  0  0  0  # atno 11005 bound_to 11000
  146.1082  139.4084  143.0304 LP  0  0  0  0  0  0  0  0  0  0  0  0  # atno 17320 bound_to 7965
  145.7481  140.9983  143.1265 LP  0  0  0  0  0  0  0  0  0  0  0  0  # atno 17321 bound_to 7965
  139.4792  144.5781  151.7978 LP  0  0  0  0  0  0  0  0  0  0  0  0  # atno 17342 bound_to 10162
  140.4897  144.1328  150.5948 LP  0  0  0  0  0  0  0  0  0  0  0  0  # atno 17343 bound_to 10162
  156.5934  130.4335  149.5927 LP  0  0  0  0  0  0  0  0  0  0  0  0  # atno 17370 bound_to 10713
  156.2565  130.6937  151.1692 LP  0  0  0  0  0  0  0  0  0  0  0  0  # atno 17371 bound_to 10713
  141.2098  133.6687  156.6463 LP  0  0  0  0  0  0  0  0  0  0  0  0  # atno 17394 bound_to 11000
  140.3258  134.7970  157.4288 LP  0  0  0  0  0  0  0  0  0  0  0  0  # atno 17395 bound_to 11000

$$$$
