#       Name:                AV-unprocessed.smi:2923
#       Creating user name   scv26
#       Creation time:       Fri Mar 27 16:09:32 2020


#       File generated by GOLD software.
#

@<TRIPOS>MOLECULE
AV-unprocessed.smi:2923
    52    54     1
SMALL
NO_CHARGES


@<TRIPOS>ATOM
      1 ****        -6.5877  -0.6198   1.1084 C.3            1 S1                 0.0000
      2 ****        -6.0197  -1.1252  -0.1323 N.3            1 S1                 0.0000
      3 ****        -6.6292  -0.6364  -1.3598 C.3            1 S1                 0.0000
      4 ****        -4.6197  -1.0639  -0.1539 C.ar           1 S1                 0.0000
      5 ****        -3.8348  -2.2350  -0.1250 C.ar           1 S1                 0.0000
      6 ****        -2.4292  -2.1262  -0.1425 C.ar           1 S1                 0.0000
      7 ****        -1.8251  -0.8514  -0.1973 C.ar           1 S1                 0.0000
      8 ****        -0.4054  -0.7910  -0.1942 N.am           1 S1                 0.0000
      9 ****         0.3896   0.2241  -0.5740 C.2            1 S1                 0.0000
     10 ****         0.0034   1.2978  -1.0351 O.2            1 S1                 0.0000
     11 ****         1.6817  -0.0830  -0.4007 N.am           1 S1                 0.0000
     12 ****         2.8021   0.7998  -0.7424 C.3            1 S1                 0.0000
     13 ****         4.1524   0.0807  -0.6849 C.3            1 S1                 0.0000
     14 ****         4.6057  -1.3344  -0.6842 C.3            1 S1                 0.0000
     15 ****         5.7062  -1.1842   0.4011 C.3            1 S1                 0.0000
     16 ****         5.5247   0.1364   0.9744 O.3            1 S1                 0.0000
     17 ****         4.1468   0.3981   0.7965 C.3            1 S1                 0.0000
     18 ****         3.3653   1.6830   0.4420 C.3            1 S1                 0.0000
     19 ****         4.1927   2.9250   0.0636 C.3            1 S1                 0.0000
     20 ****         2.3642   2.1570   1.5016 C.3            1 S1                 0.0000
     21 ****        -2.6633   0.2905  -0.2151 C.ar           1 S1                 0.0000
     22 ****        -4.0058   0.1423  -0.1955 N.pl3          1 S1                 1.0000
     23 ****        -6.0887  -1.0605   1.9725 H              1 S1                 0.0000
     24 ****        -7.6468  -0.8716   1.1679 H              1 S1                 0.0000
     25 ****        -6.4910   0.4649   1.1699 H              1 S1                 0.0000
     26 ****        -6.1492  -1.0771  -2.2344 H              1 S1                 0.0000
     27 ****        -6.5498   0.4488  -1.4320 H              1 S1                 0.0000
     28 ****        -7.6860  -0.9034  -1.3871 H              1 S1                 0.0000
     29 ****        -4.3027  -3.2082  -0.0882 H              1 S1                 0.0000
     30 ****        -1.8218  -3.0193  -0.1179 H              1 S1                 0.0000
     31 ****         0.0646  -1.6377   0.0911 H              1 S1                 0.0000
     32 ****         1.9139  -0.9877  -0.0179 H              1 S1                 0.0000
     33 ****         2.6596   1.3574  -1.6697 H              1 S1                 0.0000
     34 ****         4.8801   0.6754  -1.2423 H              1 S1                 0.0000
     35 ****         3.8171  -2.0218  -0.3756 H              1 S1                 0.0000
     36 ****         5.0054  -1.6540  -1.6469 H              1 S1                 0.0000
     37 ****         5.5990  -1.9502   1.1700 H              1 S1                 0.0000
     38 ****         6.7086  -1.2655  -0.0200 H              1 S1                 0.0000
     39 ****         3.5483  -0.2924   1.3997 H              1 S1                 0.0000
     40 ****         4.7808   3.2793   0.9107 H              1 S1                 0.0000
     41 ****         3.5499   3.7472  -0.2524 H              1 S1                 0.0000
     42 ****         4.8924   2.7511  -0.7519 H              1 S1                 0.0000
     43 ****         2.8641   2.6617   2.3289 H              1 S1                 0.0000
     44 ****         1.8024   1.3292   1.9341 H              1 S1                 0.0000
     45 ****         1.6396   2.8543   1.0802 H              1 S1                 0.0000
     46 ****        -2.3215   1.3142  -0.2302 H              1 S1                 0.0000
     47 ****        -4.5845   0.9823  -0.2086 H              1 S1                 0.0000
     48 ****        -6.2721  -2.0928  -0.1238 LP             1 S1                 0.0000
     49 ****        -0.9748   1.4685  -1.1528 LP             1 S1                 0.0000
     50 ****         0.6679   1.9995  -1.2921 LP             1 S1                 0.0000
     51 ****         6.0806   0.8132   0.4918 LP             1 S1                 0.0000
     52 ****         5.7649   0.1389   1.9451 LP             1 S1                 0.0000
@<TRIPOS>BOND
    1    1    2 1     
    2    1   23 1     
    3    1   24 1     
    4    1   25 1     
    5    2    3 1     
    6    2    4 1     
    7    3   26 1     
    8    3   27 1     
    9    3   28 1     
   10    4   22 ar    
   11    4    5 ar    
   12    5    6 ar    
   13    5   29 1     
   14    6    7 ar    
   15    6   30 1     
   16    7    8 1     
   17    7   21 ar    
   18    8    9 am    
   19    8   31 1     
   20    9   10 2     
   21    9   11 am    
   22   11   12 1     
   23   11   32 1     
   24   12   18 1     
   25   12   13 1     
   26   12   33 1     
   27   13   17 1     
   28   13   14 1     
   29   13   34 1     
   30   14   15 1     
   31   14   35 1     
   32   14   36 1     
   33   15   16 1     
   34   15   37 1     
   35   15   38 1     
   36   16   17 1     
   37   17   18 1     
   38   17   39 1     
   39   18   19 1     
   40   18   20 1     
   41   19   40 1     
   42   19   41 1     
   43   19   42 1     
   44   20   43 1     
   45   20   44 1     
   46   20   45 1     
   47   21   22 ar    
   48   21   46 1     
   49   22   47 1     
   50    2   48 1     
   51   10   49 1     
   52   10   50 1     
   53   16   51 1     
   54   16   52 1     
@<TRIPOS>SUBSTRUCTURE
      1 S1             1
@<TRIPOS>SET
LONE_PAIRS      STATIC     ATOMS    <user>   **** ""
5 48 49 50 51 52
DONOR_HYDROGENS      STATIC     ATOMS    <user>   **** ""
3 31 32 47
ATOM$BLUE        STATIC     ATOMS    COLORGROUP SYSTEM
5 48 49 50 51 52
ATOM$RED        STATIC     ATOMS    COLORGROUP SYSTEM
3 31 32 47
