AV-unprocessed.smi:2282|AV-procd|sdf|9196|dock1
  -GOLD-   2272012413D 1   1.00000     0.00000
 Structure written by MMmdl.
 32 33  0  0  0  0  0  0  0  0  1 V2000
  152.1035  145.2236  159.9674 C   0  0  0  0  0  0  0  0  0  0  0  0
  152.3274  143.7340  159.7842 C   0  0  0  0  0  0  0  0  0  0  0  0
  152.8900  143.0940  160.8324 N   0  0  0  0  0  0  0  0  0  0  0  0
  153.1049  141.7668  160.7241 C   0  0  0  0  0  0  0  0  0  0  0  0
  152.7793  141.0202  159.5756 C   0  0  0  0  0  0  0  0  0  0  0  0
  152.2048  141.6906  158.4691 C   0  0  0  0  0  0  0  0  0  0  0  0
  151.8171  141.0317  157.2691 N   0  0  0  0  0  0  0  0  0  0  0  0
  152.2396  139.8532  156.7761 C   0  0  0  0  0  0  0  0  0  0  0  0
  153.0718  139.1247  157.3170 O   0  0  0  0  0  0  0  0  0  0  0  0
  151.6145  139.4350  155.4399 C   0  0  1  0  0  0  0  0  0  0  0  0
  150.6903  138.2068  155.5346 C   0  0  0  0  0  0  0  0  0  0  0  0
  149.3047  138.7855  155.3282 C   0  0  0  0  0  0  0  0  0  0  0  0
  149.5967  139.9803  154.4275 C   0  0  1  0  0  0  0  0  0  0  0  0
  148.4923  141.0422  154.4186 C   0  0  0  0  0  0  0  0  0  0  0  0
  150.7933  140.5071  154.9802 O   0  0  0  0  0  0  0  0  0  0  0  0
  151.9622  143.0796  158.5843 C   0  0  0  0  0  0  0  0  0  0  0  0
  151.2397  143.9638  157.2815 Cl  0  0  0  0  0  0  0  0  0  0  0  0
  151.0449  145.4635  159.8643 H   0  0  0  0  0  0  0  0  0  0  0  0
  152.6597  145.7849  159.2159 H   0  0  0  0  0  0  0  0  0  0  0  0
  152.4306  145.5613  160.9518 H   0  0  0  0  0  0  0  0  0  0  0  0
  153.5443  141.2820  161.5833 H   0  0  0  0  0  0  0  0  0  0  0  0
  152.9621  139.9568  159.5731 H   0  0  0  0  0  0  0  0  0  0  0  0
  151.1904  141.5554  156.6753 H   0  0  0  0  0  0  0  0  0  0  0  0
  152.3959  139.2458  154.7018 H   0  0  0  0  0  0  0  0  0  0  0  0
  150.9256  137.5090  154.7300 H   0  0  0  0  0  0  0  0  0  0  0  0
  150.7695  137.6572  156.4739 H   0  0  0  0  0  0  0  0  0  0  0  0
  148.6065  138.0758  154.8836 H   0  0  0  0  0  0  0  0  0  0  0  0
  148.8947  139.1186  156.2829 H   0  0  0  0  0  0  0  0  0  0  0  0
  149.8011  139.6394  153.4111 H   0  0  0  0  0  0  0  0  0  0  0  0
  147.5611  140.6330  154.0261 H   0  0  0  0  0  0  0  0  0  0  0  0
  148.7733  141.8905  153.7942 H   0  0  0  0  0  0  0  0  0  0  0  0
  148.2970  141.4181  155.4234 H   0  0  0  0  0  0  0  0  0  0  0  0
  1  2  1  0  0  0  0
  1 18  1  0  0  0  0
  1 19  1  0  0  0  0
  1 20  1  0  0  0  0
  2 16  1  0  0  0  0
  2  3  2  0  0  0  0
  3  4  1  0  0  0  0
  4  5  2  0  0  0  0
  4 21  1  0  0  0  0
  5  6  1  0  0  0  0
  5 22  1  0  0  0  0
  6  7  1  0  0  0  0
  6 16  2  0  0  0  0
  7  8  1  0  0  0  0
  7 23  1  0  0  0  0
  8  9  2  0  0  0  0
  8 10  1  0  0  0  0
 10 15  1  0  0  0  0
 10 11  1  0  0  0  0
 10 24  1  0  0  0  0
 11 12  1  0  0  0  0
 11 25  1  0  0  0  0
 11 26  1  0  0  0  0
 12 13  1  0  0  0  0
 12 27  1  0  0  0  0
 12 28  1  0  0  0  0
 13 14  1  0  0  0  0
 13 15  1  0  0  0  0
 13 29  1  0  0  0  0
 14 30  1  0  0  0  0
 14 31  1  0  0  0  0
 14 32  1  0  0  0  0
 16 17  1  0  0  0  0
M  END
> <s_m_source_file>
AV-unprocessed.smi

> <i_m_source_file_index>
2282

> <i_lp_mmshare_version>
43012

> <i_f3d_flags>
0

> <s_epik_input>
W0NIM11jMW5bY0hdW2NIXWMoYzFDbClbTkhdQyg9TylbQ0BASF0yW0NIMl1bQ0gyXVtDQEhdKE8yKVtDSDNd

> <s_epik_cmdline>
J2VwaWtfcHl0aG9uJywgJy1waCcsICc3LjAnLCAnLXRuJywgJzgnLCAnLW1hJywgJzIwMCcsICctbWV0YWxfYmluZGluZycsICctaW1hZScsICc8aW5maWxlLm1hZT4nLCAnLW9tYWUnLCAnPG91dGZpbGUubWFlPic=

> <r_epik_Ionization_Penalty>
0.00037231

> <r_epik_Ionization_Penalty_Charging>
0

> <r_epik_Ionization_Penalty_Neutral>
0.00037231

> <r_epik_State_Penalty>
0.000225113

> <r_epik_Charging_Adjusted_Penalty>
0.000225113

> <i_epik_Tot_Q>
0

> <i_epik_Tot_abs_Q>
0

> <r_epik_Metal_State_Penalty>
-0

> <b_epik_Metal_Only>
0

> <s_lp_Force_Field>
OPLS_2005

> <r_lp_Energy>
24.1331

> <b_lp_Chiralities_Consistent>
1

> <s_lp_Variant>
AV-unprocessed.smi:2282-2

> <Gold.Version>
5.8.1

> <Gold.Id.Protein>
6NUR|6NUR_protein|mol2

> <Gold.PLP.Fitness>
40.8290

> <Gold.PLP.PLP>
-35.1863

> <Gold.PLP.part.hbond>
-2.0000

> <Gold.PLP.part.metal>
0.0000

> <Gold.PLP.part.buried>
-0.7906

> <Gold.PLP.part.nonpolar>
-31.6182

> <Gold.PLP.part.repulsive>
0.2012

> <Gold.PLP.ligand.clash>
0.0000

> <Gold.PLP.ligand.torsion>
0.1822

> <Gold.PLP.Chemscore.Hbond>
2.0000

> <Gold.PLP.Chemscore.CHOScore>
0.0000

> <Gold.PLP.Chemscore.Metal>
0.0000

> <Gold.Chemscore.Hbonds>
donor molecule, donor type, donor heavy atom, donor atom, acceptor molecule, acceptor atom, score
      P1  H  7989  7998       L1    15  0.90
      P1  H  7997  8010       L1     9  1.00

> <Gold.PLP.Chemscore.Internal.Correction>
0.0071

> <Gold.Rescore>
     Score         DG    S(hbond)    S(metal)    S(lipo)     H(rot)  DE(clash)    DE(int)     intcor
     16.03     -19.15       1.15        0.00     105.87       1.00       1.57       1.55       ----

> <Gold.Chemscore.Fitness>
16.0258

> <Gold.Chemscore.DG>
-19.1462

> <Gold.Chemscore.ZeroCoef>
-5.4800

> <Gold.Chemscore.Hbond>
1.1495

> <Gold.Chemscore.Metal>
0.0000

> <Gold.Chemscore.Lipo>
105.8702

> <Gold.Chemscore.Internal_Hbond>
0.0000

> <Gold.Chemscore.DEClash>
1.5674

> <Gold.Chemscore.DEInternal>
1.5529

> <Gold.Chemscore.Rot>
1.0000

> <Gold.Chemscore.Internal.Correction>
   9.000000E+99

> <Gold.Chemscore.Hbonds>
donor molecule, donor type, donor heavy atom, donor atom, acceptor molecule, acceptor atom, score
      P1  H  7989  7998       L1    15  0.04
      P1  H  7997  8010       L1     9  0.30

> <Gold.Chemscore.Hbond.Weighted>
-3.8394

> <Gold.Chemscore.Metal.Weighted>
-0.0000

> <Gold.Chemscore.Lipo.Weighted>
-12.3868

> <Gold.Chemscore.Internal_Hbond.Weighted>
0.0000

> <Gold.Chemscore.DEClash.Weighted>
1.5674

> <Gold.Chemscore.DEInternal.Weighted>
1.5529

> <Gold.Chemscore.Rot.Weighted>
2.5600

> <Gold.Chemscore.Internal.Correction.Weighted>
   9.000000E+99

> <Gold.Protein.RotatedTorsions>
[ 6907 6896 6895 6894 ] final    7.14 input  -60.11 | X-H torsion
[ 7974 7965 7964 7962 ] final  -88.26 input  175.53 | X-H torsion
[ 8008 7997 7996 7995 ] final   34.59 input   59.86 | X-H torsion
[ 10167 10162 10161 10158 ] final  -53.11 input  -65.29 | X-H torsion
[ 10718 10713 10712 10709 ] final -124.32 input   66.30 | X-H torsion
[ 10763 10752 10751 10750 ] final  145.20 input  -60.55 | X-H torsion
[ 11005 11000 10999 10996 ] final   17.70 input  -57.11 | X-H torsion

> <Gold.Protein.ActiveResidues>
 VAL166  LYS551  ARG553  GLY616  TRP617  ASP618  TYR619  PRO620  LYS621  CYS622 
 ASP623  PHE694  ASN695  SER759  ASP760  ASP761  ALA762  ILE779  LEU786  VAL792 
 PHE793  MET794  SER795  GLU796  ALA797  LYS798  CYS799  TRP800  GLU811  SER814 

> <Gold.Protein.RotatedAtoms>
  151.6851  135.0955  160.0222 H   0  0  0  0  0  0  0  0  0  0  0  0  # atno 6907 bound_to 6896
  152.3812  133.6545  159.6171 H   0  0  0  0  0  0  0  0  0  0  0  0  # atno 6908 bound_to 6896
  150.7749  133.9027  159.3387 H   0  0  0  0  0  0  0  0  0  0  0  0  # atno 6909 bound_to 6896
  145.4555  140.9561  143.1999 H   0  0  0  0  0  0  0  0  0  0  0  0  # atno 7974 bound_to 7965
  155.1574  140.3280  155.4418 H   0  0  0  0  0  0  0  0  0  0  0  0  # atno 8008 bound_to 7997
  156.2554  140.1966  156.6633 H   0  0  0  0  0  0  0  0  0  0  0  0  # atno 8009 bound_to 7997
  154.6429  140.0568  156.9853 H   0  0  0  0  0  0  0  0  0  0  0  0  # atno 8010 bound_to 7997
  140.6502  143.2561  151.4744 H   0  0  0  0  0  0  0  0  0  0  0  0  # atno 10167 bound_to 10162
  156.1577  130.6580  151.0005 H   0  0  0  0  0  0  0  0  0  0  0  0  # atno 10718 bound_to 10713
  154.0015  135.2923  155.3402 H   0  0  0  0  0  0  0  0  0  0  0  0  # atno 10763 bound_to 10752
  154.7157  135.5131  153.8737 H   0  0  0  0  0  0  0  0  0  0  0  0  # atno 10764 bound_to 10752
  153.0764  135.6665  154.0256 H   0  0  0  0  0  0  0  0  0  0  0  0  # atno 10765 bound_to 10752
  140.4330  134.1400  155.7682 H   0  0  0  0  0  0  0  0  0  0  0  0  # atno 11005 bound_to 11000
  144.8035  139.6095  143.7061 LP  0  0  0  0  0  0  0  0  0  0  0  0  # atno 17320 bound_to 7965
  146.2480  139.6140  142.9446 LP  0  0  0  0  0  0  0  0  0  0  0  0  # atno 17321 bound_to 7965
  139.5716  144.1914  152.1845 LP  0  0  0  0  0  0  0  0  0  0  0  0  # atno 17342 bound_to 10162
  140.1212  144.5371  150.6861 LP  0  0  0  0  0  0  0  0  0  0  0  0  # atno 17343 bound_to 10162
  157.6708  131.0862  150.7616 LP  0  0  0  0  0  0  0  0  0  0  0  0  # atno 17370 bound_to 10713
  156.7681  130.4820  149.5424 LP  0  0  0  0  0  0  0  0  0  0  0  0  # atno 17371 bound_to 10713
  141.1737  133.8556  157.1488 LP  0  0  0  0  0  0  0  0  0  0  0  0  # atno 17394 bound_to 11000
  140.0121  134.9983  157.0417 LP  0  0  0  0  0  0  0  0  0  0  0  0  # atno 17395 bound_to 11000

$$$$
