AV-unprocessed.smi:2784|AV-procd|sdf|10734|dock5
  -GOLD-   2272015173D 1   1.00000     0.00000
 Structure written by MMmdl.
 31 32  0  0  0  0  0  0  0  0  1 V2000
  153.4795  141.3107  160.3765 C   0  0  0  0  0  0  0  0  0  0  0  0
  152.1996  141.5340  159.8061 O   0  0  0  0  0  0  0  0  0  0  0  0
  152.1949  142.5293  158.7918 C   0  0  2  0  0  0  0  0  0  0  0  0
  152.8489  143.8062  159.3268 C   0  0  0  0  0  0  0  0  0  0  0  0
  152.1999  144.9284  158.5249 C   0  0  0  0  0  0  0  0  0  0  0  0
  150.7435  144.4860  158.3874 C   0  0  0  0  0  0  0  0  0  0  0  0
  150.7699  142.9446  158.3589 C   0  0  1  0  0  0  0  0  0  0  0  0
  150.4730  142.4390  157.0207 N   0  0  0  0  0  0  0  0  0  0  0  0
  150.7914  141.2209  156.5589 C   0  0  0  0  0  0  0  0  0  0  0  0
  151.3790  140.3935  157.2628 O   0  0  0  0  0  0  0  0  0  0  0  0
  150.3976  141.0931  155.2354 N   0  0  0  0  0  0  0  0  0  0  0  0
  149.1486  141.2538  154.9215 C   0  0  0  0  0  0  0  0  0  0  0  0
  148.0101  141.5282  155.6747 N   0  0  0  0  0  0  0  0  0  0  0  0
  146.9405  141.5832  154.8257 C   0  0  0  0  0  0  0  0  0  0  0  0
  147.3814  141.3533  153.5925 C   0  0  0  0  0  0  0  0  0  0  0  0
  148.7282  141.1480  153.6197 O   0  0  0  0  0  0  0  0  0  0  0  0
  153.4023  140.5563  161.1592 H   0  0  0  0  0  0  0  0  0  0  0  0
  153.8748  142.2217  160.8274 H   0  0  0  0  0  0  0  0  0  0  0  0
  154.1936  140.9499  159.6358 H   0  0  0  0  0  0  0  0  0  0  0  0
  152.7783  142.1926  157.9319 H   0  0  0  0  0  0  0  0  0  0  0  0
  152.6083  143.9339  160.3833 H   0  0  0  0  0  0  0  0  0  0  0  0
  153.9351  143.7920  159.2331 H   0  0  0  0  0  0  0  0  0  0  0  0
  152.2999  145.9019  159.0056 H   0  0  0  0  0  0  0  0  0  0  0  0
  152.6618  144.9918  157.5387 H   0  0  0  0  0  0  0  0  0  0  0  0
  150.1844  144.8173  159.2636 H   0  0  0  0  0  0  0  0  0  0  0  0
  150.2618  144.9307  157.5154 H   0  0  0  0  0  0  0  0  0  0  0  0
  150.0386  142.5628  159.0740 H   0  0  0  0  0  0  0  0  0  0  0  0
  149.9999  143.0711  156.3915 H   0  0  0  0  0  0  0  0  0  0  0  0
  147.9403  141.6690  156.6726 H   0  0  0  0  0  0  0  0  0  0  0  0
  145.9502  141.7864  155.2057 H   0  0  0  0  0  0  0  0  0  0  0  0
  146.8865  141.3043  152.6338 H   0  0  0  0  0  0  0  0  0  0  0  0
  1  2  1  0  0  0  0
  1 17  1  0  0  0  0
  1 18  1  0  0  0  0
  1 19  1  0  0  0  0
  2  3  1  0  0  0  0
  3  7  1  0  0  0  0
  3  4  1  0  0  0  0
  3 20  1  0  0  0  0
  4  5  1  0  0  0  0
  4 21  1  0  0  0  0
  4 22  1  0  0  0  0
  5  6  1  0  0  0  0
  5 23  1  0  0  0  0
  5 24  1  0  0  0  0
  6  7  1  0  0  0  0
  6 25  1  0  0  0  0
  6 26  1  0  0  0  0
  7  8  1  0  0  0  0
  7 27  1  0  0  0  0
  8 28  1  0  0  0  0
  8  9  1  0  0  0  0
  9 11  1  0  0  0  0
  9 10  2  0  0  0  0
 11 12  2  0  0  0  0
 12 16  1  0  0  0  0
 12 13  1  0  0  0  0
 13 29  1  0  0  0  0
 13 14  1  0  0  0  0
 14 30  1  0  0  0  0
 14 15  2  0  0  0  0
 15 31  1  0  0  0  0
 15 16  1  0  0  0  0
M  END
> <s_m_source_file>
AV-unprocessed.smi

> <i_m_source_file_index>
2784

> <i_lp_mmshare_version>
43012

> <i_f3d_flags>
0

> <s_epik_input>
W0NIM11PW0NAQEhdMVtDSDJdW0NIMl1bQ0gyXVtDQEhdMVtOSF1DKD1PKVtOSF1jMm5bY0hdW2NIXW8y

> <s_epik_cmdline>
J2VwaWtfcHl0aG9uJywgJy1waCcsICc3LjAnLCAnLXRuJywgJzgnLCAnLW1hJywgJzIwMCcsICctbWV0YWxfYmluZGluZycsICctaW1hZScsICc8aW5maWxlLm1hZT4nLCAnLW9tYWUnLCAnPG91dGZpbGUubWFlPic=

> <r_lp_tautomer_probability>
0.107061

> <r_epik_Ionization_Penalty>
1.29244

> <r_epik_Ionization_Penalty_Charging>
1.29208

> <r_epik_Ionization_Penalty_Neutral>
0.000359742

> <r_epik_State_Penalty>
2.59896

> <r_epik_Charging_Adjusted_Penalty>
3.89105

> <i_epik_Tot_Q>
0

> <i_epik_Tot_abs_Q>
0

> <r_epik_Metal_State_Penalty>
3.62496

> <b_epik_Metal_Only>
0

> <s_lp_Force_Field>
OPLS_2005

> <r_lp_Energy>
42.7812

> <b_lp_Chiralities_Consistent>
1

> <s_lp_Variant>
AV-unprocessed.smi:2784-9

> <Gold.Version>
5.8.1

> <Gold.Id.Protein>
6NUR|6NUR_protein|mol2

> <Gold.PLP.Fitness>
40.2105

> <Gold.PLP.PLP>
-35.2137

> <Gold.PLP.part.hbond>
-4.0000

> <Gold.PLP.part.metal>
0.0000

> <Gold.PLP.part.buried>
-5.3891

> <Gold.PLP.part.nonpolar>
-27.2484

> <Gold.PLP.part.repulsive>
1.7902

> <Gold.PLP.ligand.clash>
0.0000

> <Gold.PLP.ligand.torsion>
0.8531

> <Gold.PLP.Chemscore.Hbond>
2.2321

> <Gold.PLP.Chemscore.CHOScore>
0.0000

> <Gold.PLP.Chemscore.Metal>
0.0000

> <Gold.Chemscore.Hbonds>
donor molecule, donor type, donor heavy atom, donor atom, acceptor molecule, acceptor atom, score
      L1  H     8    28       P1  8028  0.78
      P1  H  7989  7998       L1    11  0.50
      P1  H  8011  8017       L1    16  0.76

> <Gold.PLP.Chemscore.Internal.Correction>
0.0067

> <Gold.Rescore>
     Score         DG    S(hbond)    S(metal)    S(lipo)     H(rot)  DE(clash)    DE(int)     intcor
     13.33     -18.59       2.05        0.00      82.48       1.32       1.63       3.63       ----

> <Gold.Chemscore.Fitness>
13.3315

> <Gold.Chemscore.DG>
-18.5945

> <Gold.Chemscore.ZeroCoef>
-5.4800

> <Gold.Chemscore.Hbond>
2.0517

> <Gold.Chemscore.Metal>
0.0000

> <Gold.Chemscore.Lipo>
82.4784

> <Gold.Chemscore.Internal_Hbond>
0.0000

> <Gold.Chemscore.DEClash>
1.6349

> <Gold.Chemscore.DEInternal>
3.6281

> <Gold.Chemscore.Rot>
1.3235

> <Gold.Chemscore.Internal.Correction>
   9.000000E+99

> <Gold.Chemscore.Hbonds>
donor molecule, donor type, donor heavy atom, donor atom, acceptor molecule, acceptor atom, score
      L1  H     8    28       P1  8028  0.76
      P1  H  7989  7998       L1    11  0.42
      P1  H  8011  8017       L1    16  0.54

> <Gold.Chemscore.Hbond.Weighted>
-6.8527

> <Gold.Chemscore.Metal.Weighted>
-0.0000

> <Gold.Chemscore.Lipo.Weighted>
-9.6500

> <Gold.Chemscore.Internal_Hbond.Weighted>
0.0000

> <Gold.Chemscore.DEClash.Weighted>
1.6349

> <Gold.Chemscore.DEInternal.Weighted>
3.6281

> <Gold.Chemscore.Rot.Weighted>
3.3882

> <Gold.Chemscore.Internal.Correction.Weighted>
   9.000000E+99

> <Gold.Protein.RotatedTorsions>
[ 6907 6896 6895 6894 ] final  -30.23 input  -60.11 | X-H torsion
[ 7974 7965 7964 7962 ] final  101.24 input  175.53 | X-H torsion
[ 8008 7997 7996 7995 ] final -119.72 input   59.86 | X-H torsion
[ 10167 10162 10161 10158 ] final  -30.52 input  -65.29 | X-H torsion
[ 10718 10713 10712 10709 ] final   38.15 input   66.30 | X-H torsion
[ 10763 10752 10751 10750 ] final   -1.04 input  -60.55 | X-H torsion
[ 11005 11000 10999 10996 ] final   26.52 input  -57.11 | X-H torsion

> <Gold.Protein.ActiveResidues>
 VAL166  LYS551  ARG553  GLY616  TRP617  ASP618  TYR619  PRO620  LYS621  CYS622 
 ASP623  PHE694  ASN695  SER759  ASP760  ASP761  ALA762  ILE779  LEU786  VAL792 
 PHE793  MET794  SER795  GLU796  ALA797  LYS798  CYS799  TRP800  GLU811  SER814 

> <Gold.Protein.RotatedAtoms>
  151.1084  135.0012  159.8481 H   0  0  0  0  0  0  0  0  0  0  0  0  # atno 6907 bound_to 6896
  152.5441  134.1866  159.8667 H   0  0  0  0  0  0  0  0  0  0  0  0  # atno 6908 bound_to 6896
  151.1914  133.4620  159.2628 H   0  0  0  0  0  0  0  0  0  0  0  0  # atno 6909 bound_to 6896
  145.3750  139.2390  143.3434 H   0  0  0  0  0  0  0  0  0  0  0  0  # atno 7974 bound_to 7965
  155.1202  140.0398  157.2748 H   0  0  0  0  0  0  0  0  0  0  0  0  # atno 8008 bound_to 7997
  154.6619  140.2593  155.7074 H   0  0  0  0  0  0  0  0  0  0  0  0  # atno 8009 bound_to 7997
  156.2622  140.2815  156.1094 H   0  0  0  0  0  0  0  0  0  0  0  0  # atno 8010 bound_to 7997
  140.7248  143.3842  151.1545 H   0  0  0  0  0  0  0  0  0  0  0  0  # atno 10167 bound_to 10162
  157.3554  130.7621  149.7009 H   0  0  0  0  0  0  0  0  0  0  0  0  # atno 10718 bound_to 10713
  153.3397  135.6980  153.6877 H   0  0  0  0  0  0  0  0  0  0  0  0  # atno 10763 bound_to 10752
  153.5647  135.3528  155.2814 H   0  0  0  0  0  0  0  0  0  0  0  0  # atno 10764 bound_to 10752
  154.8634  135.4257  154.2607 H   0  0  0  0  0  0  0  0  0  0  0  0  # atno 10765 bound_to 10752
  140.3361  134.2384  155.7696 H   0  0  0  0  0  0  0  0  0  0  0  0  # atno 11005 bound_to 11000
  146.2868  140.4407  142.8755 LP  0  0  0  0  0  0  0  0  0  0  0  0  # atno 17320 bound_to 7965
  144.8549  140.7055  143.6144 LP  0  0  0  0  0  0  0  0  0  0  0  0  # atno 17321 bound_to 7965
  139.7436  143.8886  152.3057 LP  0  0  0  0  0  0  0  0  0  0  0  0  # atno 17342 bound_to 10162
  139.8716  144.7065  150.8981 LP  0  0  0  0  0  0  0  0  0  0  0  0  # atno 17343 bound_to 10162
  155.9728  130.4129  150.4054 LP  0  0  0  0  0  0  0  0  0  0  0  0  # atno 17370 bound_to 10713
  157.2123  131.0463  151.2592 LP  0  0  0  0  0  0  0  0  0  0  0  0  # atno 17371 bound_to 10713
  141.2051  133.7869  157.0252 LP  0  0  0  0  0  0  0  0  0  0  0  0  # atno 17394 bound_to 11000
  140.0820  134.9643  157.1639 LP  0  0  0  0  0  0  0  0  0  0  0  0  # atno 17395 bound_to 11000

$$$$
