AV-unprocessed.smi:2446|AV-procd|sdf|9644|dock6
  -GOLD-   2272013273D 1   1.00000     0.00000
 Structure written by MMmdl.
 39 40  0  0  0  0  0  0  0  0  1 V2000
  151.3578  137.4690  154.5784 C   0  0  0  0  0  0  0  0  0  0  0  0
  150.7329  138.8354  154.8015 C   0  0  0  0  0  0  0  0  0  0  0  0
  151.5123  139.8887  155.3260 C   0  0  0  0  0  0  0  0  0  0  0  0
  151.0328  141.1281  155.5570 N   0  0  0  0  0  0  0  0  0  0  0  0
  149.7355  141.3635  155.2732 C   0  0  0  0  0  0  0  0  0  0  0  0
  148.8675  140.3873  154.7462 C   0  0  0  0  0  0  0  0  0  0  0  0
  149.3754  139.0909  154.4892 C   0  0  0  0  0  0  0  0  0  0  0  0
  148.5854  138.0257  153.9727 N   0  0  0  0  0  0  0  0  0  0  0  0
  147.3140  137.6869  154.2635 C   0  0  0  0  0  0  0  0  0  0  0  0
  146.6035  138.2599  155.0864 O   0  0  0  0  0  0  0  0  0  0  0  0
  146.8468  136.6446  153.5519 N   0  0  0  0  0  0  0  0  0  0  0  0
  145.5228  136.0148  153.6078 C   0  0  1  0  0  0  0  0  0  0  0  0
  144.5577  136.7290  152.6426 C   0  0  0  0  0  0  0  0  0  0  0  0
  144.8951  136.4476  151.1688 C   0  0  0  0  0  0  0  0  0  0  0  0
  144.9467  134.9388  150.8837 C   0  0  0  0  0  0  0  0  0  0  0  0
  145.9441  134.2167  151.8136 C   0  0  2  0  0  0  0  0  0  0  0  0
  146.0152  132.7037  151.5217 C   0  0  0  0  0  0  0  0  0  0  0  0
  144.8420  132.1178  151.7627 F   0  0  0  0  0  0  0  0  0  0  0  0
  146.3449  132.4994  150.2464 F   0  0  0  0  0  0  0  0  0  0  0  0
  146.9458  132.1350  152.2882 F   0  0  0  0  0  0  0  0  0  0  0  0
  145.5945  134.5035  153.2914 C   0  0  0  0  0  0  0  0  0  0  0  0
  152.3969  137.4505  154.9085 H   0  0  0  0  0  0  0  0  0  0  0  0
  151.3351  137.2087  153.5199 H   0  0  0  0  0  0  0  0  0  0  0  0
  150.8147  136.7047  155.1350 H   0  0  0  0  0  0  0  0  0  0  0  0
  152.5529  139.7343  155.5706 H   0  0  0  0  0  0  0  0  0  0  0  0
  149.3745  142.3602  155.4790 H   0  0  0  0  0  0  0  0  0  0  0  0
  147.8372  140.6501  154.5644 H   0  0  0  0  0  0  0  0  0  0  0  0
  149.0149  137.4987  153.2268 H   0  0  0  0  0  0  0  0  0  0  0  0
  147.4926  136.2342  152.8930 H   0  0  0  0  0  0  0  0  0  0  0  0
  145.1229  136.1432  154.6150 H   0  0  0  0  0  0  0  0  0  0  0  0
  143.5395  136.3933  152.8432 H   0  0  0  0  0  0  0  0  0  0  0  0
  144.5632  137.8037  152.8286 H   0  0  0  0  0  0  0  0  0  0  0  0
  144.1537  136.9198  150.5238 H   0  0  0  0  0  0  0  0  0  0  0  0
  145.8540  136.9010  150.9150 H   0  0  0  0  0  0  0  0  0  0  0  0
  143.9504  134.5123  151.0071 H   0  0  0  0  0  0  0  0  0  0  0  0
  145.2221  134.7786  149.8410 H   0  0  0  0  0  0  0  0  0  0  0  0
  146.9356  134.6279  151.6181 H   0  0  0  0  0  0  0  0  0  0  0  0
  146.3161  134.0158  153.9466 H   0  0  0  0  0  0  0  0  0  0  0  0
  144.6302  134.0505  153.5251 H   0  0  0  0  0  0  0  0  0  0  0  0
  1  2  1  0  0  0  0
  1 22  1  0  0  0  0
  1 23  1  0  0  0  0
  1 24  1  0  0  0  0
  2  7  1  0  0  0  0
  2  3  2  0  0  0  0
  3  4  1  0  0  0  0
  3 25  1  0  0  0  0
  4  5  2  0  0  0  0
  5  6  1  0  0  0  0
  5 26  1  0  0  0  0
  6  7  2  0  0  0  0
  6 27  1  0  0  0  0
  7  8  1  0  0  0  0
  8  9  1  0  0  0  0
  8 28  1  0  0  0  0
  9 10  2  0  0  0  0
  9 11  1  0  0  0  0
 11 12  1  0  0  0  0
 11 29  1  0  0  0  0
 12 21  1  0  0  0  0
 12 13  1  0  0  0  0
 12 30  1  0  0  0  0
 13 14  1  0  0  0  0
 13 31  1  0  0  0  0
 13 32  1  0  0  0  0
 14 15  1  0  0  0  0
 14 33  1  0  0  0  0
 14 34  1  0  0  0  0
 15 16  1  0  0  0  0
 15 35  1  0  0  0  0
 15 36  1  0  0  0  0
 16 17  1  0  0  0  0
 16 21  1  0  0  0  0
 16 37  1  0  0  0  0
 17 18  1  0  0  0  0
 17 19  1  0  0  0  0
 17 20  1  0  0  0  0
 21 38  1  0  0  0  0
 21 39  1  0  0  0  0
M  END
> <s_m_source_file>
AV-unprocessed.smi

> <i_m_source_file_index>
2446

> <i_lp_mmshare_version>
43012

> <i_f3d_flags>
0

> <s_epik_input>
W0NIM11jMVtjSF1uW2NIXVtjSF1jMVtOSF1DKD1PKVtOSF1bQ0BASF0yW0NIMl1bQ0gyXVtDSDJdW0NAQEhdKEMoRikoRilGKVtDSDJdMg==

> <s_epik_cmdline>
J2VwaWtfcHl0aG9uJywgJy1waCcsICc3LjAnLCAnLXRuJywgJzgnLCAnLW1hJywgJzIwMCcsICctbWV0YWxfYmluZGluZycsICctaW1hZScsICc8aW5maWxlLm1hZT4nLCAnLW9tYWUnLCAnPG91dGZpbGUubWFlPic=

> <r_epik_Ionization_Penalty>
0.20168

> <r_epik_Ionization_Penalty_Charging>
0

> <r_epik_Ionization_Penalty_Neutral>
0.20168

> <r_epik_State_Penalty>
0.191514

> <r_epik_Charging_Adjusted_Penalty>
0.191514

> <i_epik_Tot_Q>
0

> <i_epik_Tot_abs_Q>
0

> <r_epik_Metal_State_Penalty>
0.142371

> <b_epik_Metal_Only>
0

> <s_lp_Force_Field>
OPLS_2005

> <r_lp_Energy>
25.5489

> <b_lp_Chiralities_Consistent>
1

> <s_lp_Variant>
AV-unprocessed.smi:2446-4

> <Gold.Version>
5.8.1

> <Gold.Id.Protein>
6NUR|6NUR_protein|mol2

> <Gold.PLP.Fitness>
42.3490

> <Gold.PLP.PLP>
-34.7232

> <Gold.PLP.part.hbond>
-3.0000

> <Gold.PLP.part.metal>
0.0000

> <Gold.PLP.part.buried>
0.9646

> <Gold.PLP.part.nonpolar>
-33.1441

> <Gold.PLP.part.repulsive>
0.1005

> <Gold.PLP.ligand.clash>
0.0000

> <Gold.PLP.ligand.torsion>
0.6977

> <Gold.PLP.Chemscore.Hbond>
2.0000

> <Gold.PLP.Chemscore.CHOScore>
1.0000

> <Gold.PLP.Chemscore.Metal>
0.0000

> <Gold.Chemscore.Hbonds>
donor molecule, donor type, donor heavy atom, donor atom, acceptor molecule, acceptor atom, score
      L1  H     8    28       P1  7948  1.00
      L1  H    11    29       P1  7948  1.00
      L1  C     5    26       P1  8028  1.00

> <Gold.PLP.Chemscore.Internal.Correction>
0.0212

> <Gold.Rescore>
     Score         DG    S(hbond)    S(metal)    S(lipo)     H(rot)  DE(clash)    DE(int)     intcor
     16.76     -18.02       1.93        0.00      73.95       1.00       0.73       0.54       ----

> <Gold.Chemscore.Fitness>
16.7588

> <Gold.Chemscore.DG>
-18.0237

> <Gold.Chemscore.ZeroCoef>
-5.4800

> <Gold.Chemscore.Hbond>
1.9316

> <Gold.Chemscore.Metal>
0.0000

> <Gold.Chemscore.Lipo>
73.9496

> <Gold.Chemscore.Internal_Hbond>
0.0000

> <Gold.Chemscore.DEClash>
0.7289

> <Gold.Chemscore.DEInternal>
0.5361

> <Gold.Chemscore.Rot>
1.0000

> <Gold.Chemscore.Internal.Correction>
   9.000000E+99

> <Gold.Chemscore.Hbonds>
donor molecule, donor type, donor heavy atom, donor atom, acceptor molecule, acceptor atom, score
      L1  H     8    28       P1  7948  0.97
      L1  H    11    29       P1  7948  0.98

> <Gold.Chemscore.Hbond.Weighted>
-6.4516

> <Gold.Chemscore.Metal.Weighted>
-0.0000

> <Gold.Chemscore.Lipo.Weighted>
-8.6521

> <Gold.Chemscore.Internal_Hbond.Weighted>
0.0000

> <Gold.Chemscore.DEClash.Weighted>
0.7289

> <Gold.Chemscore.DEInternal.Weighted>
0.5361

> <Gold.Chemscore.Rot.Weighted>
2.5600

> <Gold.Chemscore.Internal.Correction.Weighted>
   9.000000E+99

> <Gold.Protein.RotatedTorsions>
[ 6907 6896 6895 6894 ] final -172.43 input  -60.11 | X-H torsion
[ 7974 7965 7964 7962 ] final  101.66 input  175.53 | X-H torsion
[ 8008 7997 7996 7995 ] final -139.66 input   59.86 | X-H torsion
[ 10167 10162 10161 10158 ] final -158.60 input  -65.29 | X-H torsion
[ 10718 10713 10712 10709 ] final  143.65 input   66.30 | X-H torsion
[ 10763 10752 10751 10750 ] final  -60.20 input  -60.55 | X-H torsion
[ 11005 11000 10999 10996 ] final -175.22 input  -57.11 | X-H torsion

> <Gold.Protein.ActiveResidues>
 VAL166  LYS551  ARG553  GLY616  TRP617  ASP618  TYR619  PRO620  LYS621  CYS622 
 ASP623  PHE694  ASN695  SER759  ASP760  ASP761  ALA762  ILE779  LEU786  VAL792 
 PHE793  MET794  SER795  GLU796  ALA797  LYS798  CYS799  TRP800  GLU811  SER814 

> <Gold.Protein.RotatedAtoms>
  151.5398  133.3434  159.2933 H   0  0  0  0  0  0  0  0  0  0  0  0  # atno 6907 bound_to 6896
  150.8542  134.7879  159.7044 H   0  0  0  0  0  0  0  0  0  0  0  0  # atno 6908 bound_to 6896
  152.4580  134.5256  159.9847 H   0  0  0  0  0  0  0  0  0  0  0  0  # atno 6909 bound_to 6896
  145.3694  139.2401  143.3463 H   0  0  0  0  0  0  0  0  0  0  0  0  # atno 7974 bound_to 7965
  155.4485  140.0537  157.3003 H   0  0  0  0  0  0  0  0  0  0  0  0  # atno 8008 bound_to 7997
  154.4787  140.2072  155.9771 H   0  0  0  0  0  0  0  0  0  0  0  0  # atno 8009 bound_to 7997
  156.1172  140.3194  155.8161 H   0  0  0  0  0  0  0  0  0  0  0  0  # atno 8010 bound_to 7997
  139.6680  143.9795  152.2266 H   0  0  0  0  0  0  0  0  0  0  0  0  # atno 10167 bound_to 10162
  157.3665  131.0972  151.0868 H   0  0  0  0  0  0  0  0  0  0  0  0  # atno 10718 bound_to 10713
  154.2655  135.6300  153.5290 H   0  0  0  0  0  0  0  0  0  0  0  0  # atno 10763 bound_to 10752
  152.9888  135.5598  154.5657 H   0  0  0  0  0  0  0  0  0  0  0  0  # atno 10764 bound_to 10752
  154.5216  135.2883  155.1233 H   0  0  0  0  0  0  0  0  0  0  0  0  # atno 10765 bound_to 10752
  140.4657  134.6213  157.4861 H   0  0  0  0  0  0  0  0  0  0  0  0  # atno 11005 bound_to 11000
  146.2892  140.4343  142.8746 LP  0  0  0  0  0  0  0  0  0  0  0  0  # atno 17320 bound_to 7965
  144.8587  140.7108  143.6121 LP  0  0  0  0  0  0  0  0  0  0  0  0  # atno 17321 bound_to 7965
  139.9552  144.6594  150.8133 LP  0  0  0  0  0  0  0  0  0  0  0  0  # atno 17342 bound_to 10162
  140.7607  143.3157  151.2739 LP  0  0  0  0  0  0  0  0  0  0  0  0  # atno 17343 bound_to 10162
  157.1988  130.6385  149.5731 LP  0  0  0  0  0  0  0  0  0  0  0  0  # atno 17370 bound_to 10713
  155.9747  130.4698  150.6406 LP  0  0  0  0  0  0  0  0  0  0  0  0  # atno 17371 bound_to 10713
  139.9917  134.6975  155.9679 LP  0  0  0  0  0  0  0  0  0  0  0  0  # atno 17394 bound_to 11000
  141.1600  133.6539  156.4289 LP  0  0  0  0  0  0  0  0  0  0  0  0  # atno 17395 bound_to 11000

$$$$
