AV-unprocessed.smi:1362|AV-procd|sdf|5563|dock4
  -GOLD-   22720 5153D 1   1.00000     0.00000
 Structure written by MMmdl.
 38 38  0  0  0  0  0  0  0  0  2 V2000
  151.5971  134.6682  155.5183 C   0  0  0  0  0  0  0  0  0  0  0  0
  151.4504  136.1506  155.7876 C   0  0  0  0  0  0  0  0  0  0  0  0
  150.4372  136.5689  156.4456 N   0  0  0  0  0  0  0  0  0  0  0  0
  150.2961  137.9442  156.6973 C   0  0  0  0  0  0  0  0  0  0  0  0
  149.0610  138.3527  157.4819 C   0  0  0  0  0  0  0  0  0  0  0  0
  151.2230  138.8415  156.2543 C   0  0  0  0  0  0  0  0  0  0  0  0
  151.1112  140.3461  156.4993 C   0  0  0  0  0  0  0  0  0  0  0  0
  151.1667  140.7928  157.9622 C   0  0  0  0  0  0  0  0  0  0  0  0
  150.7726  140.0480  158.8600 O   0  0  0  0  0  0  0  0  0  0  0  0
  151.6581  142.0216  158.1849 N   0  0  0  0  0  0  0  0  0  0  0  0
  151.7719  142.6716  159.4897 C   0  0  1  0  0  0  0  0  0  0  0  0
  153.2637  142.8740  159.8174 C   0  0  0  0  0  0  0  0  0  0  0  0
  150.9553  143.9912  159.4997 C   0  0  0  0  0  0  0  0  0  0  0  0
  151.3228  144.9184  158.3269 C   0  0  0  0  0  0  0  0  0  0  0  0
  151.1053  144.7611  160.8270 C   0  0  0  0  0  0  0  0  0  0  0  0
  152.3790  138.3177  155.5049 C   0  0  0  0  0  0  0  0  0  0  0  0
  153.2521  139.0818  155.0950 O   0  0  0  0  0  0  0  0  0  0  0  0
  152.4383  136.9720  155.2930 N   0  5  0  0  0  0  0  0  0  0  0  0
  150.9055  134.0880  156.1306 H   0  0  0  0  0  0  0  0  0  0  0  0
  152.6111  134.3372  155.7454 H   0  0  0  0  0  0  0  0  0  0  0  0
  151.3901  134.4551  154.4693 H   0  0  0  0  0  0  0  0  0  0  0  0
  148.4172  138.9908  156.8765 H   0  0  0  0  0  0  0  0  0  0  0  0
  149.3403  138.8963  158.3847 H   0  0  0  0  0  0  0  0  0  0  0  0
  148.4798  137.4806  157.7841 H   0  0  0  0  0  0  0  0  0  0  0  0
  151.8805  140.8877  155.9487 H   0  0  0  0  0  0  0  0  0  0  0  0
  150.1707  140.6891  156.0669 H   0  0  0  0  0  0  0  0  0  0  0  0
  151.9582  142.5583  157.3842 H   0  0  0  0  0  0  0  0  0  0  0  0
  151.3444  142.0103  160.2461 H   0  0  0  0  0  0  0  0  0  0  0  0
  153.4085  143.2450  160.8315 H   0  0  0  0  0  0  0  0  0  0  0  0
  153.7293  143.5812  159.1301 H   0  0  0  0  0  0  0  0  0  0  0  0
  153.8131  141.9347  159.7472 H   0  0  0  0  0  0  0  0  0  0  0  0
  149.8999  143.7357  159.3933 H   0  0  0  0  0  0  0  0  0  0  0  0
  152.3860  145.1608  158.3315 H   0  0  0  0  0  0  0  0  0  0  0  0
  150.7699  145.8567  158.3811 H   0  0  0  0  0  0  0  0  0  0  0  0
  151.0844  144.4696  157.3632 H   0  0  0  0  0  0  0  0  0  0  0  0
  152.1482  145.0146  161.0198 H   0  0  0  0  0  0  0  0  0  0  0  0
  150.7407  144.1857  161.6780 H   0  0  0  0  0  0  0  0  0  0  0  0
  150.5365  145.6912  160.8073 H   0  0  0  0  0  0  0  0  0  0  0  0
  1  2  1  0  0  0  0
  1 19  1  0  0  0  0
  1 20  1  0  0  0  0
  1 21  1  0  0  0  0
  2 18  1  0  0  0  0
  2  3  2  0  0  0  0
  3  4  1  0  0  0  0
  4  5  1  0  0  0  0
  4  6  2  0  0  0  0
  5 22  1  0  0  0  0
  5 23  1  0  0  0  0
  5 24  1  0  0  0  0
  6  7  1  0  0  0  0
  6 16  1  0  0  0  0
  7  8  1  0  0  0  0
  7 25  1  0  0  0  0
  7 26  1  0  0  0  0
  8  9  2  0  0  0  0
  8 10  1  0  0  0  0
 10 11  1  0  0  0  0
 10 27  1  0  0  0  0
 11 12  1  0  0  0  0
 11 13  1  0  0  0  0
 11 28  1  0  0  0  0
 12 29  1  0  0  0  0
 12 30  1  0  0  0  0
 12 31  1  0  0  0  0
 13 14  1  0  0  0  0
 13 15  1  0  0  0  0
 13 32  1  0  0  0  0
 14 33  1  0  0  0  0
 14 34  1  0  0  0  0
 14 35  1  0  0  0  0
 15 36  1  0  0  0  0
 15 37  1  0  0  0  0
 15 38  1  0  0  0  0
 16 17  2  0  0  0  0
 16 18  1  0  0  0  0
M  CHG  1  18  -1
M  END
> <s_m_source_file>
AV-unprocessed.smi

> <i_m_source_file_index>
1362

> <i_lp_mmshare_version>
43012

> <i_f3d_flags>
0

> <s_epik_input>
W0NIM11jMW5jKFtDSDNdKWMoYyg9TylbbkhdMSlbQ0gyXUMoPU8pW05IXVtDQEhdKFtDSDNdKVtDSF0oW0NIM10pW0NIM10=

> <s_epik_cmdline>
J2VwaWtfcHl0aG9uJywgJy1waCcsICc3LjAnLCAnLXRuJywgJzgnLCAnLW1hJywgJzIwMCcsICctbWV0YWxfYmluZGluZycsICctaW1hZScsICc8aW5maWxlLm1hZT4nLCAnLW9tYWUnLCAnPG91dGZpbGUubWFlPic=

> <r_lp_tautomer_probability>
0.839158

> <r_epik_Ionization_Penalty>
6.62204

> <r_epik_Ionization_Penalty_Charging>
7.30593e-08

> <r_epik_Ionization_Penalty_Neutral>
6.62204

> <r_epik_State_Penalty>
4.44062

> <r_epik_Charging_Adjusted_Penalty>
4.44062

> <i_epik_Tot_Q>
-1

> <i_epik_Tot_abs_Q>
1

> <r_epik_Metal_State_Penalty>
0.802984

> <b_epik_Metal_Only>
1

> <s_lp_Force_Field>
OPLS_2005

> <r_lp_Energy>
10.9313

> <b_lp_Chiralities_Consistent>
1

> <s_lp_Variant>
AV-unprocessed.smi:1362-6

> <Gold.Version>
5.8.1

> <Gold.Id.Protein>
6NUR|6NUR_protein|mol2

> <Gold.PLP.Fitness>
44.1855

> <Gold.PLP.PLP>
-36.0433

> <Gold.PLP.part.hbond>
-2.0000

> <Gold.PLP.part.metal>
0.0000

> <Gold.PLP.part.buried>
-4.3098

> <Gold.PLP.part.nonpolar>
-29.8400

> <Gold.PLP.part.repulsive>
0.2576

> <Gold.PLP.ligand.clash>
0.0000

> <Gold.PLP.ligand.torsion>
0.4472

> <Gold.PLP.Chemscore.Hbond>
3.0000

> <Gold.PLP.Chemscore.CHOScore>
0.0000

> <Gold.PLP.Chemscore.Metal>
0.0000

> <Gold.Chemscore.Hbonds>
donor molecule, donor type, donor heavy atom, donor atom, acceptor molecule, acceptor atom, score
      P1  H  7997  8009       L1    17  1.00
      P1  H 10752 10765       L1    18  0.34

> <Gold.PLP.Chemscore.Internal.Correction>
0.0366

> <Gold.Rescore>
     Score         DG    S(hbond)    S(metal)    S(lipo)     H(rot)  DE(clash)    DE(int)     intcor
     15.95     -16.59       1.77        0.00      80.23       1.64       0.18       0.45       ----

> <Gold.Chemscore.Fitness>
15.9543

> <Gold.Chemscore.DG>
-16.5880

> <Gold.Chemscore.ZeroCoef>
-5.4800

> <Gold.Chemscore.Hbond>
1.7748

> <Gold.Chemscore.Metal>
0.0000

> <Gold.Chemscore.Lipo>
80.2299

> <Gold.Chemscore.Internal_Hbond>
0.0000

> <Gold.Chemscore.DEClash>
0.1790

> <Gold.Chemscore.DEInternal>
0.4547

> <Gold.Chemscore.Rot>
1.6433

> <Gold.Chemscore.Internal.Correction>
   9.000000E+99

> <Gold.Chemscore.Hbonds>
donor molecule, donor type, donor heavy atom, donor atom, acceptor molecule, acceptor atom, score
      P1  H  7997  8009       L1    17  0.98

> <Gold.Chemscore.Hbond.Weighted>
-5.9280

> <Gold.Chemscore.Metal.Weighted>
-0.0000

> <Gold.Chemscore.Lipo.Weighted>
-9.3869

> <Gold.Chemscore.Internal_Hbond.Weighted>
0.0000

> <Gold.Chemscore.DEClash.Weighted>
0.1790

> <Gold.Chemscore.DEInternal.Weighted>
0.4547

> <Gold.Chemscore.Rot.Weighted>
4.2069

> <Gold.Chemscore.Internal.Correction.Weighted>
   9.000000E+99

> <Gold.Protein.RotatedTorsions>
[ 6907 6896 6895 6894 ] final  116.82 input  -60.11 | X-H torsion
[ 7974 7965 7964 7962 ] final  -73.57 input  175.53 | X-H torsion
[ 8008 7997 7996 7995 ] final -146.70 input   59.86 | X-H torsion
[ 10167 10162 10161 10158 ] final  124.39 input  -65.29 | X-H torsion
[ 10718 10713 10712 10709 ] final   72.23 input   66.30 | X-H torsion
[ 10763 10752 10751 10750 ] final  172.61 input  -60.55 | X-H torsion
[ 11005 11000 10999 10996 ] final -143.57 input  -57.11 | X-H torsion

> <Gold.Protein.ActiveResidues>
 VAL166  LYS551  ARG553  GLY616  TRP617  ASP618  TYR619  PRO620  LYS621  CYS622 
 ASP623  PHE694  ASN695  SER759  ASP760  ASP761  ALA762  ILE779  LEU786  VAL792 
 PHE793  MET794  SER795  GLU796  ALA797  LYS798  CYS799  TRP800  GLU811  SER814 

> <Gold.Protein.RotatedAtoms>
  152.4653  133.7909  159.6901 H   0  0  0  0  0  0  0  0  0  0  0  0  # atno 6907 bound_to 6896
  150.8614  133.7628  159.2997 H   0  0  0  0  0  0  0  0  0  0  0  0  # atno 6908 bound_to 6896
  151.5192  135.1070  159.9926 H   0  0  0  0  0  0  0  0  0  0  0  0  # atno 6909 bound_to 6896
  145.6504  140.9284  143.0987 H   0  0  0  0  0  0  0  0  0  0  0  0  # atno 7974 bound_to 7965
  155.5636  140.0627  157.2823 H   0  0  0  0  0  0  0  0  0  0  0  0  # atno 8008 bound_to 7997
  154.4382  140.1881  156.0853 H   0  0  0  0  0  0  0  0  0  0  0  0  # atno 8009 bound_to 7997
  156.0428  140.3293  155.7267 H   0  0  0  0  0  0  0  0  0  0  0  0  # atno 8010 bound_to 7997
  139.5744  144.6956  151.3691 H   0  0  0  0  0  0  0  0  0  0  0  0  # atno 10167 bound_to 10162
  157.6491  130.9568  150.0900 H   0  0  0  0  0  0  0  0  0  0  0  0  # atno 10718 bound_to 10713
  154.4285  135.2759  155.1928 H   0  0  0  0  0  0  0  0  0  0  0  0  # atno 10763 bound_to 10752
  154.3844  135.6080  153.5812 H   0  0  0  0  0  0  0  0  0  0  0  0  # atno 10764 bound_to 10752
  152.9835  135.5888  154.4593 H   0  0  0  0  0  0  0  0  0  0  0  0  # atno 10765 bound_to 10752
  140.8111  134.2743  157.4940 H   0  0  0  0  0  0  0  0  0  0  0  0  # atno 11005 bound_to 11000
  144.7124  139.8320  143.7410 LP  0  0  0  0  0  0  0  0  0  0  0  0  # atno 17320 bound_to 7965
  146.1208  139.4226  143.0229 LP  0  0  0  0  0  0  0  0  0  0  0  0  # atno 17321 bound_to 7965
  140.7028  143.7590  150.7431 LP  0  0  0  0  0  0  0  0  0  0  0  0  # atno 17342 bound_to 10162
  140.1105  143.4703  152.2372 LP  0  0  0  0  0  0  0  0  0  0  0  0  # atno 17343 bound_to 10162
  156.1852  130.3652  149.8983 LP  0  0  0  0  0  0  0  0  0  0  0  0  # atno 17370 bound_to 10713
  156.6925  130.8901  151.3590 LP  0  0  0  0  0  0  0  0  0  0  0  0  # atno 17371 bound_to 10713
  139.8714  134.9484  156.3994 LP  0  0  0  0  0  0  0  0  0  0  0  0  # atno 17394 bound_to 11000
  140.9196  133.7654  155.9890 LP  0  0  0  0  0  0  0  0  0  0  0  0  # atno 17395 bound_to 11000

$$$$
