AV-unprocessed.smi:338|AV-procd|sdf|2375|dock7
  -GOLD-   2262022293D 1   1.00000     0.00000
 Structure written by MMmdl.
 41 43  0  0  0  0  0  0  0  0  1 V2000
  141.8410  145.9685  155.9675 C   0  0  0  0  0  0  0  0  0  0  0  0
  142.9158  144.9769  156.4100 C   0  0  0  0  0  0  0  0  0  0  0  0
  142.9479  144.6301  157.5904 O   0  0  0  0  0  0  0  0  0  0  0  0
  143.8727  144.4807  155.3792 C   0  0  0  0  0  0  0  0  0  0  0  0
  143.8437  144.9603  154.0489 C   0  0  0  0  0  0  0  0  0  0  0  0
  144.7605  144.4747  153.0989 C   0  0  0  0  0  0  0  0  0  0  0  0
  145.7125  143.5069  153.4662 C   0  0  0  0  0  0  0  0  0  0  0  0
  145.7617  143.0116  154.7838 C   0  0  0  0  0  0  0  0  0  0  0  0
  146.7254  142.0645  155.0570 O   0  0  0  0  0  0  0  0  0  0  0  0
  147.5906  141.6574  154.0049 C   0  0  0  0  0  0  0  0  0  0  0  0
  148.9251  141.1944  154.6073 C   0  0  1  0  0  0  0  0  0  0  0  0
  149.7846  140.8088  153.5526 O   0  0  0  0  0  0  0  0  0  0  0  0
  149.5998  142.2901  155.4557 C   0  0  0  0  0  0  0  0  0  0  0  0
  150.5185  141.7457  156.4395 N   0  0  0  0  0  0  0  0  0  0  0  0
  150.8098  140.4474  156.6497 C   0  0  0  0  0  0  0  0  0  0  0  0
  151.6872  140.1675  157.6091 N   0  0  0  0  0  0  0  0  0  0  0  0
  152.0065  141.4320  158.0734 C   0  0  0  0  0  0  0  0  0  0  0  0
  152.8923  141.8368  159.0975 C   0  0  0  0  0  0  0  0  0  0  0  0
  153.0585  143.2046  159.3990 C   0  0  0  0  0  0  0  0  0  0  0  0
  152.3435  144.1869  158.6832 C   0  0  0  0  0  0  0  0  0  0  0  0
  151.4557  143.8080  157.6580 C   0  0  0  0  0  0  0  0  0  0  0  0
  151.2924  142.4422  157.3607 C   0  0  0  0  0  0  0  0  0  0  0  0
  144.8352  143.5070  155.7364 C   0  0  0  0  0  0  0  0  0  0  0  0
  142.2972  146.8725  155.5630 H   0  0  0  0  0  0  0  0  0  0  0  0
  141.2130  146.2529  156.8123 H   0  0  0  0  0  0  0  0  0  0  0  0
  141.2029  145.5241  155.2033 H   0  0  0  0  0  0  0  0  0  0  0  0
  143.1265  145.7030  153.7333 H   0  0  0  0  0  0  0  0  0  0  0  0
  144.7336  144.8461  152.0850 H   0  0  0  0  0  0  0  0  0  0  0  0
  146.4116  143.1403  152.7290 H   0  0  0  0  0  0  0  0  0  0  0  0
  147.1303  140.8329  153.4574 H   0  0  0  0  0  0  0  0  0  0  0  0
  147.7610  142.4767  153.3042 H   0  0  0  0  0  0  0  0  0  0  0  0
  148.7475  140.3115  155.2227 H   0  0  0  0  0  0  0  0  0  0  0  0
  149.6524  139.8890  153.3802 H   0  0  0  0  0  0  0  0  0  0  0  0
  150.1445  142.9861  154.8158 H   0  0  0  0  0  0  0  0  0  0  0  0
  148.8480  142.8774  155.9842 H   0  0  0  0  0  0  0  0  0  0  0  0
  150.3491  139.6631  156.0668 H   0  0  0  0  0  0  0  0  0  0  0  0
  153.4456  141.0932  159.6517 H   0  0  0  0  0  0  0  0  0  0  0  0
  153.7389  143.5017  160.1836 H   0  0  0  0  0  0  0  0  0  0  0  0
  152.4779  145.2319  158.9211 H   0  0  0  0  0  0  0  0  0  0  0  0
  150.9067  144.5573  157.1071 H   0  0  0  0  0  0  0  0  0  0  0  0
  144.8531  143.1455  156.7535 H   0  0  0  0  0  0  0  0  0  0  0  0
  1  2  1  0  0  0  0
  1 24  1  0  0  0  0
  1 25  1  0  0  0  0
  1 26  1  0  0  0  0
  2  3  2  0  0  0  0
  2  4  1  0  0  0  0
  4 23  1  0  0  0  0
  4  5  2  0  0  0  0
  5  6  1  0  0  0  0
  5 27  1  0  0  0  0
  6  7  2  0  0  0  0
  6 28  1  0  0  0  0
  7  8  1  0  0  0  0
  7 29  1  0  0  0  0
  8  9  1  0  0  0  0
  8 23  2  0  0  0  0
  9 10  1  0  0  0  0
 10 11  1  0  0  0  0
 10 30  1  0  0  0  0
 10 31  1  0  0  0  0
 11 12  1  0  0  0  0
 11 13  1  0  0  0  0
 11 32  1  0  0  0  0
 12 33  1  0  0  0  0
 13 14  1  0  0  0  0
 13 34  1  0  0  0  0
 13 35  1  0  0  0  0
 14 22  1  0  0  0  0
 14 15  1  0  0  0  0
 15 16  2  0  0  0  0
 15 36  1  0  0  0  0
 16 17  1  0  0  0  0
 17 22  2  0  0  0  0
 17 18  1  0  0  0  0
 18 19  2  0  0  0  0
 18 37  1  0  0  0  0
 19 20  1  0  0  0  0
 19 38  1  0  0  0  0
 20 21  2  0  0  0  0
 20 39  1  0  0  0  0
 21 22  1  0  0  0  0
 21 40  1  0  0  0  0
 23 41  1  0  0  0  0
M  END
> <s_m_source_file>
AV-unprocessed.smi

> <i_m_source_file_index>
338

> <i_lp_mmshare_version>
43012

> <i_f3d_flags>
0

> <s_epik_input>
W0NIM11DKD1PKWMxW2NIXVtjSF1bY0hdYyhbY0hdMSlPW0NIMl1bQ0BIXShbT0hdKVtDSDJdbihbY0hdbjIpYyhjMjMpW2NIXVtjSF1bY0hdW2NIXTM=

> <s_epik_cmdline>
J2VwaWtfcHl0aG9uJywgJy1waCcsICc3LjAnLCAnLXRuJywgJzgnLCAnLW1hJywgJzIwMCcsICctbWV0YWxfYmluZGluZycsICctaW1hZScsICc8aW5maWxlLm1hZT4nLCAnLW9tYWUnLCAnPG91dGZpbGUubWFlPic=

> <r_lp_tautomer_probability>
0.99995

> <r_epik_Ionization_Penalty>
0.0640132

> <r_epik_Ionization_Penalty_Charging>
0

> <r_epik_Ionization_Penalty_Neutral>
0.0640132

> <r_epik_State_Penalty>
0.0557325

> <r_epik_Charging_Adjusted_Penalty>
0.0557325

> <i_epik_Tot_Q>
0

> <i_epik_Tot_abs_Q>
0

> <r_epik_Metal_State_Penalty>
5.8435e-05

> <b_epik_Metal_Only>
0

> <s_lp_Force_Field>
OPLS_2005

> <r_lp_Energy>
20.9332

> <b_lp_Chiralities_Consistent>
1

> <s_lp_Variant>
AV-unprocessed.smi:338-2

> <Gold.Version>
5.8.1

> <Gold.Id.Protein>
6NUR|6NUR_protein|mol2

> <Gold.PLP.Fitness>
53.5356

> <Gold.PLP.PLP>
-52.1780

> <Gold.PLP.part.hbond>
-2.7201

> <Gold.PLP.part.metal>
0.0000

> <Gold.PLP.part.buried>
-1.8683

> <Gold.PLP.part.nonpolar>
-47.1384

> <Gold.PLP.part.repulsive>
0.1632

> <Gold.PLP.ligand.clash>
2.1427

> <Gold.PLP.ligand.torsion>
0.4131

> <Gold.PLP.Chemscore.Hbond>
1.3840

> <Gold.PLP.Chemscore.CHOScore>
0.0000

> <Gold.PLP.Chemscore.Metal>
0.0000

> <Gold.Chemscore.Hbonds>
donor molecule, donor type, donor heavy atom, donor atom, acceptor molecule, acceptor atom, score
      P1  H  7989  7998       L1    12  0.37
      P1  H  8011  8017       L1    12  1.00

> <Gold.PLP.Chemscore.Internal.Correction>
0.1745

> <Gold.Rescore>
     Score         DG    S(hbond)    S(metal)    S(lipo)     H(rot)  DE(clash)    DE(int)     intcor
     15.78     -18.21       0.67        0.00     142.35       2.40       2.15       0.28       ----

> <Gold.Chemscore.Fitness>
15.7778

> <Gold.Chemscore.DG>
-18.2136

> <Gold.Chemscore.ZeroCoef>
-5.4800

> <Gold.Chemscore.Hbond>
0.6659

> <Gold.Chemscore.Metal>
0.0000

> <Gold.Chemscore.Lipo>
142.3485

> <Gold.Chemscore.Internal_Hbond>
0.0000

> <Gold.Chemscore.DEClash>
2.1526

> <Gold.Chemscore.DEInternal>
0.2832

> <Gold.Chemscore.Rot>
2.4005

> <Gold.Chemscore.Internal.Correction>
   9.000000E+99

> <Gold.Chemscore.Hbonds>
donor molecule, donor type, donor heavy atom, donor atom, acceptor molecule, acceptor atom, score
      L1  H    12    33       P1  7957  0.02
      P1  H  7989  7998       L1    12  0.09
      P1  H  8011  8017       L1    12  0.42

> <Gold.Chemscore.Hbond.Weighted>
-2.2241

> <Gold.Chemscore.Metal.Weighted>
-0.0000

> <Gold.Chemscore.Lipo.Weighted>
-16.6548

> <Gold.Chemscore.Internal_Hbond.Weighted>
0.0000

> <Gold.Chemscore.DEClash.Weighted>
2.1526

> <Gold.Chemscore.DEInternal.Weighted>
0.2832

> <Gold.Chemscore.Rot.Weighted>
6.1453

> <Gold.Chemscore.Internal.Correction.Weighted>
   9.000000E+99

> <Gold.Protein.RotatedTorsions>
[ 6907 6896 6895 6894 ] final   -7.96 input  -60.11 | X-H torsion
[ 7974 7965 7964 7962 ] final -140.55 input  175.53 | X-H torsion
[ 8008 7997 7996 7995 ] final   74.41 input   59.86 | X-H torsion
[ 10167 10162 10161 10158 ] final  -15.78 input  -65.29 | X-H torsion
[ 10718 10713 10712 10709 ] final  -44.25 input   66.30 | X-H torsion
[ 10763 10752 10751 10750 ] final -172.48 input  -60.55 | X-H torsion
[ 11005 11000 10999 10996 ] final -179.78 input  -57.11 | X-H torsion

> <Gold.Protein.ActiveResidues>
 VAL166  LYS551  ARG553  GLY616  TRP617  ASP618  TYR619  PRO620  LYS621  CYS622 
 ASP623  PHE694  ASN695  SER759  ASP760  ASP761  ALA762  ILE779  LEU786  VAL792 
 PHE793  MET794  SER795  GLU796  ALA797  LYS798  CYS799  TRP800  GLU811  SER814 

> <Gold.Protein.RotatedAtoms>
  151.4412  135.1020  159.9670 H   0  0  0  0  0  0  0  0  0  0  0  0  # atno 6907 bound_to 6896
  152.4922  133.8527  159.7220 H   0  0  0  0  0  0  0  0  0  0  0  0  # atno 6908 bound_to 6896
  150.9087  133.6966  159.2888 H   0  0  0  0  0  0  0  0  0  0  0  0  # atno 6909 bound_to 6896
  144.8589  140.6187  143.5341 H   0  0  0  0  0  0  0  0  0  0  0  0  # atno 7974 bound_to 7965
  155.7980  140.3477  155.5386 H   0  0  0  0  0  0  0  0  0  0  0  0  # atno 8008 bound_to 7997
  155.8567  140.0965  157.1660 H   0  0  0  0  0  0  0  0  0  0  0  0  # atno 8009 bound_to 7997
  154.4010  140.1366  156.3898 H   0  0  0  0  0  0  0  0  0  0  0  0  # atno 8010 bound_to 7997
  140.7224  143.5183  150.9665 H   0  0  0  0  0  0  0  0  0  0  0  0  # atno 10167 bound_to 10162
  156.2405  130.4179  149.8766 H   0  0  0  0  0  0  0  0  0  0  0  0  # atno 10718 bound_to 10713
  154.6187  135.2873  155.0350 H   0  0  0  0  0  0  0  0  0  0  0  0  # atno 10763 bound_to 10752
  154.1553  135.6497  153.4977 H   0  0  0  0  0  0  0  0  0  0  0  0  # atno 10764 bound_to 10752
  153.0226  135.5365  154.6969 H   0  0  0  0  0  0  0  0  0  0  0  0  # atno 10765 bound_to 10752
  140.4148  134.6659  157.4633 H   0  0  0  0  0  0  0  0  0  0  0  0  # atno 11005 bound_to 11000
  145.4352  139.1543  143.4000 LP  0  0  0  0  0  0  0  0  0  0  0  0  # atno 17320 bound_to 7965
  146.2845  140.4470  142.8763 LP  0  0  0  0  0  0  0  0  0  0  0  0  # atno 17321 bound_to 7965
  139.8899  143.6966  152.3146 LP  0  0  0  0  0  0  0  0  0  0  0  0  # atno 17342 bound_to 10162
  139.7278  144.7589  151.0851 LP  0  0  0  0  0  0  0  0  0  0  0  0  # atno 17343 bound_to 10162
  156.6349  130.8681  151.3502 LP  0  0  0  0  0  0  0  0  0  0  0  0  # atno 17370 bound_to 10713
  157.7173  130.9513  150.1304 LP  0  0  0  0  0  0  0  0  0  0  0  0  # atno 17371 bound_to 10713
  140.0241  134.6502  155.9197 LP  0  0  0  0  0  0  0  0  0  0  0  0  # atno 17394 bound_to 11000
  141.1807  133.6546  156.5008 LP  0  0  0  0  0  0  0  0  0  0  0  0  # atno 17395 bound_to 11000

$$$$
