AV-unprocessed.smi:3025|AV-procd|sdf|11505|dock4
  -GOLD-   2272016443D 1   1.00000     0.00000
 Structure written by MMmdl.
 42 43  0  0  0  0  0  0  0  0  2 V2000
  151.6482  141.6724  159.1436 C   0  0  0  0  0  0  0  0  0  0  0  0
  150.9990  140.9869  157.9364 C   0  0  0  0  0  0  0  0  0  0  0  0
  151.0137  141.8724  156.6788 C   0  0  0  0  0  0  0  0  0  0  0  0
  150.3685  141.2181  155.4394 C   0  0  2  0  0  0  0  0  0  0  0  0
  148.8320  141.3671  155.4194 C   0  0  0  0  0  0  0  0  0  0  0  0
  148.2071  140.6943  154.1860 C   0  0  0  0  0  0  0  0  0  0  0  0
  148.5974  139.2049  154.0903 C   0  0  1  0  0  0  0  0  0  0  0  0
  148.0482  138.5761  152.8685 N   0  3  0  0  0  0  0  0  0  0  0  0
  146.5796  138.4097  152.8501 C   0  0  0  0  0  0  0  0  0  0  0  0
  146.1075  137.8370  151.5072 C   0  0  0  0  0  0  0  0  0  0  0  0
  145.6637  136.4151  151.6183 C   0  0  0  0  0  0  0  0  0  0  0  0
  146.5070  135.4223  151.9084 N   0  0  0  0  0  0  0  0  0  0  0  0
  145.8312  134.2544  151.9236 N   0  0  0  0  0  0  0  0  0  0  0  0
  144.5920  134.6447  151.6311 C   0  0  0  0  0  0  0  0  0  0  0  0
  144.4217  135.9855  151.4243 N   0  0  0  0  0  0  0  0  0  0  0  0
  150.1296  139.0593  154.1072 C   0  0  0  0  0  0  0  0  0  0  0  0
  150.7465  139.7262  155.3468 C   0  0  0  0  0  0  0  0  0  0  0  0
  147.4976  135.4877  152.0955 H   0  0  0  0  0  0  0  0  0  0  0  0
  151.6245  141.0224  160.0185 H   0  0  0  0  0  0  0  0  0  0  0  0
  151.1267  142.5945  159.4011 H   0  0  0  0  0  0  0  0  0  0  0  0
  152.6906  141.9205  158.9422 H   0  0  0  0  0  0  0  0  0  0  0  0
  151.5217  140.0502  157.7446 H   0  0  0  0  0  0  0  0  0  0  0  0
  149.9712  140.7225  158.1871 H   0  0  0  0  0  0  0  0  0  0  0  0
  150.4770  142.7942  156.9074 H   0  0  0  0  0  0  0  0  0  0  0  0
  152.0375  142.1704  156.4493 H   0  0  0  0  0  0  0  0  0  0  0  0
  150.7704  141.7142  154.5544 H   0  0  0  0  0  0  0  0  0  0  0  0
  148.4074  140.9322  156.3252 H   0  0  0  0  0  0  0  0  0  0  0  0
  148.5506  142.4198  155.4228 H   0  0  0  0  0  0  0  0  0  0  0  0
  147.1244  140.8064  154.2368 H   0  0  0  0  0  0  0  0  0  0  0  0
  148.5294  141.2199  153.2857 H   0  0  0  0  0  0  0  0  0  0  0  0
  148.1997  138.6738  154.9569 H   0  0  0  0  0  0  0  0  0  0  0  0
  148.3337  139.1197  152.0664 H   0  0  0  0  0  0  0  0  0  0  0  0
  146.2844  137.7431  153.6617 H   0  0  0  0  0  0  0  0  0  0  0  0
  146.0943  139.3695  153.0269 H   0  0  0  0  0  0  0  0  0  0  0  0
  145.2837  138.4342  151.1132 H   0  0  0  0  0  0  0  0  0  0  0  0
  146.9113  137.8914  150.7718 H   0  0  0  0  0  0  0  0  0  0  0  0
  143.7792  133.9368  151.5604 H   0  0  0  0  0  0  0  0  0  0  0  0
  150.4048  138.0041  154.0878 H   0  0  0  0  0  0  0  0  0  0  0  0
  150.5559  139.5059  153.2075 H   0  0  0  0  0  0  0  0  0  0  0  0
  151.8313  139.6172  155.3120 H   0  0  0  0  0  0  0  0  0  0  0  0
  150.4138  139.2040  156.2452 H   0  0  0  0  0  0  0  0  0  0  0  0
  148.4546  137.6546  152.7907 H   0  0  0  0  0  0  0  0  0  0  0  0
  1  2  1  0  0  0  0
  1 19  1  0  0  0  0
  1 20  1  0  0  0  0
  1 21  1  0  0  0  0
  2  3  1  0  0  0  0
  2 22  1  0  0  0  0
  2 23  1  0  0  0  0
  3  4  1  0  0  0  0
  3 24  1  0  0  0  0
  3 25  1  0  0  0  0
  4 17  1  0  0  0  0
  4  5  1  0  0  0  0
  4 26  1  0  0  0  0
  5  6  1  0  0  0  0
  5 27  1  0  0  0  0
  5 28  1  0  0  0  0
  6  7  1  0  0  0  0
  6 29  1  0  0  0  0
  6 30  1  0  0  0  0
  7  8  1  0  0  0  0
  7 16  1  0  0  0  0
  7 31  1  0  0  0  0
  8  9  1  0  0  0  0
  8 32  1  0  0  0  0
  8 42  1  0  0  0  0
  9 10  1  0  0  0  0
  9 33  1  0  0  0  0
  9 34  1  0  0  0  0
 10 35  1  0  0  0  0
 10 36  1  0  0  0  0
 10 11  1  0  0  0  0
 11 15  2  0  0  0  0
 11 12  1  0  0  0  0
 12 18  1  0  0  0  0
 12 13  1  0  0  0  0
 13 14  2  0  0  0  0
 14 15  1  0  0  0  0
 14 37  1  0  0  0  0
 16 17  1  0  0  0  0
 16 38  1  0  0  0  0
 16 39  1  0  0  0  0
 17 40  1  0  0  0  0
 17 41  1  0  0  0  0
M  CHG  1   8   1
M  END
> <s_m_source_file>
AV-unprocessed.smi

> <i_m_source_file_index>
3025

> <i_lp_mmshare_version>
43012

> <i_f3d_flags>
0

> <s_epik_input>
W0NIM11bQ0gyXVtDSDJdW0NAQEhdMVtDSDJdW0NIMl1bQ0BIXShbQ0gyXVtDSDJdMSlbTkhdW0NIMl1bQ0gyXWMybm5bY0hdW25IXTI=

> <s_epik_cmdline>
J2VwaWtfcHl0aG9uJywgJy1waCcsICc3LjAnLCAnLXRuJywgJzgnLCAnLW1hJywgJzIwMCcsICctbWV0YWxfYmluZGluZycsICctaW1hZScsICc8aW5maWxlLm1hZT4nLCAnLW9tYWUnLCAnPG91dGZpbGUubWFlPic=

> <r_lp_tautomer_probability>
0.948284

> <r_epik_Ionization_Penalty>
0.0093758

> <r_epik_Ionization_Penalty_Charging>
0.000546397

> <r_epik_Ionization_Penalty_Neutral>
0.00882941

> <r_epik_State_Penalty>
0.401098

> <r_epik_Charging_Adjusted_Penalty>
0.401645

> <i_epik_Tot_Q>
1

> <i_epik_Tot_abs_Q>
1

> <r_epik_Metal_State_Penalty>
0.634803

> <b_epik_Metal_Only>
0

> <s_lp_Force_Field>
OPLS_2005

> <r_lp_Energy>
13.6193

> <b_lp_Chiralities_Consistent>
1

> <s_lp_Variant>
AV-unprocessed.smi:3025-1

> <Gold.Version>
5.8.1

> <Gold.Id.Protein>
6NUR|6NUR_protein|mol2

> <Gold.PLP.Fitness>
42.6571

> <Gold.PLP.PLP>
-31.8795

> <Gold.PLP.part.hbond>
-3.0000

> <Gold.PLP.part.metal>
0.0000

> <Gold.PLP.part.buried>
-0.7696

> <Gold.PLP.part.nonpolar>
-29.0818

> <Gold.PLP.part.repulsive>
0.7581

> <Gold.PLP.ligand.clash>
0.0000

> <Gold.PLP.ligand.torsion>
0.6459

> <Gold.PLP.Chemscore.Hbond>
3.9920

> <Gold.PLP.Chemscore.CHOScore>
0.0000

> <Gold.PLP.Chemscore.Metal>
0.0000

> <Gold.Chemscore.Hbonds>
donor molecule, donor type, donor heavy atom, donor atom, acceptor molecule, acceptor atom, score
      L1  H     8    32       P1  7957  1.00
      L1  H     8    42       P1  7948  2.00
      L1  H    12    18       P1  7948  0.99

> <Gold.PLP.Chemscore.Internal.Correction>
0.0934

> <Gold.Rescore>
     Score         DG    S(hbond)    S(metal)    S(lipo)     H(rot)  DE(clash)    DE(int)     intcor
     16.54     -17.24       2.79        0.00      76.74       2.56       0.17       0.53       ----

> <Gold.Chemscore.Fitness>
16.5357

> <Gold.Chemscore.DG>
-17.2381

> <Gold.Chemscore.ZeroCoef>
-5.4800

> <Gold.Chemscore.Hbond>
2.7946

> <Gold.Chemscore.Metal>
0.0000

> <Gold.Chemscore.Lipo>
76.7374

> <Gold.Chemscore.Internal_Hbond>
0.0000

> <Gold.Chemscore.DEClash>
0.1716

> <Gold.Chemscore.DEInternal>
0.5308

> <Gold.Chemscore.Rot>
2.5602

> <Gold.Chemscore.Internal.Correction>
   9.000000E+99

> <Gold.Chemscore.Hbonds>
donor molecule, donor type, donor heavy atom, donor atom, acceptor molecule, acceptor atom, score
      L1  H     8    32       P1  7957  0.95
      L1  H     8    42       P1  7948  0.96
      L1  H    12    18       P1  7948  0.94

> <Gold.Chemscore.Hbond.Weighted>
-9.3341

> <Gold.Chemscore.Metal.Weighted>
-0.0000

> <Gold.Chemscore.Lipo.Weighted>
-8.9783

> <Gold.Chemscore.Internal_Hbond.Weighted>
0.0000

> <Gold.Chemscore.DEClash.Weighted>
0.1716

> <Gold.Chemscore.DEInternal.Weighted>
0.5308

> <Gold.Chemscore.Rot.Weighted>
6.5542

> <Gold.Chemscore.Internal.Correction.Weighted>
   9.000000E+99

> <Gold.Protein.RotatedTorsions>
[ 6907 6896 6895 6894 ] final  -55.15 input  -60.11 | X-H torsion
[ 7974 7965 7964 7962 ] final  130.24 input  175.53 | X-H torsion
[ 8008 7997 7996 7995 ] final  -33.33 input   59.86 | X-H torsion
[ 10167 10162 10161 10158 ] final   90.06 input  -65.29 | X-H torsion
[ 10718 10713 10712 10709 ] final   61.36 input   66.30 | X-H torsion
[ 10763 10752 10751 10750 ] final   18.34 input  -60.55 | X-H torsion
[ 11005 11000 10999 10996 ] final  165.93 input  -57.11 | X-H torsion

> <Gold.Protein.ActiveResidues>
 VAL166  LYS551  ARG553  GLY616  TRP617  ASP618  TYR619  PRO620  LYS621  CYS622 
 ASP623  PHE694  ASN695  SER759  ASP760  ASP761  ALA762  ILE779  LEU786  VAL792 
 PHE793  MET794  SER795  GLU796  ALA797  LYS798  CYS799  TRP800  GLU811  SER814 

> <Gold.Protein.RotatedAtoms>
  150.8276  134.7515  159.6826 H   0  0  0  0  0  0  0  0  0  0  0  0  # atno 6907 bound_to 6896
  152.4385  134.5635  159.9911 H   0  0  0  0  0  0  0  0  0  0  0  0  # atno 6908 bound_to 6896
  151.5803  133.3341  159.3043 H   0  0  0  0  0  0  0  0  0  0  0  0  # atno 6909 bound_to 6896
  145.0200  139.4140  143.5202 H   0  0  0  0  0  0  0  0  0  0  0  0  # atno 7974 bound_to 7965
  154.4152  140.1713  156.1871 H   0  0  0  0  0  0  0  0  0  0  0  0  # atno 8008 bound_to 7997
  155.9634  140.3391  155.6487 H   0  0  0  0  0  0  0  0  0  0  0  0  # atno 8009 bound_to 7997
  155.6719  140.0712  157.2507 H   0  0  0  0  0  0  0  0  0  0  0  0  # atno 8010 bound_to 7997
  139.8511  144.6593  150.9168 H   0  0  0  0  0  0  0  0  0  0  0  0  # atno 10167 bound_to 10162
  157.5822  130.8990  149.9451 H   0  0  0  0  0  0  0  0  0  0  0  0  # atno 10718 bound_to 10713
  153.1258  135.6729  153.9259 H   0  0  0  0  0  0  0  0  0  0  0  0  # atno 10763 bound_to 10752
  153.8761  135.3064  155.3445 H   0  0  0  0  0  0  0  0  0  0  0  0  # atno 10764 bound_to 10752
  154.7663  135.4962  153.9642 H   0  0  0  0  0  0  0  0  0  0  0  0  # atno 10765 bound_to 10752
  140.2612  134.7901  157.3591 H   0  0  0  0  0  0  0  0  0  0  0  0  # atno 11005 bound_to 11000
  146.3484  139.9693  142.8708 LP  0  0  0  0  0  0  0  0  0  0  0  0  # atno 17320 bound_to 7965
  145.1908  140.9811  143.4212 LP  0  0  0  0  0  0  0  0  0  0  0  0  # atno 17321 bound_to 7965
  140.7787  143.3826  151.1449 LP  0  0  0  0  0  0  0  0  0  0  0  0  # atno 17342 bound_to 10162
  139.7464  143.8845  152.3065 LP  0  0  0  0  0  0  0  0  0  0  0  0  # atno 17343 bound_to 10162
  156.0868  130.3667  150.0471 LP  0  0  0  0  0  0  0  0  0  0  0  0  # atno 17370 bound_to 10713
  156.8609  130.9491  151.3618 LP  0  0  0  0  0  0  0  0  0  0  0  0  # atno 17371 bound_to 10713
  140.1463  134.4907  155.7994 LP  0  0  0  0  0  0  0  0  0  0  0  0  # atno 17394 bound_to 11000
  141.2190  133.6845  156.7299 LP  0  0  0  0  0  0  0  0  0  0  0  0  # atno 17395 bound_to 11000

$$$$
