AV-unprocessed.smi:1824|AV-procd|sdf|7412|dock10
  -GOLD-   22720 9 93D 1   1.00000     0.00000
 Structure written by MMmdl.
 45 47  0  0  0  0  0  0  0  0  2 V2000
  148.7485  137.0471  157.1154 C   0  0  0  0  0  0  0  0  0  0  0  0
  149.0487  137.5914  155.7149 C   0  0  1  0  0  0  0  0  0  0  0  0
  147.7805  138.1011  155.0067 C   0  0  0  0  0  0  0  0  0  0  0  0
  148.0808  138.6917  153.7084 N   0  0  0  0  0  0  0  0  0  0  0  0
  146.8557  139.1218  153.0325 C   0  0  0  0  0  0  0  0  0  0  0  0
  146.1716  138.0496  152.1609 C   0  0  1  0  0  0  0  0  0  0  0  0
  147.0245  137.7475  151.0745 O   0  0  0  0  0  0  0  0  0  0  0  0
  145.8872  136.7654  152.9629 C   0  0  0  0  0  0  0  0  0  0  0  0
  145.1054  135.7804  152.2014 N   0  0  0  0  0  0  0  0  0  0  0  0
  143.9490  135.9452  151.5036 C   0  0  0  0  0  0  0  0  0  0  0  0
  143.6130  134.7372  150.9722 N   0  3  0  0  0  0  0  0  0  0  0  0
  144.5693  133.7861  151.3346 C   0  0  0  0  0  0  0  0  0  0  0  0
  144.6619  132.4298  151.0399 C   0  0  0  0  0  0  0  0  0  0  0  0
  145.7741  131.7401  151.5653 C   0  0  0  0  0  0  0  0  0  0  0  0
  145.9123  130.4175  151.3097 F   0  0  0  0  0  0  0  0  0  0  0  0
  146.7439  132.4003  152.3490 C   0  0  0  0  0  0  0  0  0  0  0  0
  147.7981  131.7008  152.8316 F   0  0  0  0  0  0  0  0  0  0  0  0
  146.6388  133.7762  152.6414 C   0  0  0  0  0  0  0  0  0  0  0  0
  145.5339  134.4498  152.1218 C   0  0  0  0  0  0  0  0  0  0  0  0
  149.0355  139.7830  153.8979 C   0  0  0  0  0  0  0  0  0  0  0  0
  150.3151  139.3328  154.6308 C   0  0  2  0  0  0  0  0  0  0  0  0
  151.2513  138.4865  153.7515 C   0  0  0  0  0  0  0  0  0  0  0  0
  149.9802  138.6633  155.8473 O   0  0  0  0  0  0  0  0  0  0  0  0
  148.0486  136.2124  157.0705 H   0  0  0  0  0  0  0  0  0  0  0  0
  148.3124  137.8165  157.7530 H   0  0  0  0  0  0  0  0  0  0  0  0
  149.6592  136.6916  157.5979 H   0  0  0  0  0  0  0  0  0  0  0  0
  149.4985  136.7917  155.1260 H   0  0  0  0  0  0  0  0  0  0  0  0
  147.0845  137.2708  154.8817 H   0  0  0  0  0  0  0  0  0  0  0  0
  147.2782  138.8354  155.6389 H   0  0  0  0  0  0  0  0  0  0  0  0
  146.1323  139.4611  153.7757 H   0  0  0  0  0  0  0  0  0  0  0  0
  147.0781  139.9967  152.4195 H   0  0  0  0  0  0  0  0  0  0  0  0
  145.2271  138.4171  151.7624 H   0  0  0  0  0  0  0  0  0  0  0  0
  147.5808  137.0260  151.3277 H   0  0  0  0  0  0  0  0  0  0  0  0
  146.8096  136.3032  153.3154 H   0  0  0  0  0  0  0  0  0  0  0  0
  145.3090  137.0084  153.8552 H   0  0  0  0  0  0  0  0  0  0  0  0
  143.3976  136.8677  151.3916 H   0  0  0  0  0  0  0  0  0  0  0  0
  143.9233  131.9207  150.4384 H   0  0  0  0  0  0  0  0  0  0  0  0
  147.3912  134.2712  153.2369 H   0  0  0  0  0  0  0  0  0  0  0  0
  149.3178  140.2221  152.9424 H   0  0  0  0  0  0  0  0  0  0  0  0
  148.5628  140.5801  154.4740 H   0  0  0  0  0  0  0  0  0  0  0  0
  150.8700  140.2266  154.9168 H   0  0  0  0  0  0  0  0  0  0  0  0
  151.5937  139.0581  152.8887 H   0  0  0  0  0  0  0  0  0  0  0  0
  150.7596  137.5905  153.3732 H   0  0  0  0  0  0  0  0  0  0  0  0
  152.1328  138.1733  154.3110 H   0  0  0  0  0  0  0  0  0  0  0  0
  142.7910  134.5775  150.4037 H   0  0  0  0  0  0  0  0  0  0  0  0
  1  2  1  0  0  0  0
  1 24  1  0  0  0  0
  1 25  1  0  0  0  0
  1 26  1  0  0  0  0
  2 23  1  0  0  0  0
  2  3  1  0  0  0  0
  2 27  1  0  0  0  0
  3  4  1  0  0  0  0
  3 28  1  0  0  0  0
  3 29  1  0  0  0  0
  4  5  1  0  0  0  0
  4 20  1  0  0  0  0
  5  6  1  0  0  0  0
  5 30  1  0  0  0  0
  5 31  1  0  0  0  0
  6  7  1  0  0  0  0
  6  8  1  0  0  0  0
  6 32  1  0  0  0  0
  7 33  1  0  0  0  0
  8  9  1  0  0  0  0
  8 34  1  0  0  0  0
  8 35  1  0  0  0  0
  9 19  1  0  0  0  0
  9 10  1  0  0  0  0
 10 11  2  0  0  0  0
 10 36  1  0  0  0  0
 11 12  1  0  0  0  0
 11 45  1  0  0  0  0
 12 19  2  0  0  0  0
 12 13  1  0  0  0  0
 13 14  2  0  0  0  0
 13 37  1  0  0  0  0
 14 15  1  0  0  0  0
 14 16  1  0  0  0  0
 16 17  1  0  0  0  0
 16 18  2  0  0  0  0
 18 19  1  0  0  0  0
 18 38  1  0  0  0  0
 20 21  1  0  0  0  0
 20 39  1  0  0  0  0
 20 40  1  0  0  0  0
 21 22  1  0  0  0  0
 21 23  1  0  0  0  0
 21 41  1  0  0  0  0
 22 42  1  0  0  0  0
 22 43  1  0  0  0  0
 22 44  1  0  0  0  0
M  CHG  1  11   1
M  END
> <s_m_source_file>
AV-unprocessed.smi

> <i_m_source_file_index>
1824

> <i_lp_mmshare_version>
43012

> <i_f3d_flags>
0

> <s_epik_input>
W0NIM11bQ0BASF0xW0NIMl1OKFtDSDJdW0NASF0oTzEpW0NIM10pW0NIMl1bQ0BIXShbT0hdKVtDSDJdbihbY0hdbjIpYyhjMjMpW2NIXWMoRiljKEYpW2NIXTM=

> <s_epik_cmdline>
J2VwaWtfcHl0aG9uJywgJy1waCcsICc3LjAnLCAnLXRuJywgJzgnLCAnLW1hJywgJzIwMCcsICctbWV0YWxfYmluZGluZycsICctaW1hZScsICc8aW5maWxlLm1hZT4nLCAnLW9tYWUnLCAnPG91dGZpbGUubWFlPic=

> <r_epik_Ionization_Penalty>
2.58709

> <r_epik_Ionization_Penalty_Charging>
2.37273

> <r_epik_Ionization_Penalty_Neutral>
0.214359

> <r_epik_State_Penalty>
2.71799

> <r_epik_Charging_Adjusted_Penalty>
5.09071

> <i_epik_Tot_Q>
1

> <i_epik_Tot_abs_Q>
1

> <r_epik_Metal_State_Penalty>
6.80217

> <b_epik_Metal_Only>
0

> <s_lp_Force_Field>
OPLS_2005

> <r_lp_Energy>
35.189

> <b_lp_Chiralities_Consistent>
1

> <s_lp_Variant>
AV-unprocessed.smi:1824-20

> <Gold.Version>
5.8.1

> <Gold.Id.Protein>
6NUR|6NUR_protein|mol2

> <Gold.PLP.Fitness>
47.1540

> <Gold.PLP.PLP>
-34.8618

> <Gold.PLP.part.hbond>
-2.6051

> <Gold.PLP.part.metal>
0.0000

> <Gold.PLP.part.buried>
-3.9800

> <Gold.PLP.part.nonpolar>
-29.3584

> <Gold.PLP.part.repulsive>
0.2004

> <Gold.PLP.ligand.clash>
0.0000

> <Gold.PLP.ligand.torsion>
0.4963

> <Gold.PLP.Chemscore.Hbond>
3.4250

> <Gold.PLP.Chemscore.CHOScore>
1.0000

> <Gold.PLP.Chemscore.Metal>
0.0000

> <Gold.Chemscore.Hbonds>
donor molecule, donor type, donor heavy atom, donor atom, acceptor molecule, acceptor atom, score
      L1  H     7    33       P1  7948  1.00
      L1  H    11    45       P1 10186  2.00
      P1  H  7954  7966       L1     7  0.05
      L1  C    10    36       P1 10171  0.93

> <Gold.PLP.Chemscore.Internal.Correction>
0.0098

> <Gold.Rescore>
     Score         DG    S(hbond)    S(metal)    S(lipo)     H(rot)  DE(clash)    DE(int)     intcor
     13.67     -14.22       1.76        0.00      75.24       2.32       0.02       0.52       ----

> <Gold.Chemscore.Fitness>
13.6742

> <Gold.Chemscore.DG>
-14.2151

> <Gold.Chemscore.ZeroCoef>
-5.4800

> <Gold.Chemscore.Hbond>
1.7586

> <Gold.Chemscore.Metal>
0.0000

> <Gold.Chemscore.Lipo>
75.2401

> <Gold.Chemscore.Internal_Hbond>
0.0000

> <Gold.Chemscore.DEClash>
0.0234

> <Gold.Chemscore.DEInternal>
0.5175

> <Gold.Chemscore.Rot>
2.3210

> <Gold.Chemscore.Internal.Correction>
   9.000000E+99

> <Gold.Chemscore.Hbonds>
donor molecule, donor type, donor heavy atom, donor atom, acceptor molecule, acceptor atom, score
      L1  H     7    33       P1  7948  0.99
      L1  H    11    45       P1 10186  0.44

> <Gold.Chemscore.Hbond.Weighted>
-5.8736

> <Gold.Chemscore.Metal.Weighted>
-0.0000

> <Gold.Chemscore.Lipo.Weighted>
-8.8031

> <Gold.Chemscore.Internal_Hbond.Weighted>
0.0000

> <Gold.Chemscore.DEClash.Weighted>
0.0234

> <Gold.Chemscore.DEInternal.Weighted>
0.5175

> <Gold.Chemscore.Rot.Weighted>
5.9416

> <Gold.Chemscore.Internal.Correction.Weighted>
   9.000000E+99

> <Gold.Protein.RotatedTorsions>
[ 6907 6896 6895 6894 ] final   78.07 input  -60.11 | X-H torsion
[ 7974 7965 7964 7962 ] final  165.60 input  175.53 | X-H torsion
[ 8008 7997 7996 7995 ] final   46.18 input   59.86 | X-H torsion
[ 10167 10162 10161 10158 ] final -160.50 input  -65.29 | X-H torsion
[ 10718 10713 10712 10709 ] final -121.24 input   66.30 | X-H torsion
[ 10763 10752 10751 10750 ] final -167.49 input  -60.55 | X-H torsion
[ 11005 11000 10999 10996 ] final -142.35 input  -57.11 | X-H torsion

> <Gold.Protein.ActiveResidues>
 VAL166  LYS551  ARG553  GLY616  TRP617  ASP618  TYR619  PRO620  LYS621  CYS622 
 ASP623  PHE694  ASN695  SER759  ASP760  ASP761  ALA762  ILE779  LEU786  VAL792 
 PHE793  MET794  SER795  GLU796  ALA797  LYS798  CYS799  TRP800  GLU811  SER814 

> <Gold.Protein.RotatedAtoms>
  152.5144  134.3720  159.9321 H   0  0  0  0  0  0  0  0  0  0  0  0  # atno 6907 bound_to 6896
  151.3675  133.3861  159.2704 H   0  0  0  0  0  0  0  0  0  0  0  0  # atno 6908 bound_to 6896
  150.9604  134.9012  159.7785 H   0  0  0  0  0  0  0  0  0  0  0  0  # atno 6909 bound_to 6896
  144.7496  139.8494  143.6371 H   0  0  0  0  0  0  0  0  0  0  0  0  # atno 7974 bound_to 7965
  155.3481  140.3412  155.4239 H   0  0  0  0  0  0  0  0  0  0  0  0  # atno 8008 bound_to 7997
  156.1778  140.1653  156.8366 H   0  0  0  0  0  0  0  0  0  0  0  0  # atno 8009 bound_to 7997
  154.5301  140.0747  156.8312 H   0  0  0  0  0  0  0  0  0  0  0  0  # atno 8010 bound_to 7997
  139.6535  144.0041  152.2178 H   0  0  0  0  0  0  0  0  0  0  0  0  # atno 10167 bound_to 10162
  156.1322  130.6403  150.9639 H   0  0  0  0  0  0  0  0  0  0  0  0  # atno 10718 bound_to 10713
  154.6726  135.2942  154.9721 H   0  0  0  0  0  0  0  0  0  0  0  0  # atno 10763 bound_to 10752
  154.0743  135.6613  153.4832 H   0  0  0  0  0  0  0  0  0  0  0  0  # atno 10764 bound_to 10752
  153.0496  135.5182  154.7730 H   0  0  0  0  0  0  0  0  0  0  0  0  # atno 10765 bound_to 10752
  140.8234  134.2604  157.4890 H   0  0  0  0  0  0  0  0  0  0  0  0  # atno 11005 bound_to 11000
  146.1426  139.4487  143.0099 LP  0  0  0  0  0  0  0  0  0  0  0  0  # atno 17320 bound_to 7965
  145.6994  141.0140  143.1512 LP  0  0  0  0  0  0  0  0  0  0  0  0  # atno 17321 bound_to 7965
  139.9762  144.6460  150.7943 LP  0  0  0  0  0  0  0  0  0  0  0  0  # atno 17342 bound_to 10162
  140.7548  143.3035  151.3022 LP  0  0  0  0  0  0  0  0  0  0  0  0  # atno 17343 bound_to 10162
  157.6498  131.0898  150.8075 LP  0  0  0  0  0  0  0  0  0  0  0  0  # atno 17370 bound_to 10713
  156.8158  130.4967  149.5349 LP  0  0  0  0  0  0  0  0  0  0  0  0  # atno 17371 bound_to 10713
  139.8707  134.9547  156.4185 LP  0  0  0  0  0  0  0  0  0  0  0  0  # atno 17394 bound_to 11000
  140.9075  133.7735  155.9752 LP  0  0  0  0  0  0  0  0  0  0  0  0  # atno 17395 bound_to 11000

$$$$
