AV-unprocessed.smi:579|AV-procd|sdf|2987|dock8
  -GOLD-   2262023493D 1   1.00000     0.00000
 Structure written by MMmdl.
 26 27  0  0  0  0  0  0  0  0  1 V2000
  150.3859  138.0971  153.4022 N   0  0  0  0  0  0  0  0  0  0  0  0
  150.7330  139.0026  154.4036 C   0  0  0  0  0  0  0  0  0  0  0  0
  149.8241  139.9913  154.8288 C   0  0  0  0  0  0  0  0  0  0  0  0
  150.2189  140.8836  155.8439 C   0  0  0  0  0  0  0  0  0  0  0  0
  151.5105  140.7542  156.3966 C   0  0  0  0  0  0  0  0  0  0  0  0
  151.9073  141.6391  157.4091 N   0  0  0  0  0  0  0  0  0  0  0  0
  151.3056  142.9615  157.2904 C   0  0  0  0  0  0  0  0  0  0  0  0
  151.8877  143.9021  158.3597 C   0  0  0  0  0  0  0  0  0  0  0  0
  151.6976  143.3329  159.6521 O   0  0  0  0  0  0  0  0  0  0  0  0
  152.3498  142.0728  159.7838 C   0  0  0  0  0  0  0  0  0  0  0  0
  151.7779  141.0859  158.7515 C   0  0  0  0  0  0  0  0  0  0  0  0
  152.3875  139.8046  155.9899 N   0  0  0  0  0  0  0  0  0  0  0  0
  152.0018  138.9521  155.0164 C   0  0  0  0  0  0  0  0  0  0  0  0
  151.0293  137.3841  153.0894 H   0  0  0  0  0  0  0  0  0  0  0  0
  149.4769  138.1191  152.9622 H   0  0  0  0  0  0  0  0  0  0  0  0
  148.8410  140.0674  154.3876 H   0  0  0  0  0  0  0  0  0  0  0  0
  149.5425  141.6515  156.1899 H   0  0  0  0  0  0  0  0  0  0  0  0
  151.4919  143.3648  156.2944 H   0  0  0  0  0  0  0  0  0  0  0  0
  150.2239  142.8877  157.4126 H   0  0  0  0  0  0  0  0  0  0  0  0
  152.9494  144.0822  158.1826 H   0  0  0  0  0  0  0  0  0  0  0  0
  151.3890  144.8706  158.3207 H   0  0  0  0  0  0  0  0  0  0  0  0
  153.4264  142.1931  159.6521 H   0  0  0  0  0  0  0  0  0  0  0  0
  152.1922  141.6945  160.7938 H   0  0  0  0  0  0  0  0  0  0  0  0
  150.7278  140.8890  158.9715 H   0  0  0  0  0  0  0  0  0  0  0  0
  152.3055  140.1330  158.8110 H   0  0  0  0  0  0  0  0  0  0  0  0
  152.7285  138.2096  154.7203 H   0  0  0  0  0  0  0  0  0  0  0  0
  1  2  1  0  0  0  0
  1 14  1  0  0  0  0
  1 15  1  0  0  0  0
  2 13  1  0  0  0  0
  2  3  2  0  0  0  0
  3  4  1  0  0  0  0
  3 16  1  0  0  0  0
  4  5  2  0  0  0  0
  4 17  1  0  0  0  0
  5  6  1  0  0  0  0
  5 12  1  0  0  0  0
  6 11  1  0  0  0  0
  6  7  1  0  0  0  0
  7  8  1  0  0  0  0
  7 18  1  0  0  0  0
  7 19  1  0  0  0  0
  8  9  1  0  0  0  0
  8 20  1  0  0  0  0
  8 21  1  0  0  0  0
  9 10  1  0  0  0  0
 10 11  1  0  0  0  0
 10 22  1  0  0  0  0
 10 23  1  0  0  0  0
 11 24  1  0  0  0  0
 11 25  1  0  0  0  0
 12 13  2  0  0  0  0
 13 26  1  0  0  0  0
M  END
> <s_m_source_file>
AV-unprocessed.smi

> <i_m_source_file_index>
579

> <i_lp_mmshare_version>
43012

> <i_f3d_flags>
0

> <s_epik_input>
W05IMl1jMVtjSF1bY0hdYyhuW2NIXTEpTjJbQ0gyXVtDSDJdT1tDSDJdW0NIMl0y

> <s_epik_cmdline>
J2VwaWtfcHl0aG9uJywgJy1waCcsICc3LjAnLCAnLXRuJywgJzgnLCAnLW1hJywgJzIwMCcsICctbWV0YWxfYmluZGluZycsICctaW1hZScsICc8aW5maWxlLm1hZT4nLCAnLW9tYWUnLCAnPG91dGZpbGUubWFlPic=

> <r_lp_tautomer_probability>
1

> <r_epik_Ionization_Penalty>
0.00957298

> <r_epik_Ionization_Penalty_Charging>
0

> <r_epik_Ionization_Penalty_Neutral>
0.00957298

> <r_epik_State_Penalty>
0.00726246

> <r_epik_Charging_Adjusted_Penalty>
0.00726246

> <i_epik_Tot_Q>
0

> <i_epik_Tot_abs_Q>
0

> <r_epik_Metal_State_Penalty>
7.30711e-06

> <b_epik_Metal_Only>
0

> <s_lp_Force_Field>
OPLS_2005

> <r_lp_Energy>
21.013

> <b_lp_Chiralities_Consistent>
1

> <s_lp_Variant>
AV-unprocessed.smi:579-1

> <Gold.Version>
5.8.1

> <Gold.Id.Protein>
6NUR|6NUR_protein|mol2

> <Gold.PLP.Fitness>
31.8688

> <Gold.PLP.PLP>
-27.9278

> <Gold.PLP.part.hbond>
-3.9451

> <Gold.PLP.part.metal>
0.0000

> <Gold.PLP.part.buried>
-0.3563

> <Gold.PLP.part.nonpolar>
-23.0356

> <Gold.PLP.part.repulsive>
0.1144

> <Gold.PLP.ligand.clash>
0.0000

> <Gold.PLP.ligand.torsion>
0.6742

> <Gold.PLP.Chemscore.Hbond>
1.7290

> <Gold.PLP.Chemscore.CHOScore>
0.0000

> <Gold.PLP.Chemscore.Metal>
0.0000

> <Gold.Chemscore.Hbonds>
donor molecule, donor type, donor heavy atom, donor atom, acceptor molecule, acceptor atom, score
      L1  H     1    14       P1  7949  0.57
      L1  H     1    15       P1  7948  0.14
      P1  H  7997  8008       L1    12  1.00

> <Gold.PLP.Chemscore.Internal.Correction>
0.1023

> <Gold.Rescore>
     Score         DG    S(hbond)    S(metal)    S(lipo)     H(rot)  DE(clash)    DE(int)     intcor
     15.24     -16.47       1.71        0.00      67.05       1.00       0.59       0.65       ----

> <Gold.Chemscore.Fitness>
15.2396

> <Gold.Chemscore.DG>
-16.4742

> <Gold.Chemscore.ZeroCoef>
-5.4800

> <Gold.Chemscore.Hbond>
1.7095

> <Gold.Chemscore.Metal>
0.0000

> <Gold.Chemscore.Lipo>
67.0459

> <Gold.Chemscore.Internal_Hbond>
0.0000

> <Gold.Chemscore.DEClash>
0.5889

> <Gold.Chemscore.DEInternal>
0.6457

> <Gold.Chemscore.Rot>
1.0000

> <Gold.Chemscore.Internal.Correction>
   9.000000E+99

> <Gold.Chemscore.Hbonds>
donor molecule, donor type, donor heavy atom, donor atom, acceptor molecule, acceptor atom, score
      L1  H     1    14       P1  7949  0.19
      L1  H     1    15       P1  7948  0.13
      P1  H  7997  8008       L1    12  0.90

> <Gold.Chemscore.Hbond.Weighted>
-5.7099

> <Gold.Chemscore.Metal.Weighted>
-0.0000

> <Gold.Chemscore.Lipo.Weighted>
-7.8444

> <Gold.Chemscore.Internal_Hbond.Weighted>
0.0000

> <Gold.Chemscore.DEClash.Weighted>
0.5889

> <Gold.Chemscore.DEInternal.Weighted>
0.6457

> <Gold.Chemscore.Rot.Weighted>
2.5600

> <Gold.Chemscore.Internal.Correction.Weighted>
   9.000000E+99

> <Gold.Protein.RotatedTorsions>
[ 6907 6896 6895 6894 ] final   79.61 input  -60.11 | X-H torsion
[ 7974 7965 7964 7962 ] final   34.49 input  175.53 | X-H torsion
[ 8008 7997 7996 7995 ] final  -41.26 input   59.86 | X-H torsion
[ 10167 10162 10161 10158 ] final  106.34 input  -65.29 | X-H torsion
[ 10718 10713 10712 10709 ] final   29.64 input   66.30 | X-H torsion
[ 10763 10752 10751 10750 ] final  -64.16 input  -60.55 | X-H torsion
[ 11005 11000 10999 10996 ] final -122.76 input  -57.11 | X-H torsion

> <Gold.Protein.ActiveResidues>
 VAL166  LYS551  ARG553  GLY616  TRP617  ASP618  TYR619  PRO620  LYS621  CYS622 
 ASP623  PHE694  ASN695  SER759  ASP760  ASP761  ALA762  ILE779  LEU786  VAL792 
 PHE793  MET794  SER795  GLU796  ALA797  LYS798  CYS799  TRP800  GLU811  SER814 

> <Gold.Protein.RotatedAtoms>
  152.5205  134.3484  159.9242 H   0  0  0  0  0  0  0  0  0  0  0  0  # atno 6907 bound_to 6896
  151.3435  133.3947  159.2681 H   0  0  0  0  0  0  0  0  0  0  0  0  # atno 6908 bound_to 6896
  150.9784  134.9162  159.7888 H   0  0  0  0  0  0  0  0  0  0  0  0  # atno 6909 bound_to 6896
  146.1349  139.6263  142.9202 H   0  0  0  0  0  0  0  0  0  0  0  0  # atno 7974 bound_to 7965
  154.4005  140.1504  156.3161 H   0  0  0  0  0  0  0  0  0  0  0  0  # atno 8008 bound_to 7997
  155.8571  140.3455  155.5710 H   0  0  0  0  0  0  0  0  0  0  0  0  # atno 8009 bound_to 7997
  155.7920  140.0858  157.1994 H   0  0  0  0  0  0  0  0  0  0  0  0  # atno 8010 bound_to 7997
  139.7018  144.7093  151.1173 H   0  0  0  0  0  0  0  0  0  0  0  0  # atno 10167 bound_to 10162
  157.2492  130.7106  149.6397 H   0  0  0  0  0  0  0  0  0  0  0  0  # atno 10718 bound_to 10713
  154.3259  135.6186  153.5529 H   0  0  0  0  0  0  0  0  0  0  0  0  # atno 10763 bound_to 10752
  152.9815  135.5735  154.5017 H   0  0  0  0  0  0  0  0  0  0  0  0  # atno 10764 bound_to 10752
  154.4694  135.2859  155.1631 H   0  0  0  0  0  0  0  0  0  0  0  0  # atno 10765 bound_to 10752
  140.9970  134.0457  157.3584 H   0  0  0  0  0  0  0  0  0  0  0  0  # atno 11005 bound_to 11000
  145.5178  141.0433  143.2452 LP  0  0  0  0  0  0  0  0  0  0  0  0  # atno 17320 bound_to 7965
  144.7729  139.6693  143.7187 LP  0  0  0  0  0  0  0  0  0  0  0  0  # atno 17321 bound_to 7965
  140.7711  143.5414  150.9308 LP  0  0  0  0  0  0  0  0  0  0  0  0  # atno 17342 bound_to 10162
  139.9096  143.6737  152.3117 LP  0  0  0  0  0  0  0  0  0  0  0  0  # atno 17343 bound_to 10162
  155.9667  130.4433  150.5416 LP  0  0  0  0  0  0  0  0  0  0  0  0  # atno 17370 bound_to 10713
  157.3296  131.0697  151.1871 LP  0  0  0  0  0  0  0  0  0  0  0  0  # atno 17371 bound_to 10713
  139.9020  135.0168  156.7312 LP  0  0  0  0  0  0  0  0  0  0  0  0  # atno 17394 bound_to 11000
  140.6949  133.9357  155.7989 LP  0  0  0  0  0  0  0  0  0  0  0  0  # atno 17395 bound_to 11000

$$$$
