#       Name:                AV-unprocessed.smi:3031
#       Creating user name   scv26
#       Creation time:       Fri Mar 27 16:49:38 2020


#       File generated by GOLD software.
#

@<TRIPOS>MOLECULE
AV-unprocessed.smi:3031
    53    54     1
SMALL
NO_CHARGES


@<TRIPOS>ATOM
      1 ****        -3.2109   0.7791  -3.1993 C.3            1 S1                 0.0000
      2 ****        -3.4287   0.3599  -1.7741 C.2            1 S1                 0.0000
      3 ****        -3.9785   1.1334  -0.7124 C.2            1 S1                 0.0000
      4 ****        -4.0283   0.4723   0.4326 N.2            1 S1                 0.0000
      5 ****        -3.5174  -0.7427   0.1430 N.pl3          1 S1                 0.0000
      6 ****        -3.4058  -1.7446   1.1869 C.3            1 S1                 0.0000
      7 ****        -2.2858  -1.4388   2.2063 C.3            1 S1                 0.0000
      8 ****        -2.3211  -2.4475   3.3623 C.3            1 S1                 0.0000
      9 ****        -0.9514  -1.4774   1.5652 N.4            1 S1                 1.0000
     10 ****        -0.4055  -0.1645   1.1564 C.3            1 S1                 0.0000
     11 ****         0.8696  -0.3334   0.3140 C.3            1 S1                 0.0000
     12 ****         0.4916  -0.9321  -0.9116 O.3            1 S1                 0.0000
     13 ****         1.5480   1.0205   0.0124 C.3            1 S1                 0.0000
     14 ****         3.0066   0.9784  -0.0868 N.3            1 S1                 0.0000
     15 ****         3.5642   2.3249  -0.1665 C.3            1 S1                 0.0000
     16 ****         5.0991   2.3085  -0.2686 C.3            1 S1                 0.0000
     17 ****         5.4919   1.5338  -1.3966 O.3            1 S1                 0.0000
     18 ****         5.0085   0.1960  -1.3381 C.3            1 S1                 0.0000
     19 ****         3.4732   0.2037  -1.2349 C.3            1 S1                 0.0000
     20 ****        -3.1551  -0.8414  -1.1838 C.2            1 S1                 0.0000
     21 ****        -4.1484   1.0481  -3.6860 H              1 S1                 0.0000
     22 ****        -2.7574  -0.0151  -3.7927 H              1 S1                 0.0000
     23 ****        -2.5532   1.6459  -3.2669 H              1 S1                 0.0000
     24 ****        -4.3372   2.1519  -0.7395 H              1 S1                 0.0000
     25 ****        -4.3692  -1.8054   1.6953 H              1 S1                 0.0000
     26 ****        -3.2419  -2.7171   0.7203 H              1 S1                 0.0000
     27 ****        -2.4465  -0.4494   2.6380 H              1 S1                 0.0000
     28 ****        -3.2822  -2.4209   3.8769 H              1 S1                 0.0000
     29 ****        -1.5490  -2.2281   4.1004 H              1 S1                 0.0000
     30 ****        -2.1631  -3.4666   3.0073 H              1 S1                 0.0000
     31 ****        -0.2981  -1.8813   2.2211 H              1 S1                 0.0000
     32 ****        -1.1439   0.4119   0.6005 H              1 S1                 0.0000
     33 ****        -0.1848   0.4014   2.0623 H              1 S1                 0.0000
     34 ****         1.5625  -0.9901   0.8427 H              1 S1                 0.0000
     35 ****        -0.0386  -0.3183  -1.3973 H              1 S1                 0.0000
     36 ****         1.1164   1.4754  -0.8811 H              1 S1                 0.0000
     37 ****         1.2982   1.7004   0.8280 H              1 S1                 0.0000
     38 ****         3.1530   2.8449  -1.0331 H              1 S1                 0.0000
     39 ****         3.2694   2.9013   0.7111 H              1 S1                 0.0000
     40 ****         5.4829   3.3225  -0.3812 H              1 S1                 0.0000
     41 ****         5.5430   1.8958   0.6387 H              1 S1                 0.0000
     42 ****         5.3258  -0.3379  -2.2338 H              1 S1                 0.0000
     43 ****         5.4499  -0.3201  -0.4843 H              1 S1                 0.0000
     44 ****         3.1250  -0.8262  -1.1617 H              1 S1                 0.0000
     45 ****         3.0512   0.6130  -2.1540 H              1 S1                 0.0000
     46 ****        -2.7276  -1.7454  -1.5924 H              1 S1                 0.0000
     47 ****        -1.0010  -2.0793   0.7554 H              1 S1                 0.0000
     48 ****        -4.3681   0.7994   1.3144 LP             1 S1                 0.0000
     49 ****        -0.0347  -1.7632  -0.7321 LP             1 S1                 0.0000
     50 ****         1.3088  -1.1627  -1.4398 LP             1 S1                 0.0000
     51 ****         3.3255   0.5246   0.7453 LP             1 S1                 0.0000
     52 ****         6.4908   1.5118  -1.4377 LP             1 S1                 0.0000
     53 ****         5.1338   1.9677  -2.2234 LP             1 S1                 0.0000
@<TRIPOS>BOND
    1    1    2 1     
    2    1   21 1     
    3    1   22 1     
    4    1   23 1     
    5    2   20 2     
    6    2    3 1     
    7    3    4 2     
    8    3   24 1     
    9    4    5 1     
   10    5    6 1     
   11    5   20 1     
   12    6    7 1     
   13    6   25 1     
   14    6   26 1     
   15    7    8 1     
   16    7    9 1     
   17    7   27 1     
   18    8   28 1     
   19    8   29 1     
   20    8   30 1     
   21    9   10 1     
   22    9   31 1     
   23    9   47 1     
   24   10   11 1     
   25   10   32 1     
   26   10   33 1     
   27   11   12 1     
   28   11   13 1     
   29   11   34 1     
   30   12   35 1     
   31   13   14 1     
   32   13   36 1     
   33   13   37 1     
   34   14   19 1     
   35   14   15 1     
   36   15   16 1     
   37   15   38 1     
   38   15   39 1     
   39   16   17 1     
   40   16   40 1     
   41   16   41 1     
   42   17   18 1     
   43   18   19 1     
   44   18   42 1     
   45   18   43 1     
   46   19   44 1     
   47   19   45 1     
   48   20   46 1     
   49    4   48 1     
   50   12   49 1     
   51   12   50 1     
   52   14   51 1     
   53   17   52 1     
   54   17   53 1     
@<TRIPOS>SUBSTRUCTURE
      1 S1             1
@<TRIPOS>SET
LONE_PAIRS      STATIC     ATOMS    <user>   **** ""
6 48 49 50 51 52 53
DONOR_HYDROGENS      STATIC     ATOMS    <user>   **** ""
3 31 47 35
ATOM$BLUE        STATIC     ATOMS    COLORGROUP SYSTEM
6 48 49 50 51 52 53
ATOM$RED        STATIC     ATOMS    COLORGROUP SYSTEM
3 31 47 35
