#       Name:                AV-unprocessed.smi:1875
#       Creating user name   scv26
#       Creation time:       Fri Mar 27 09:33:38 2020


#       File generated by GOLD software.
#

@<TRIPOS>MOLECULE
AV-unprocessed.smi:1875
    53    55     1
SMALL
NO_CHARGES


@<TRIPOS>ATOM
      1 ****        -6.0404   3.8121  -2.6709 C.3            1 S1                 0.0000
      2 ****        -5.1772   3.6655  -1.4347 C.ar           1 S1                 0.0000
      3 ****        -5.0621   4.7404  -0.6490 N.ar           1 S1                 0.0000
      4 ****        -4.2857   4.6163   0.4496 C.ar           1 S1                 0.0000
      5 ****        -3.6225   3.4106   0.7563 C.ar           1 S1                 0.0000
      6 ****        -3.8214   2.3442  -0.1454 C.ar           1 S1                 0.0000
      7 ****        -3.1555   1.0002   0.0612 C.3            1 S1                 0.0000
      8 ****        -1.9651   0.8809  -0.8003 N.4            1 S1                 1.0000
      9 ****        -1.2509  -0.4037  -0.6666 C.3            1 S1                 0.0000
     10 ****        -0.0170  -0.4559  -1.5865 C.3            1 S1                 0.0000
     11 ****         0.9357   0.4737  -1.1090 O.3            1 S1                 0.0000
     12 ****         0.6309  -1.8556  -1.6737 C.3            1 S1                 0.0000
     13 ****         1.0086  -2.4097  -0.3831 N.pl3          1 S1                 0.0000
     14 ****         0.2700  -3.2203   0.3998 C.2            1 S1                 0.0000
     15 ****         0.8067  -3.6119   1.5512 N.2            1 S1                 0.0000
     16 ****         2.0448  -2.9947   1.5058 C.ar           1 S1                 0.0000
     17 ****         3.1109  -3.0108   2.4314 C.ar           1 S1                 0.0000
     18 ****         4.3046  -2.2997   2.1746 C.ar           1 S1                 0.0000
     19 ****         5.4260  -2.3447   3.1978 C.3            1 S1                 0.0000
     20 ****         4.4446  -1.5570   0.9748 C.ar           1 S1                 0.0000
     21 ****         5.7188  -0.7869   0.6765 C.3            1 S1                 0.0000
     22 ****         3.3889  -1.5296   0.0395 C.ar           1 S1                 0.0000
     23 ****         2.2048  -2.2392   0.3072 C.ar           1 S1                 0.0000
     24 ****        -4.5959   2.4762  -1.2456 N.ar           1 S1                 0.0000
     25 ****        -6.7983   4.5840  -2.5324 H              1 S1                 0.0000
     26 ****        -6.5526   2.8772  -2.9015 H              1 S1                 0.0000
     27 ****        -5.4245   4.0865  -3.5277 H              1 S1                 0.0000
     28 ****        -4.1902   5.4839   1.0856 H              1 S1                 0.0000
     29 ****        -3.0002   3.3151   1.6341 H              1 S1                 0.0000
     30 ****        -2.8672   0.8871   1.1071 H              1 S1                 0.0000
     31 ****        -3.8625   0.2017  -0.1686 H              1 S1                 0.0000
     32 ****        -2.2564   0.9942  -1.7606 H              1 S1                 0.0000
     33 ****        -0.9640  -0.5522   0.3755 H              1 S1                 0.0000
     34 ****        -1.9384  -1.2091  -0.9283 H              1 S1                 0.0000
     35 ****        -0.3040  -0.1513  -2.5940 H              1 S1                 0.0000
     36 ****         1.6907   0.4520  -1.6779 H              1 S1                 0.0000
     37 ****        -0.0609  -2.5508  -2.1513 H              1 S1                 0.0000
     38 ****         1.5164  -1.8249  -2.3099 H              1 S1                 0.0000
     39 ****        -0.7222  -3.5351   0.1115 H              1 S1                 0.0000
     40 ****         3.0046  -3.5780   3.3445 H              1 S1                 0.0000
     41 ****         6.3387  -2.7377   2.7494 H              1 S1                 0.0000
     42 ****         5.1682  -2.9828   4.0436 H              1 S1                 0.0000
     43 ****         5.6312  -1.3455   3.5826 H              1 S1                 0.0000
     44 ****         5.6463  -0.2482  -0.2686 H              1 S1                 0.0000
     45 ****         6.5683  -1.4671   0.6099 H              1 S1                 0.0000
     46 ****         5.9187  -0.0578   1.4621 H              1 S1                 0.0000
     47 ****         3.4842  -0.9682  -0.8780 H              1 S1                 0.0000
     48 ****        -1.3253   1.6272  -0.5678 H              1 S1                 0.0000
     49 ****        -5.5296   5.5978  -0.8645 LP             1 S1                 0.0000
     50 ****         1.2080   0.2288  -0.1785 LP             1 S1                 0.0000
     51 ****         0.5398   1.3920  -1.1097 LP             1 S1                 0.0000
     52 ****         0.4184  -4.1978   2.2625 LP             1 S1                 0.0000
     53 ****        -4.7278   1.7206  -1.8873 LP             1 S1                 0.0000
@<TRIPOS>BOND
    1    1    2 1     
    2    1   25 1     
    3    1   26 1     
    4    1   27 1     
    5    2   24 ar    
    6    2    3 ar    
    7    3    4 ar    
    8    4    5 ar    
    9    4   28 1     
   10    5    6 ar    
   11    5   29 1     
   12    6    7 1     
   13    6   24 ar    
   14    7    8 1     
   15    7   30 1     
   16    7   31 1     
   17    8    9 1     
   18    8   32 1     
   19    8   48 1     
   20    9   10 1     
   21    9   33 1     
   22    9   34 1     
   23   10   11 1     
   24   10   12 1     
   25   10   35 1     
   26   11   36 1     
   27   12   13 1     
   28   12   37 1     
   29   12   38 1     
   30   13   23 1     
   31   13   14 1     
   32   14   15 2     
   33   14   39 1     
   34   15   16 1     
   35   16   23 ar    
   36   16   17 ar    
   37   17   18 ar    
   38   17   40 1     
   39   18   19 1     
   40   18   20 ar    
   41   19   41 1     
   42   19   42 1     
   43   19   43 1     
   44   20   21 1     
   45   20   22 ar    
   46   21   44 1     
   47   21   45 1     
   48   21   46 1     
   49   22   23 ar    
   50   22   47 1     
   51    3   49 1     
   52   11   50 1     
   53   11   51 1     
   54   15   52 1     
   55   24   53 1     
@<TRIPOS>SUBSTRUCTURE
      1 S1             1
@<TRIPOS>SET
LONE_PAIRS      STATIC     ATOMS    <user>   **** ""
5 49 50 51 52 53
DONOR_HYDROGENS      STATIC     ATOMS    <user>   **** ""
3 32 48 36
ATOM$BLUE        STATIC     ATOMS    COLORGROUP SYSTEM
5 49 50 51 52 53
ATOM$RED        STATIC     ATOMS    COLORGROUP SYSTEM
3 32 48 36
