AV-unprocessed.smi:2862|AV-procd|sdf|11011|dock4
  -GOLD-   2272015473D 1   1.00000     0.00000
 Structure written by MMmdl.
 52 54  0  0  0  0  0  0  0  0  1 V2000
  151.9776  141.8272  158.7578 C   0  0  0  0  0  0  0  0  0  0  0  0
  151.4687  142.5400  157.4927 C   0  0  1  0  0  0  0  0  0  0  0  0
  150.2357  141.9286  156.9977 N   0  0  0  0  0  0  0  0  0  0  0  0
  150.1297  140.9412  156.0932 C   0  0  0  0  0  0  0  0  0  0  0  0
  151.0942  140.4458  155.5087 O   0  0  0  0  0  0  0  0  0  0  0  0
  148.7050  140.4466  155.8030 C   0  0  0  0  0  0  0  0  0  0  0  0
  148.4615  139.0809  156.2983 N   0  0  0  0  0  0  0  0  0  0  0  0
  147.9661  138.1417  155.3710 C   0  0  0  0  0  0  0  0  0  0  0  0
  147.7244  136.8648  155.7068 C   0  0  0  0  0  0  0  0  0  0  0  0
  148.0080  136.4459  157.0582 C   0  0  0  0  0  0  0  0  0  0  0  0
  148.5046  137.3314  157.9472 C   0  0  0  0  0  0  0  0  0  0  0  0
  148.7969  136.9244  159.3242 C   0  0  0  0  0  0  0  0  0  0  0  0
  149.9543  136.8444  159.7375 O   0  0  0  0  0  0  0  0  0  0  0  0
  147.7232  136.6446  160.1204 N   0  0  0  0  0  0  0  0  0  0  0  0
  146.3600  137.1340  159.8502 C   0  0  0  0  0  0  0  0  0  0  0  0
  147.8477  135.9449  161.4172 C   0  0  1  0  0  0  0  0  0  0  0  0
  147.4731  136.8627  162.5984 C   0  0  0  0  0  0  0  0  0  0  0  0
  147.1128  134.6132  161.4965 C   0  0  0  0  0  0  0  0  0  0  0  0
  146.3903  134.1990  162.7563 C   0  0  0  0  0  0  0  0  0  0  0  0
  147.6476  133.4742  162.3308 C   0  0  0  0  0  0  0  0  0  0  0  0
  148.7071  138.7594  157.6070 C   0  0  0  0  0  0  0  0  0  0  0  0
  149.0665  139.6191  158.4171 O   0  0  0  0  0  0  0  0  0  0  0  0
  151.3935  144.0472  157.6885 C   0  0  0  0  0  0  0  0  0  0  0  0
  152.6336  144.8590  157.9746 C   0  0  0  0  0  0  0  0  0  0  0  0
  151.5889  144.6654  159.0519 C   0  0  0  0  0  0  0  0  0  0  0  0
  152.9645  142.1946  159.0396 H   0  0  0  0  0  0  0  0  0  0  0  0
  152.0623  140.7521  158.5973 H   0  0  0  0  0  0  0  0  0  0  0  0
  151.3150  141.9872  159.6085 H   0  0  0  0  0  0  0  0  0  0  0  0
  152.2059  142.3565  156.7098 H   0  0  0  0  0  0  0  0  0  0  0  0
  149.3784  142.2684  157.4090 H   0  0  0  0  0  0  0  0  0  0  0  0
  147.9796  141.1323  156.2456 H   0  0  0  0  0  0  0  0  0  0  0  0
  148.5400  140.5101  154.7267 H   0  0  0  0  0  0  0  0  0  0  0  0
  147.7935  138.5235  154.3753 H   0  0  0  0  0  0  0  0  0  0  0  0
  147.3422  136.1639  154.9794 H   0  0  0  0  0  0  0  0  0  0  0  0
  147.8435  135.4158  157.3406 H   0  0  0  0  0  0  0  0  0  0  0  0
  146.3390  138.0093  159.2000 H   0  0  0  0  0  0  0  0  0  0  0  0
  145.8575  137.4385  160.7688 H   0  0  0  0  0  0  0  0  0  0  0  0
  145.7595  136.3498  159.3885 H   0  0  0  0  0  0  0  0  0  0  0  0
  148.9045  135.7208  161.5724 H   0  0  0  0  0  0  0  0  0  0  0  0
  147.7386  136.3978  163.5482 H   0  0  0  0  0  0  0  0  0  0  0  0
  146.4056  137.0791  162.6347 H   0  0  0  0  0  0  0  0  0  0  0  0
  148.0052  137.8130  162.5407 H   0  0  0  0  0  0  0  0  0  0  0  0
  146.6161  134.3262  160.5723 H   0  0  0  0  0  0  0  0  0  0  0  0
  146.4581  134.8563  163.6210 H   0  0  0  0  0  0  0  0  0  0  0  0
  145.4436  133.6748  162.6420 H   0  0  0  0  0  0  0  0  0  0  0  0
  147.5400  132.4680  161.9313 H   0  0  0  0  0  0  0  0  0  0  0  0
  148.5489  133.6502  162.9146 H   0  0  0  0  0  0  0  0  0  0  0  0
  150.6459  144.5345  157.0655 H   0  0  0  0  0  0  0  0  0  0  0  0
  153.5751  144.3245  158.0850 H   0  0  0  0  0  0  0  0  0  0  0  0
  152.7062  145.8409  157.5113 H   0  0  0  0  0  0  0  0  0  0  0  0
  150.9668  145.5204  159.3090 H   0  0  0  0  0  0  0  0  0  0  0  0
  151.8372  144.0028  159.8788 H   0  0  0  0  0  0  0  0  0  0  0  0
  1  2  1  0  0  0  0
  1 26  1  0  0  0  0
  1 27  1  0  0  0  0
  1 28  1  0  0  0  0
  2  3  1  0  0  0  0
  2 23  1  0  0  0  0
  2 29  1  0  0  0  0
  3  4  1  0  0  0  0
  3 30  1  0  0  0  0
  4  5  2  0  0  0  0
  4  6  1  0  0  0  0
  6  7  1  0  0  0  0
  6 31  1  0  0  0  0
  6 32  1  0  0  0  0
  7 21  1  0  0  0  0
  7  8  1  0  0  0  0
  8  9  2  0  0  0  0
  8 33  1  0  0  0  0
  9 10  1  0  0  0  0
  9 34  1  0  0  0  0
 10 11  2  0  0  0  0
 10 35  1  0  0  0  0
 11 12  1  0  0  0  0
 11 21  1  0  0  0  0
 12 13  2  0  0  0  0
 12 14  1  0  0  0  0
 14 15  1  0  0  0  0
 14 16  1  0  0  0  0
 15 36  1  0  0  0  0
 15 37  1  0  0  0  0
 15 38  1  0  0  0  0
 16 17  1  0  0  0  0
 16 18  1  0  0  0  0
 16 39  1  0  0  0  0
 17 40  1  0  0  0  0
 17 41  1  0  0  0  0
 17 42  1  0  0  0  0
 18 20  1  0  0  0  0
 18 19  1  0  0  0  0
 18 43  1  0  0  0  0
 19 20  1  0  0  0  0
 19 44  1  0  0  0  0
 19 45  1  0  0  0  0
 20 46  1  0  0  0  0
 20 47  1  0  0  0  0
 21 22  2  0  0  0  0
 23 25  1  0  0  0  0
 23 24  1  0  0  0  0
 23 48  1  0  0  0  0
 24 25  1  0  0  0  0
 24 49  1  0  0  0  0
 24 50  1  0  0  0  0
 25 51  1  0  0  0  0
 25 52  1  0  0  0  0
M  END
> <s_m_source_file>
AV-unprocessed.smi

> <i_m_source_file_index>
2862

> <i_lp_mmshare_version>
43012

> <i_f3d_flags>
0

> <s_epik_input>
W0NIMl0xW0NIMl1bQ0hdMVtDQEhdKFtDSDNdKVtOSF1DKD1PKVtDSDJdbjJbY0hdW2NIXVtjSF1jKGMyPU8pQyg9TylOKFtDSDNdKVtDQEhdKFtDSDNdKVtDSF0zW0NIMl1bQ0gyXTM=

> <s_epik_cmdline>
J2VwaWtfcHl0aG9uJywgJy1waCcsICc3LjAnLCAnLXRuJywgJzgnLCAnLW1hJywgJzIwMCcsICctbWV0YWxfYmluZGluZycsICctaW1hZScsICc8aW5maWxlLm1hZT4nLCAnLW9tYWUnLCAnPG91dGZpbGUubWFlPic=

> <r_lp_tautomer_probability>
1

> <r_epik_Ionization_Penalty>
4.00841e-08

> <r_epik_Ionization_Penalty_Charging>
2.07773e-08

> <r_epik_Ionization_Penalty_Neutral>
1.93069e-08

> <r_epik_State_Penalty>
-0

> <r_epik_Charging_Adjusted_Penalty>
2.07773e-08

> <i_epik_Tot_Q>
0

> <i_epik_Tot_abs_Q>
0

> <r_epik_Metal_State_Penalty>
-0

> <b_epik_Metal_Only>
0

> <s_lp_Force_Field>
OPLS_2005

> <r_lp_Energy>
59.5746

> <b_lp_Chiralities_Consistent>
1

> <s_lp_Variant>
AV-unprocessed.smi:2862-4

> <Gold.Version>
5.8.1

> <Gold.Id.Protein>
6NUR|6NUR_protein|mol2

> <Gold.PLP.Fitness>
46.8415

> <Gold.PLP.PLP>
-43.8946

> <Gold.PLP.part.hbond>
-2.4922

> <Gold.PLP.part.metal>
0.0000

> <Gold.PLP.part.buried>
-6.3851

> <Gold.PLP.part.nonpolar>
-34.8404

> <Gold.PLP.part.repulsive>
0.0604

> <Gold.PLP.ligand.clash>
0.0000

> <Gold.PLP.ligand.torsion>
3.6919

> <Gold.PLP.Chemscore.Hbond>
1.9600

> <Gold.PLP.Chemscore.CHOScore>
0.0000

> <Gold.PLP.Chemscore.Metal>
0.0000

> <Gold.Chemscore.Hbonds>
donor molecule, donor type, donor heavy atom, donor atom, acceptor molecule, acceptor atom, score
      P1  H  6896  6907       L1    13  0.80
      P1  H  7989  7998       L1     5  0.74

> <Gold.PLP.Chemscore.Internal.Correction>
4.4507

> <Gold.Rescore>
     Score         DG    S(hbond)    S(metal)    S(lipo)     H(rot)  DE(clash)    DE(int)     intcor
     14.55     -20.31       1.91        0.00     110.26       1.73       0.09       5.67       ----

> <Gold.Chemscore.Fitness>
14.5505

> <Gold.Chemscore.DG>
-20.3084

> <Gold.Chemscore.ZeroCoef>
-5.4800

> <Gold.Chemscore.Hbond>
1.9068

> <Gold.Chemscore.Metal>
0.0000

> <Gold.Chemscore.Lipo>
110.2624

> <Gold.Chemscore.Internal_Hbond>
0.0000

> <Gold.Chemscore.DEClash>
0.0916

> <Gold.Chemscore.DEInternal>
5.6662

> <Gold.Chemscore.Rot>
1.7348

> <Gold.Chemscore.Internal.Correction>
   9.000000E+99

> <Gold.Chemscore.Hbonds>
donor molecule, donor type, donor heavy atom, donor atom, acceptor molecule, acceptor atom, score
      P1  H  6896  6907       L1    13  0.77
      P1  H  7989  7998       L1     5  0.70

> <Gold.Chemscore.Hbond.Weighted>
-6.3688

> <Gold.Chemscore.Metal.Weighted>
-0.0000

> <Gold.Chemscore.Lipo.Weighted>
-12.9007

> <Gold.Chemscore.Internal_Hbond.Weighted>
0.0000

> <Gold.Chemscore.DEClash.Weighted>
0.0916

> <Gold.Chemscore.DEInternal.Weighted>
5.6662

> <Gold.Chemscore.Rot.Weighted>
4.4412

> <Gold.Chemscore.Internal.Correction.Weighted>
   9.000000E+99

> <Gold.Protein.RotatedTorsions>
[ 6907 6896 6895 6894 ] final  -39.78 input  -60.11 | X-H torsion
[ 7974 7965 7964 7962 ] final  161.51 input  175.53 | X-H torsion
[ 8008 7997 7996 7995 ] final  -67.17 input   59.86 | X-H torsion
[ 10167 10162 10161 10158 ] final  144.23 input  -65.29 | X-H torsion
[ 10718 10713 10712 10709 ] final   69.56 input   66.30 | X-H torsion
[ 10763 10752 10751 10750 ] final  -38.20 input  -60.55 | X-H torsion
[ 11005 11000 10999 10996 ] final   -3.46 input  -57.11 | X-H torsion

> <Gold.Protein.ActiveResidues>
 VAL166  LYS551  ARG553  GLY616  TRP617  ASP618  TYR619  PRO620  LYS621  CYS622 
 ASP623  PHE694  ASN695  SER759  ASP760  ASP761  ALA762  ILE779  LEU786  VAL792 
 PHE793  MET794  SER795  GLU796  ALA797  LYS798  CYS799  TRP800  GLU811  SER814 

> <Gold.Protein.RotatedAtoms>
  150.9862  134.9207  159.7872 H   0  0  0  0  0  0  0  0  0  0  0  0  # atno 6907 bound_to 6896
  152.5237  134.3343  159.9204 H   0  0  0  0  0  0  0  0  0  0  0  0  # atno 6908 bound_to 6896
  151.3349  133.3944  159.2700 H   0  0  0  0  0  0  0  0  0  0  0  0  # atno 6909 bound_to 6896
  144.7682  139.7908  143.6307 H   0  0  0  0  0  0  0  0  0  0  0  0  # atno 7974 bound_to 7965
  154.4782  140.0898  156.7314 H   0  0  0  0  0  0  0  0  0  0  0  0  # atno 8008 bound_to 7997
  155.4540  140.3458  155.4286 H   0  0  0  0  0  0  0  0  0  0  0  0  # atno 8009 bound_to 7997
  156.1150  140.1458  156.9274 H   0  0  0  0  0  0  0  0  0  0  0  0  # atno 8010 bound_to 7997
  139.4951  144.5986  151.6529 H   0  0  0  0  0  0  0  0  0  0  0  0  # atno 10167 bound_to 10162
  157.6352  130.9432  150.0530 H   0  0  0  0  0  0  0  0  0  0  0  0  # atno 10718 bound_to 10713
  153.9089  135.6794  153.4752 H   0  0  0  0  0  0  0  0  0  0  0  0  # atno 10763 bound_to 10752
  153.1089  135.4792  154.8998 H   0  0  0  0  0  0  0  0  0  0  0  0  # atno 10764 bound_to 10752
  154.7537  135.3191  154.8465 H   0  0  0  0  0  0  0  0  0  0  0  0  # atno 10765 bound_to 10752
  140.6695  133.9249  155.8486 H   0  0  0  0  0  0  0  0  0  0  0  0  # atno 11005 bound_to 11000
  146.1807  139.4999  142.9868 LP  0  0  0  0  0  0  0  0  0  0  0  0  # atno 17320 bound_to 7965
  145.6404  141.0285  143.1814 LP  0  0  0  0  0  0  0  0  0  0  0  0  # atno 17321 bound_to 7965
  140.5630  144.0237  150.6179 LP  0  0  0  0  0  0  0  0  0  0  0  0  # atno 17342 bound_to 10162
  140.3329  143.3066  152.0669 LP  0  0  0  0  0  0  0  0  0  0  0  0  # atno 17343 bound_to 10162
  156.1586  130.3643  149.9332 LP  0  0  0  0  0  0  0  0  0  0  0  0  # atno 17370 bound_to 10713
  156.7335  130.9052  151.3627 LP  0  0  0  0  0  0  0  0  0  0  0  0  # atno 17371 bound_to 10713
  141.0403  134.0631  157.3910 LP  0  0  0  0  0  0  0  0  0  0  0  0  # atno 17394 bound_to 11000
  139.8986  135.0155  156.7157 LP  0  0  0  0  0  0  0  0  0  0  0  0  # atno 17395 bound_to 11000

$$$$
