AV-unprocessed.smi:114|AV-procd|sdf|1118|dock4
  -GOLD-   2262018243D 1   1.00000     0.00000
 Structure written by MMmdl.
 32 34  0  0  0  0  0  0  0  0  1 V2000
  144.9178  136.1228  149.5714 N   0  0  0  0  0  0  0  0  0  0  0  0
  144.7429  135.2272  150.5535 C   0  0  0  0  0  0  0  0  0  0  0  0
  143.9550  135.5651  151.6008 N   0  0  0  0  0  0  0  0  0  0  0  0
  143.7543  134.7000  152.6024 C   0  0  0  0  0  0  0  0  0  0  0  0
  142.9515  135.1199  153.6084 F   0  0  0  0  0  0  0  0  0  0  0  0
  144.2575  133.4669  152.7206 N   0  0  0  0  0  0  0  0  0  0  0  0
  145.0518  133.1208  151.6666 C   0  0  0  0  0  0  0  0  0  0  0  0
  145.3436  133.9446  150.5466 C   0  0  0  0  0  0  0  0  0  0  0  0
  146.1850  133.2731  149.6697 N   0  0  0  0  0  0  0  0  0  0  0  0
  146.3775  132.1163  150.2450 C   0  0  0  0  0  0  0  0  0  0  0  0
  145.7291  131.9375  151.4474 N   0  0  0  0  0  0  0  0  0  0  0  0
  145.7543  130.7245  152.3250 C   0  0  1  0  0  0  0  0  0  0  0  0
  146.4361  129.7092  151.6590 O   0  0  0  0  0  0  0  0  0  0  0  0
  147.1571  128.9330  152.6085 C   0  0  1  0  0  0  0  0  0  0  0  0
  148.2620  128.1084  151.9243 C   0  0  0  0  0  0  0  0  0  0  0  0
  149.3089  127.8480  152.8354 O   0  0  0  0  0  0  0  0  0  0  0  0
  147.6402  129.9810  153.6225 C   0  0  1  0  0  0  0  0  0  0  0  0
  148.8462  130.5899  153.1942 O   0  0  0  0  0  0  0  0  0  0  0  0
  146.4695  130.9616  153.6724 C   0  0  1  0  0  0  0  0  0  0  0  0
  146.8583  132.2996  153.9410 O   0  0  0  0  0  0  0  0  0  0  0  0
  144.7052  130.4531  152.4494 H   0  0  0  0  0  0  0  0  0  0  0  0
  146.4538  128.2698  153.1167 H   0  0  0  0  0  0  0  0  0  0  0  0
  147.8250  129.5344  154.5999 H   0  0  0  0  0  0  0  0  0  0  0  0
  145.7771  130.6481  154.4548 H   0  0  0  0  0  0  0  0  0  0  0  0
  145.5013  135.8932  148.7797 H   0  0  0  0  0  0  0  0  0  0  0  0
  144.4668  137.0247  149.6253 H   0  0  0  0  0  0  0  0  0  0  0  0
  147.0000  131.3527  149.8016 H   0  0  0  0  0  0  0  0  0  0  0  0
  147.8686  127.1742  151.5217 H   0  0  0  0  0  0  0  0  0  0  0  0
  148.6888  128.6685  151.0917 H   0  0  0  0  0  0  0  0  0  0  0  0
  150.0827  127.6174  152.3446 H   0  0  0  0  0  0  0  0  0  0  0  0
  148.8448  130.6200  152.2495 H   0  0  0  0  0  0  0  0  0  0  0  0
  147.6097  132.5067  153.4066 H   0  0  0  0  0  0  0  0  0  0  0  0
  1  2  1  0  0  0  0
  1 25  1  0  0  0  0
  1 26  1  0  0  0  0
  2  8  1  0  0  0  0
  2  3  2  0  0  0  0
  3  4  1  0  0  0  0
  4  5  1  0  0  0  0
  4  6  2  0  0  0  0
  6  7  1  0  0  0  0
  7 11  1  0  0  0  0
  7  8  2  0  0  0  0
  8  9  1  0  0  0  0
  9 10  2  0  0  0  0
 10 11  1  0  0  0  0
 10 27  1  0  0  0  0
 11 12  1  0  0  0  0
 12 21  1  0  0  0  0
 12 19  1  0  0  0  0
 12 13  1  0  0  0  0
 13 14  1  0  0  0  0
 14 22  1  0  0  0  0
 14 15  1  0  0  0  0
 14 17  1  0  0  0  0
 15 16  1  0  0  0  0
 15 28  1  0  0  0  0
 15 29  1  0  0  0  0
 16 30  1  0  0  0  0
 17 23  1  0  0  0  0
 17 18  1  0  0  0  0
 17 19  1  0  0  0  0
 18 31  1  0  0  0  0
 19 24  1  0  0  0  0
 19 20  1  0  0  0  0
 20 32  1  0  0  0  0
M  END
> <s_m_source_file>
AV-unprocessed.smi

> <i_m_source_file_index>
114

> <i_lp_mmshare_version>
43012

> <i_f3d_flags>
0

> <s_epik_input>
RmMobjEpbmMoW05IMl0pYyhjMTIpbltjSF1uMltDQEBIXTNPW0NASF0oW0NIMl1bT0hdKVtDQEBIXShbT0hdKVtDQEBIXTNbT0hd

> <s_epik_cmdline>
J2VwaWtfcHl0aG9uJywgJy1waCcsICc3LjAnLCAnLXRuJywgJzgnLCAnLW1hJywgJzIwMCcsICctbWV0YWxfYmluZGluZycsICctaW1hZScsICc8aW5maWxlLm1hZT4nLCAnLW9tYWUnLCAnPG91dGZpbGUubWFlPic=

> <r_lp_tautomer_probability>
1

> <r_epik_Ionization_Penalty>
1.13199e-05

> <r_epik_Ionization_Penalty_Charging>
0

> <r_epik_Ionization_Penalty_Neutral>
1.13199e-05

> <r_epik_State_Penalty>
-0

> <r_epik_Charging_Adjusted_Penalty>
0

> <i_epik_Tot_Q>
0

> <i_epik_Tot_abs_Q>
0

> <r_epik_Metal_State_Penalty>
-0

> <b_epik_Metal_Only>
0

> <s_epik_Chemistry_Notes>
This compound contains an acetal/aminal-like group ( X-CH(R)-Y where X, Y are N, S, or O) that may be acid/base labile, releasing an aldehyde.

> <s_lp_Force_Field>
OPLS_2005

> <r_lp_Energy>
48.1785

> <b_lp_Chiralities_Consistent>
1

> <s_lp_Variant>
AV-unprocessed.smi:114-12

> <Gold.Version>
5.8.1

> <Gold.Id.Protein>
6NUR|6NUR_protein|mol2

> <Gold.PLP.Fitness>
38.1356

> <Gold.PLP.PLP>
-23.8772

> <Gold.PLP.part.hbond>
-4.8918

> <Gold.PLP.part.metal>
0.0000

> <Gold.PLP.part.buried>
0.7380

> <Gold.PLP.part.nonpolar>
-22.9358

> <Gold.PLP.part.repulsive>
5.1153

> <Gold.PLP.ligand.clash>
0.0000

> <Gold.PLP.ligand.torsion>
0.3721

> <Gold.PLP.Chemscore.Hbond>
4.0000

> <Gold.PLP.Chemscore.CHOScore>
1.0000

> <Gold.PLP.Chemscore.Metal>
0.0000

> <Gold.Chemscore.Hbonds>
donor molecule, donor type, donor heavy atom, donor atom, acceptor molecule, acceptor atom, score
      L1  H     1    25       P1  7921  1.00
      L1  H     1    26       P1 10171  1.00
      L1  H    16    30       P1 10737  0.94
      L1  H    18    31       P1 10747  1.00
      L1  C    10    27       P1 10747  0.99

> <Gold.PLP.Chemscore.Internal.Correction>
0.0024

> <Gold.Rescore>
     Score         DG    S(hbond)    S(metal)    S(lipo)     H(rot)  DE(clash)    DE(int)     intcor
      5.11     -10.33       3.40        0.00      32.51       4.03       3.89       1.33       ----

> <Gold.Chemscore.Fitness>
5.1148

> <Gold.Chemscore.DG>
-10.3303

> <Gold.Chemscore.ZeroCoef>
-5.4800

> <Gold.Chemscore.Hbond>
3.4005

> <Gold.Chemscore.Metal>
0.0000

> <Gold.Chemscore.Lipo>
32.5094

> <Gold.Chemscore.Internal_Hbond>
0.0000

> <Gold.Chemscore.DEClash>
3.8901

> <Gold.Chemscore.DEInternal>
1.3253

> <Gold.Chemscore.Rot>
4.0277

> <Gold.Chemscore.Internal.Correction>
   9.000000E+99

> <Gold.Chemscore.Hbonds>
donor molecule, donor type, donor heavy atom, donor atom, acceptor molecule, acceptor atom, score
      L1  H     1    25       P1  7921  0.97
      L1  H     1    26       P1 10171  1.00
      L1  H    16    30       P1 10737  0.89
      L1  H    18    31       P1 10747  0.44

> <Gold.Chemscore.Hbond.Weighted>
-11.3576

> <Gold.Chemscore.Metal.Weighted>
-0.0000

> <Gold.Chemscore.Lipo.Weighted>
-3.8036

> <Gold.Chemscore.Internal_Hbond.Weighted>
0.0000

> <Gold.Chemscore.DEClash.Weighted>
3.8901

> <Gold.Chemscore.DEInternal.Weighted>
1.3253

> <Gold.Chemscore.Rot.Weighted>
10.3110

> <Gold.Chemscore.Internal.Correction.Weighted>
   9.000000E+99

> <Gold.Protein.RotatedTorsions>
[ 6907 6896 6895 6894 ] final  -86.00 input  -60.11 | X-H torsion
[ 7974 7965 7964 7962 ] final  -27.65 input  175.53 | X-H torsion
[ 8008 7997 7996 7995 ] final   -6.22 input   59.86 | X-H torsion
[ 10167 10162 10161 10158 ] final -154.07 input  -65.29 | X-H torsion
[ 10718 10713 10712 10709 ] final -136.87 input   66.30 | X-H torsion
[ 10763 10752 10751 10750 ] final  -54.93 input  -60.55 | X-H torsion
[ 11005 11000 10999 10996 ] final -133.43 input  -57.11 | X-H torsion

> <Gold.Protein.ActiveResidues>
 VAL166  LYS551  ARG553  GLY616  TRP617  ASP618  TYR619  PRO620  LYS621  CYS622 
 ASP623  PHE694  ASN695  SER759  ASP760  ASP761  ALA762  ILE779  LEU786  VAL792 
 PHE793  MET794  SER795  GLU796  ALA797  LYS798  CYS799  TRP800  GLU811  SER814 

> <Gold.Protein.RotatedAtoms>
  150.6868  134.3118  159.4749 H   0  0  0  0  0  0  0  0  0  0  0  0  # atno 6907 bound_to 6896
  152.1003  134.9343  160.0579 H   0  0  0  0  0  0  0  0  0  0  0  0  # atno 6908 bound_to 6896
  152.0625  133.4034  159.4461 H   0  0  0  0  0  0  0  0  0  0  0  0  # atno 6909 bound_to 6896
  146.1343  140.5180  142.8680 H   0  0  0  0  0  0  0  0  0  0  0  0  # atno 7974 bound_to 7965
  154.5959  140.2438  155.7857 H   0  0  0  0  0  0  0  0  0  0  0  0  # atno 8008 bound_to 7997
  156.2279  140.2976  156.0066 H   0  0  0  0  0  0  0  0  0  0  0  0  # atno 8009 bound_to 7997
  155.2294  140.0403  157.2950 H   0  0  0  0  0  0  0  0  0  0  0  0  # atno 8010 bound_to 7997
  139.7044  143.9210  152.2442 H   0  0  0  0  0  0  0  0  0  0  0  0  # atno 10167 bound_to 10162
  156.2818  130.7325  151.1325 H   0  0  0  0  0  0  0  0  0  0  0  0  # atno 10718 bound_to 10713
  154.1826  135.6441  153.5038 H   0  0  0  0  0  0  0  0  0  0  0  0  # atno 10763 bound_to 10752
  153.0055  135.5409  154.6498 H   0  0  0  0  0  0  0  0  0  0  0  0  # atno 10764 bound_to 10752
  154.5866  135.2930  155.0651 H   0  0  0  0  0  0  0  0  0  0  0  0  # atno 10765 bound_to 10752
  140.9082  134.1603  157.4410 H   0  0  0  0  0  0  0  0  0  0  0  0  # atno 11005 bound_to 11000
  144.7723  140.5664  143.6662 LP  0  0  0  0  0  0  0  0  0  0  0  0  # atno 17320 bound_to 7965
  145.5192  139.1477  143.3562 LP  0  0  0  0  0  0  0  0  0  0  0  0  # atno 17321 bound_to 7965
  139.9062  144.6883  150.8612 LP  0  0  0  0  0  0  0  0  0  0  0  0  # atno 17342 bound_to 10162
  140.7718  143.3477  151.2077 LP  0  0  0  0  0  0  0  0  0  0  0  0  # atno 17343 bound_to 10162
  157.7317  131.0606  150.5666 LP  0  0  0  0  0  0  0  0  0  0  0  0  # atno 17370 bound_to 10713
  156.5773  130.4295  149.5993 LP  0  0  0  0  0  0  0  0  0  0  0  0  # atno 17371 bound_to 10713
  139.8753  134.9925  156.5600 LP  0  0  0  0  0  0  0  0  0  0  0  0  # atno 17394 bound_to 11000
  140.8144  133.8403  155.8839 LP  0  0  0  0  0  0  0  0  0  0  0  0  # atno 17395 bound_to 11000

$$$$
