#       Name:                AV-unprocessed.smi:927
#       Creating user name   scv26
#       Creation time:       Fri Mar 27 02:09:36 2020


#       File generated by GOLD software.
#

@<TRIPOS>MOLECULE
AV-unprocessed.smi:927
    24    24     1
SMALL
NO_CHARGES


@<TRIPOS>ATOM
      1 ****        -2.0734   2.5054   0.1116 N.3            1 S1                 0.0000
      2 ****        -1.5001   1.1863  -0.1994 C.3            1 S1                 0.0000
      3 ****         0.0214   1.1264   0.0237 C.3            1 S1                 0.0000
      4 ****         0.6529   1.8716  -0.9985 O.3            1 S1                 0.0000
      5 ****         0.5140  -0.3125   0.0370 C.ar           1 S1                 0.0000
      6 ****         0.9070  -0.9238   1.2462 C.ar           1 S1                 0.0000
      7 ****         1.3507  -2.2609   1.2128 C.ar           1 S1                 0.0000
      8 ****         1.4191  -2.9921   0.0797 N.ar           1 S1                 0.0000
      9 ****         1.0401  -2.4033  -1.0747 C.ar           1 S1                 0.0000
     10 ****         0.5813  -1.0731  -1.1507 C.ar           1 S1                 0.0000
     11 ****        -3.0872   2.4855   0.0116 H              1 S1                 0.0000
     12 ****        -1.8730   2.7632   1.0768 H              1 S1                 0.0000
     13 ****        -1.9750   0.4477   0.4474 H              1 S1                 0.0000
     14 ****        -1.7459   0.8944  -1.2212 H              1 S1                 0.0000
     15 ****         0.2712   1.5886   0.9799 H              1 S1                 0.0000
     16 ****         1.5801   1.8978  -0.8191 H              1 S1                 0.0000
     17 ****         0.8697  -0.3844   2.1812 H              1 S1                 0.0000
     18 ****         1.6577  -2.7566   2.1219 H              1 S1                 0.0000
     19 ****         1.1025  -3.0107  -1.9655 H              1 S1                 0.0000
     20 ****         0.2867  -0.6498  -2.0999 H              1 S1                 0.0000
     21 ****        -1.6674   3.1640  -0.5220 LP             1 S1                 0.0000
     22 ****         0.2856   2.8016  -1.0146 LP             1 S1                 0.0000
     23 ****         0.4924   1.4345  -1.8835 LP             1 S1                 0.0000
     24 ****         1.7401  -3.9390   0.0950 LP             1 S1                 0.0000
@<TRIPOS>BOND
    1    1    2 1     
    2    1   11 1     
    3    1   12 1     
    4    2    3 1     
    5    2   13 1     
    6    2   14 1     
    7    3    4 1     
    8    3    5 1     
    9    3   15 1     
   10    4   16 1     
   11    5   10 ar    
   12    5    6 ar    
   13    6    7 ar    
   14    6   17 1     
   15    7    8 ar    
   16    7   18 1     
   17    8    9 ar    
   18    9   10 ar    
   19    9   19 1     
   20   10   20 1     
   21    1   21 1     
   22    4   22 1     
   23    4   23 1     
   24    8   24 1     
@<TRIPOS>SUBSTRUCTURE
      1 S1             1
@<TRIPOS>SET
LONE_PAIRS      STATIC     ATOMS    <user>   **** ""
4 21 22 23 24
DONOR_HYDROGENS      STATIC     ATOMS    <user>   **** ""
3 11 12 16
ATOM$BLUE        STATIC     ATOMS    COLORGROUP SYSTEM
4 21 22 23 24
ATOM$RED        STATIC     ATOMS    COLORGROUP SYSTEM
3 11 12 16
