AV-unprocessed.smi:1645|AV-procd|sdf|6602|dock9
  -GOLD-   22720 7303D 1   1.00000     0.00000
 Structure written by MMmdl.
 55 58  0  0  0  0  0  0  0  0  2 V2000
  147.5242  135.7561  155.5068 O   0  0  0  0  0  0  0  0  0  0  0  0
  148.2216  135.7481  154.4930 C   0  0  0  0  0  0  0  0  0  0  0  0
  149.2032  136.6234  154.2177 N   0  0  0  0  0  0  0  0  0  0  0  0
  149.7031  137.6729  155.0345 C   0  0  0  0  0  0  0  0  0  0  0  0
  149.7573  137.6247  156.4467 C   0  0  0  0  0  0  0  0  0  0  0  0
  150.3040  138.7181  157.1456 C   0  0  0  0  0  0  0  0  0  0  0  0
  150.7910  139.8310  156.4206 C   0  0  0  0  0  0  0  0  0  0  0  0
  151.3510  140.9325  157.1041 N   0  0  0  0  0  0  0  0  0  0  0  0
  151.8538  140.7061  158.4619 C   0  0  0  0  0  0  0  0  0  0  0  0
  152.7544  141.8648  158.9230 C   0  0  0  0  0  0  0  0  0  0  0  0
  152.0360  143.2141  158.7779 C   0  0  0  0  0  0  0  0  0  0  0  0
  151.5403  143.3930  157.3356 C   0  0  0  0  0  0  0  0  0  0  0  0
  150.6606  142.2082  156.9013 C   0  0  0  0  0  0  0  0  0  0  0  0
  150.7401  139.8715  155.0665 N   0  0  0  0  0  0  0  0  0  0  0  0
  150.2183  138.8206  154.4004 C   0  0  0  0  0  0  0  0  0  0  0  0
  148.0703  134.8600  153.5005 N   0  0  0  0  0  0  0  0  0  0  0  0
  147.0848  133.7826  153.4817 C   0  0  2  0  0  0  0  0  0  0  0  0
  147.6242  132.4558  154.0265 C   0  0  0  0  0  0  0  0  0  0  0  0
  146.8318  131.4106  153.2438 C   0  0  0  0  0  0  0  0  0  0  0  0
  146.7384  131.9989  151.9001 N   0  3  1  0  0  0  0  0  0  0  0  0
  145.9009  131.2881  150.8992 C   0  0  0  0  0  0  0  0  0  0  0  0
  144.4443  131.7651  150.8751 C   0  0  0  0  0  0  0  0  0  0  0  0
  144.3947  133.2831  150.6989 C   0  0  0  0  0  0  0  0  0  0  0  0
  145.1009  133.9349  151.8878 C   0  0  0  0  0  0  0  0  0  0  0  0
  146.5707  133.4712  152.0511 C   0  0  1  0  0  0  0  0  0  0  0  0
  149.6198  136.5548  153.3008 H   0  0  0  0  0  0  0  0  0  0  0  0
  149.4065  136.7708  157.0050 H   0  0  0  0  0  0  0  0  0  0  0  0
  150.3369  138.6940  158.2247 H   0  0  0  0  0  0  0  0  0  0  0  0
  151.0086  140.5973  159.1429 H   0  0  0  0  0  0  0  0  0  0  0  0
  152.4226  139.7761  158.5021 H   0  0  0  0  0  0  0  0  0  0  0  0
  153.0578  141.7117  159.9587 H   0  0  0  0  0  0  0  0  0  0  0  0
  153.6694  141.8732  158.3295 H   0  0  0  0  0  0  0  0  0  0  0  0
  151.1912  143.2569  159.4664 H   0  0  0  0  0  0  0  0  0  0  0  0
  152.7058  144.0298  159.0514 H   0  0  0  0  0  0  0  0  0  0  0  0
  150.9818  144.3250  157.2455 H   0  0  0  0  0  0  0  0  0  0  0  0
  152.3949  143.4776  156.6630 H   0  0  0  0  0  0  0  0  0  0  0  0
  150.3704  142.3494  155.8610 H   0  0  0  0  0  0  0  0  0  0  0  0
  149.7382  142.1987  157.4834 H   0  0  0  0  0  0  0  0  0  0  0  0
  150.2100  138.9028  153.3233 H   0  0  0  0  0  0  0  0  0  0  0  0
  148.6862  134.9299  152.7038 H   0  0  0  0  0  0  0  0  0  0  0  0
  146.2530  134.0683  154.1285 H   0  0  0  0  0  0  0  0  0  0  0  0
  148.6870  132.3532  153.8003 H   0  0  0  0  0  0  0  0  0  0  0  0
  147.5005  132.3587  155.1055 H   0  0  0  0  0  0  0  0  0  0  0  0
  147.3238  130.4376  153.2297 H   0  0  0  0  0  0  0  0  0  0  0  0
  145.8321  131.2891  153.6642 H   0  0  0  0  0  0  0  0  0  0  0  0
  146.3442  131.4678  149.9189 H   0  0  0  0  0  0  0  0  0  0  0  0
  145.9534  130.2113  151.0646 H   0  0  0  0  0  0  0  0  0  0  0  0
  143.9087  131.2771  150.0601 H   0  0  0  0  0  0  0  0  0  0  0  0
  143.9381  131.4758  151.7970 H   0  0  0  0  0  0  0  0  0  0  0  0
  144.8727  133.5762  149.7632 H   0  0  0  0  0  0  0  0  0  0  0  0
  143.3596  133.6222  150.6461 H   0  0  0  0  0  0  0  0  0  0  0  0
  145.0656  135.0203  151.7913 H   0  0  0  0  0  0  0  0  0  0  0  0
  144.5284  133.6934  152.7845 H   0  0  0  0  0  0  0  0  0  0  0  0
  147.1874  133.9445  151.2853 H   0  0  0  0  0  0  0  0  0  0  0  0
  147.6801  131.8961  151.5501 H   0  0  0  0  0  0  0  0  0  0  0  0
  1  2  2  0  0  0  0
  2  3  1  0  0  0  0
  2 16  1  0  0  0  0
  3  4  1  0  0  0  0
  3 26  1  0  0  0  0
  4 15  1  0  0  0  0
  4  5  2  0  0  0  0
  5  6  1  0  0  0  0
  5 27  1  0  0  0  0
  6  7  2  0  0  0  0
  6 28  1  0  0  0  0
  7  8  1  0  0  0  0
  7 14  1  0  0  0  0
  8 13  1  0  0  0  0
  8  9  1  0  0  0  0
  9 10  1  0  0  0  0
  9 29  1  0  0  0  0
  9 30  1  0  0  0  0
 10 11  1  0  0  0  0
 10 31  1  0  0  0  0
 10 32  1  0  0  0  0
 11 12  1  0  0  0  0
 11 33  1  0  0  0  0
 11 34  1  0  0  0  0
 12 13  1  0  0  0  0
 12 35  1  0  0  0  0
 12 36  1  0  0  0  0
 13 37  1  0  0  0  0
 13 38  1  0  0  0  0
 14 15  2  0  0  0  0
 15 39  1  0  0  0  0
 16 17  1  0  0  0  0
 16 40  1  0  0  0  0
 17 25  1  0  0  0  0
 17 18  1  0  0  0  0
 17 41  1  0  0  0  0
 18 19  1  0  0  0  0
 18 42  1  0  0  0  0
 18 43  1  0  0  0  0
 19 20  1  0  0  0  0
 19 44  1  0  0  0  0
 19 45  1  0  0  0  0
 20 25  1  0  0  0  0
 20 21  1  0  0  0  0
 20 55  1  0  0  0  0
 21 22  1  0  0  0  0
 21 46  1  0  0  0  0
 21 47  1  0  0  0  0
 22 23  1  0  0  0  0
 22 48  1  0  0  0  0
 22 49  1  0  0  0  0
 23 24  1  0  0  0  0
 23 50  1  0  0  0  0
 23 51  1  0  0  0  0
 24 25  1  0  0  0  0
 24 52  1  0  0  0  0
 24 53  1  0  0  0  0
 25 54  1  0  0  0  0
M  CHG  1  20   1
M  END
> <s_m_source_file>
AV-unprocessed.smi

> <i_m_source_file_index>
1645

> <i_lp_mmshare_version>
43012

> <i_f3d_flags>
0

> <s_epik_input>
W0NIMl0xW0NIMl1bQ0gyXVtDSDJdW0NASF0oTjEyKVtDQEBIXShbQ0gyXVtDSDJdMilbTkhdQyg9TylbTkhdYzNbY0hdW2NIXWMobltjSF0zKU40W0NIMl1bQ0gyXVtDSDJdW0NIMl1bQ0gyXTQ=

> <s_epik_cmdline>
J2VwaWtfcHl0aG9uJywgJy1waCcsICc3LjAnLCAnLXRuJywgJzgnLCAnLW1hJywgJzIwMCcsICctbWV0YWxfYmluZGluZycsICctaW1hZScsICc8aW5maWxlLm1hZT4nLCAnLW9tYWUnLCAnPG91dGZpbGUubWFlPic=

> <r_lp_tautomer_probability>
1

> <r_epik_Ionization_Penalty>
0.0808019

> <r_epik_Ionization_Penalty_Charging>
0.000974069

> <r_epik_Ionization_Penalty_Neutral>
0.0798278

> <r_epik_State_Penalty>
0.0653665

> <r_epik_Charging_Adjusted_Penalty>
0.0663406

> <i_epik_Tot_Q>
1

> <i_epik_Tot_abs_Q>
1

> <r_epik_Metal_State_Penalty>
0.0585673

> <b_epik_Metal_Only>
0

> <s_lp_Force_Field>
OPLS_2005

> <r_lp_Energy>
57.6774

> <b_lp_Chiralities_Consistent>
1

> <s_lp_Variant>
AV-unprocessed.smi:1645-3

> <Gold.Version>
5.8.1

> <Gold.Id.Protein>
6NUR|6NUR_protein|mol2

> <Gold.PLP.Fitness>
44.6937

> <Gold.PLP.PLP>
-34.3744

> <Gold.PLP.part.hbond>
-2.6019

> <Gold.PLP.part.metal>
0.0000

> <Gold.PLP.part.buried>
-1.6818

> <Gold.PLP.part.nonpolar>
-29.5484

> <Gold.PLP.part.repulsive>
0.1178

> <Gold.PLP.ligand.clash>
0.0000

> <Gold.PLP.ligand.torsion>
0.8786

> <Gold.PLP.Chemscore.Hbond>
2.8898

> <Gold.PLP.Chemscore.CHOScore>
1.0000

> <Gold.PLP.Chemscore.Metal>
0.0000

> <Gold.Chemscore.Hbonds>
donor molecule, donor type, donor heavy atom, donor atom, acceptor molecule, acceptor atom, score
      L1  H     3    26       P1  7948  0.66
      L1  H    16    40       P1  7948  0.50
      L1  H    20    55       P1 10747  0.80
      P1  H  7989  7998       L1    14  0.93
      L1  C    15    39       P1  7957  1.00

> <Gold.PLP.Chemscore.Internal.Correction>
0.4070

> <Gold.Rescore>
     Score         DG    S(hbond)    S(metal)    S(lipo)     H(rot)  DE(clash)    DE(int)     intcor
     18.41     -20.61       1.52        0.00     111.49       1.17       1.25       0.95       ----

> <Gold.Chemscore.Fitness>
18.4147

> <Gold.Chemscore.DG>
-20.6125

> <Gold.Chemscore.ZeroCoef>
-5.4800

> <Gold.Chemscore.Hbond>
1.5244

> <Gold.Chemscore.Metal>
0.0000

> <Gold.Chemscore.Lipo>
111.4903

> <Gold.Chemscore.Internal_Hbond>
0.0000

> <Gold.Chemscore.DEClash>
1.2522

> <Gold.Chemscore.DEInternal>
0.9457

> <Gold.Chemscore.Rot>
1.1731

> <Gold.Chemscore.Internal.Correction>
   9.000000E+99

> <Gold.Chemscore.Hbonds>
donor molecule, donor type, donor heavy atom, donor atom, acceptor molecule, acceptor atom, score
      L1  H     3    26       P1  7948  0.32
      L1  H    16    40       P1  7948  0.09
      L1  H    20    55       P1 10747  0.75
      P1  H  7989  7998       L1    14  0.23

> <Gold.Chemscore.Hbond.Weighted>
-5.0914

> <Gold.Chemscore.Metal.Weighted>
-0.0000

> <Gold.Chemscore.Lipo.Weighted>
-13.0444

> <Gold.Chemscore.Internal_Hbond.Weighted>
0.0000

> <Gold.Chemscore.DEClash.Weighted>
1.2522

> <Gold.Chemscore.DEInternal.Weighted>
0.9457

> <Gold.Chemscore.Rot.Weighted>
3.0032

> <Gold.Chemscore.Internal.Correction.Weighted>
   9.000000E+99

> <Gold.Protein.RotatedTorsions>
[ 6907 6896 6895 6894 ] final  148.16 input  -60.11 | X-H torsion
[ 7974 7965 7964 7962 ] final   86.92 input  175.53 | X-H torsion
[ 8008 7997 7996 7995 ] final   66.13 input   59.86 | X-H torsion
[ 10167 10162 10161 10158 ] final -115.08 input  -65.29 | X-H torsion
[ 10718 10713 10712 10709 ] final   -6.12 input   66.30 | X-H torsion
[ 10763 10752 10751 10750 ] final   92.03 input  -60.55 | X-H torsion
[ 11005 11000 10999 10996 ] final  -30.77 input  -57.11 | X-H torsion

> <Gold.Protein.ActiveResidues>
 VAL166  LYS551  ARG553  GLY616  TRP617  ASP618  TYR619  PRO620  LYS621  CYS622 
 ASP623  PHE694  ASN695  SER759  ASP760  ASP761  ALA762  ILE779  LEU786  VAL792 
 PHE793  MET794  SER795  GLU796  ALA797  LYS798  CYS799  TRP800  GLU811  SER814 

> <Gold.Protein.RotatedAtoms>
  152.1452  133.4488  159.4785 H   0  0  0  0  0  0  0  0  0  0  0  0  # atno 6907 bound_to 6896
  150.6890  134.2257  159.4423 H   0  0  0  0  0  0  0  0  0  0  0  0  # atno 6908 bound_to 6896
  152.0150  134.9854  160.0620 H   0  0  0  0  0  0  0  0  0  0  0  0  # atno 6909 bound_to 6896
  145.5658  139.2308  143.2434 H   0  0  0  0  0  0  0  0  0  0  0  0  # atno 7974 bound_to 7965
  155.6726  140.3497  155.4824 H   0  0  0  0  0  0  0  0  0  0  0  0  # atno 8008 bound_to 7997
  155.9675  140.1149  157.0864 H   0  0  0  0  0  0  0  0  0  0  0  0  # atno 8009 bound_to 7997
  154.4158  140.1163  156.5248 H   0  0  0  0  0  0  0  0  0  0  0  0  # atno 8010 bound_to 7997
  140.0940  143.4674  152.1853 H   0  0  0  0  0  0  0  0  0  0  0  0  # atno 10167 bound_to 10162
  156.7366  130.5196  149.5833 H   0  0  0  0  0  0  0  0  0  0  0  0  # atno 10718 bound_to 10713
  153.2147  135.4376  155.0420 H   0  0  0  0  0  0  0  0  0  0  0  0  # atno 10763 bound_to 10752
  154.8218  135.3341  154.7017 H   0  0  0  0  0  0  0  0  0  0  0  0  # atno 10764 bound_to 10752
  153.7452  135.7002  153.5013 H   0  0  0  0  0  0  0  0  0  0  0  0  # atno 10765 bound_to 10752
  140.9411  133.7278  156.1078 H   0  0  0  0  0  0  0  0  0  0  0  0  # atno 11005 bound_to 11000
  146.1819  140.6483  142.9185 LP  0  0  0  0  0  0  0  0  0  0  0  0  # atno 17320 bound_to 7965
  144.7461  140.5071  143.6835 LP  0  0  0  0  0  0  0  0  0  0  0  0  # atno 17321 bound_to 7965
  139.5709  144.7462  151.3895 LP  0  0  0  0  0  0  0  0  0  0  0  0  # atno 17342 bound_to 10162
  140.7013  143.7623  150.7408 LP  0  0  0  0  0  0  0  0  0  0  0  0  # atno 17343 bound_to 10162
  156.1493  130.6299  151.0574 LP  0  0  0  0  0  0  0  0  0  0  0  0  # atno 17370 bound_to 10713
  157.6836  131.0831  150.7303 LP  0  0  0  0  0  0  0  0  0  0  0  0  # atno 17371 bound_to 10713
  140.7732  134.3809  157.5503 LP  0  0  0  0  0  0  0  0  0  0  0  0  # atno 17394 bound_to 11000
  139.8821  134.9035  156.2857 LP  0  0  0  0  0  0  0  0  0  0  0  0  # atno 17395 bound_to 11000

$$$$
