AV-unprocessed.smi:104|AV-procd|sdf|1005|dock6
  -GOLD-   2262018 03D 1   1.00000     0.00000
 Structure written by MMmdl.
 47 49  0  0  0  0  0  0  0  0  1 V2000
  141.4569  131.4552  159.5944 C   0  0  0  0  0  0  0  0  0  0  0  0
  142.2564  132.7514  159.5958 C   0  0  0  0  0  0  0  0  0  0  0  0
  141.7131  133.8395  159.4082 O   0  0  0  0  0  0  0  0  0  0  0  0
  143.5655  132.5446  159.8199 O   0  0  0  0  0  0  0  0  0  0  0  0
  144.4005  133.6000  160.2774 C   0  0  0  0  0  0  0  0  0  0  0  0
  145.1647  134.2395  159.1043 C   0  0  2  0  0  0  0  0  0  0  0  0
  145.9317  133.2686  158.3936 O   0  0  0  0  0  0  0  0  0  0  0  0
  147.0566  133.8804  157.8340 C   0  0  1  0  0  0  0  0  0  0  0  0
  147.0663  133.6726  156.3539 N   0  0  0  0  0  0  0  0  0  0  0  0
  146.1663  134.1304  155.4191 C   0  0  0  0  0  0  0  0  0  0  0  0
  144.6440  135.1699  155.8983 Br  0  0  0  0  0  0  0  0  0  0  0  0
  146.3820  133.8077  154.1749 N   0  0  0  0  0  0  0  0  0  0  0  0
  147.5367  133.0398  154.2548 C   0  0  0  0  0  0  0  0  0  0  0  0
  148.3332  132.3585  153.3001 C   0  0  0  0  0  0  0  0  0  0  0  0
  148.0600  132.3552  151.9881 N   0  0  0  0  0  0  0  0  0  0  0  0
  149.4193  131.6760  153.7319 N   0  0  0  0  0  0  0  0  0  0  0  0
  149.7124  131.6607  155.0358 C   0  0  0  0  0  0  0  0  0  0  0  0
  149.0651  132.2498  156.0445 N   0  0  0  0  0  0  0  0  0  0  0  0
  147.9714  132.9414  155.6096 C   0  0  0  0  0  0  0  0  0  0  0  0
  146.9770  135.3706  158.1575 C   0  0  2  0  0  0  0  0  0  0  0  0
  148.2759  135.9328  158.2892 O   0  0  0  0  0  0  0  0  0  0  0  0
  148.4206  137.2310  158.5971 C   0  0  0  0  0  0  0  0  0  0  0  0
  149.8828  137.6512  158.6571 C   0  0  0  0  0  0  0  0  0  0  0  0
  147.5108  138.0292  158.8215 O   0  0  0  0  0  0  0  0  0  0  0  0
  146.1615  135.3539  159.4433 C   0  0  2  0  0  0  0  0  0  0  0  0
  146.9506  134.9677  160.5678 O   0  0  0  0  0  0  0  0  0  0  0  0
  147.3280  135.8759  161.4861 C   0  0  0  0  0  0  0  0  0  0  0  0
  147.4866  135.2662  162.8718 C   0  0  0  0  0  0  0  0  0  0  0  0
  147.5355  137.0719  161.2818 O   0  0  0  0  0  0  0  0  0  0  0  0
  141.5846  130.9354  158.6450 H   0  0  0  0  0  0  0  0  0  0  0  0
  140.3957  131.6609  159.7366 H   0  0  0  0  0  0  0  0  0  0  0  0
  141.7910  130.7985  160.3977 H   0  0  0  0  0  0  0  0  0  0  0  0
  143.8579  134.3394  160.8676 H   0  0  0  0  0  0  0  0  0  0  0  0
  145.1235  133.1465  160.9555 H   0  0  0  0  0  0  0  0  0  0  0  0
  144.4366  134.6337  158.3942 H   0  0  0  0  0  0  0  0  0  0  0  0
  147.9546  133.3930  158.2138 H   0  0  0  0  0  0  0  0  0  0  0  0
  147.2540  132.8548  151.6406 H   0  0  0  0  0  0  0  0  0  0  0  0
  148.6605  131.8537  151.3496 H   0  0  0  0  0  0  0  0  0  0  0  0
  150.5913  131.0961  155.3106 H   0  0  0  0  0  0  0  0  0  0  0  0
  146.4034  135.8592  157.3673 H   0  0  0  0  0  0  0  0  0  0  0  0
  150.3627  137.4903  157.6916 H   0  0  0  0  0  0  0  0  0  0  0  0
  150.4126  137.0675  159.4100 H   0  0  0  0  0  0  0  0  0  0  0  0
  149.9683  138.7069  158.9150 H   0  0  0  0  0  0  0  0  0  0  0  0
  145.6486  136.3005  159.6198 H   0  0  0  0  0  0  0  0  0  0  0  0
  148.2347  134.4736  162.8534 H   0  0  0  0  0  0  0  0  0  0  0  0
  146.5398  134.8439  163.2089 H   0  0  0  0  0  0  0  0  0  0  0  0
  147.8027  136.0237  163.5896 H   0  0  0  0  0  0  0  0  0  0  0  0
  1  2  1  0  0  0  0
  1 30  1  0  0  0  0
  1 31  1  0  0  0  0
  1 32  1  0  0  0  0
  2  3  2  0  0  0  0
  2  4  1  0  0  0  0
  4  5  1  0  0  0  0
  5  6  1  0  0  0  0
  5 33  1  0  0  0  0
  5 34  1  0  0  0  0
  6 25  1  0  0  0  0
  6  7  1  0  0  0  0
  6 35  1  0  0  0  0
  7  8  1  0  0  0  0
  8  9  1  0  0  0  0
  8 20  1  0  0  0  0
  8 36  1  0  0  0  0
  9 19  1  0  0  0  0
  9 10  1  0  0  0  0
 10 11  1  0  0  0  0
 10 12  2  0  0  0  0
 12 13  1  0  0  0  0
 13 19  2  0  0  0  0
 13 14  1  0  0  0  0
 14 15  1  0  0  0  0
 14 16  2  0  0  0  0
 15 37  1  0  0  0  0
 15 38  1  0  0  0  0
 16 17  1  0  0  0  0
 17 18  2  0  0  0  0
 17 39  1  0  0  0  0
 18 19  1  0  0  0  0
 20 21  1  0  0  0  0
 20 25  1  0  0  0  0
 20 40  1  0  0  0  0
 21 22  1  0  0  0  0
 22 23  1  0  0  0  0
 22 24  2  0  0  0  0
 23 41  1  0  0  0  0
 23 42  1  0  0  0  0
 23 43  1  0  0  0  0
 25 26  1  0  0  0  0
 25 44  1  0  0  0  0
 26 27  1  0  0  0  0
 27 28  1  0  0  0  0
 27 29  2  0  0  0  0
 28 45  1  0  0  0  0
 28 46  1  0  0  0  0
 28 47  1  0  0  0  0
M  END
> <s_m_source_file>
AV-unprocessed.smi

> <i_m_source_file_index>
104

> <i_lp_mmshare_version>
43012

> <i_f3d_flags>
0

> <s_epik_input>
W0NIM11DKD1PKU9bQ0gyXVtDQEBIXTFPW0NASF0oW0NAQEhdKE9DKD1PKVtDSDNdKVtDQEhdMU9DKD1PKVtDSDNdKW4oYyhCciluMiljKGMyMyluW2NIXW5jM1tOSDJd

> <s_epik_cmdline>
J2VwaWtfcHl0aG9uJywgJy1waCcsICc3LjAnLCAnLXRuJywgJzgnLCAnLW1hJywgJzIwMCcsICctbWV0YWxfYmluZGluZycsICctaW1hZScsICc8aW5maWxlLm1hZT4nLCAnLW9tYWUnLCAnPG91dGZpbGUubWFlPic=

> <r_lp_tautomer_probability>
1

> <r_epik_Ionization_Penalty>
7.36622e-05

> <r_epik_Ionization_Penalty_Charging>
0

> <r_epik_Ionization_Penalty_Neutral>
7.36622e-05

> <r_epik_State_Penalty>
-0

> <r_epik_Charging_Adjusted_Penalty>
0

> <i_epik_Tot_Q>
0

> <i_epik_Tot_abs_Q>
0

> <r_epik_Metal_State_Penalty>
-0

> <b_epik_Metal_Only>
0

> <s_epik_Chemistry_Notes>
This compound has an ester and may undergo hydrolysis at high or low pH. This compound contains an acetal/aminal-like group ( X-CH(R)-Y where X, Y are N, S, or O) that may be acid/base labile, releasing an aldehyde.

> <s_lp_Force_Field>
OPLS_2005

> <r_lp_Energy>
18.0917

> <b_lp_Chiralities_Consistent>
1

> <s_lp_Variant>
AV-unprocessed.smi:104-13

> <Gold.Version>
5.8.1

> <Gold.Id.Protein>
6NUR|6NUR_protein|mol2

> <Gold.PLP.Fitness>
35.9800

> <Gold.PLP.PLP>
-27.2234

> <Gold.PLP.part.hbond>
-5.0000

> <Gold.PLP.part.metal>
0.0000

> <Gold.PLP.part.buried>
-5.2350

> <Gold.PLP.part.nonpolar>
-17.6557

> <Gold.PLP.part.repulsive>
0.1961

> <Gold.PLP.ligand.clash>
0.0000

> <Gold.PLP.ligand.torsion>
1.5858

> <Gold.PLP.Chemscore.Hbond>
3.8720

> <Gold.PLP.Chemscore.CHOScore>
0.0000

> <Gold.PLP.Chemscore.Metal>
0.0000

> <Gold.Chemscore.Hbonds>
donor molecule, donor type, donor heavy atom, donor atom, acceptor molecule, acceptor atom, score
      L1  H    15    38       P1 10747  0.88
      P1  H  6931  6943       L1    29  0.98
      P1  H  6934  6947       L1    29  0.93
      P1  H 11000 11005       L1     3  0.76

> <Gold.PLP.Chemscore.Internal.Correction>
0.3122

> <Gold.Rescore>
     Score         DG    S(hbond)    S(metal)    S(lipo)     H(rot)  DE(clash)    DE(int)     intcor
      8.47     -10.44       3.76        0.00      29.37       4.31       0.00       1.97       ----

> <Gold.Chemscore.Fitness>
8.4700

> <Gold.Chemscore.DG>
-10.4385

> <Gold.Chemscore.ZeroCoef>
-5.4800

> <Gold.Chemscore.Hbond>
3.7568

> <Gold.Chemscore.Metal>
0.0000

> <Gold.Chemscore.Lipo>
29.3733

> <Gold.Chemscore.Internal_Hbond>
0.0000

> <Gold.Chemscore.DEClash>
0.0000

> <Gold.Chemscore.DEInternal>
1.9685

> <Gold.Chemscore.Rot>
4.3070

> <Gold.Chemscore.Internal.Correction>
   9.000000E+99

> <Gold.Chemscore.Hbonds>
donor molecule, donor type, donor heavy atom, donor atom, acceptor molecule, acceptor atom, score
      L1  H    15    38       P1 10747  0.85
      P1  H  6931  6943       L1    29  0.90
      P1  H  6934  6947       L1    29  0.85
      P1  H 11000 11005       L1     3  0.70

> <Gold.Chemscore.Hbond.Weighted>
-12.5477

> <Gold.Chemscore.Metal.Weighted>
-0.0000

> <Gold.Chemscore.Lipo.Weighted>
-3.4367

> <Gold.Chemscore.Internal_Hbond.Weighted>
0.0000

> <Gold.Chemscore.DEClash.Weighted>
0.0000

> <Gold.Chemscore.DEInternal.Weighted>
1.9685

> <Gold.Chemscore.Rot.Weighted>
11.0259

> <Gold.Chemscore.Internal.Correction.Weighted>
   9.000000E+99

> <Gold.Protein.RotatedTorsions>
[ 6907 6896 6895 6894 ] final  105.46 input  -60.11 | X-H torsion
[ 7974 7965 7964 7962 ] final   99.89 input  175.53 | X-H torsion
[ 8008 7997 7996 7995 ] final   16.13 input   59.86 | X-H torsion
[ 10167 10162 10161 10158 ] final   98.63 input  -65.29 | X-H torsion
[ 10718 10713 10712 10709 ] final  172.30 input   66.30 | X-H torsion
[ 10763 10752 10751 10750 ] final  -21.74 input  -60.55 | X-H torsion
[ 11005 11000 10999 10996 ] final -151.28 input  -57.11 | X-H torsion

> <Gold.Protein.ActiveResidues>
 VAL166  LYS551  ARG553  GLY616  TRP617  ASP618  TYR619  PRO620  LYS621  CYS622 
 ASP623  PHE694  ASN695  SER759  ASP760  ASP761  ALA762  ILE779  LEU786  VAL792 
 PHE793  MET794  SER795  GLU796  ALA797  LYS798  CYS799  TRP800  GLU811  SER814 

> <Gold.Protein.RotatedAtoms>
  152.5229  133.9526  159.7678 H   0  0  0  0  0  0  0  0  0  0  0  0  # atno 6907 bound_to 6896
  150.9833  133.6215  159.2726 H   0  0  0  0  0  0  0  0  0  0  0  0  # atno 6908 bound_to 6896
  151.3385  135.0864  159.9416 H   0  0  0  0  0  0  0  0  0  0  0  0  # atno 6909 bound_to 6896
  145.3928  139.2360  143.3342 H   0  0  0  0  0  0  0  0  0  0  0  0  # atno 7974 bound_to 7965
  154.8725  140.2961  155.5473 H   0  0  0  0  0  0  0  0  0  0  0  0  # atno 8008 bound_to 7997
  156.3021  140.2457  156.3649 H   0  0  0  0  0  0  0  0  0  0  0  0  # atno 8009 bound_to 7997
  154.8802  140.0398  157.1766 H   0  0  0  0  0  0  0  0  0  0  0  0  # atno 8010 bound_to 7997
  139.7691  144.6928  151.0182 H   0  0  0  0  0  0  0  0  0  0  0  0  # atno 10167 bound_to 10162
  156.9809  131.0119  151.2881 H   0  0  0  0  0  0  0  0  0  0  0  0  # atno 10718 bound_to 10713
  153.6410  135.6985  153.5242 H   0  0  0  0  0  0  0  0  0  0  0  0  # atno 10763 bound_to 10752
  153.2783  135.4193  155.1053 H   0  0  0  0  0  0  0  0  0  0  0  0  # atno 10764 bound_to 10752
  154.8500  135.3595  154.5953 H   0  0  0  0  0  0  0  0  0  0  0  0  # atno 10765 bound_to 10752
  140.7312  134.3618  157.5166 H   0  0  0  0  0  0  0  0  0  0  0  0  # atno 11005 bound_to 11000
  146.2789  140.4613  142.8784 LP  0  0  0  0  0  0  0  0  0  0  0  0  # atno 17320 bound_to 7965
  144.8428  140.6883  143.6218 LP  0  0  0  0  0  0  0  0  0  0  0  0  # atno 17321 bound_to 7965
  140.7813  143.4609  151.0279 LP  0  0  0  0  0  0  0  0  0  0  0  0  # atno 17342 bound_to 10162
  139.8293  143.7713  152.3179 LP  0  0  0  0  0  0  0  0  0  0  0  0  # atno 17343 bound_to 10162
  157.5526  130.8192  149.8164 LP  0  0  0  0  0  0  0  0  0  0  0  0  # atno 17370 bound_to 10713
  156.0244  130.3784  150.1865 LP  0  0  0  0  0  0  0  0  0  0  0  0  # atno 17371 bound_to 10713
  139.8826  134.9020  156.2822 LP  0  0  0  0  0  0  0  0  0  0  0  0  # atno 17394 bound_to 11000
  140.9919  133.7204  156.0826 LP  0  0  0  0  0  0  0  0  0  0  0  0  # atno 17395 bound_to 11000

$$$$
