AV-unprocessed.smi:1419|AV-procd|sdf|5777|dock1
  -GOLD-   22720 5423D 1   1.00000     0.00000
 Structure written by MMmdl.
 42 43  0  0  0  0  0  0  0  0  2 V2000
  146.6286  135.9336  155.7740 C   0  0  0  0  0  0  0  0  0  0  0  0
  146.7306  136.2049  154.2645 C   0  0  1  0  0  0  0  0  0  0  0  0
  145.4286  136.7804  153.6656 C   0  0  0  0  0  0  0  0  0  0  0  0
  145.0795  136.1783  152.3762 N   0  0  0  0  0  0  0  0  0  0  0  0
  143.9579  135.4515  152.0685 C   0  0  0  0  0  0  0  0  0  0  0  0
  144.0689  135.1032  150.7469 C   0  0  0  0  0  0  0  0  0  0  0  0
  145.2510  135.6339  150.3039 N   0  3  0  0  0  0  0  0  0  0  0  0
  145.8628  136.2893  151.2957 C   0  0  0  0  0  0  0  0  0  0  0  0
  147.8440  137.1153  154.0154 N   0  0  0  0  0  0  0  0  0  0  0  0
  148.0164  138.3154  154.5963 C   0  0  0  0  0  0  0  0  0  0  0  0
  147.2079  138.7729  155.4051 O   0  0  0  0  0  0  0  0  0  0  0  0
  149.1391  138.9726  154.2139 N   0  0  0  0  0  0  0  0  0  0  0  0
  150.3817  138.3748  153.7062 C   0  0  0  0  0  0  0  0  0  0  0  0
  151.4827  138.5191  154.7776 C   0  0  2  0  0  0  0  0  0  0  0  0
  151.2760  137.6220  156.0114 C   0  0  0  0  0  0  0  0  0  0  0  0
  151.6179  139.8951  155.1480 O   0  0  0  0  0  0  0  0  0  0  0  0
  150.4154  140.5492  155.5627 C   0  0  1  0  0  0  0  0  0  0  0  0
  150.7498  142.0171  155.8478 C   0  0  0  0  0  0  0  0  0  0  0  0
  149.3425  140.4003  154.4662 C   0  0  0  0  0  0  0  0  0  0  0  0
  145.8670  135.1859  155.9954 H   0  0  0  0  0  0  0  0  0  0  0  0
  146.3754  136.8407  156.3237 H   0  0  0  0  0  0  0  0  0  0  0  0
  147.5734  135.5583  156.1693 H   0  0  0  0  0  0  0  0  0  0  0  0
  146.9512  135.2533  153.7767 H   0  0  0  0  0  0  0  0  0  0  0  0
  144.5909  136.6240  154.3469 H   0  0  0  0  0  0  0  0  0  0  0  0
  145.5117  137.8574  153.5116 H   0  0  0  0  0  0  0  0  0  0  0  0
  143.1860  135.2399  152.7943 H   0  0  0  0  0  0  0  0  0  0  0  0
  143.4125  134.5334  150.1052 H   0  0  0  0  0  0  0  0  0  0  0  0
  146.8047  136.8055  151.2365 H   0  0  0  0  0  0  0  0  0  0  0  0
  148.5435  136.8093  153.3545 H   0  0  0  0  0  0  0  0  0  0  0  0
  150.2867  137.3312  153.4066 H   0  0  0  0  0  0  0  0  0  0  0  0
  150.6808  138.9056  152.8011 H   0  0  0  0  0  0  0  0  0  0  0  0
  152.4309  138.2281  154.3249 H   0  0  0  0  0  0  0  0  0  0  0  0
  151.2563  136.5704  155.7252 H   0  0  0  0  0  0  0  0  0  0  0  0
  150.3420  137.8348  156.5306 H   0  0  0  0  0  0  0  0  0  0  0  0
  152.0891  137.7541  156.7255 H   0  0  0  0  0  0  0  0  0  0  0  0
  150.0566  140.0975  156.4881 H   0  0  0  0  0  0  0  0  0  0  0  0
  149.8674  142.5637  156.1813 H   0  0  0  0  0  0  0  0  0  0  0  0
  151.1352  142.5147  154.9573 H   0  0  0  0  0  0  0  0  0  0  0  0
  151.5059  142.0993  156.6288 H   0  0  0  0  0  0  0  0  0  0  0  0
  149.6671  140.8896  153.5465 H   0  0  0  0  0  0  0  0  0  0  0  0
  148.4253  140.9084  154.7671 H   0  0  0  0  0  0  0  0  0  0  0  0
  145.6120  135.5458  149.3622 H   0  0  0  0  0  0  0  0  0  0  0  0
  1  2  1  0  0  0  0
  1 20  1  0  0  0  0
  1 21  1  0  0  0  0
  1 22  1  0  0  0  0
  2  3  1  0  0  0  0
  2  9  1  0  0  0  0
  2 23  1  0  0  0  0
  3  4  1  0  0  0  0
  3 24  1  0  0  0  0
  3 25  1  0  0  0  0
  4  8  1  0  0  0  0
  4  5  1  0  0  0  0
  5  6  2  0  0  0  0
  5 26  1  0  0  0  0
  6  7  1  0  0  0  0
  6 27  1  0  0  0  0
  7  8  2  0  0  0  0
  7 42  1  0  0  0  0
  8 28  1  0  0  0  0
  9 10  1  0  0  0  0
  9 29  1  0  0  0  0
 10 11  2  0  0  0  0
 10 12  1  0  0  0  0
 12 19  1  0  0  0  0
 12 13  1  0  0  0  0
 13 14  1  0  0  0  0
 13 30  1  0  0  0  0
 13 31  1  0  0  0  0
 14 15  1  0  0  0  0
 14 16  1  0  0  0  0
 14 32  1  0  0  0  0
 15 33  1  0  0  0  0
 15 34  1  0  0  0  0
 15 35  1  0  0  0  0
 16 17  1  0  0  0  0
 17 18  1  0  0  0  0
 17 19  1  0  0  0  0
 17 36  1  0  0  0  0
 18 37  1  0  0  0  0
 18 38  1  0  0  0  0
 18 39  1  0  0  0  0
 19 40  1  0  0  0  0
 19 41  1  0  0  0  0
M  CHG  1   7   1
M  END
> <s_m_source_file>
AV-unprocessed.smi

> <i_m_source_file_index>
1419

> <i_lp_mmshare_version>
43012

> <i_f3d_flags>
0

> <s_epik_input>
W2NIXTFuW2NIXVtjSF1uMVtDSDJdW0NAQEhdKFtDSDNdKVtOSF1DKD1PKU4yW0NIMl1bQ0BASF0oW0NIM10pT1tDQEBIXShbQ0gzXSlbQ0gyXTI=

> <s_epik_cmdline>
J2VwaWtfcHl0aG9uJywgJy1waCcsICc3LjAnLCAnLXRuJywgJzgnLCAnLW1hJywgJzIwMCcsICctbWV0YWxfYmluZGluZycsICctaW1hZScsICc8aW5maWxlLm1hZT4nLCAnLW9tYWUnLCAnPG91dGZpbGUubWFlPic=

> <r_lp_tautomer_probability>
1

> <r_epik_Ionization_Penalty>
0.253607

> <r_epik_Ionization_Penalty_Charging>
0

> <r_epik_Ionization_Penalty_Neutral>
0.253607

> <r_epik_State_Penalty>
0.245018

> <r_epik_Charging_Adjusted_Penalty>
0.245018

> <i_epik_Tot_Q>
1

> <i_epik_Tot_abs_Q>
1

> <r_epik_Metal_State_Penalty>
0.535379

> <b_epik_Metal_Only>
0

> <s_lp_Force_Field>
OPLS_2005

> <r_lp_Energy>
32.5002

> <b_lp_Chiralities_Consistent>
1

> <s_lp_Variant>
AV-unprocessed.smi:1419-4

> <Gold.Version>
5.8.1

> <Gold.Id.Protein>
6NUR|6NUR_protein|mol2

> <Gold.PLP.Fitness>
38.5539

> <Gold.PLP.PLP>
-29.1535

> <Gold.PLP.part.hbond>
-4.0000

> <Gold.PLP.part.metal>
0.0000

> <Gold.PLP.part.buried>
-2.4480

> <Gold.PLP.part.nonpolar>
-23.2913

> <Gold.PLP.part.repulsive>
0.1399

> <Gold.PLP.ligand.clash>
0.0000

> <Gold.PLP.ligand.torsion>
0.8508

> <Gold.PLP.Chemscore.Hbond>
2.7250

> <Gold.PLP.Chemscore.CHOScore>
0.9499

> <Gold.PLP.Chemscore.Metal>
0.0000

> <Gold.Chemscore.Hbonds>
donor molecule, donor type, donor heavy atom, donor atom, acceptor molecule, acceptor atom, score
      L1  H     7    42       P1  7921  1.00
      L1  H     9    29       P1  7948  1.00
      P1  H  7989  7998       L1    16  0.60
      L1  C     8    28       P1  7948  1.00

> <Gold.PLP.Chemscore.Internal.Correction>
0.0772

> <Gold.Rescore>
     Score         DG    S(hbond)    S(metal)    S(lipo)     H(rot)  DE(clash)    DE(int)     intcor
     12.40     -14.51       1.96        0.00      56.77       1.63       0.03       2.08       ----

> <Gold.Chemscore.Fitness>
12.4047

> <Gold.Chemscore.DG>
-14.5115

> <Gold.Chemscore.ZeroCoef>
-5.4800

> <Gold.Chemscore.Hbond>
1.9627

> <Gold.Chemscore.Metal>
0.0000

> <Gold.Chemscore.Lipo>
56.7687

> <Gold.Chemscore.Internal_Hbond>
0.0000

> <Gold.Chemscore.DEClash>
0.0278

> <Gold.Chemscore.DEInternal>
2.0790

> <Gold.Chemscore.Rot>
1.6273

> <Gold.Chemscore.Internal.Correction>
   9.000000E+99

> <Gold.Chemscore.Hbonds>
donor molecule, donor type, donor heavy atom, donor atom, acceptor molecule, acceptor atom, score
      L1  H     7    42       P1  7921  0.99
      L1  H     9    29       P1  7948  0.95
      P1  H  7989  7998       L1    16  0.02

> <Gold.Chemscore.Hbond.Weighted>
-6.5553

> <Gold.Chemscore.Metal.Weighted>
-0.0000

> <Gold.Chemscore.Lipo.Weighted>
-6.6419

> <Gold.Chemscore.Internal_Hbond.Weighted>
0.0000

> <Gold.Chemscore.DEClash.Weighted>
0.0278

> <Gold.Chemscore.DEInternal.Weighted>
2.0790

> <Gold.Chemscore.Rot.Weighted>
4.1658

> <Gold.Chemscore.Internal.Correction.Weighted>
   9.000000E+99

> <Gold.Protein.RotatedTorsions>
[ 6907 6896 6895 6894 ] final   98.52 input  -60.11 | X-H torsion
[ 7974 7965 7964 7962 ] final  167.51 input  175.53 | X-H torsion
[ 8008 7997 7996 7995 ] final -158.08 input   59.86 | X-H torsion
[ 10167 10162 10161 10158 ] final  141.07 input  -65.29 | X-H torsion
[ 10718 10713 10712 10709 ] final -136.59 input   66.30 | X-H torsion
[ 10763 10752 10751 10750 ] final -137.88 input  -60.55 | X-H torsion
[ 11005 11000 10999 10996 ] final -136.09 input  -57.11 | X-H torsion

> <Gold.Protein.ActiveResidues>
 VAL166  LYS551  ARG553  GLY616  TRP617  ASP618  TYR619  PRO620  LYS621  CYS622 
 ASP623  PHE694  ASN695  SER759  ASP760  ASP761  ALA762  ILE779  LEU786  VAL792 
 PHE793  MET794  SER795  GLU796  ALA797  LYS798  CYS799  TRP800  GLU811  SER814 

> <Gold.Protein.RotatedAtoms>
  152.5408  134.0568  159.8134 H   0  0  0  0  0  0  0  0  0  0  0  0  # atno 6907 bound_to 6896
  151.0702  133.5465  159.2635 H   0  0  0  0  0  0  0  0  0  0  0  0  # atno 6908 bound_to 6896
  151.2331  135.0570  159.9049 H   0  0  0  0  0  0  0  0  0  0  0  0  # atno 6909 bound_to 6896
  144.7422  139.8772  143.6393 H   0  0  0  0  0  0  0  0  0  0  0  0  # atno 7974 bound_to 7965
  155.7421  140.0815  157.2240 H   0  0  0  0  0  0  0  0  0  0  0  0  # atno 8008 bound_to 7997
  154.4021  140.1576  156.2684 H   0  0  0  0  0  0  0  0  0  0  0  0  # atno 8009 bound_to 7997
  155.9010  140.3410  155.6029 H   0  0  0  0  0  0  0  0  0  0  0  0  # atno 8010 bound_to 7997
  139.5031  144.6195  151.6085 H   0  0  0  0  0  0  0  0  0  0  0  0  # atno 10167 bound_to 10162
  156.2787  130.7308  151.1299 H   0  0  0  0  0  0  0  0  0  0  0  0  # atno 10718 bound_to 10713
  154.8651  135.3629  154.5295 H   0  0  0  0  0  0  0  0  0  0  0  0  # atno 10763 bound_to 10752
  153.5921  135.7015  153.5424 H   0  0  0  0  0  0  0  0  0  0  0  0  # atno 10764 bound_to 10752
  153.3364  135.4110  155.1499 H   0  0  0  0  0  0  0  0  0  0  0  0  # atno 10765 bound_to 10752
  140.8838  134.1899  157.4574 H   0  0  0  0  0  0  0  0  0  0  0  0  # atno 11005 bound_to 11000
  146.1238  139.4260  143.0212 LP  0  0  0  0  0  0  0  0  0  0  0  0  # atno 17320 bound_to 7965
  145.7266  141.0057  143.1374 LP  0  0  0  0  0  0  0  0  0  0  0  0  # atno 17321 bound_to 7965
  140.5893  143.9809  150.6314 LP  0  0  0  0  0  0  0  0  0  0  0  0  # atno 17342 bound_to 10162
  140.2984  143.3277  152.0996 LP  0  0  0  0  0  0  0  0  0  0  0  0  # atno 17343 bound_to 10162
  157.7308  131.0614  150.5711 LP  0  0  0  0  0  0  0  0  0  0  0  0  # atno 17370 bound_to 10713
  156.5814  130.4305  149.5975 LP  0  0  0  0  0  0  0  0  0  0  0  0  # atno 17371 bound_to 10713
  139.8722  134.9829  156.5174 LP  0  0  0  0  0  0  0  0  0  0  0  0  # atno 17394 bound_to 11000
  140.8430  133.8191  155.9093 LP  0  0  0  0  0  0  0  0  0  0  0  0  # atno 17395 bound_to 11000

$$$$
