AV-unprocessed.smi:648|AV-procd|sdf|3174|dock8
  -GOLD-   22720 0103D 1   1.00000     0.00000
 Structure written by MMmdl.
 45 46  0  0  0  0  0  0  0  0  1 V2000
  145.2860  133.3915  150.4873 C   0  0  0  0  0  0  0  0  0  0  0  0
  145.1888  134.3805  151.6582 C   0  0  2  0  0  0  0  0  0  0  0  0
  143.7326  134.5420  152.1288 C   0  0  0  0  0  0  0  0  0  0  0  0
  143.5744  135.5196  153.3156 C   0  0  0  0  0  0  0  0  0  0  0  0
  142.0712  135.7940  153.5260 C   0  0  0  0  0  0  0  0  0  0  0  0
  144.1048  134.8865  154.6224 C   0  0  0  0  0  0  0  0  0  0  0  0
  144.2785  136.8696  152.9963 C   0  0  0  0  0  0  0  0  0  0  0  0
  145.7269  136.7901  152.4306 C   0  0  1  0  0  0  0  0  0  0  0  0
  146.1134  138.1719  151.8341 C   0  0  0  0  0  0  0  0  0  0  0  0
  147.4631  138.2129  151.4117 O   0  0  0  0  0  0  0  0  0  0  0  0
  146.6644  136.4477  153.5207 N   0  0  0  0  0  0  0  0  0  0  0  0
  146.8896  137.4248  154.5891 C   0  0  0  0  0  0  0  0  0  0  0  0
  148.1491  137.0640  155.3863 C   0  0  0  0  0  0  0  0  0  0  0  0
  149.1571  138.0999  155.2858 N   0  0  0  0  0  0  0  0  0  0  0  0
  149.6959  138.6863  154.2157 C   0  0  0  0  0  0  0  0  0  0  0  0
  150.6000  139.6104  154.5107 N   0  0  0  0  0  0  0  0  0  0  0  0
  150.5661  139.5351  155.8750 C   0  0  0  0  0  0  0  0  0  0  0  0
  149.7170  138.6460  156.3904 N   0  0  0  0  0  0  0  0  0  0  0  0
  145.7752  135.7512  151.2784 C   0  0  0  0  0  0  0  0  0  0  0  0
  144.7170  133.7394  149.6248 H   0  0  0  0  0  0  0  0  0  0  0  0
  144.8991  132.4116  150.7683 H   0  0  0  0  0  0  0  0  0  0  0  0
  146.3210  133.2578  150.1713 H   0  0  0  0  0  0  0  0  0  0  0  0
  145.7818  133.9647  152.4725 H   0  0  0  0  0  0  0  0  0  0  0  0
  143.1356  134.8971  151.2873 H   0  0  0  0  0  0  0  0  0  0  0  0
  143.3202  133.5678  152.3957 H   0  0  0  0  0  0  0  0  0  0  0  0
  141.9052  136.4818  154.3558 H   0  0  0  0  0  0  0  0  0  0  0  0
  141.5258  134.8757  153.7469 H   0  0  0  0  0  0  0  0  0  0  0  0
  141.6141  136.2366  152.6400 H   0  0  0  0  0  0  0  0  0  0  0  0
  144.0150  135.5779  155.4609 H   0  0  0  0  0  0  0  0  0  0  0  0
  145.1494  134.5890  154.5591 H   0  0  0  0  0  0  0  0  0  0  0  0
  143.5413  133.9892  154.8802 H   0  0  0  0  0  0  0  0  0  0  0  0
  143.6686  137.3869  152.2537 H   0  0  0  0  0  0  0  0  0  0  0  0
  144.2528  137.5107  153.8789 H   0  0  0  0  0  0  0  0  0  0  0  0
  145.4691  138.4512  151.0010 H   0  0  0  0  0  0  0  0  0  0  0  0
  145.9832  138.9545  152.5826 H   0  0  0  0  0  0  0  0  0  0  0  0
  147.9775  137.6794  151.9981 H   0  0  0  0  0  0  0  0  0  0  0  0
  146.3793  135.5646  153.9327 H   0  0  0  0  0  0  0  0  0  0  0  0
  147.0107  138.4262  154.1780 H   0  0  0  0  0  0  0  0  0  0  0  0
  146.0404  137.4558  155.2706 H   0  0  0  0  0  0  0  0  0  0  0  0
  147.9077  136.9131  156.4396 H   0  0  0  0  0  0  0  0  0  0  0  0
  148.5760  136.1292  155.0199 H   0  0  0  0  0  0  0  0  0  0  0  0
  149.4200  138.4343  153.2022 H   0  0  0  0  0  0  0  0  0  0  0  0
  151.1853  140.1543  156.5071 H   0  0  0  0  0  0  0  0  0  0  0  0
  146.7866  135.6361  150.8901 H   0  0  0  0  0  0  0  0  0  0  0  0
  145.1979  136.1365  150.4364 H   0  0  0  0  0  0  0  0  0  0  0  0
  1  2  1  0  0  0  0
  1 20  1  0  0  0  0
  1 21  1  0  0  0  0
  1 22  1  0  0  0  0
  2 19  1  0  0  0  0
  2  3  1  0  0  0  0
  2 23  1  0  0  0  0
  3  4  1  0  0  0  0
  3 24  1  0  0  0  0
  3 25  1  0  0  0  0
  4  5  1  0  0  0  0
  4  6  1  0  0  0  0
  4  7  1  0  0  0  0
  5 26  1  0  0  0  0
  5 27  1  0  0  0  0
  5 28  1  0  0  0  0
  6 29  1  0  0  0  0
  6 30  1  0  0  0  0
  6 31  1  0  0  0  0
  7  8  1  0  0  0  0
  7 32  1  0  0  0  0
  7 33  1  0  0  0  0
  8  9  1  0  0  0  0
  8 11  1  0  0  0  0
  8 19  1  0  0  0  0
  9 10  1  0  0  0  0
  9 34  1  0  0  0  0
  9 35  1  0  0  0  0
 10 36  1  0  0  0  0
 11 12  1  0  0  0  0
 11 37  1  0  0  0  0
 12 13  1  0  0  0  0
 12 38  1  0  0  0  0
 12 39  1  0  0  0  0
 13 14  1  0  0  0  0
 13 40  1  0  0  0  0
 13 41  1  0  0  0  0
 14 18  1  0  0  0  0
 14 15  1  0  0  0  0
 15 16  2  0  0  0  0
 15 42  1  0  0  0  0
 16 17  1  0  0  0  0
 17 18  2  0  0  0  0
 17 43  1  0  0  0  0
 19 44  1  0  0  0  0
 19 45  1  0  0  0  0
M  END
> <s_m_source_file>
AV-unprocessed.smi

> <i_m_source_file_index>
648

> <i_lp_mmshare_version>
43012

> <i_f3d_flags>
0

> <s_epik_input>
W0NIM11DMShbQ0gzXSlbQ0gyXVtDQEBIXShbQ0gzXSlbQ0gyXVtDQF0oW0NIMl0xKShbQ0gyXVtPSF0pW05IXVtDSDJdW0NIMl1uMltjSF1uW2NIXW4y

> <s_epik_cmdline>
J2VwaWtfcHl0aG9uJywgJy1waCcsICc3LjAnLCAnLXRuJywgJzgnLCAnLW1hJywgJzIwMCcsICctbWV0YWxfYmluZGluZycsICctaW1hZScsICc8aW5maWxlLm1hZT4nLCAnLW9tYWUnLCAnPG91dGZpbGUubWFlPic=

> <r_lp_tautomer_probability>
1

> <r_epik_Ionization_Penalty>
2.45849

> <r_epik_Ionization_Penalty_Charging>
0

> <r_epik_Ionization_Penalty_Neutral>
2.45849

> <r_epik_State_Penalty>
2.62037

> <r_epik_Charging_Adjusted_Penalty>
2.62037

> <i_epik_Tot_Q>
0

> <i_epik_Tot_abs_Q>
0

> <r_epik_Metal_State_Penalty>
2.62024

> <b_epik_Metal_Only>
0

> <s_lp_Force_Field>
OPLS_2005

> <r_lp_Energy>
32.3104

> <b_lp_Chiralities_Consistent>
1

> <s_lp_Variant>
AV-unprocessed.smi:648-5

> <Gold.Version>
5.8.1

> <Gold.Id.Protein>
6NUR|6NUR_protein|mol2

> <Gold.PLP.Fitness>
41.2209

> <Gold.PLP.PLP>
-28.3823

> <Gold.PLP.part.hbond>
-4.8772

> <Gold.PLP.part.metal>
0.0000

> <Gold.PLP.part.buried>
-3.0423

> <Gold.PLP.part.nonpolar>
-21.6557

> <Gold.PLP.part.repulsive>
0.1337

> <Gold.PLP.ligand.clash>
0.0000

> <Gold.PLP.ligand.torsion>
0.5620

> <Gold.PLP.Chemscore.Hbond>
2.7680

> <Gold.PLP.Chemscore.CHOScore>
1.8852

> <Gold.PLP.Chemscore.Metal>
0.0000

> <Gold.Chemscore.Hbonds>
donor molecule, donor type, donor heavy atom, donor atom, acceptor molecule, acceptor atom, score
      L1  H    10    36       P1  7948  0.69
      P1  H  7954  7966       L1    10  1.00
      P1  H  7989  7998       L1    16  1.00
      L1  C    15    42       P1  7948  0.87
      L1  C    15    42       P1  7957  0.78

> <Gold.PLP.Chemscore.Internal.Correction>
0.0029

> <Gold.Rescore>
     Score         DG    S(hbond)    S(metal)    S(lipo)     H(rot)  DE(clash)    DE(int)     intcor
     11.03     -11.75       2.39        0.00      53.51       3.12       0.13       0.59       ----

> <Gold.Chemscore.Fitness>
11.0340

> <Gold.Chemscore.DG>
-11.7541

> <Gold.Chemscore.ZeroCoef>
-5.4800

> <Gold.Chemscore.Hbond>
2.3940

> <Gold.Chemscore.Metal>
0.0000

> <Gold.Chemscore.Lipo>
53.5128

> <Gold.Chemscore.Internal_Hbond>
0.0000

> <Gold.Chemscore.DEClash>
0.1288

> <Gold.Chemscore.DEInternal>
0.5913

> <Gold.Chemscore.Rot>
3.1183

> <Gold.Chemscore.Internal.Correction>
   9.000000E+99

> <Gold.Chemscore.Hbonds>
donor molecule, donor type, donor heavy atom, donor atom, acceptor molecule, acceptor atom, score
      L1  H    10    36       P1  7948  0.70
      P1  H  7954  7966       L1    10  0.35
      P1  H  7989  7998       L1    16  1.00

> <Gold.Chemscore.Hbond.Weighted>
-7.9960

> <Gold.Chemscore.Metal.Weighted>
-0.0000

> <Gold.Chemscore.Lipo.Weighted>
-6.2610

> <Gold.Chemscore.Internal_Hbond.Weighted>
0.0000

> <Gold.Chemscore.DEClash.Weighted>
0.1288

> <Gold.Chemscore.DEInternal.Weighted>
0.5913

> <Gold.Chemscore.Rot.Weighted>
7.9829

> <Gold.Chemscore.Internal.Correction.Weighted>
   9.000000E+99

> <Gold.Protein.RotatedTorsions>
[ 6907 6896 6895 6894 ] final   56.47 input  -60.11 | X-H torsion
[ 7974 7965 7964 7962 ] final  128.02 input  175.53 | X-H torsion
[ 8008 7997 7996 7995 ] final   11.40 input   59.86 | X-H torsion
[ 10167 10162 10161 10158 ] final  108.56 input  -65.29 | X-H torsion
[ 10718 10713 10712 10709 ] final -150.24 input   66.30 | X-H torsion
[ 10763 10752 10751 10750 ] final   56.12 input  -60.55 | X-H torsion
[ 11005 11000 10999 10996 ] final -131.97 input  -57.11 | X-H torsion

> <Gold.Protein.ActiveResidues>
 VAL166  LYS551  ARG553  GLY616  TRP617  ASP618  TYR619  PRO620  LYS621  CYS622 
 ASP623  PHE694  ASN695  SER759  ASP760  ASP761  ALA762  ILE779  LEU786  VAL792 
 PHE793  MET794  SER795  GLU796  ALA797  LYS798  CYS799  TRP800  GLU811  SER814 

> <Gold.Protein.RotatedAtoms>
  152.3639  134.6833  160.0198 H   0  0  0  0  0  0  0  0  0  0  0  0  # atno 6907 bound_to 6896
  151.7147  133.3307  159.3308 H   0  0  0  0  0  0  0  0  0  0  0  0  # atno 6908 bound_to 6896
  150.7624  134.6435  159.6294 H   0  0  0  0  0  0  0  0  0  0  0  0  # atno 6909 bound_to 6896
  145.0441  139.3938  143.5087 H   0  0  0  0  0  0  0  0  0  0  0  0  # atno 7974 bound_to 7965
  154.8065  140.2861  155.5884 H   0  0  0  0  0  0  0  0  0  0  0  0  # atno 8008 bound_to 7997
  156.2983  140.2576  156.2873 H   0  0  0  0  0  0  0  0  0  0  0  0  # atno 8009 bound_to 7997
  154.9498  140.0379  157.2127 H   0  0  0  0  0  0  0  0  0  0  0  0  # atno 8010 bound_to 7997
  139.6837  144.7116  151.1471 H   0  0  0  0  0  0  0  0  0  0  0  0  # atno 10167 bound_to 10162
  156.4436  130.8134  151.2364 H   0  0  0  0  0  0  0  0  0  0  0  0  # atno 10718 bound_to 10713
  152.9827  135.5687  154.5178 H   0  0  0  0  0  0  0  0  0  0  0  0  # atno 10763 bound_to 10752
  154.4671  135.2783  155.1672 H   0  0  0  0  0  0  0  0  0  0  0  0  # atno 10764 bound_to 10752
  154.3235  135.6264  153.5572 H   0  0  0  0  0  0  0  0  0  0  0  0  # atno 10765 bound_to 10752
  140.9212  134.1442  157.4313 H   0  0  0  0  0  0  0  0  0  0  0  0  # atno 11005 bound_to 11000
  146.3512  140.0058  142.8672 LP  0  0  0  0  0  0  0  0  0  0  0  0  # atno 17320 bound_to 7965
  145.1610  140.9672  143.4377 LP  0  0  0  0  0  0  0  0  0  0  0  0  # atno 17321 bound_to 7965
  140.7660  143.5662  150.9045 LP  0  0  0  0  0  0  0  0  0  0  0  0  # atno 17342 bound_to 10162
  139.9335  143.6465  152.3071 LP  0  0  0  0  0  0  0  0  0  0  0  0  # atno 17343 bound_to 10162
  157.7505  131.0160  150.3528 LP  0  0  0  0  0  0  0  0  0  0  0  0  # atno 17370 bound_to 10713
  156.3891  130.3894  149.7043 LP  0  0  0  0  0  0  0  0  0  0  0  0  # atno 17371 bound_to 10713
  139.8776  134.9972  156.5833 LP  0  0  0  0  0  0  0  0  0  0  0  0  # atno 17394 bound_to 11000
  140.7986  133.8524  155.8707 LP  0  0  0  0  0  0  0  0  0  0  0  0  # atno 17395 bound_to 11000

$$$$
