AV-unprocessed.smi:1645|AV-procd|sdf|6609|dock3
  -GOLD-   22720 7313D 1   1.00000     0.00000
 Structure written by MMmdl.
 56 59  0  0  0  0  0  0  0  0  3 V2000
  146.8966  139.4098  154.7116 O   0  0  0  0  0  0  0  0  0  0  0  0
  147.7408  139.4436  153.8175 C   0  0  0  0  0  0  0  0  0  0  0  0
  148.9635  139.9941  153.9166 N   0  0  0  0  0  0  0  0  0  0  0  0
  149.5373  140.7109  155.0031 C   0  0  0  0  0  0  0  0  0  0  0  0
  150.8914  140.4591  155.3076 C   0  0  0  0  0  0  0  0  0  0  0  0
  151.5146  141.1466  156.3688 C   0  0  0  0  0  0  0  0  0  0  0  0
  150.7763  142.0850  157.1326 C   0  0  0  0  0  0  0  0  0  0  0  0
  151.3211  142.8378  158.1975 N   0  0  0  0  0  0  0  0  0  0  0  0
  150.6001  144.0540  158.5864 C   0  0  0  0  0  0  0  0  0  0  0  0
  151.5045  145.0104  159.3821 C   0  0  0  0  0  0  0  0  0  0  0  0
  152.1532  144.2948  160.5752 C   0  0  0  0  0  0  0  0  0  0  0  0
  152.9127  143.0529  160.0886 C   0  0  0  0  0  0  0  0  0  0  0  0
  151.9960  142.1187  159.2798 C   0  0  0  0  0  0  0  0  0  0  0  0
  149.4743  142.2801  156.8119 N   0  3  0  0  0  0  0  0  0  0  0  0
  148.8379  141.6451  155.8041 C   0  0  0  0  0  0  0  0  0  0  0  0
  147.5408  138.9237  152.5975 N   0  0  0  0  0  0  0  0  0  0  0  0
  146.3011  138.2959  152.1407 C   0  0  1  0  0  0  0  0  0  0  0  0
  146.3370  137.9092  150.6497 C   0  0  0  0  0  0  0  0  0  0  0  0
  145.6391  136.5467  150.5864 C   0  0  0  0  0  0  0  0  0  0  0  0
  146.0076  135.9311  151.8665 N   0  3  2  0  0  0  0  0  0  0  0  0
  145.3196  134.6913  152.2797 C   0  0  0  0  0  0  0  0  0  0  0  0
  146.0124  134.1501  153.5488 C   0  0  0  0  0  0  0  0  0  0  0  0
  146.1227  135.2214  154.6580 C   0  0  0  0  0  0  0  0  0  0  0  0
  146.7309  136.5384  154.1278 C   0  0  0  0  0  0  0  0  0  0  0  0
  145.9387  136.9905  152.8880 C   0  0  1  0  0  0  0  0  0  0  0  0
  149.5310  139.9549  153.0826 H   0  0  0  0  0  0  0  0  0  0  0  0
  151.4585  139.7458  154.7272 H   0  0  0  0  0  0  0  0  0  0  0  0
  152.5516  140.9333  156.5796 H   0  0  0  0  0  0  0  0  0  0  0  0
  150.2088  144.5886  157.7212 H   0  0  0  0  0  0  0  0  0  0  0  0
  149.7398  143.7673  159.1924 H   0  0  0  0  0  0  0  0  0  0  0  0
  152.2820  145.4062  158.7271 H   0  0  0  0  0  0  0  0  0  0  0  0
  150.9268  145.8675  159.7291 H   0  0  0  0  0  0  0  0  0  0  0  0
  152.8311  144.9707  161.0975 H   0  0  0  0  0  0  0  0  0  0  0  0
  151.3863  144.0020  161.2934 H   0  0  0  0  0  0  0  0  0  0  0  0
  153.7553  143.3620  159.4685 H   0  0  0  0  0  0  0  0  0  0  0  0
  153.3361  142.5158  160.9380 H   0  0  0  0  0  0  0  0  0  0  0  0
  151.2454  141.6706  159.9324 H   0  0  0  0  0  0  0  0  0  0  0  0
  152.6053  141.3091  158.8776 H   0  0  0  0  0  0  0  0  0  0  0  0
  147.7998  141.9162  155.6906 H   0  0  0  0  0  0  0  0  0  0  0  0
  148.2900  138.9931  151.9241 H   0  0  0  0  0  0  0  0  0  0  0  0
  145.4794  139.0024  152.2763 H   0  0  0  0  0  0  0  0  0  0  0  0
  145.8590  138.6523  150.0104 H   0  0  0  0  0  0  0  0  0  0  0  0
  147.3685  137.7995  150.3110 H   0  0  0  0  0  0  0  0  0  0  0  0
  144.5562  136.6709  150.5337 H   0  0  0  0  0  0  0  0  0  0  0  0
  145.9627  135.9466  149.7355 H   0  0  0  0  0  0  0  0  0  0  0  0
  144.2634  134.8910  152.4668 H   0  0  0  0  0  0  0  0  0  0  0  0
  145.3739  133.9541  151.4778 H   0  0  0  0  0  0  0  0  0  0  0  0
  145.4769  133.2772  153.9234 H   0  0  0  0  0  0  0  0  0  0  0  0
  147.0140  133.8049  153.2883 H   0  0  0  0  0  0  0  0  0  0  0  0
  145.1292  135.4218  155.0612 H   0  0  0  0  0  0  0  0  0  0  0  0
  146.7186  134.8411  155.4882 H   0  0  0  0  0  0  0  0  0  0  0  0
  146.6930  137.3005  154.9068 H   0  0  0  0  0  0  0  0  0  0  0  0
  147.7819  136.3907  153.8758 H   0  0  0  0  0  0  0  0  0  0  0  0
  144.8917  137.0914  153.1828 H   0  0  0  0  0  0  0  0  0  0  0  0
  146.9859  135.6970  151.7768 H   0  0  0  0  0  0  0  0  0  0  0  0
  148.9412  142.9542  157.3618 H   0  0  0  0  0  0  0  0  0  0  0  0
  1  2  2  0  0  0  0
  2  3  1  0  0  0  0
  2 16  1  0  0  0  0
  3  4  1  0  0  0  0
  3 26  1  0  0  0  0
  4 15  1  0  0  0  0
  4  5  2  0  0  0  0
  5  6  1  0  0  0  0
  5 27  1  0  0  0  0
  6  7  2  0  0  0  0
  6 28  1  0  0  0  0
  7  8  1  0  0  0  0
  7 14  1  0  0  0  0
  8 13  1  0  0  0  0
  8  9  1  0  0  0  0
  9 10  1  0  0  0  0
  9 29  1  0  0  0  0
  9 30  1  0  0  0  0
 10 11  1  0  0  0  0
 10 31  1  0  0  0  0
 10 32  1  0  0  0  0
 11 12  1  0  0  0  0
 11 33  1  0  0  0  0
 11 34  1  0  0  0  0
 12 13  1  0  0  0  0
 12 35  1  0  0  0  0
 12 36  1  0  0  0  0
 13 37  1  0  0  0  0
 13 38  1  0  0  0  0
 14 15  2  0  0  0  0
 14 56  1  0  0  0  0
 15 39  1  0  0  0  0
 16 17  1  0  0  0  0
 16 40  1  0  0  0  0
 17 25  1  0  0  0  0
 17 18  1  0  0  0  0
 17 41  1  0  0  0  0
 18 19  1  0  0  0  0
 18 42  1  0  0  0  0
 18 43  1  0  0  0  0
 19 20  1  0  0  0  0
 19 44  1  0  0  0  0
 19 45  1  0  0  0  0
 20 25  1  0  0  0  0
 20 21  1  0  0  0  0
 20 55  1  0  0  0  0
 21 22  1  0  0  0  0
 21 46  1  0  0  0  0
 21 47  1  0  0  0  0
 22 23  1  0  0  0  0
 22 48  1  0  0  0  0
 22 49  1  0  0  0  0
 23 24  1  0  0  0  0
 23 50  1  0  0  0  0
 23 51  1  0  0  0  0
 24 25  1  0  0  0  0
 24 52  1  0  0  0  0
 24 53  1  0  0  0  0
 25 54  1  0  0  0  0
M  CHG  1  14   1
M  CHG  1  20   1
M  END
> <s_m_source_file>
AV-unprocessed.smi

> <i_m_source_file_index>
1645

> <i_lp_mmshare_version>
43012

> <i_f3d_flags>
0

> <s_epik_input>
W0NIMl0xW0NIMl1bQ0gyXVtDSDJdW0NASF0oTjEyKVtDQEBIXShbQ0gyXVtDSDJdMilbTkhdQyg9TylbTkhdYzNbY0hdW2NIXWMobltjSF0zKU40W0NIMl1bQ0gyXVtDSDJdW0NIMl1bQ0gyXTQ=

> <s_epik_cmdline>
J2VwaWtfcHl0aG9uJywgJy1waCcsICc3LjAnLCAnLXRuJywgJzgnLCAnLW1hJywgJzIwMCcsICctbWV0YWxfYmluZGluZycsICctaW1hZScsICc8aW5maWxlLm1hZT4nLCAnLW9tYWUnLCAnPG91dGZpbGUubWFlPic=

> <r_lp_tautomer_probability>
0.999994

> <r_epik_Ionization_Penalty>
1.26838

> <r_epik_Ionization_Penalty_Charging>
1.26836

> <r_epik_Ionization_Penalty_Neutral>
1.95562e-05

> <r_epik_State_Penalty>
1.33841

> <r_epik_Charging_Adjusted_Penalty>
2.60677

> <i_epik_Tot_Q>
2

> <i_epik_Tot_abs_Q>
2

> <r_epik_Metal_State_Penalty>
1.40601

> <b_epik_Metal_Only>
0

> <s_lp_Force_Field>
OPLS_2005

> <r_lp_Energy>
64.599

> <b_lp_Chiralities_Consistent>
1

> <s_lp_Variant>
AV-unprocessed.smi:1645-10

> <Gold.Version>
5.8.1

> <Gold.Id.Protein>
6NUR|6NUR_protein|mol2

> <Gold.PLP.Fitness>
52.1354

> <Gold.PLP.PLP>
-41.9839

> <Gold.PLP.part.hbond>
-4.7849

> <Gold.PLP.part.metal>
0.0000

> <Gold.PLP.part.buried>
4.9932

> <Gold.PLP.part.nonpolar>
-43.4381

> <Gold.PLP.part.repulsive>
0.3192

> <Gold.PLP.ligand.clash>
0.0000

> <Gold.PLP.ligand.torsion>
0.9090

> <Gold.PLP.Chemscore.Hbond>
3.9040

> <Gold.PLP.Chemscore.CHOScore>
0.0000

> <Gold.PLP.Chemscore.Metal>
0.0000

> <Gold.Chemscore.Hbonds>
donor molecule, donor type, donor heavy atom, donor atom, acceptor molecule, acceptor atom, score
      L1  H     3    26       P1  7957  0.96
      L1  H    16    40       P1  7957  0.98
      L1  H    20    55       P1  7948  2.00

> <Gold.PLP.Chemscore.Internal.Correction>
0.2575

> <Gold.Rescore>
     Score         DG    S(hbond)    S(metal)    S(lipo)     H(rot)  DE(clash)    DE(int)     intcor
     20.23     -26.72       2.79        0.00     123.71       1.00       4.63       1.86       ----

> <Gold.Chemscore.Fitness>
20.2292

> <Gold.Chemscore.DG>
-26.7199

> <Gold.Chemscore.ZeroCoef>
-5.4800

> <Gold.Chemscore.Hbond>
2.7921

> <Gold.Chemscore.Metal>
0.0000

> <Gold.Chemscore.Lipo>
123.7106

> <Gold.Chemscore.Internal_Hbond>
0.0000

> <Gold.Chemscore.DEClash>
4.6275

> <Gold.Chemscore.DEInternal>
1.8631

> <Gold.Chemscore.Rot>
1.0000

> <Gold.Chemscore.Internal.Correction>
   9.000000E+99

> <Gold.Chemscore.Hbonds>
donor molecule, donor type, donor heavy atom, donor atom, acceptor molecule, acceptor atom, score
      L1  H     3    26       P1  7957  0.92
      L1  H    16    40       P1  7957  0.89
      L1  H    20    55       P1  7948  0.91

> <Gold.Chemscore.Hbond.Weighted>
-9.3257

> <Gold.Chemscore.Metal.Weighted>
-0.0000

> <Gold.Chemscore.Lipo.Weighted>
-14.4741

> <Gold.Chemscore.Internal_Hbond.Weighted>
0.0000

> <Gold.Chemscore.DEClash.Weighted>
4.6275

> <Gold.Chemscore.DEInternal.Weighted>
1.8631

> <Gold.Chemscore.Rot.Weighted>
2.5600

> <Gold.Chemscore.Internal.Correction.Weighted>
   9.000000E+99

> <Gold.Protein.RotatedTorsions>
[ 6907 6896 6895 6894 ] final   64.21 input  -60.11 | X-H torsion
[ 7974 7965 7964 7962 ] final  -63.98 input  175.53 | X-H torsion
[ 8008 7997 7996 7995 ] final   68.71 input   59.86 | X-H torsion
[ 10167 10162 10161 10158 ] final   87.69 input  -65.29 | X-H torsion
[ 10718 10713 10712 10709 ] final  160.27 input   66.30 | X-H torsion
[ 10763 10752 10751 10750 ] final -117.10 input  -60.55 | X-H torsion
[ 11005 11000 10999 10996 ] final   32.96 input  -57.11 | X-H torsion

> <Gold.Protein.ActiveResidues>
 VAL166  LYS551  ARG553  GLY616  TRP617  ASP618  TYR619  PRO620  LYS621  CYS622 
 ASP623  PHE694  ASN695  SER759  ASP760  ASP761  ALA762  ILE779  LEU786  VAL792 
 PHE793  MET794  SER795  GLU796  ALA797  LYS798  CYS799  TRP800  GLU811  SER814 

> <Gold.Protein.RotatedAtoms>
  152.4313  134.5771  159.9937 H   0  0  0  0  0  0  0  0  0  0  0  0  # atno 6907 bound_to 6896
  151.5894  133.3362  159.3032 H   0  0  0  0  0  0  0  0  0  0  0  0  # atno 6908 bound_to 6896
  150.8207  134.7448  159.6834 H   0  0  0  0  0  0  0  0  0  0  0  0  # atno 6909 bound_to 6896
  145.7724  140.8806  143.0373 H   0  0  0  0  0  0  0  0  0  0  0  0  # atno 7974 bound_to 7965
  155.7124  140.3494  155.4980 H   0  0  0  0  0  0  0  0  0  0  0  0  # atno 8008 bound_to 7997
  155.9343  140.1090  157.1129 H   0  0  0  0  0  0  0  0  0  0  0  0  # atno 8009 bound_to 7997
  154.4091  140.1225  156.4830 H   0  0  0  0  0  0  0  0  0  0  0  0  # atno 8010 bound_to 7997
  139.8748  144.6473  150.8908 H   0  0  0  0  0  0  0  0  0  0  0  0  # atno 10167 bound_to 10162
  157.1528  131.0568  151.2272 H   0  0  0  0  0  0  0  0  0  0  0  0  # atno 10718 bound_to 10713
  154.8543  135.4322  154.1926 H   0  0  0  0  0  0  0  0  0  0  0  0  # atno 10763 bound_to 10752
  153.2991  135.6967  153.7226 H   0  0  0  0  0  0  0  0  0  0  0  0  # atno 10764 bound_to 10752
  153.6364  135.3476  155.3032 H   0  0  0  0  0  0  0  0  0  0  0  0  # atno 10765 bound_to 10752
  140.2681  134.3114  155.7836 H   0  0  0  0  0  0  0  0  0  0  0  0  # atno 11005 bound_to 11000
  144.6810  139.9874  143.7484 LP  0  0  0  0  0  0  0  0  0  0  0  0  # atno 17320 bound_to 7965
  146.0157  139.3207  143.0843 LP  0  0  0  0  0  0  0  0  0  0  0  0  # atno 17321 bound_to 7965
  140.7754  143.3634  151.1785 LP  0  0  0  0  0  0  0  0  0  0  0  0  # atno 17342 bound_to 10162
  139.7250  143.9163  152.2999 LP  0  0  0  0  0  0  0  0  0  0  0  0  # atno 17343 bound_to 10162
  157.4205  130.7435  149.6909 LP  0  0  0  0  0  0  0  0  0  0  0  0  # atno 17370 bound_to 10713
  155.9767  130.4072  150.3758 LP  0  0  0  0  0  0  0  0  0  0  0  0  # atno 17371 bound_to 10713
  141.2181  133.7450  156.9291 LP  0  0  0  0  0  0  0  0  0  0  0  0  # atno 17394 bound_to 11000
  140.1400  134.9300  157.2454 LP  0  0  0  0  0  0  0  0  0  0  0  0  # atno 17395 bound_to 11000

$$$$
