AV-unprocessed.smi:2547|AV-procd|sdf|10004|dock2
  -GOLD-   2272014 53D 1   1.00000     0.00000
 Structure written by MMmdl.
 45 46  0  0  0  0  0  0  0  0  3 V2000
  143.7985  141.7621  155.9367 C   0  0  0  0  0  0  0  0  0  0  0  0
  144.9434  141.5903  155.0167 N   0  3  2  0  0  0  0  0  0  0  0  0
  145.9356  140.6115  155.5259 C   0  0  0  0  0  0  0  0  0  0  0  0
  147.0408  140.3538  154.4865 C   0  0  0  0  0  0  0  0  0  0  0  0
  147.7324  141.6586  154.0415 C   0  0  2  0  0  0  0  0  0  0  0  0
  148.5756  142.2169  155.0988 N   0  0  0  0  0  0  0  0  0  0  0  0
  149.4239  141.5132  155.8631 C   0  0  0  0  0  0  0  0  0  0  0  0
  149.5703  140.2949  155.7680 O   0  0  0  0  0  0  0  0  0  0  0  0
  150.0618  142.3049  156.7430 N   0  0  0  0  0  0  0  0  0  0  0  0
  151.0364  141.9373  157.7090 C   0  0  0  0  0  0  0  0  0  0  0  0
  151.8437  140.7773  157.6255 C   0  0  0  0  0  0  0  0  0  0  0  0
  152.7915  140.5213  158.6348 C   0  0  0  0  0  0  0  0  0  0  0  0
  152.9268  141.4261  159.7059 C   0  0  0  0  0  0  0  0  0  0  0  0
  152.1128  142.5839  159.7523 C   0  0  0  0  0  0  0  0  0  0  0  0
  152.1901  143.5415  160.7870 N   0  0  0  0  0  0  0  0  0  0  0  0
  151.8398  144.9296  160.5148 C   0  0  0  0  0  0  0  0  0  0  0  0
  152.7784  143.1726  162.0699 C   0  0  0  0  0  0  0  0  0  0  0  0
  151.2182  142.7795  158.7513 N   0  3  0  0  0  0  0  0  0  0  0  0
  146.6753  142.6842  153.5935 C   0  0  0  0  0  0  0  0  0  0  0  0
  145.5739  142.8829  154.6513 C   0  0  0  0  0  0  0  0  0  0  0  0
  144.1214  142.1843  156.8892 H   0  0  0  0  0  0  0  0  0  0  0  0
  143.3152  140.8045  156.1332 H   0  0  0  0  0  0  0  0  0  0  0  0
  143.0517  142.4273  155.5021 H   0  0  0  0  0  0  0  0  0  0  0  0
  146.3690  140.9784  156.4577 H   0  0  0  0  0  0  0  0  0  0  0  0
  145.4338  139.6717  155.7598 H   0  0  0  0  0  0  0  0  0  0  0  0
  147.7696  139.6456  154.8827 H   0  0  0  0  0  0  0  0  0  0  0  0
  146.5994  139.8707  153.6138 H   0  0  0  0  0  0  0  0  0  0  0  0
  148.3717  141.4409  153.1837 H   0  0  0  0  0  0  0  0  0  0  0  0
  148.5206  143.2140  155.2469 H   0  0  0  0  0  0  0  0  0  0  0  0
  149.7754  143.2725  156.7601 H   0  0  0  0  0  0  0  0  0  0  0  0
  151.7633  140.0853  156.8010 H   0  0  0  0  0  0  0  0  0  0  0  0
  153.4130  139.6394  158.5851 H   0  0  0  0  0  0  0  0  0  0  0  0
  153.6578  141.2168  160.4726 H   0  0  0  0  0  0  0  0  0  0  0  0
  150.8086  145.0066  160.1686 H   0  0  0  0  0  0  0  0  0  0  0  0
  152.4972  145.3468  159.7514 H   0  0  0  0  0  0  0  0  0  0  0  0
  151.9344  145.5447  161.4098 H   0  0  0  0  0  0  0  0  0  0  0  0
  152.1825  142.3994  162.5558 H   0  0  0  0  0  0  0  0  0  0  0  0
  152.8282  144.0276  162.7444 H   0  0  0  0  0  0  0  0  0  0  0  0
  153.7931  142.7965  161.9341 H   0  0  0  0  0  0  0  0  0  0  0  0
  147.1480  143.6388  153.3592 H   0  0  0  0  0  0  0  0  0  0  0  0
  146.2163  142.3397  152.6657 H   0  0  0  0  0  0  0  0  0  0  0  0
  144.8148  143.5610  154.2597 H   0  0  0  0  0  0  0  0  0  0  0  0
  145.9866  143.3545  155.5447 H   0  0  0  0  0  0  0  0  0  0  0  0
  144.5679  141.2013  154.1635 H   0  0  0  0  0  0  0  0  0  0  0  0
  150.6388  143.6176  158.7930 H   0  0  0  0  0  0  0  0  0  0  0  0
  1  2  1  0  0  0  0
  1 21  1  0  0  0  0
  1 22  1  0  0  0  0
  1 23  1  0  0  0  0
  2 20  1  0  0  0  0
  2  3  1  0  0  0  0
  2 44  1  0  0  0  0
  3  4  1  0  0  0  0
  3 24  1  0  0  0  0
  3 25  1  0  0  0  0
  4  5  1  0  0  0  0
  4 26  1  0  0  0  0
  4 27  1  0  0  0  0
  5  6  1  0  0  0  0
  5 19  1  0  0  0  0
  5 28  1  0  0  0  0
  6  7  1  0  0  0  0
  6 29  1  0  0  0  0
  7  8  2  0  0  0  0
  7  9  1  0  0  0  0
  9 10  1  0  0  0  0
  9 30  1  0  0  0  0
 10 18  1  0  0  0  0
 10 11  2  0  0  0  0
 11 12  1  0  0  0  0
 11 31  1  0  0  0  0
 12 13  2  0  0  0  0
 12 32  1  0  0  0  0
 13 14  1  0  0  0  0
 13 33  1  0  0  0  0
 14 15  1  0  0  0  0
 14 18  2  0  0  0  0
 15 16  1  0  0  0  0
 15 17  1  0  0  0  0
 16 34  1  0  0  0  0
 16 35  1  0  0  0  0
 16 36  1  0  0  0  0
 17 37  1  0  0  0  0
 17 38  1  0  0  0  0
 17 39  1  0  0  0  0
 18 45  1  0  0  0  0
 19 20  1  0  0  0  0
 19 40  1  0  0  0  0
 19 41  1  0  0  0  0
 20 42  1  0  0  0  0
 20 43  1  0  0  0  0
M  CHG  1   2   1
M  CHG  1  18   1
M  END
> <s_m_source_file>
AV-unprocessed.smi

> <i_m_source_file_index>
2547

> <i_lp_mmshare_version>
43012

> <i_f3d_flags>
0

> <s_epik_input>
W0NIM11OMVtDSDJdW0NIMl1bQ0hdKFtDSDJdW0NIMl0xKVtOSF1DKD1PKVtOSF1jMltjSF1bY0hdW2NIXWMobjIpTihbQ0gzXSlbQ0gzXQ==

> <s_epik_cmdline>
J2VwaWtfcHl0aG9uJywgJy1waCcsICc3LjAnLCAnLXRuJywgJzgnLCAnLW1hJywgJzIwMCcsICctbWV0YWxfYmluZGluZycsICctaW1hZScsICc8aW5maWxlLm1hZT4nLCAnLW9tYWUnLCAnPG91dGZpbGUubWFlPic=

> <r_lp_tautomer_probability>
0.999994

> <r_epik_Ionization_Penalty>
2.17028

> <r_epik_Ionization_Penalty_Charging>
2.10368

> <r_epik_Ionization_Penalty_Neutral>
0.0666017

> <r_epik_State_Penalty>
2.2357

> <r_epik_Charging_Adjusted_Penalty>
4.33938

> <i_epik_Tot_Q>
2

> <i_epik_Tot_abs_Q>
2

> <r_epik_Metal_State_Penalty>
2.25749

> <b_epik_Metal_Only>
0

> <s_lp_Force_Field>
OPLS_2005

> <r_lp_Energy>
27.0899

> <b_lp_Chiralities_Consistent>
1

> <s_lp_Variant>
AV-unprocessed.smi:2547-4

> <Gold.Version>
5.8.1

> <Gold.Id.Protein>
6NUR|6NUR_protein|mol2

> <Gold.PLP.Fitness>
51.4987

> <Gold.PLP.PLP>
-40.8039

> <Gold.PLP.part.hbond>
-3.0000

> <Gold.PLP.part.metal>
0.0000

> <Gold.PLP.part.buried>
-7.5096

> <Gold.PLP.part.nonpolar>
-30.5521

> <Gold.PLP.part.repulsive>
0.3184

> <Gold.PLP.ligand.clash>
0.0000

> <Gold.PLP.ligand.torsion>
0.5333

> <Gold.PLP.Chemscore.Hbond>
3.9120

> <Gold.PLP.Chemscore.CHOScore>
0.0000

> <Gold.PLP.Chemscore.Metal>
0.0000

> <Gold.Chemscore.Hbonds>
donor molecule, donor type, donor heavy atom, donor atom, acceptor molecule, acceptor atom, score
      L1  H     2    44       P1 10175  2.00
      L1  H     6    29       P1  8028  1.00
      L1  H     9    30       P1  8028  0.88

> <Gold.PLP.Chemscore.Internal.Correction>
0.0254

> <Gold.Rescore>
     Score         DG    S(hbond)    S(metal)    S(lipo)     H(rot)  DE(clash)    DE(int)     intcor
     18.52     -21.17       2.94        0.00      72.12       1.00       0.06       2.58       ----

> <Gold.Chemscore.Fitness>
18.5245

> <Gold.Chemscore.DG>
-21.1660

> <Gold.Chemscore.ZeroCoef>
-5.4800

> <Gold.Chemscore.Hbond>
2.9367

> <Gold.Chemscore.Metal>
0.0000

> <Gold.Chemscore.Lipo>
72.1157

> <Gold.Chemscore.Internal_Hbond>
0.0000

> <Gold.Chemscore.DEClash>
0.0632

> <Gold.Chemscore.DEInternal>
2.5783

> <Gold.Chemscore.Rot>
1.0000

> <Gold.Chemscore.Internal.Correction>
   9.000000E+99

> <Gold.Chemscore.Hbonds>
donor molecule, donor type, donor heavy atom, donor atom, acceptor molecule, acceptor atom, score
      L1  H     2    44       P1 10175  0.66
      L1  H     6    29       P1  8028  0.98
      L1  H     9    30       P1  8028  0.82

> <Gold.Chemscore.Hbond.Weighted>
-9.8084

> <Gold.Chemscore.Metal.Weighted>
-0.0000

> <Gold.Chemscore.Lipo.Weighted>
-8.4375

> <Gold.Chemscore.Internal_Hbond.Weighted>
0.0000

> <Gold.Chemscore.DEClash.Weighted>
0.0632

> <Gold.Chemscore.DEInternal.Weighted>
2.5783

> <Gold.Chemscore.Rot.Weighted>
2.5600

> <Gold.Chemscore.Internal.Correction.Weighted>
   9.000000E+99

> <Gold.Protein.RotatedTorsions>
[ 6907 6896 6895 6894 ] final -119.43 input  -60.11 | X-H torsion
[ 7974 7965 7964 7962 ] final  -23.74 input  175.53 | X-H torsion
[ 8008 7997 7996 7995 ] final    5.61 input   59.86 | X-H torsion
[ 10167 10162 10161 10158 ] final -170.48 input  -65.29 | X-H torsion
[ 10718 10713 10712 10709 ] final  119.32 input   66.30 | X-H torsion
[ 10763 10752 10751 10750 ] final  -84.35 input  -60.55 | X-H torsion
[ 11005 11000 10999 10996 ] final -138.82 input  -57.11 | X-H torsion

> <Gold.Protein.ActiveResidues>
 VAL166  LYS551  ARG553  GLY616  TRP617  ASP618  TYR619  PRO620  LYS621  CYS622 
 ASP623  PHE694  ASN695  SER759  ASP760  ASP761  ALA762  ILE779  LEU786  VAL792 
 PHE793  MET794  SER795  GLU796  ALA797  LYS798  CYS799  TRP800  GLU811  SER814 

> <Gold.Protein.RotatedAtoms>
  150.8305  133.8100  159.3100 H   0  0  0  0  0  0  0  0  0  0  0  0  # atno 6907 bound_to 6896
  151.5831  135.1056  160.0031 H   0  0  0  0  0  0  0  0  0  0  0  0  # atno 6908 bound_to 6896
  152.4385  133.7362  159.6672 H   0  0  0  0  0  0  0  0  0  0  0  0  # atno 6909 bound_to 6896
  146.1598  140.4657  142.8576 H   0  0  0  0  0  0  0  0  0  0  0  0  # atno 7974 bound_to 7965
  154.7305  140.2729  155.6460 H   0  0  0  0  0  0  0  0  0  0  0  0  # atno 8008 bound_to 7997
  156.2848  140.2716  156.1929 H   0  0  0  0  0  0  0  0  0  0  0  0  # atno 8009 bound_to 7997
  155.0387  140.0371  157.2491 H   0  0  0  0  0  0  0  0  0  0  0  0  # atno 8010 bound_to 7997
  139.5859  144.1319  152.1575 H   0  0  0  0  0  0  0  0  0  0  0  0  # atno 10167 bound_to 10162
  157.5970  131.1056  150.7880 H   0  0  0  0  0  0  0  0  0  0  0  0  # atno 10718 bound_to 10713
  154.5985  135.5524  153.7350 H   0  0  0  0  0  0  0  0  0  0  0  0  # atno 10763 bound_to 10752
  153.0145  135.6360  154.1749 H   0  0  0  0  0  0  0  0  0  0  0  0  # atno 10764 bound_to 10752
  154.1689  135.2893  155.3067 H   0  0  0  0  0  0  0  0  0  0  0  0  # atno 10765 bound_to 10752
  140.8579  134.2205  157.4724 H   0  0  0  0  0  0  0  0  0  0  0  0  # atno 11005 bound_to 11000
  144.8011  140.6215  143.6477 LP  0  0  0  0  0  0  0  0  0  0  0  0  # atno 17320 bound_to 7965
  145.4618  139.1512  143.3862 LP  0  0  0  0  0  0  0  0  0  0  0  0  # atno 17321 bound_to 7965
  140.0882  144.5643  150.7073 LP  0  0  0  0  0  0  0  0  0  0  0  0  # atno 17342 bound_to 10162
  140.7131  143.2521  151.4519 LP  0  0  0  0  0  0  0  0  0  0  0  0  # atno 17343 bound_to 10162
  156.8288  130.5009  149.5334 LP  0  0  0  0  0  0  0  0  0  0  0  0  # atno 17370 bound_to 10713
  156.1034  130.5986  150.9931 LP  0  0  0  0  0  0  0  0  0  0  0  0  # atno 17371 bound_to 10713
  139.8706  134.9715  156.4740 LP  0  0  0  0  0  0  0  0  0  0  0  0  # atno 17394 bound_to 11000
  140.8716  133.7984  155.9371 LP  0  0  0  0  0  0  0  0  0  0  0  0  # atno 17395 bound_to 11000

$$$$
