AV-unprocessed.smi:2610|AV-procd|sdf|10208|dock8
  -GOLD-   2272014213D 1   1.00000     0.00000
 Structure written by MMmdl.
 45 47  0  0  0  0  0  0  0  0  1 V2000
  151.2609  137.1340  154.9407 C   0  0  0  0  0  0  0  0  0  0  0  0
  151.1771  138.5121  154.2757 C   0  0  0  0  0  0  0  0  0  0  0  0
  151.7046  139.6344  155.1804 C   0  0  0  0  0  0  0  0  0  0  0  0
  150.7609  139.9384  156.3530 C   0  0  0  0  0  0  0  0  0  0  0  0
  151.1879  141.1467  157.1327 C   0  0  0  0  0  0  0  0  0  0  0  0
  151.0852  142.3726  156.6187 N   0  0  0  0  0  0  0  0  0  0  0  0
  151.4924  143.1768  157.6634 C   0  0  0  0  0  0  0  0  0  0  0  0
  151.5995  144.5833  157.7484 C   0  0  0  0  0  0  0  0  0  0  0  0
  152.0249  145.1957  158.9450 C   0  0  0  0  0  0  0  0  0  0  0  0
  152.3453  144.4122  160.0720 C   0  0  0  0  0  0  0  0  0  0  0  0
  152.2480  143.0092  160.0072 C   0  0  0  0  0  0  0  0  0  0  0  0
  151.8320  142.4001  158.8073 C   0  0  0  0  0  0  0  0  0  0  0  0
  151.6427  141.0773  158.4117 N   0  0  0  0  0  0  0  0  0  0  0  0
  151.8568  139.8891  159.2352 C   0  0  0  0  0  0  0  0  0  0  0  0
  153.3469  139.5422  159.5024 C   0  0  0  0  0  0  0  0  0  0  0  0
  153.9923  139.3413  158.2578 O   0  0  0  0  0  0  0  0  0  0  0  0
  154.1013  140.6595  160.2550 C   0  0  0  0  0  0  0  0  0  0  0  0
  155.5089  140.2172  160.6925 C   0  0  0  0  0  0  0  0  0  0  0  0
  155.4265  139.0332  161.4761 O   0  0  0  0  0  0  0  0  0  0  0  0
  154.8937  137.9310  160.7523 C   0  0  0  0  0  0  0  0  0  0  0  0
  153.4495  138.2346  160.3141 C   0  0  0  0  0  0  0  0  0  0  0  0
  150.8845  136.3579  154.2740 H   0  0  0  0  0  0  0  0  0  0  0  0
  150.6701  137.1018  155.8566 H   0  0  0  0  0  0  0  0  0  0  0  0
  152.2905  136.8818  155.1964 H   0  0  0  0  0  0  0  0  0  0  0  0
  151.7443  138.4955  153.3444 H   0  0  0  0  0  0  0  0  0  0  0  0
  150.1414  138.7178  154.0030 H   0  0  0  0  0  0  0  0  0  0  0  0
  152.6875  139.3595  155.5657 H   0  0  0  0  0  0  0  0  0  0  0  0
  151.8475  140.5385  154.5873 H   0  0  0  0  0  0  0  0  0  0  0  0
  149.7427  140.0615  155.9896 H   0  0  0  0  0  0  0  0  0  0  0  0
  150.7325  139.0839  157.0304 H   0  0  0  0  0  0  0  0  0  0  0  0
  151.3493  145.1921  156.8922 H   0  0  0  0  0  0  0  0  0  0  0  0
  152.1008  146.2719  159.0001 H   0  0  0  0  0  0  0  0  0  0  0  0
  152.6652  144.8890  160.9871 H   0  0  0  0  0  0  0  0  0  0  0  0
  152.4894  142.4104  160.8721 H   0  0  0  0  0  0  0  0  0  0  0  0
  151.3419  140.0437  160.1841 H   0  0  0  0  0  0  0  0  0  0  0  0
  151.3502  139.0434  158.7697 H   0  0  0  0  0  0  0  0  0  0  0  0
  153.5079  138.6930  157.7698 H   0  0  0  0  0  0  0  0  0  0  0  0
  154.1742  141.5603  159.6449 H   0  0  0  0  0  0  0  0  0  0  0  0
  153.5395  140.9335  161.1481 H   0  0  0  0  0  0  0  0  0  0  0  0
  156.1568  140.0529  159.8302 H   0  0  0  0  0  0  0  0  0  0  0  0
  155.9748  141.0006  161.2905 H   0  0  0  0  0  0  0  0  0  0  0  0
  155.5272  137.7044  159.8934 H   0  0  0  0  0  0  0  0  0  0  0  0
  154.9094  137.0507  161.3950 H   0  0  0  0  0  0  0  0  0  0  0  0
  152.8285  138.3145  161.2074 H   0  0  0  0  0  0  0  0  0  0  0  0
  153.0508  137.3966  159.7406 H   0  0  0  0  0  0  0  0  0  0  0  0
  1  2  1  0  0  0  0
  1 22  1  0  0  0  0
  1 23  1  0  0  0  0
  1 24  1  0  0  0  0
  2  3  1  0  0  0  0
  2 25  1  0  0  0  0
  2 26  1  0  0  0  0
  3  4  1  0  0  0  0
  3 27  1  0  0  0  0
  3 28  1  0  0  0  0
  4  5  1  0  0  0  0
  4 29  1  0  0  0  0
  4 30  1  0  0  0  0
  5 13  1  0  0  0  0
  5  6  2  0  0  0  0
  6  7  1  0  0  0  0
  7 12  2  0  0  0  0
  7  8  1  0  0  0  0
  8  9  2  0  0  0  0
  8 31  1  0  0  0  0
  9 10  1  0  0  0  0
  9 32  1  0  0  0  0
 10 11  2  0  0  0  0
 10 33  1  0  0  0  0
 11 12  1  0  0  0  0
 11 34  1  0  0  0  0
 12 13  1  0  0  0  0
 13 14  1  0  0  0  0
 14 15  1  0  0  0  0
 14 35  1  0  0  0  0
 14 36  1  0  0  0  0
 15 21  1  0  0  0  0
 15 16  1  0  0  0  0
 15 17  1  0  0  0  0
 16 37  1  0  0  0  0
 17 18  1  0  0  0  0
 17 38  1  0  0  0  0
 17 39  1  0  0  0  0
 18 19  1  0  0  0  0
 18 40  1  0  0  0  0
 18 41  1  0  0  0  0
 19 20  1  0  0  0  0
 20 21  1  0  0  0  0
 20 42  1  0  0  0  0
 20 43  1  0  0  0  0
 21 44  1  0  0  0  0
 21 45  1  0  0  0  0
M  END
> <s_m_source_file>
AV-unprocessed.smi

> <i_m_source_file_index>
2610

> <i_lp_mmshare_version>
43012

> <i_f3d_flags>
0

> <s_epik_input>
W0NIM11bQ0gyXVtDSDJdW0NIMl1jKG4xKW4oYyhjMTIpW2NIXVtjSF1bY0hdW2NIXTIpW0NIMl1DMyhbT0hdKVtDSDJdW0NIMl1PW0NIMl1bQ0gyXTM=

> <s_epik_cmdline>
J2VwaWtfcHl0aG9uJywgJy1waCcsICc3LjAnLCAnLXRuJywgJzgnLCAnLW1hJywgJzIwMCcsICctbWV0YWxfYmluZGluZycsICctaW1hZScsICc8aW5maWxlLm1hZT4nLCAnLW9tYWUnLCAnPG91dGZpbGUubWFlPic=

> <r_epik_Ionization_Penalty>
0.224246

> <r_epik_Ionization_Penalty_Charging>
0

> <r_epik_Ionization_Penalty_Neutral>
0.224246

> <r_epik_State_Penalty>
0.214696

> <r_epik_Charging_Adjusted_Penalty>
0.214696

> <i_epik_Tot_Q>
0

> <i_epik_Tot_abs_Q>
0

> <r_epik_Metal_State_Penalty>
0.000258695

> <b_epik_Metal_Only>
0

> <s_lp_Force_Field>
OPLS_2005

> <r_lp_Energy>
13.1565

> <b_lp_Chiralities_Consistent>
1

> <s_lp_Variant>
AV-unprocessed.smi:2610-1

> <Gold.Version>
5.8.1

> <Gold.Id.Protein>
6NUR|6NUR_protein|mol2

> <Gold.PLP.Fitness>
48.1430

> <Gold.PLP.PLP>
-45.3508

> <Gold.PLP.part.hbond>
-1.0000

> <Gold.PLP.part.metal>
0.0000

> <Gold.PLP.part.buried>
-3.7779

> <Gold.PLP.part.nonpolar>
-40.0790

> <Gold.PLP.part.repulsive>
0.0941

> <Gold.PLP.ligand.clash>
0.0000

> <Gold.PLP.ligand.torsion>
0.2598

> <Gold.PLP.Chemscore.Hbond>
1.0000

> <Gold.PLP.Chemscore.CHOScore>
0.0000

> <Gold.PLP.Chemscore.Metal>
0.0000

> <Gold.Chemscore.Hbonds>
donor molecule, donor type, donor heavy atom, donor atom, acceptor molecule, acceptor atom, score
      P1  H  7997  8010       L1    16  1.00

> <Gold.PLP.Chemscore.Internal.Correction>
0.3119

> <Gold.Rescore>
     Score         DG    S(hbond)    S(metal)    S(lipo)     H(rot)  DE(clash)    DE(int)     intcor
     19.39     -19.94       0.97        0.00     137.43       1.91       0.10       0.44       ----

> <Gold.Chemscore.Fitness>
19.3925

> <Gold.Chemscore.DG>
-19.9371

> <Gold.Chemscore.ZeroCoef>
-5.4800

> <Gold.Chemscore.Hbond>
0.9749

> <Gold.Chemscore.Metal>
0.0000

> <Gold.Chemscore.Lipo>
137.4341

> <Gold.Chemscore.Internal_Hbond>
0.0000

> <Gold.Chemscore.DEClash>
0.1016

> <Gold.Chemscore.DEInternal>
0.4429

> <Gold.Chemscore.Rot>
1.9059

> <Gold.Chemscore.Internal.Correction>
   9.000000E+99

> <Gold.Chemscore.Hbonds>
donor molecule, donor type, donor heavy atom, donor atom, acceptor molecule, acceptor atom, score
      P1  H  7997  8010       L1    16  0.65

> <Gold.Chemscore.Hbond.Weighted>
-3.2563

> <Gold.Chemscore.Metal.Weighted>
-0.0000

> <Gold.Chemscore.Lipo.Weighted>
-16.0798

> <Gold.Chemscore.Internal_Hbond.Weighted>
0.0000

> <Gold.Chemscore.DEClash.Weighted>
0.1016

> <Gold.Chemscore.DEInternal.Weighted>
0.4429

> <Gold.Chemscore.Rot.Weighted>
4.8790

> <Gold.Chemscore.Internal.Correction.Weighted>
   9.000000E+99

> <Gold.Protein.RotatedTorsions>
[ 6907 6896 6895 6894 ] final  131.71 input  -60.11 | X-H torsion
[ 7974 7965 7964 7962 ] final  115.54 input  175.53 | X-H torsion
[ 8008 7997 7996 7995 ] final    2.57 input   59.86 | X-H torsion
[ 10167 10162 10161 10158 ] final   36.54 input  -65.29 | X-H torsion
[ 10718 10713 10712 10709 ] final  -26.68 input   66.30 | X-H torsion
[ 10763 10752 10751 10750 ] final   -8.26 input  -60.55 | X-H torsion
[ 11005 11000 10999 10996 ] final  -23.33 input  -57.11 | X-H torsion

> <Gold.Protein.ActiveResidues>
 VAL166  LYS551  ARG553  GLY616  TRP617  ASP618  TYR619  PRO620  LYS621  CYS622 
 ASP623  PHE694  ASN695  SER759  ASP760  ASP761  ALA762  ILE779  LEU786  VAL792 
 PHE793  MET794  SER795  GLU796  ALA797  LYS798  CYS799  TRP800  GLU811  SER814 

> <Gold.Protein.RotatedAtoms>
  152.3398  133.6054  159.5868 H   0  0  0  0  0  0  0  0  0  0  0  0  # atno 6907 bound_to 6896
  150.7472  133.9740  159.3563 H   0  0  0  0  0  0  0  0  0  0  0  0  # atno 6908 bound_to 6896
  151.7605  135.0812  160.0396 H   0  0  0  0  0  0  0  0  0  0  0  0  # atno 6909 bound_to 6896
  145.1907  139.3001  143.4369 H   0  0  0  0  0  0  0  0  0  0  0  0  # atno 7974 bound_to 7965
  154.6932  140.2657  155.6792 H   0  0  0  0  0  0  0  0  0  0  0  0  # atno 8008 bound_to 7997
  156.2739  140.2787  156.1441 H   0  0  0  0  0  0  0  0  0  0  0  0  # atno 8009 bound_to 7997
  155.0867  140.0373  157.2646 H   0  0  0  0  0  0  0  0  0  0  0  0  # atno 8010 bound_to 7997
  140.4117  144.1583  150.6140 H   0  0  0  0  0  0  0  0  0  0  0  0  # atno 10167 bound_to 10162
  156.4480  130.4478  149.7008 H   0  0  0  0  0  0  0  0  0  0  0  0  # atno 10718 bound_to 10713
  153.4380  135.7013  153.6187 H   0  0  0  0  0  0  0  0  0  0  0  0  # atno 10763 bound_to 10752
  153.4574  135.3744  155.2319 H   0  0  0  0  0  0  0  0  0  0  0  0  # atno 10764 bound_to 10752
  154.8727  135.4011  154.3774 H   0  0  0  0  0  0  0  0  0  0  0  0  # atno 10765 bound_to 10752
  140.8741  133.7699  156.0222 H   0  0  0  0  0  0  0  0  0  0  0  0  # atno 11005 bound_to 11000
  146.3436  140.2119  142.8590 LP  0  0  0  0  0  0  0  0  0  0  0  0  # atno 17320 bound_to 7965
  145.0044  140.8660  143.5262 LP  0  0  0  0  0  0  0  0  0  0  0  0  # atno 17321 bound_to 7965
  140.4630  143.2441  151.9194 LP  0  0  0  0  0  0  0  0  0  0  0  0  # atno 17342 bound_to 10162
  139.4782  144.5448  151.8474 LP  0  0  0  0  0  0  0  0  0  0  0  0  # atno 17343 bound_to 10162
  156.3846  130.7596  151.2592 LP  0  0  0  0  0  0  0  0  0  0  0  0  # atno 17370 bound_to 10713
  157.7504  131.0285  150.4054 LP  0  0  0  0  0  0  0  0  0  0  0  0  # atno 17371 bound_to 10713
  140.8538  134.2922  157.5264 LP  0  0  0  0  0  0  0  0  0  0  0  0  # atno 17394 bound_to 11000
  139.8714  134.9482  156.3989 LP  0  0  0  0  0  0  0  0  0  0  0  0  # atno 17395 bound_to 11000

$$$$
