AV-unprocessed.smi:1703|AV-procd|sdf|6854|dock10
  -GOLD-   22720 8 33D 1   1.00000     0.00000
 Structure written by MMmdl.
 48 50  0  0  0  0  0  0  0  0  1 V2000
  146.7314  139.0413  151.4208 C   0  0  0  0  0  0  0  0  0  0  0  0
  146.8389  139.3411  152.9196 C   0  0  2  0  0  0  0  0  0  0  0  0
  148.0725  140.2004  153.2556 C   0  0  0  0  0  0  0  0  0  0  0  0
  148.2134  140.4214  154.6905 N   0  0  0  0  0  0  0  0  0  0  0  0
  149.3844  141.2527  154.9766 C   0  0  0  0  0  0  0  0  0  0  0  0
  149.6316  141.5618  156.4664 C   0  0  2  0  0  0  0  0  0  0  0  0
  148.6008  142.4133  156.9261 O   0  0  0  0  0  0  0  0  0  0  0  0
  150.9950  142.2462  156.6851 C   0  0  0  0  0  0  0  0  0  0  0  0
  151.5646  141.9459  157.9925 N   0  0  0  0  0  0  0  0  0  0  0  0
  152.0529  140.7657  158.4516 C   0  0  0  0  0  0  0  0  0  0  0  0
  152.0573  139.5313  157.5953 C   0  0  0  0  0  0  0  0  0  0  0  0
  152.8919  139.6262  156.4589 O   0  0  0  0  0  0  0  0  0  0  0  0
  152.5195  140.7834  159.7028 N   0  0  0  0  0  0  0  0  0  0  0  0
  152.3106  142.0923  160.0900 C   0  0  0  0  0  0  0  0  0  0  0  0
  152.5920  142.7461  161.3111 C   0  0  0  0  0  0  0  0  0  0  0  0
  152.2833  144.1123  161.4767 C   0  0  0  0  0  0  0  0  0  0  0  0
  151.6913  144.8430  160.4261 C   0  0  0  0  0  0  0  0  0  0  0  0
  151.4029  144.2106  159.2014 C   0  0  0  0  0  0  0  0  0  0  0  0
  151.7126  142.8467  159.0419 C   0  0  0  0  0  0  0  0  0  0  0  0
  148.2569  139.1253  155.3647 C   0  0  0  0  0  0  0  0  0  0  0  0
  147.0253  138.2610  155.0319 C   0  0  2  0  0  0  0  0  0  0  0  0
  147.1047  136.8701  155.6695 C   0  0  0  0  0  0  0  0  0  0  0  0
  146.9321  138.1032  153.6190 O   0  0  0  0  0  0  0  0  0  0  0  0
  146.6491  139.9612  150.8415 H   0  0  0  0  0  0  0  0  0  0  0  0
  145.8514  138.4341  151.2073 H   0  0  0  0  0  0  0  0  0  0  0  0
  147.6060  138.4970  151.0634 H   0  0  0  0  0  0  0  0  0  0  0  0
  145.9339  139.8610  153.2387 H   0  0  0  0  0  0  0  0  0  0  0  0
  148.9699  139.7150  152.8682 H   0  0  0  0  0  0  0  0  0  0  0  0
  147.9919  141.1595  152.7424 H   0  0  0  0  0  0  0  0  0  0  0  0
  150.2711  140.7727  154.5590 H   0  0  0  0  0  0  0  0  0  0  0  0
  149.2876  142.2026  154.4484 H   0  0  0  0  0  0  0  0  0  0  0  0
  149.6098  140.6468  157.0566 H   0  0  0  0  0  0  0  0  0  0  0  0
  148.7838  143.2900  156.6232 H   0  0  0  0  0  0  0  0  0  0  0  0
  151.7034  141.9091  155.9275 H   0  0  0  0  0  0  0  0  0  0  0  0
  150.9093  143.3253  156.5571 H   0  0  0  0  0  0  0  0  0  0  0  0
  152.3870  138.6839  158.1968 H   0  0  0  0  0  0  0  0  0  0  0  0
  151.0427  139.3197  157.2584 H   0  0  0  0  0  0  0  0  0  0  0  0
  152.4250  140.1001  155.7875 H   0  0  0  0  0  0  0  0  0  0  0  0
  153.0454  142.1949  162.1217 H   0  0  0  0  0  0  0  0  0  0  0  0
  152.5020  144.6018  162.4144 H   0  0  0  0  0  0  0  0  0  0  0  0
  151.4582  145.8892  160.5609 H   0  0  0  0  0  0  0  0  0  0  0  0
  150.9499  144.7668  158.3944 H   0  0  0  0  0  0  0  0  0  0  0  0
  149.1650  138.5914  155.0796 H   0  0  0  0  0  0  0  0  0  0  0  0
  148.2992  139.2597  156.4446 H   0  0  0  0  0  0  0  0  0  0  0  0
  146.1230  138.7589  155.3916 H   0  0  0  0  0  0  0  0  0  0  0  0
  147.1682  136.9393  156.7558 H   0  0  0  0  0  0  0  0  0  0  0  0
  147.9794  136.3231  155.3166 H   0  0  0  0  0  0  0  0  0  0  0  0
  146.2214  136.2793  155.4256 H   0  0  0  0  0  0  0  0  0  0  0  0
  1  2  1  0  0  0  0
  1 24  1  0  0  0  0
  1 25  1  0  0  0  0
  1 26  1  0  0  0  0
  2 23  1  0  0  0  0
  2  3  1  0  0  0  0
  2 27  1  0  0  0  0
  3  4  1  0  0  0  0
  3 28  1  0  0  0  0
  3 29  1  0  0  0  0
  4  5  1  0  0  0  0
  4 20  1  0  0  0  0
  5  6  1  0  0  0  0
  5 30  1  0  0  0  0
  5 31  1  0  0  0  0
  6  7  1  0  0  0  0
  6  8  1  0  0  0  0
  6 32  1  0  0  0  0
  7 33  1  0  0  0  0
  8  9  1  0  0  0  0
  8 34  1  0  0  0  0
  8 35  1  0  0  0  0
  9 19  1  0  0  0  0
  9 10  1  0  0  0  0
 10 11  1  0  0  0  0
 10 13  2  0  0  0  0
 11 12  1  0  0  0  0
 11 36  1  0  0  0  0
 11 37  1  0  0  0  0
 12 38  1  0  0  0  0
 13 14  1  0  0  0  0
 14 19  2  0  0  0  0
 14 15  1  0  0  0  0
 15 16  2  0  0  0  0
 15 39  1  0  0  0  0
 16 17  1  0  0  0  0
 16 40  1  0  0  0  0
 17 18  2  0  0  0  0
 17 41  1  0  0  0  0
 18 19  1  0  0  0  0
 18 42  1  0  0  0  0
 20 21  1  0  0  0  0
 20 43  1  0  0  0  0
 20 44  1  0  0  0  0
 21 22  1  0  0  0  0
 21 23  1  0  0  0  0
 21 45  1  0  0  0  0
 22 46  1  0  0  0  0
 22 47  1  0  0  0  0
 22 48  1  0  0  0  0
M  END
> <s_m_source_file>
AV-unprocessed.smi

> <i_m_source_file_index>
1703

> <i_lp_mmshare_version>
43012

> <i_f3d_flags>
0

> <s_epik_input>
W0NIM11bQ0BASF0xW0NIMl1OKFtDSDJdW0NASF0oTzEpW0NIM10pW0NIMl1bQ0BIXShbT0hdKVtDSDJdbihjKG4yKVtDSDJdW09IXSljKGMyMylbY0hdW2NIXVtjSF1bY0hdMw==

> <s_epik_cmdline>
J2VwaWtfcHl0aG9uJywgJy1waCcsICc3LjAnLCAnLXRuJywgJzgnLCAnLW1hJywgJzIwMCcsICctbWV0YWxfYmluZGluZycsICctaW1hZScsICc8aW5maWxlLm1hZT4nLCAnLW9tYWUnLCAnPG91dGZpbGUubWFlPic=

> <r_epik_Ionization_Penalty>
0.307685

> <r_epik_Ionization_Penalty_Charging>
0

> <r_epik_Ionization_Penalty_Neutral>
0.307685

> <r_epik_State_Penalty>
0.277856

> <r_epik_Charging_Adjusted_Penalty>
0.277856

> <i_epik_Tot_Q>
0

> <i_epik_Tot_abs_Q>
0

> <r_epik_Metal_State_Penalty>
0.238959

> <b_epik_Metal_Only>
0

> <s_lp_Force_Field>
OPLS_2005

> <r_lp_Energy>
28.9256

> <b_lp_Chiralities_Consistent>
1

> <s_lp_Variant>
AV-unprocessed.smi:1703-2

> <Gold.Version>
5.8.1

> <Gold.Id.Protein>
6NUR|6NUR_protein|mol2

> <Gold.PLP.Fitness>
47.9173

> <Gold.PLP.PLP>
-42.8845

> <Gold.PLP.part.hbond>
-2.0000

> <Gold.PLP.part.metal>
0.0000

> <Gold.PLP.part.buried>
-0.5165

> <Gold.PLP.part.nonpolar>
-41.0066

> <Gold.PLP.part.repulsive>
0.2675

> <Gold.PLP.ligand.clash>
0.0000

> <Gold.PLP.ligand.torsion>
0.5047

> <Gold.PLP.Chemscore.Hbond>
2.0000

> <Gold.PLP.Chemscore.CHOScore>
0.0000

> <Gold.PLP.Chemscore.Metal>
0.0000

> <Gold.Chemscore.Hbonds>
donor molecule, donor type, donor heavy atom, donor atom, acceptor molecule, acceptor atom, score
      L1  H     7    33       P1  8028  1.00
      P1  H  7997  8010       L1    12  1.00

> <Gold.PLP.Chemscore.Internal.Correction>
0.0422

> <Gold.Rescore>
     Score         DG    S(hbond)    S(metal)    S(lipo)     H(rot)  DE(clash)    DE(int)     intcor
     16.73     -17.63       1.83        0.00     114.53       2.88       0.40       0.50       ----

> <Gold.Chemscore.Fitness>
16.7306

> <Gold.Chemscore.DG>
-17.6318

> <Gold.Chemscore.ZeroCoef>
-5.4800

> <Gold.Chemscore.Hbond>
1.8322

> <Gold.Chemscore.Metal>
0.0000

> <Gold.Chemscore.Lipo>
114.5252

> <Gold.Chemscore.Internal_Hbond>
0.0000

> <Gold.Chemscore.DEClash>
0.4020

> <Gold.Chemscore.DEInternal>
0.4992

> <Gold.Chemscore.Rot>
2.8778

> <Gold.Chemscore.Internal.Correction>
   9.000000E+99

> <Gold.Chemscore.Hbonds>
donor molecule, donor type, donor heavy atom, donor atom, acceptor molecule, acceptor atom, score
      L1  H     7    33       P1  8028  0.85
      P1  H  7997  8010       L1    12  0.73

> <Gold.Chemscore.Hbond.Weighted>
-6.1194

> <Gold.Chemscore.Metal.Weighted>
-0.0000

> <Gold.Chemscore.Lipo.Weighted>
-13.3994

> <Gold.Chemscore.Internal_Hbond.Weighted>
0.0000

> <Gold.Chemscore.DEClash.Weighted>
0.4020

> <Gold.Chemscore.DEInternal.Weighted>
0.4992

> <Gold.Chemscore.Rot.Weighted>
7.3671

> <Gold.Chemscore.Internal.Correction.Weighted>
   9.000000E+99

> <Gold.Protein.RotatedTorsions>
[ 6907 6896 6895 6894 ] final  -46.14 input  -60.11 | X-H torsion
[ 7974 7965 7964 7962 ] final   54.13 input  175.53 | X-H torsion
[ 8008 7997 7996 7995 ] final   64.25 input   59.86 | X-H torsion
[ 10167 10162 10161 10158 ] final -154.20 input  -65.29 | X-H torsion
[ 10718 10713 10712 10709 ] final  -66.48 input   66.30 | X-H torsion
[ 10763 10752 10751 10750 ] final  -39.93 input  -60.55 | X-H torsion
[ 11005 11000 10999 10996 ] final   81.61 input  -57.11 | X-H torsion

> <Gold.Protein.ActiveResidues>
 VAL166  LYS551  ARG553  GLY616  TRP617  ASP618  TYR619  PRO620  LYS621  CYS622 
 ASP623  PHE694  ASN695  SER759  ASP760  ASP761  ALA762  ILE779  LEU786  VAL792 
 PHE793  MET794  SER795  GLU796  ALA797  LYS798  CYS799  TRP800  GLU811  SER814 

> <Gold.Protein.RotatedAtoms>
  150.9144  134.8561  159.7446 H   0  0  0  0  0  0  0  0  0  0  0  0  # atno 6907 bound_to 6896
  152.4961  134.4311  159.9522 H   0  0  0  0  0  0  0  0  0  0  0  0  # atno 6908 bound_to 6896
  151.4351  133.3620  159.2809 H   0  0  0  0  0  0  0  0  0  0  0  0  # atno 6909 bound_to 6896
  145.9640  139.4086  143.0230 H   0  0  0  0  0  0  0  0  0  0  0  0  # atno 7974 bound_to 7965
  155.6430  140.3497  155.4721 H   0  0  0  0  0  0  0  0  0  0  0  0  # atno 8008 bound_to 7997
  155.9910  140.1193  157.0661 H   0  0  0  0  0  0  0  0  0  0  0  0  # atno 8009 bound_to 7997
  154.4219  140.1119  156.5552 H   0  0  0  0  0  0  0  0  0  0  0  0  # atno 8010 bound_to 7997
  139.7033  143.9228  152.2438 H   0  0  0  0  0  0  0  0  0  0  0  0  # atno 10167 bound_to 10162
  156.0610  130.4263  150.1714 H   0  0  0  0  0  0  0  0  0  0  0  0  # atno 10718 bound_to 10713
  153.9376  135.6765  153.4744 H   0  0  0  0  0  0  0  0  0  0  0  0  # atno 10763 bound_to 10752
  153.0948  135.4857  154.8755 H   0  0  0  0  0  0  0  0  0  0  0  0  # atno 10764 bound_to 10752
  154.7394  135.3157  154.8712 H   0  0  0  0  0  0  0  0  0  0  0  0  # atno 10765 bound_to 10752
  139.9092  134.8009  156.2064 H   0  0  0  0  0  0  0  0  0  0  0  0  # atno 11005 bound_to 11000
  145.7999  140.9775  143.1004 LP  0  0  0  0  0  0  0  0  0  0  0  0  # atno 17320 bound_to 7965
  144.6821  139.9789  143.7483 LP  0  0  0  0  0  0  0  0  0  0  0  0  # atno 17321 bound_to 7965
  139.9076  144.6875  150.8597 LP  0  0  0  0  0  0  0  0  0  0  0  0  # atno 17342 bound_to 10162
  140.7715  143.3467  151.2097 LP  0  0  0  0  0  0  0  0  0  0  0  0  # atno 17343 bound_to 10162
  156.9783  130.9856  151.3443 LP  0  0  0  0  0  0  0  0  0  0  0  0  # atno 17370 bound_to 10713
  157.5619  130.8251  149.8276 LP  0  0  0  0  0  0  0  0  0  0  0  0  # atno 17371 bound_to 10713
  141.0492  133.6897  156.1741 LP  0  0  0  0  0  0  0  0  0  0  0  0  # atno 17394 bound_to 11000
  140.6836  134.4741  157.5589 LP  0  0  0  0  0  0  0  0  0  0  0  0  # atno 17395 bound_to 11000

$$$$
