AV-unprocessed.smi:99|AV-procd|sdf|865|dock3
  -GOLD-   2262017313D 1   1.00000     0.00000
 Structure written by MMmdl.
 53 56  0  0  0  0  0  0  0  0  1 V2000
  151.1420  140.0609  154.9437 O   0  0  0  0  0  0  0  0  0  0  0  0
  150.6212  140.9906  155.5624 C   0  0  0  0  0  0  0  0  0  0  0  0
  149.5393  141.6651  155.1277 O   0  0  0  0  0  0  0  0  0  0  0  0
  148.7680  141.1752  154.0423 C   0  0  0  0  0  0  0  0  0  0  0  0
  147.2839  141.4300  154.3343 C   0  0  2  0  0  0  0  0  0  0  0  0
  147.1505  142.4215  155.3484 O   0  0  0  0  0  0  0  0  0  0  0  0
  145.9377  142.2541  156.0304 C   0  0  1  0  0  0  0  0  0  0  0  0
  145.0418  143.4481  155.7669 N   0  0  0  0  0  0  0  0  0  0  0  0
  144.9205  144.0215  154.5071 C   0  0  0  0  0  0  0  0  0  0  0  0
  144.1181  145.0827  154.2541 C   0  0  0  0  0  0  0  0  0  0  0  0
  143.3234  145.6825  155.3211 C   0  0  0  0  0  0  0  0  0  0  0  0
  142.5722  146.6463  155.1895 O   0  0  0  0  0  0  0  0  0  0  0  0
  143.4683  145.0678  156.5680 N   0  0  0  0  0  0  0  0  0  0  0  0
  144.2884  143.9718  156.8399 C   0  0  0  0  0  0  0  0  0  0  0  0
  144.3302  143.4976  157.9747 O   0  0  0  0  0  0  0  0  0  0  0  0
  145.3201  140.9159  155.5594 C   0  0  1  0  0  0  0  0  0  0  0  0
  144.2854  141.0909  154.6019 O   0  0  0  0  0  0  0  0  0  0  0  0
  146.5382  140.2445  154.9452 C   0  0  1  0  0  0  0  0  0  0  0  0
  146.1776  139.2219  154.0196 O   0  0  0  0  0  0  0  0  0  0  0  0
  145.2819  138.2635  154.3459 C   0  0  0  0  0  0  0  0  0  0  0  0
  144.7188  138.1934  155.4399 O   0  0  0  0  0  0  0  0  0  0  0  0
  145.0775  137.2694  153.2545 C   0  0  0  0  0  0  0  0  0  0  0  0
  145.9011  137.3238  152.1060 C   0  0  0  0  0  0  0  0  0  0  0  0
  145.7148  136.4149  151.0466 C   0  0  0  0  0  0  0  0  0  0  0  0
  144.7047  135.4389  151.1243 C   0  0  0  0  0  0  0  0  0  0  0  0
  143.8810  135.3724  152.2628 C   0  0  0  0  0  0  0  0  0  0  0  0
  144.0644  136.2816  153.3228 C   0  0  0  0  0  0  0  0  0  0  0  0
  151.1395  141.5114  156.8606 C   0  0  0  0  0  0  0  0  0  0  0  0
  150.6949  142.7688  157.3310 C   0  0  0  0  0  0  0  0  0  0  0  0
  151.1484  143.2740  158.5650 C   0  0  0  0  0  0  0  0  0  0  0  0
  152.0535  142.5290  159.3431 C   0  0  0  0  0  0  0  0  0  0  0  0
  152.5073  141.2790  158.8840 C   0  0  0  0  0  0  0  0  0  0  0  0
  152.0554  140.7726  157.6500 C   0  0  0  0  0  0  0  0  0  0  0  0
  142.9309  145.4457  157.3348 H   0  0  0  0  0  0  0  0  0  0  0  0
  149.0488  141.6557  153.1038 H   0  0  0  0  0  0  0  0  0  0  0  0
  148.9552  140.1065  153.9340 H   0  0  0  0  0  0  0  0  0  0  0  0
  146.7736  141.7814  153.4358 H   0  0  0  0  0  0  0  0  0  0  0  0
  146.1662  142.2726  157.0978 H   0  0  0  0  0  0  0  0  0  0  0  0
  145.4775  143.6168  153.6758 H   0  0  0  0  0  0  0  0  0  0  0  0
  144.0619  145.4899  153.2549 H   0  0  0  0  0  0  0  0  0  0  0  0
  144.9290  140.3604  156.4123 H   0  0  0  0  0  0  0  0  0  0  0  0
  144.5640  140.7030  153.7866 H   0  0  0  0  0  0  0  0  0  0  0  0
  147.1368  139.8435  155.7646 H   0  0  0  0  0  0  0  0  0  0  0  0
  146.6773  138.0703  152.0198 H   0  0  0  0  0  0  0  0  0  0  0  0
  146.3460  136.4700  150.1719 H   0  0  0  0  0  0  0  0  0  0  0  0
  144.5613  134.7427  150.3111 H   0  0  0  0  0  0  0  0  0  0  0  0
  143.1051  134.6237  152.3236 H   0  0  0  0  0  0  0  0  0  0  0  0
  143.4129  136.2053  154.1808 H   0  0  0  0  0  0  0  0  0  0  0  0
  149.9949  143.3561  156.7541 H   0  0  0  0  0  0  0  0  0  0  0  0
  150.7987  144.2338  158.9160 H   0  0  0  0  0  0  0  0  0  0  0  0
  152.3985  142.9155  160.2907 H   0  0  0  0  0  0  0  0  0  0  0  0
  153.1992  140.7038  159.4815 H   0  0  0  0  0  0  0  0  0  0  0  0
  152.4180  139.8062  157.3317 H   0  0  0  0  0  0  0  0  0  0  0  0
  1  2  2  0  0  0  0
  2  3  1  0  0  0  0
  2 28  1  0  0  0  0
  3  4  1  0  0  0  0
  4  5  1  0  0  0  0
  4 35  1  0  0  0  0
  4 36  1  0  0  0  0
  5 18  1  0  0  0  0
  5  6  1  0  0  0  0
  5 37  1  0  0  0  0
  6  7  1  0  0  0  0
  7  8  1  0  0  0  0
  7 16  1  0  0  0  0
  7 38  1  0  0  0  0
  8 14  1  0  0  0  0
  8  9  1  0  0  0  0
  9 10  2  0  0  0  0
  9 39  1  0  0  0  0
 10 11  1  0  0  0  0
 10 40  1  0  0  0  0
 11 12  2  0  0  0  0
 11 13  1  0  0  0  0
 13 34  1  0  0  0  0
 13 14  1  0  0  0  0
 14 15  2  0  0  0  0
 16 17  1  0  0  0  0
 16 18  1  0  0  0  0
 16 41  1  0  0  0  0
 17 42  1  0  0  0  0
 18 19  1  0  0  0  0
 18 43  1  0  0  0  0
 19 20  1  0  0  0  0
 20 21  2  0  0  0  0
 20 22  1  0  0  0  0
 22 27  1  0  0  0  0
 22 23  2  0  0  0  0
 23 24  1  0  0  0  0
 23 44  1  0  0  0  0
 24 25  2  0  0  0  0
 24 45  1  0  0  0  0
 25 26  1  0  0  0  0
 25 46  1  0  0  0  0
 26 27  2  0  0  0  0
 26 47  1  0  0  0  0
 27 48  1  0  0  0  0
 28 33  1  0  0  0  0
 28 29  2  0  0  0  0
 29 30  1  0  0  0  0
 29 49  1  0  0  0  0
 30 31  2  0  0  0  0
 30 50  1  0  0  0  0
 31 32  1  0  0  0  0
 31 51  1  0  0  0  0
 32 33  2  0  0  0  0
 32 52  1  0  0  0  0
 33 53  1  0  0  0  0
M  END
> <s_m_source_file>
AV-unprocessed.smi

> <i_m_source_file_index>
99

> <i_lp_mmshare_version>
43012

> <i_f3d_flags>
0

> <s_epik_input>
W2NIXTFbY0hdW2NIXVtjSF1bY0hdYzFDKD1PKU9bQ0gyXVtDQEBIXTJPW0NAQEhdKG4zW2NIXVtjSF1jKD1PKVtuSF1jMz1PKVtDQEBIXShbT0hdKVtDQEhdMk9DKD1PKWM0W2NIXVtjSF1bY0hdW2NIXVtjSF00

> <s_epik_cmdline>
J2VwaWtfcHl0aG9uJywgJy1waCcsICc3LjAnLCAnLXRuJywgJzgnLCAnLW1hJywgJzIwMCcsICctbWV0YWxfYmluZGluZycsICctaW1hZScsICc8aW5maWxlLm1hZT4nLCAnLW9tYWUnLCAnPG91dGZpbGUubWFlPic=

> <r_lp_tautomer_probability>
1

> <r_epik_Ionization_Penalty>
0.00454555

> <r_epik_Ionization_Penalty_Charging>
0.0045191

> <r_epik_Ionization_Penalty_Neutral>
2.64449e-05

> <r_epik_State_Penalty>
-0

> <r_epik_Charging_Adjusted_Penalty>
0.0045191

> <i_epik_Tot_Q>
0

> <i_epik_Tot_abs_Q>
0

> <r_epik_Metal_State_Penalty>
1.27877

> <b_epik_Metal_Only>
0

> <s_epik_Chemistry_Notes>
This compound has an ester and may undergo hydrolysis at high or low pH. This compound contains an acetal/aminal-like group ( X-CH(R)-Y where X, Y are N, S, or O) that may be acid/base labile, releasing an aldehyde.

> <s_lp_Force_Field>
OPLS_2005

> <r_lp_Energy>
44.6164

> <b_lp_Chiralities_Consistent>
1

> <s_lp_Variant>
AV-unprocessed.smi:99-1

> <Gold.Version>
5.8.1

> <Gold.Id.Protein>
6NUR|6NUR_protein|mol2

> <Gold.PLP.Fitness>
46.9029

> <Gold.PLP.PLP>
-45.3210

> <Gold.PLP.part.hbond>
-1.3514

> <Gold.PLP.part.metal>
0.0000

> <Gold.PLP.part.buried>
-5.5929

> <Gold.PLP.part.nonpolar>
-39.1195

> <Gold.PLP.part.repulsive>
1.6970

> <Gold.PLP.ligand.clash>
0.0000

> <Gold.PLP.ligand.torsion>
1.6657

> <Gold.PLP.Chemscore.Hbond>
1.5440

> <Gold.PLP.Chemscore.CHOScore>
0.0000

> <Gold.PLP.Chemscore.Metal>
0.0000

> <Gold.Chemscore.Hbonds>
donor molecule, donor type, donor heavy atom, donor atom, acceptor molecule, acceptor atom, score
      L1  H    17    42       P1 10175  0.51
      P1  H  7989  7998       L1     1  1.00

> <Gold.PLP.Chemscore.Internal.Correction>
0.2812

> <Gold.Rescore>
     Score         DG    S(hbond)    S(metal)    S(lipo)     H(rot)  DE(clash)    DE(int)     intcor
     10.28     -14.56       1.47        0.00     105.34       3.19       0.41       3.87       ----

> <Gold.Chemscore.Fitness>
10.2833

> <Gold.Chemscore.DG>
-14.5609

> <Gold.Chemscore.ZeroCoef>
-5.4800

> <Gold.Chemscore.Hbond>
1.4742

> <Gold.Chemscore.Metal>
0.0000

> <Gold.Chemscore.Lipo>
105.3351

> <Gold.Chemscore.Internal_Hbond>
0.0000

> <Gold.Chemscore.DEClash>
0.4061

> <Gold.Chemscore.DEInternal>
3.8716

> <Gold.Chemscore.Rot>
3.1903

> <Gold.Chemscore.Internal.Correction>
   9.000000E+99

> <Gold.Chemscore.Hbonds>
donor molecule, donor type, donor heavy atom, donor atom, acceptor molecule, acceptor atom, score
      L1  H    17    42       P1 10175  0.50
      P1  H  7989  7998       L1     1  0.30

> <Gold.Chemscore.Hbond.Weighted>
-4.9238

> <Gold.Chemscore.Metal.Weighted>
-0.0000

> <Gold.Chemscore.Lipo.Weighted>
-12.3242

> <Gold.Chemscore.Internal_Hbond.Weighted>
0.0000

> <Gold.Chemscore.DEClash.Weighted>
0.4061

> <Gold.Chemscore.DEInternal.Weighted>
3.8716

> <Gold.Chemscore.Rot.Weighted>
8.1671

> <Gold.Chemscore.Internal.Correction.Weighted>
   9.000000E+99

> <Gold.Protein.RotatedTorsions>
[ 6907 6896 6895 6894 ] final  113.26 input  -60.11 | X-H torsion
[ 7974 7965 7964 7962 ] final  148.39 input  175.53 | X-H torsion
[ 8008 7997 7996 7995 ] final  155.54 input   59.86 | X-H torsion
[ 10167 10162 10161 10158 ] final   30.28 input  -65.29 | X-H torsion
[ 10718 10713 10712 10709 ] final  108.12 input   66.30 | X-H torsion
[ 10763 10752 10751 10750 ] final  -74.68 input  -60.55 | X-H torsion
[ 11005 11000 10999 10996 ] final   17.99 input  -57.11 | X-H torsion

> <Gold.Protein.ActiveResidues>
 VAL166  LYS551  ARG553  GLY616  TRP617  ASP618  TYR619  PRO620  LYS621  CYS622 
 ASP623  PHE694  ASN695  SER759  ASP760  ASP761  ALA762  ILE779  LEU786  VAL792 
 PHE793  MET794  SER795  GLU796  ALA797  LYS798  CYS799  TRP800  GLU811  SER814 

> <Gold.Protein.RotatedAtoms>
  152.4871  133.8401  159.7147 H   0  0  0  0  0  0  0  0  0  0  0  0  # atno 6907 bound_to 6896
  150.8966  133.7163  159.2896 H   0  0  0  0  0  0  0  0  0  0  0  0  # atno 6908 bound_to 6896
  151.4618  135.1043  159.9779 H   0  0  0  0  0  0  0  0  0  0  0  0  # atno 6909 bound_to 6896
  144.8517  139.6148  143.5970 H   0  0  0  0  0  0  0  0  0  0  0  0  # atno 7974 bound_to 7965
  156.2472  140.1936  156.6818 H   0  0  0  0  0  0  0  0  0  0  0  0  # atno 8008 bound_to 7997
  154.6316  140.0595  156.9765 H   0  0  0  0  0  0  0  0  0  0  0  0  # atno 8009 bound_to 7997
  155.1701  140.3267  155.4397 H   0  0  0  0  0  0  0  0  0  0  0  0  # atno 8010 bound_to 7997
  140.4692  144.0789  150.6232 H   0  0  0  0  0  0  0  0  0  0  0  0  # atno 10167 bound_to 10162
  157.6599  131.0887  150.6259 H   0  0  0  0  0  0  0  0  0  0  0  0  # atno 10718 bound_to 10713
  154.4763  135.5856  153.6357 H   0  0  0  0  0  0  0  0  0  0  0  0  # atno 10763 bound_to 10752
  152.9841  135.6079  154.3303 H   0  0  0  0  0  0  0  0  0  0  0  0  # atno 10764 bound_to 10752
  154.3189  135.2844  155.2508 H   0  0  0  0  0  0  0  0  0  0  0  0  # atno 10765 bound_to 10752
  140.4298  134.1432  155.7679 H   0  0  0  0  0  0  0  0  0  0  0  0  # atno 11005 bound_to 11000
  146.2790  139.6828  142.9242 LP  0  0  0  0  0  0  0  0  0  0  0  0  # atno 17320 bound_to 7965
  145.4486  141.0427  143.2817 LP  0  0  0  0  0  0  0  0  0  0  0  0  # atno 17321 bound_to 7965
  140.3999  143.2709  151.9961 LP  0  0  0  0  0  0  0  0  0  0  0  0  # atno 17342 bound_to 10162
  139.4816  144.6007  151.7611 LP  0  0  0  0  0  0  0  0  0  0  0  0  # atno 17343 bound_to 10162
  156.6562  130.4499  149.5703 LP  0  0  0  0  0  0  0  0  0  0  0  0  # atno 17370 bound_to 10713
  156.2101  130.6673  151.1260 LP  0  0  0  0  0  0  0  0  0  0  0  0  # atno 17371 bound_to 10713
  141.1750  133.8532  157.1450 LP  0  0  0  0  0  0  0  0  0  0  0  0  # atno 17394 bound_to 11000
  140.0142  134.9975  157.0458 LP  0  0  0  0  0  0  0  0  0  0  0  0  # atno 17395 bound_to 11000

$$$$
