AV-unprocessed.smi:1056|AV-procd|sdf|4640|dock9
  -GOLD-   22720 3143D 1   1.00000     0.00000
 Structure written by MMmdl.
 45 47  0  0  0  0  0  0  0  0  2 V2000
  152.7880  142.9274  161.3189 C   0  0  0  0  0  0  0  0  0  0  0  0
  152.2353  142.4780  159.9770 C   0  0  0  0  0  0  0  0  0  0  0  0
  152.5382  141.1731  159.5265 C   0  0  0  0  0  0  0  0  0  0  0  0
  152.0215  140.7920  158.2939 C   0  0  0  0  0  0  0  0  0  0  0  0
  152.1355  139.5948  157.5838 N   0  3  0  0  0  0  0  0  0  0  0  0
  151.4509  139.6955  156.4107 C   0  0  0  0  0  0  0  0  0  0  0  0
  150.9025  140.9397  156.3622 N   0  0  0  0  0  0  0  0  0  0  0  0
  150.0732  141.5664  155.3242 C   0  0  0  0  0  0  0  0  0  0  0  0
  149.2029  140.5523  154.5533 C   0  0  2  0  0  0  0  0  0  0  0  0
  150.0126  139.9293  153.5734 O   0  0  0  0  0  0  0  0  0  0  0  0
  147.9954  141.2291  153.8652 C   0  0  0  0  0  0  0  0  0  0  0  0
  147.1513  142.0493  154.7402 N   0  0  0  0  0  0  0  0  0  0  0  0
  146.5358  141.2921  155.8308 C   0  0  0  0  0  0  0  0  0  0  0  0
  145.7644  142.2048  156.7968 C   0  0  0  0  0  0  0  0  0  0  0  0
  144.9108  143.1543  156.0906 N   0  0  0  0  0  0  0  0  0  0  0  0
  145.0588  143.4980  154.8009 C   0  0  0  0  0  0  0  0  0  0  0  0
  144.3439  144.3463  154.2721 O   0  0  0  0  0  0  0  0  0  0  0  0
  146.1353  142.7793  153.9653 C   0  0  0  0  0  0  0  0  0  0  0  0
  151.2300  141.6589  157.5159 C   0  0  0  0  0  0  0  0  0  0  0  0
  150.9199  142.9468  157.9451 C   0  0  0  0  0  0  0  0  0  0  0  0
  151.4345  143.3528  159.1973 C   0  0  0  0  0  0  0  0  0  0  0  0
  151.1134  144.7526  159.6931 C   0  0  0  0  0  0  0  0  0  0  0  0
  153.3881  142.1455  161.7855 H   0  0  0  0  0  0  0  0  0  0  0  0
  151.9770  143.1775  162.0031 H   0  0  0  0  0  0  0  0  0  0  0  0
  153.4225  143.8056  161.1967 H   0  0  0  0  0  0  0  0  0  0  0  0
  153.1459  140.5012  160.1148 H   0  0  0  0  0  0  0  0  0  0  0  0
  151.3575  138.9273  155.6566 H   0  0  0  0  0  0  0  0  0  0  0  0
  149.4575  142.3331  155.7962 H   0  0  0  0  0  0  0  0  0  0  0  0
  150.7446  142.0867  154.6394 H   0  0  0  0  0  0  0  0  0  0  0  0
  148.8508  139.7901  155.2497 H   0  0  0  0  0  0  0  0  0  0  0  0
  149.6401  140.1028  152.7225 H   0  0  0  0  0  0  0  0  0  0  0  0
  148.3912  141.8847  153.0876 H   0  0  0  0  0  0  0  0  0  0  0  0
  147.3930  140.4916  153.3309 H   0  0  0  0  0  0  0  0  0  0  0  0
  145.8629  140.5366  155.4207 H   0  0  0  0  0  0  0  0  0  0  0  0
  147.2901  140.7560  156.4053 H   0  0  0  0  0  0  0  0  0  0  0  0
  145.1579  141.6106  157.4804 H   0  0  0  0  0  0  0  0  0  0  0  0
  146.4657  142.7744  157.4074 H   0  0  0  0  0  0  0  0  0  0  0  0
  144.1876  143.6125  156.6259 H   0  0  0  0  0  0  0  0  0  0  0  0
  146.6210  143.5122  153.3195 H   0  0  0  0  0  0  0  0  0  0  0  0
  145.6075  142.0878  153.3063 H   0  0  0  0  0  0  0  0  0  0  0  0
  150.3111  143.6114  157.3500 H   0  0  0  0  0  0  0  0  0  0  0  0
  150.4493  145.2774  159.0054 H   0  0  0  0  0  0  0  0  0  0  0  0
  152.0256  145.3418  159.7909 H   0  0  0  0  0  0  0  0  0  0  0  0
  150.6197  144.7134  160.6643 H   0  0  0  0  0  0  0  0  0  0  0  0
  152.6415  138.7684  157.8751 H   0  0  0  0  0  0  0  0  0  0  0  0
  1  2  1  0  0  0  0
  1 23  1  0  0  0  0
  1 24  1  0  0  0  0
  1 25  1  0  0  0  0
  2 21  1  0  0  0  0
  2  3  2  0  0  0  0
  3  4  1  0  0  0  0
  3 26  1  0  0  0  0
  4 19  2  0  0  0  0
  4  5  1  0  0  0  0
  5  6  2  0  0  0  0
  5 45  1  0  0  0  0
  6  7  1  0  0  0  0
  6 27  1  0  0  0  0
  7  8  1  0  0  0  0
  7 19  1  0  0  0  0
  8  9  1  0  0  0  0
  8 28  1  0  0  0  0
  8 29  1  0  0  0  0
  9 10  1  0  0  0  0
  9 11  1  0  0  0  0
  9 30  1  0  0  0  0
 10 31  1  0  0  0  0
 11 12  1  0  0  0  0
 11 32  1  0  0  0  0
 11 33  1  0  0  0  0
 12 18  1  0  0  0  0
 12 13  1  0  0  0  0
 13 14  1  0  0  0  0
 13 34  1  0  0  0  0
 13 35  1  0  0  0  0
 14 15  1  0  0  0  0
 14 36  1  0  0  0  0
 14 37  1  0  0  0  0
 15 16  1  0  0  0  0
 15 38  1  0  0  0  0
 16 17  2  0  0  0  0
 16 18  1  0  0  0  0
 18 39  1  0  0  0  0
 18 40  1  0  0  0  0
 19 20  1  0  0  0  0
 20 21  2  0  0  0  0
 20 41  1  0  0  0  0
 21 22  1  0  0  0  0
 22 42  1  0  0  0  0
 22 43  1  0  0  0  0
 22 44  1  0  0  0  0
M  CHG  1   5   1
M  END
> <s_m_source_file>
AV-unprocessed.smi

> <i_m_source_file_index>
1056

> <i_lp_mmshare_version>
43012

> <i_f3d_flags>
0

> <s_epik_input>
W0NIM11jKFtjSF0xKWMoW0NIM10pW2NIXWMoYzEyKW4oW2NIXW4yKVtDSDJdW0NASF0oW09IXSlbQ0gyXU4zW0NIMl1bQ0gyXVtOSF1DKD1PKVtDSDJdMw==

> <s_epik_cmdline>
J2VwaWtfcHl0aG9uJywgJy1waCcsICc3LjAnLCAnLXRuJywgJzgnLCAnLW1hJywgJzIwMCcsICctbWV0YWxfYmluZGluZycsICctaW1hZScsICc8aW5maWxlLm1hZT4nLCAnLW9tYWUnLCAnPG91dGZpbGUubWFlPic=

> <r_epik_Ionization_Penalty>
2.47196

> <r_epik_Ionization_Penalty_Charging>
1.21809

> <r_epik_Ionization_Penalty_Neutral>
1.25387

> <r_epik_State_Penalty>
2.6255

> <r_epik_Charging_Adjusted_Penalty>
3.84359

> <i_epik_Tot_Q>
1

> <i_epik_Tot_abs_Q>
1

> <r_epik_Metal_State_Penalty>
2.76698

> <b_epik_Metal_Only>
0

> <s_lp_Force_Field>
OPLS_2005

> <r_lp_Energy>
35.3562

> <b_lp_Chiralities_Consistent>
1

> <s_lp_Variant>
AV-unprocessed.smi:1056-11

> <Gold.Version>
5.8.1

> <Gold.Id.Protein>
6NUR|6NUR_protein|mol2

> <Gold.PLP.Fitness>
50.1619

> <Gold.PLP.PLP>
-46.1165

> <Gold.PLP.part.hbond>
-1.7151

> <Gold.PLP.part.metal>
0.0000

> <Gold.PLP.part.buried>
-6.5490

> <Gold.PLP.part.nonpolar>
-37.9441

> <Gold.PLP.part.repulsive>
0.3793

> <Gold.PLP.ligand.clash>
0.0000

> <Gold.PLP.ligand.torsion>
0.6133

> <Gold.PLP.Chemscore.Hbond>
1.7520

> <Gold.PLP.Chemscore.CHOScore>
0.0000

> <Gold.PLP.Chemscore.Metal>
0.0000

> <Gold.Chemscore.Hbonds>
donor molecule, donor type, donor heavy atom, donor atom, acceptor molecule, acceptor atom, score
      L1  H    10    31       P1  7957  1.00
      P1  H  7989  7998       L1    10  0.74

> <Gold.PLP.Chemscore.Internal.Correction>
0.0160

> <Gold.Rescore>
     Score         DG    S(hbond)    S(metal)    S(lipo)     H(rot)  DE(clash)    DE(int)     intcor
     15.23     -16.02       1.03        0.00     112.59       2.37       0.11       0.69       ----

> <Gold.Chemscore.Fitness>
15.2269

> <Gold.Chemscore.DG>
-16.0228

> <Gold.Chemscore.ZeroCoef>
-5.4800

> <Gold.Chemscore.Hbond>
1.0309

> <Gold.Chemscore.Metal>
0.0000

> <Gold.Chemscore.Lipo>
112.5906

> <Gold.Chemscore.Internal_Hbond>
0.0000

> <Gold.Chemscore.DEClash>
0.1075

> <Gold.Chemscore.DEInternal>
0.6885

> <Gold.Chemscore.Rot>
2.3724

> <Gold.Chemscore.Internal.Correction>
   9.000000E+99

> <Gold.Chemscore.Hbonds>
donor molecule, donor type, donor heavy atom, donor atom, acceptor molecule, acceptor atom, score
      L1  H    10    31       P1  7957  0.94
      P1  H  7989  7998       L1    10  0.14

> <Gold.Chemscore.Hbond.Weighted>
-3.4431

> <Gold.Chemscore.Metal.Weighted>
-0.0000

> <Gold.Chemscore.Lipo.Weighted>
-13.1731

> <Gold.Chemscore.Internal_Hbond.Weighted>
0.0000

> <Gold.Chemscore.DEClash.Weighted>
0.1075

> <Gold.Chemscore.DEInternal.Weighted>
0.6885

> <Gold.Chemscore.Rot.Weighted>
6.0734

> <Gold.Chemscore.Internal.Correction.Weighted>
   9.000000E+99

> <Gold.Protein.RotatedTorsions>
[ 6907 6896 6895 6894 ] final  115.00 input  -60.11 | X-H torsion
[ 7974 7965 7964 7962 ] final  -81.24 input  175.53 | X-H torsion
[ 8008 7997 7996 7995 ] final  -31.07 input   59.86 | X-H torsion
[ 10167 10162 10161 10158 ] final -172.33 input  -65.29 | X-H torsion
[ 10718 10713 10712 10709 ] final   72.22 input   66.30 | X-H torsion
[ 10763 10752 10751 10750 ] final -141.34 input  -60.55 | X-H torsion
[ 11005 11000 10999 10996 ] final   22.77 input  -57.11 | X-H torsion

> <Gold.Protein.ActiveResidues>
 VAL166  LYS551  ARG553  GLY616  TRP617  ASP618  TYR619  PRO620  LYS621  CYS622 
 ASP623  PHE694  ASN695  SER759  ASP760  ASP761  ALA762  ILE779  LEU786  VAL792 
 PHE793  MET794  SER795  GLU796  ALA797  LYS798  CYS799  TRP800  GLU811  SER814 

> <Gold.Protein.RotatedAtoms>
  152.4768  133.8159  159.7027 H   0  0  0  0  0  0  0  0  0  0  0  0  # atno 6907 bound_to 6896
  150.8791  133.7388  159.2944 H   0  0  0  0  0  0  0  0  0  0  0  0  # atno 6908 bound_to 6896
  151.4898  135.1060  159.9852 H   0  0  0  0  0  0  0  0  0  0  0  0  # atno 6909 bound_to 6896
  145.5493  140.9499  143.1508 H   0  0  0  0  0  0  0  0  0  0  0  0  # atno 7974 bound_to 7965
  154.4227  140.1774  156.1508 H   0  0  0  0  0  0  0  0  0  0  0  0  # atno 8008 bound_to 7997
  155.9916  140.3368  155.6734 H   0  0  0  0  0  0  0  0  0  0  0  0  # atno 8009 bound_to 7997
  155.6364  140.0675  157.2623 H   0  0  0  0  0  0  0  0  0  0  0  0  # atno 8010 bound_to 7997
  139.5751  144.1552  152.1439 H   0  0  0  0  0  0  0  0  0  0  0  0  # atno 10167 bound_to 10162
  157.6490  130.9568  150.0898 H   0  0  0  0  0  0  0  0  0  0  0  0  # atno 10718 bound_to 10713
  154.8548  135.3527  154.5852 H   0  0  0  0  0  0  0  0  0  0  0  0  # atno 10763 bound_to 10752
  153.6463  135.6996  153.5229 H   0  0  0  0  0  0  0  0  0  0  0  0  # atno 10764 bound_to 10752
  153.2930  135.4229  155.1143 H   0  0  0  0  0  0  0  0  0  0  0  0  # atno 10765 bound_to 10752
  140.3770  134.1961  155.7664 H   0  0  0  0  0  0  0  0  0  0  0  0  # atno 11005 bound_to 11000
  144.7537  139.7127  143.7262 LP  0  0  0  0  0  0  0  0  0  0  0  0  # atno 17320 bound_to 7965
  146.1928  139.5177  142.9794 LP  0  0  0  0  0  0  0  0  0  0  0  0  # atno 17321 bound_to 7965
  140.1093  144.5471  150.6936 LP  0  0  0  0  0  0  0  0  0  0  0  0  # atno 17342 bound_to 10162
  140.7034  143.2450  151.4798 LP  0  0  0  0  0  0  0  0  0  0  0  0  # atno 17343 bound_to 10162
  156.1851  130.3652  149.8984 LP  0  0  0  0  0  0  0  0  0  0  0  0  # atno 17370 bound_to 10713
  156.6927  130.8902  151.3590 LP  0  0  0  0  0  0  0  0  0  0  0  0  # atno 17371 bound_to 10713
  141.1936  133.8147  157.0792 LP  0  0  0  0  0  0  0  0  0  0  0  0  # atno 17394 bound_to 11000
  140.0508  134.9806  157.1132 LP  0  0  0  0  0  0  0  0  0  0  0  0  # atno 17395 bound_to 11000

$$$$
