AV-unprocessed.smi:3010|AV-procd|sdf|11455|dock4
  -GOLD-   2272016383D 1   1.00000     0.00000
 Structure written by MMmdl.
 38 40  0  0  0  0  0  0  0  0  1 V2000
  151.4261  145.6228  160.2139 C   0  0  0  0  0  0  0  0  0  0  0  0
  151.7379  144.1946  160.0169 N   0  0  0  0  0  0  0  0  0  0  0  0
  151.3852  143.6125  158.8276 C   0  0  0  0  0  0  0  0  0  0  0  0
  150.8233  144.1913  157.8965 O   0  0  0  0  0  0  0  0  0  0  0  0
  151.7353  142.1927  158.7370 C   0  0  0  0  0  0  0  0  0  0  0  0
  152.3534  141.5189  159.7362 C   0  0  0  0  0  0  0  0  0  0  0  0
  152.5680  140.1886  159.3935 N   0  0  0  0  0  0  0  0  0  0  0  0
  152.0482  140.1312  158.1662 C   0  0  0  0  0  0  0  0  0  0  0  0
  151.5285  141.2855  157.7002 N   0  0  0  0  0  0  0  0  0  0  0  0
  150.9042  141.4921  156.4026 C   0  0  0  0  0  0  0  0  0  0  0  0
  150.5546  140.1697  155.6914 C   0  0  2  0  0  0  0  0  0  0  0  0
  151.6692  139.7114  154.9495 O   0  0  0  0  0  0  0  0  0  0  0  0
  149.3107  140.3217  154.8302 C   0  0  0  0  0  0  0  0  0  0  0  0
  148.7196  139.1831  154.2416 C   0  0  0  0  0  0  0  0  0  0  0  0
  147.5618  139.3132  153.4500 C   0  0  0  0  0  0  0  0  0  0  0  0
  146.9867  140.5821  153.2449 C   0  0  0  0  0  0  0  0  0  0  0  0
  147.5689  141.7211  153.8334 C   0  0  0  0  0  0  0  0  0  0  0  0
  148.7267  141.5916  154.6250 C   0  0  0  0  0  0  0  0  0  0  0  0
  152.6772  142.2161  160.9264 N   0  0  0  0  0  0  0  0  0  0  0  0
  153.3460  141.4551  161.9857 C   0  0  0  0  0  0  0  0  0  0  0  0
  152.3680  143.5477  161.0676 C   0  0  0  0  0  0  0  0  0  0  0  0
  152.6453  144.1517  162.1073 O   0  0  0  0  0  0  0  0  0  0  0  0
  150.9545  146.1118  159.3610 H   0  0  0  0  0  0  0  0  0  0  0  0
  152.3360  146.1863  160.4271 H   0  0  0  0  0  0  0  0  0  0  0  0
  150.7480  145.7490  161.0595 H   0  0  0  0  0  0  0  0  0  0  0  0
  152.0415  139.2188  157.5880 H   0  0  0  0  0  0  0  0  0  0  0  0
  150.0103  142.1005  156.5421 H   0  0  0  0  0  0  0  0  0  0  0  0
  151.5806  142.0842  155.7843 H   0  0  0  0  0  0  0  0  0  0  0  0
  150.3534  139.4052  156.4424 H   0  0  0  0  0  0  0  0  0  0  0  0
  152.4554  139.9283  155.4272 H   0  0  0  0  0  0  0  0  0  0  0  0
  149.1511  138.2049  154.3969 H   0  0  0  0  0  0  0  0  0  0  0  0
  147.1141  138.4389  153.0008 H   0  0  0  0  0  0  0  0  0  0  0  0
  146.0985  140.6816  152.6385 H   0  0  0  0  0  0  0  0  0  0  0  0
  147.1270  142.6945  153.6791 H   0  0  0  0  0  0  0  0  0  0  0  0
  149.1632  142.4707  155.0762 H   0  0  0  0  0  0  0  0  0  0  0  0
  153.5707  142.0321  162.8830 H   0  0  0  0  0  0  0  0  0  0  0  0
  154.2893  141.0530  161.6146 H   0  0  0  0  0  0  0  0  0  0  0  0
  152.7216  140.6142  162.2895 H   0  0  0  0  0  0  0  0  0  0  0  0
  1  2  1  0  0  0  0
  1 23  1  0  0  0  0
  1 24  1  0  0  0  0
  1 25  1  0  0  0  0
  2 21  1  0  0  0  0
  2  3  1  0  0  0  0
  3  4  2  0  0  0  0
  3  5  1  0  0  0  0
  5  9  1  0  0  0  0
  5  6  2  0  0  0  0
  6  7  1  0  0  0  0
  6 19  1  0  0  0  0
  7  8  2  0  0  0  0
  8  9  1  0  0  0  0
  8 26  1  0  0  0  0
  9 10  1  0  0  0  0
 10 11  1  0  0  0  0
 10 27  1  0  0  0  0
 10 28  1  0  0  0  0
 11 12  1  0  0  0  0
 11 13  1  0  0  0  0
 11 29  1  0  0  0  0
 12 30  1  0  0  0  0
 13 18  1  0  0  0  0
 13 14  2  0  0  0  0
 14 15  1  0  0  0  0
 14 31  1  0  0  0  0
 15 16  2  0  0  0  0
 15 32  1  0  0  0  0
 16 17  1  0  0  0  0
 16 33  1  0  0  0  0
 17 18  2  0  0  0  0
 17 34  1  0  0  0  0
 18 35  1  0  0  0  0
 19 20  1  0  0  0  0
 19 21  1  0  0  0  0
 20 36  1  0  0  0  0
 20 37  1  0  0  0  0
 20 38  1  0  0  0  0
 21 22  2  0  0  0  0
M  END
> <s_m_source_file>
AV-unprocessed.smi

> <i_m_source_file_index>
3010

> <i_lp_mmshare_version>
43012

> <i_f3d_flags>
0

> <s_epik_input>
Tz1jMW4oW0NIM10pYyg9TyluKFtDSDNdKWMoYzEyKW5bY0hdbjJbQ0gyXVtDQEhdKFtPSF0pYzNbY0hdW2NIXVtjSF1bY0hdW2NIXTM=

> <s_epik_cmdline>
J2VwaWtfcHl0aG9uJywgJy1waCcsICc3LjAnLCAnLXRuJywgJzgnLCAnLW1hJywgJzIwMCcsICctbWV0YWxfYmluZGluZycsICctaW1hZScsICc8aW5maWxlLm1hZT4nLCAnLW9tYWUnLCAnPG91dGZpbGUubWFlPic=

> <r_lp_tautomer_probability>
1

> <r_epik_Ionization_Penalty>
1.43747e-06

> <r_epik_Ionization_Penalty_Charging>
3.74189e-09

> <r_epik_Ionization_Penalty_Neutral>
1.43373e-06

> <r_epik_State_Penalty>
-0

> <r_epik_Charging_Adjusted_Penalty>
3.74189e-09

> <i_epik_Tot_Q>
0

> <i_epik_Tot_abs_Q>
0

> <r_epik_Metal_State_Penalty>
-0

> <b_epik_Metal_Only>
0

> <s_lp_Force_Field>
OPLS_2005

> <r_lp_Energy>
35.6617

> <b_lp_Chiralities_Consistent>
1

> <s_lp_Variant>
AV-unprocessed.smi:3010-1

> <Gold.Version>
5.8.1

> <Gold.Id.Protein>
6NUR|6NUR_protein|mol2

> <Gold.PLP.Fitness>
50.8054

> <Gold.PLP.PLP>
-49.0432

> <Gold.PLP.part.hbond>
-1.0000

> <Gold.PLP.part.metal>
0.0000

> <Gold.PLP.part.buried>
-3.2033

> <Gold.PLP.part.nonpolar>
-46.5343

> <Gold.PLP.part.repulsive>
1.5091

> <Gold.PLP.ligand.clash>
0.0000

> <Gold.PLP.ligand.torsion>
0.6222

> <Gold.PLP.Chemscore.Hbond>
0.9920

> <Gold.PLP.Chemscore.CHOScore>
0.0000

> <Gold.PLP.Chemscore.Metal>
0.0000

> <Gold.Chemscore.Hbonds>
donor molecule, donor type, donor heavy atom, donor atom, acceptor molecule, acceptor atom, score
      P1  H  7989  7998       L1    12  1.00

> <Gold.PLP.Chemscore.Internal.Correction>
0.0305

> <Gold.Rescore>
     Score         DG    S(hbond)    S(metal)    S(lipo)     H(rot)  DE(clash)    DE(int)     intcor
     10.15     -11.94       0.52        0.00      87.24       2.15       1.15       0.65       ----

> <Gold.Chemscore.Fitness>
10.1460

> <Gold.Chemscore.DG>
-11.9413

> <Gold.Chemscore.ZeroCoef>
-5.4800

> <Gold.Chemscore.Hbond>
0.5243

> <Gold.Chemscore.Metal>
0.0000

> <Gold.Chemscore.Lipo>
87.2442

> <Gold.Chemscore.Internal_Hbond>
0.0000

> <Gold.Chemscore.DEClash>
1.1475

> <Gold.Chemscore.DEInternal>
0.6478

> <Gold.Chemscore.Rot>
2.1474

> <Gold.Chemscore.Internal.Correction>
   9.000000E+99

> <Gold.Chemscore.Hbonds>
donor molecule, donor type, donor heavy atom, donor atom, acceptor molecule, acceptor atom, score
      P1  H  7989  7998       L1    12  0.17

> <Gold.Chemscore.Hbond.Weighted>
-1.7511

> <Gold.Chemscore.Metal.Weighted>
-0.0000

> <Gold.Chemscore.Lipo.Weighted>
-10.2076

> <Gold.Chemscore.Internal_Hbond.Weighted>
0.0000

> <Gold.Chemscore.DEClash.Weighted>
1.1475

> <Gold.Chemscore.DEInternal.Weighted>
0.6478

> <Gold.Chemscore.Rot.Weighted>
5.4974

> <Gold.Chemscore.Internal.Correction.Weighted>
   9.000000E+99

> <Gold.Protein.RotatedTorsions>
[ 6907 6896 6895 6894 ] final -154.60 input  -60.11 | X-H torsion
[ 7974 7965 7964 7962 ] final  104.06 input  175.53 | X-H torsion
[ 8008 7997 7996 7995 ] final  -30.68 input   59.86 | X-H torsion
[ 10167 10162 10161 10158 ] final  112.04 input  -65.29 | X-H torsion
[ 10718 10713 10712 10709 ] final   73.73 input   66.30 | X-H torsion
[ 10763 10752 10751 10750 ] final -172.27 input  -60.55 | X-H torsion
[ 11005 11000 10999 10996 ] final  168.60 input  -57.11 | X-H torsion

> <Gold.Protein.ActiveResidues>
 VAL166  LYS551  ARG553  GLY616  TRP617  ASP618  TYR619  PRO620  LYS621  CYS622 
 ASP623  PHE694  ASN695  SER759  ASP760  ASP761  ALA762  ILE779  LEU786  VAL792 
 PHE793  MET794  SER795  GLU796  ALA797  LYS798  CYS799  TRP800  GLU811  SER814 

> <Gold.Protein.RotatedAtoms>
  151.2599  133.4307  159.2615 H   0  0  0  0  0  0  0  0  0  0  0  0  # atno 6907 bound_to 6896
  151.0540  134.9692  159.8236 H   0  0  0  0  0  0  0  0  0  0  0  0  # atno 6908 bound_to 6896
  152.5387  134.2552  159.8967 H   0  0  0  0  0  0  0  0  0  0  0  0  # atno 6909 bound_to 6896
  145.3378  139.2470  143.3626 H   0  0  0  0  0  0  0  0  0  0  0  0  # atno 7974 bound_to 7965
  154.4241  140.1785  156.1445 H   0  0  0  0  0  0  0  0  0  0  0  0  # atno 8008 bound_to 7997
  155.9965  140.3364  155.6778 H   0  0  0  0  0  0  0  0  0  0  0  0  # atno 8009 bound_to 7997
  155.6302  140.0669  157.2642 H   0  0  0  0  0  0  0  0  0  0  0  0  # atno 8010 bound_to 7997
  139.6565  144.7129  151.1946 H   0  0  0  0  0  0  0  0  0  0  0  0  # atno 10167 bound_to 10162
  157.6561  130.9643  150.1110 H   0  0  0  0  0  0  0  0  0  0  0  0  # atno 10718 bound_to 10713
  154.6212  135.2875  155.0323 H   0  0  0  0  0  0  0  0  0  0  0  0  # atno 10763 bound_to 10752
  154.1518  135.6502  153.4969 H   0  0  0  0  0  0  0  0  0  0  0  0  # atno 10764 bound_to 10752
  153.0237  135.5357  154.7003 H   0  0  0  0  0  0  0  0  0  0  0  0  # atno 10765 bound_to 10752
  140.2889  134.7689  157.3822 H   0  0  0  0  0  0  0  0  0  0  0  0  # atno 11005 bound_to 11000
  146.3020  140.3969  142.8701 LP  0  0  0  0  0  0  0  0  0  0  0  0  # atno 17320 bound_to 7965
  144.8814  140.7405  143.5984 LP  0  0  0  0  0  0  0  0  0  0  0  0  # atno 17321 bound_to 7965
  140.7561  143.6063  150.8649 LP  0  0  0  0  0  0  0  0  0  0  0  0  # atno 17342 bound_to 10162
  139.9717  143.6050  152.2971 LP  0  0  0  0  0  0  0  0  0  0  0  0  # atno 17343 bound_to 10162
  156.2007  130.3660  149.8792 LP  0  0  0  0  0  0  0  0  0  0  0  0  # atno 17370 bound_to 10713
  156.6696  130.8815  151.3560 LP  0  0  0  0  0  0  0  0  0  0  0  0  # atno 17371 bound_to 10713
  140.1213  134.5215  155.8181 LP  0  0  0  0  0  0  0  0  0  0  0  0  # atno 17394 bound_to 11000
  141.2150  133.6757  156.6872 LP  0  0  0  0  0  0  0  0  0  0  0  0  # atno 17395 bound_to 11000

$$$$
