AV-unprocessed.smi:2224|AV-procd|sdf|8996|dock7
  -GOLD-   2272012203D 1   1.00000     0.00000
 Structure written by MMmdl.
 44 46  0  0  0  0  0  0  0  0  1 V2000
  153.5040  141.1947  160.0603 C   0  0  0  0  0  0  0  0  0  0  0  0
  152.6136  142.3622  159.6898 C   0  0  0  0  0  0  0  0  0  0  0  0
  152.8374  143.6430  160.2303 C   0  0  0  0  0  0  0  0  0  0  0  0
  151.9726  144.6866  159.8460 C   0  0  0  0  0  0  0  0  0  0  0  0
  152.1550  146.0886  160.3883 C   0  0  0  0  0  0  0  0  0  0  0  0
  150.9433  144.5133  158.9893 N   0  0  0  0  0  0  0  0  0  0  0  0
  150.7182  143.2839  158.4631 C   0  0  0  0  0  0  0  0  0  0  0  0
  149.6679  142.9968  157.5518 N   0  0  0  0  0  0  0  0  0  0  0  0
  148.9574  141.8616  157.4320 C   0  0  0  0  0  0  0  0  0  0  0  0
  149.1194  140.8431  158.1048 O   0  0  0  0  0  0  0  0  0  0  0  0
  148.0400  141.9682  156.4619 N   0  0  0  0  0  0  0  0  0  0  0  0
  147.1307  140.8990  156.0457 C   0  0  1  0  0  0  0  0  0  0  0  0
  145.8210  141.4325  155.4229 C   0  0  1  0  0  0  0  0  0  0  0  0
  145.4142  142.8845  155.4873 C   0  0  0  0  0  0  0  0  0  0  0  0
  145.8807  143.4278  154.1336 C   0  0  0  0  0  0  0  0  0  0  0  0
  146.8729  142.5035  153.6915 O   0  0  0  0  0  0  0  0  0  0  0  0
  146.4444  141.1934  154.0575 C   0  0  1  0  0  0  0  0  0  0  0  0
  147.5128  140.2690  154.6790 C   0  0  0  0  0  0  0  0  0  0  0  0
  148.9466  140.4394  154.1581 C   0  0  0  0  0  0  0  0  0  0  0  0
  147.1908  138.7759  154.5679 C   0  0  0  0  0  0  0  0  0  0  0  0
  151.5400  142.1832  158.7944 C   0  0  0  0  0  0  0  0  0  0  0  0
  154.3418  141.5154  160.6805 H   0  0  0  0  0  0  0  0  0  0  0  0
  153.9058  140.7250  159.1623 H   0  0  0  0  0  0  0  0  0  0  0  0
  152.9349  140.4480  160.6143 H   0  0  0  0  0  0  0  0  0  0  0  0
  153.6491  143.8212  160.9206 H   0  0  0  0  0  0  0  0  0  0  0  0
  153.0851  146.1770  160.9502 H   0  0  0  0  0  0  0  0  0  0  0  0
  151.3293  146.3462  161.0519 H   0  0  0  0  0  0  0  0  0  0  0  0
  152.1811  146.8131  159.5737 H   0  0  0  0  0  0  0  0  0  0  0  0
  149.4319  143.7418  156.9137 H   0  0  0  0  0  0  0  0  0  0  0  0
  147.9799  142.8376  155.9526 H   0  0  0  0  0  0  0  0  0  0  0  0
  146.9395  140.1563  156.8226 H   0  0  0  0  0  0  0  0  0  0  0  0
  144.9979  140.7390  155.6021 H   0  0  0  0  0  0  0  0  0  0  0  0
  144.3374  143.0059  155.6078 H   0  0  0  0  0  0  0  0  0  0  0  0
  145.8931  143.4100  156.3131 H   0  0  0  0  0  0  0  0  0  0  0  0
  145.0568  143.4312  153.4186 H   0  0  0  0  0  0  0  0  0  0  0  0
  146.2785  144.4406  154.2016 H   0  0  0  0  0  0  0  0  0  0  0  0
  145.7701  140.7346  153.3326 H   0  0  0  0  0  0  0  0  0  0  0  0
  149.0567  140.0395  153.1498 H   0  0  0  0  0  0  0  0  0  0  0  0
  149.6651  139.9243  154.7964 H   0  0  0  0  0  0  0  0  0  0  0  0
  149.2478  141.4862  154.1139 H   0  0  0  0  0  0  0  0  0  0  0  0
  147.2580  138.4260  153.5373 H   0  0  0  0  0  0  0  0  0  0  0  0
  146.1814  138.5548  154.9161 H   0  0  0  0  0  0  0  0  0  0  0  0
  147.8753  138.1742  155.1665 H   0  0  0  0  0  0  0  0  0  0  0  0
  151.3499  141.2084  158.3689 H   0  0  0  0  0  0  0  0  0  0  0  0
  1  2  1  0  0  0  0
  1 22  1  0  0  0  0
  1 23  1  0  0  0  0
  1 24  1  0  0  0  0
  2 21  1  0  0  0  0
  2  3  2  0  0  0  0
  3  4  1  0  0  0  0
  3 25  1  0  0  0  0
  4  5  1  0  0  0  0
  4  6  2  0  0  0  0
  5 26  1  0  0  0  0
  5 27  1  0  0  0  0
  5 28  1  0  0  0  0
  6  7  1  0  0  0  0
  7  8  1  0  0  0  0
  7 21  2  0  0  0  0
  8  9  1  0  0  0  0
  8 29  1  0  0  0  0
  9 10  2  0  0  0  0
  9 11  1  0  0  0  0
 11 12  1  0  0  0  0
 11 30  1  0  0  0  0
 12 18  1  0  0  0  0
 12 13  1  0  0  0  0
 12 31  1  0  0  0  0
 13 17  1  0  0  0  0
 13 14  1  0  0  0  0
 13 32  1  0  0  0  0
 14 15  1  0  0  0  0
 14 33  1  0  0  0  0
 14 34  1  0  0  0  0
 15 16  1  0  0  0  0
 15 35  1  0  0  0  0
 15 36  1  0  0  0  0
 16 17  1  0  0  0  0
 17 18  1  0  0  0  0
 17 37  1  0  0  0  0
 18 19  1  0  0  0  0
 18 20  1  0  0  0  0
 19 38  1  0  0  0  0
 19 39  1  0  0  0  0
 19 40  1  0  0  0  0
 20 41  1  0  0  0  0
 20 42  1  0  0  0  0
 20 43  1  0  0  0  0
 21 44  1  0  0  0  0
M  END
> <s_m_source_file>
AV-unprocessed.smi

> <i_m_source_file_index>
2224

> <i_lp_mmshare_version>
43012

> <i_f3d_flags>
0

> <s_epik_input>
W0NIM11jMVtjSF1jKFtDSDNdKW5jKFtjSF0xKVtOSF1DKD1PKVtOSF1bQ0BIXTJDKFtDSDNdKShbQ0gzXSlbQ0BIXShbQ0BASF0yMylPW0NIMl1bQ0gyXTM=

> <s_epik_cmdline>
J2VwaWtfcHl0aG9uJywgJy1waCcsICc3LjAnLCAnLXRuJywgJzgnLCAnLW1hJywgJzIwMCcsICctbWV0YWxfYmluZGluZycsICctaW1hZScsICc8aW5maWxlLm1hZT4nLCAnLW9tYWUnLCAnPG91dGZpbGUubWFlPic=

> <r_lp_tautomer_probability>
1

> <r_epik_Ionization_Penalty>
0.000276544

> <r_epik_Ionization_Penalty_Charging>
0

> <r_epik_Ionization_Penalty_Neutral>
0.000276544

> <r_epik_State_Penalty>
-0

> <r_epik_Charging_Adjusted_Penalty>
0

> <i_epik_Tot_Q>
0

> <i_epik_Tot_abs_Q>
0

> <r_epik_Metal_State_Penalty>
-0

> <b_epik_Metal_Only>
0

> <s_lp_Force_Field>
OPLS_2005

> <r_lp_Energy>
39.8946

> <b_lp_Chiralities_Consistent>
1

> <s_lp_Variant>
AV-unprocessed.smi:2224-6

> <Gold.Version>
5.8.1

> <Gold.Id.Protein>
6NUR|6NUR_protein|mol2

> <Gold.PLP.Fitness>
39.4057

> <Gold.PLP.PLP>
-34.4928

> <Gold.PLP.part.hbond>
-2.0000

> <Gold.PLP.part.metal>
0.0000

> <Gold.PLP.part.buried>
-2.5574

> <Gold.PLP.part.nonpolar>
-29.7362

> <Gold.PLP.part.repulsive>
0.3677

> <Gold.PLP.ligand.clash>
0.0000

> <Gold.PLP.ligand.torsion>
0.4934

> <Gold.PLP.Chemscore.Hbond>
1.9040

> <Gold.PLP.Chemscore.CHOScore>
0.0000

> <Gold.PLP.Chemscore.Metal>
0.0000

> <Gold.Chemscore.Hbonds>
donor molecule, donor type, donor heavy atom, donor atom, acceptor molecule, acceptor atom, score
      L1  H     8    29       P1  8028  1.00
      L1  H    11    30       P1  8028  0.77

> <Gold.PLP.Chemscore.Internal.Correction>
0.1876

> <Gold.Rescore>
     Score         DG    S(hbond)    S(metal)    S(lipo)     H(rot)  DE(clash)    DE(int)     intcor
     16.72     -20.40       1.58        0.00     104.25       1.00       1.86       1.82       ----

> <Gold.Chemscore.Fitness>
16.7211

> <Gold.Chemscore.DG>
-20.4025

> <Gold.Chemscore.ZeroCoef>
-5.4800

> <Gold.Chemscore.Hbond>
1.5824

> <Gold.Chemscore.Metal>
0.0000

> <Gold.Chemscore.Lipo>
104.2492

> <Gold.Chemscore.Internal_Hbond>
0.0000

> <Gold.Chemscore.DEClash>
1.8585

> <Gold.Chemscore.DEInternal>
1.8229

> <Gold.Chemscore.Rot>
1.0000

> <Gold.Chemscore.Internal.Correction>
   9.000000E+99

> <Gold.Chemscore.Hbonds>
donor molecule, donor type, donor heavy atom, donor atom, acceptor molecule, acceptor atom, score
      L1  H     8    29       P1  8028  0.88
      L1  H    11    30       P1  8028  0.53

> <Gold.Chemscore.Hbond.Weighted>
-5.2854

> <Gold.Chemscore.Metal.Weighted>
-0.0000

> <Gold.Chemscore.Lipo.Weighted>
-12.1972

> <Gold.Chemscore.Internal_Hbond.Weighted>
0.0000

> <Gold.Chemscore.DEClash.Weighted>
1.8585

> <Gold.Chemscore.DEInternal.Weighted>
1.8229

> <Gold.Chemscore.Rot.Weighted>
2.5600

> <Gold.Chemscore.Internal.Correction.Weighted>
   9.000000E+99

> <Gold.Protein.RotatedTorsions>
[ 6907 6896 6895 6894 ] final  176.38 input  -60.11 | X-H torsion
[ 7974 7965 7964 7962 ] final   -8.62 input  175.53 | X-H torsion
[ 8008 7997 7996 7995 ] final  165.51 input   59.86 | X-H torsion
[ 10167 10162 10161 10158 ] final -121.68 input  -65.29 | X-H torsion
[ 10718 10713 10712 10709 ] final  148.78 input   66.30 | X-H torsion
[ 10763 10752 10751 10750 ] final  -80.36 input  -60.55 | X-H torsion
[ 11005 11000 10999 10996 ] final  -49.17 input  -57.11 | X-H torsion

> <Gold.Protein.ActiveResidues>
 VAL166  LYS551  ARG553  GLY616  TRP617  ASP618  TYR619  PRO620  LYS621  CYS622 
 ASP623  PHE694  ASN695  SER759  ASP760  ASP761  ALA762  ILE779  LEU786  VAL792 
 PHE793  MET794  SER795  GLU796  ALA797  LYS798  CYS799  TRP800  GLU811  SER814 

> <Gold.Protein.RotatedAtoms>
  151.7211  133.3314  159.3315 H   0  0  0  0  0  0  0  0  0  0  0  0  # atno 6907 bound_to 6896
  150.7652  134.6447  159.6265 H   0  0  0  0  0  0  0  0  0  0  0  0  # atno 6908 bound_to 6896
  152.3651  134.6818  160.0246 H   0  0  0  0  0  0  0  0  0  0  0  0  # atno 6909 bound_to 6896
  146.2275  140.2495  142.8346 H   0  0  0  0  0  0  0  0  0  0  0  0  # atno 7974 bound_to 7965
  156.1794  140.1668  156.8301 H   0  0  0  0  0  0  0  0  0  0  0  0  # atno 8008 bound_to 7997
  154.5343  140.0750  156.8434 H   0  0  0  0  0  0  0  0  0  0  0  0  # atno 8009 bound_to 7997
  155.3342  140.3381  155.4241 H   0  0  0  0  0  0  0  0  0  0  0  0  # atno 8010 bound_to 7997
  140.0224  143.5331  152.2214 H   0  0  0  0  0  0  0  0  0  0  0  0  # atno 10167 bound_to 10162
  157.3044  131.0876  151.1365 H   0  0  0  0  0  0  0  0  0  0  0  0  # atno 10718 bound_to 10713
  154.5502  135.5664  153.6915 H   0  0  0  0  0  0  0  0  0  0  0  0  # atno 10763 bound_to 10752
  152.9987  135.6249  154.2384 H   0  0  0  0  0  0  0  0  0  0  0  0  # atno 10764 bound_to 10752
  154.2319  135.2865  155.2866 H   0  0  0  0  0  0  0  0  0  0  0  0  # atno 10765 bound_to 10752
  141.0743  133.6670  156.3546 H   0  0  0  0  0  0  0  0  0  0  0  0  # atno 11005 bound_to 11000
  144.9423  140.8091  143.5623 LP  0  0  0  0  0  0  0  0  0  0  0  0  # atno 17320 bound_to 7965
  145.2448  139.2057  143.4974 LP  0  0  0  0  0  0  0  0  0  0  0  0  # atno 17321 bound_to 7965
  139.6131  144.7613  151.2907 LP  0  0  0  0  0  0  0  0  0  0  0  0  # atno 17342 bound_to 10162
  140.7337  143.6787  150.8019 LP  0  0  0  0  0  0  0  0  0  0  0  0  # atno 17343 bound_to 10162
  157.2712  130.6705  149.6020 LP  0  0  0  0  0  0  0  0  0  0  0  0  # atno 17370 bound_to 10713
  155.9673  130.4478  150.5596 LP  0  0  0  0  0  0  0  0  0  0  0  0  # atno 17371 bound_to 10713
  140.5606  134.5938  157.5432 LP  0  0  0  0  0  0  0  0  0  0  0  0  # atno 17394 bound_to 11000
  139.9556  134.7541  156.0350 LP  0  0  0  0  0  0  0  0  0  0  0  0  # atno 17395 bound_to 11000

$$$$
