#       Name:                AV-unprocessed.smi:311
#       Creating user name   scv26
#       Creation time:       Thu Mar 26 22:20:26 2020


#       File generated by GOLD software.
#

@<TRIPOS>MOLECULE
AV-unprocessed.smi:311
    49    51     1
SMALL
NO_CHARGES


@<TRIPOS>ATOM
      1 ****        -1.3665   0.7127   3.5525 C.3            1 S1                 0.0000
      2 ****        -2.2883   0.3422   2.4263 C.2            1 S1                 0.0000
      3 ****        -3.1501   1.2350   1.9694 N.2            1 S1                 0.0000
      4 ****        -3.8494   0.6006   0.9383 O.3            1 S1                 0.0000
      5 ****        -3.3743  -0.6644   0.8128 C.2            1 S1                 0.0000
      6 ****        -3.9861  -1.5097  -0.2524 C.3            1 S1                 0.0000
      7 ****        -2.3806  -0.8941   1.7244 C.2            1 S1                 0.0000
      8 ****        -1.5622  -2.1444   1.9263 C.3            1 S1                 0.0000
      9 ****        -0.4475  -2.1845   0.8821 C.2            1 S1                 0.0000
     10 ****        -0.5049  -2.9791  -0.0556 O.2            1 S1                 0.0000
     11 ****         0.5430  -1.2924   1.0347 N.am           1 S1                 0.0000
     12 ****         1.6127  -1.0606   0.0699 C.3            1 S1                 0.0000
     13 ****         2.7569  -0.2036   0.6284 C.3            1 S1                 0.0000
     14 ****         3.2813   0.6014  -0.5745 C.3            1 S1                 0.0000
     15 ****         2.4407   0.2126  -1.7288 N.4            1 S1                 1.0000
     16 ****         2.3338   1.2007  -2.8328 C.3            1 S1                 0.0000
     17 ****         1.3477   2.3387  -2.5196 C.3            1 S1                 0.0000
     18 ****        -0.0172   1.7746  -2.1128 C.3            1 S1                 0.0000
     19 ****         0.1497   0.8501  -0.9030 C.3            1 S1                 0.0000
     20 ****         1.1605  -0.2927  -1.1852 C.3            1 S1                 0.0000
     21 ****        -1.2502   1.7937   3.6383 H              1 S1                 0.0000
     22 ****        -0.3739   0.2877   3.4047 H              1 S1                 0.0000
     23 ****        -1.7482   0.3427   4.5040 H              1 S1                 0.0000
     24 ****        -3.2753  -1.6817  -1.0606 H              1 S1                 0.0000
     25 ****        -4.8707  -1.0327  -0.6749 H              1 S1                 0.0000
     26 ****        -4.2840  -2.4789   0.1475 H              1 S1                 0.0000
     27 ****        -1.1208  -2.1830   2.9227 H              1 S1                 0.0000
     28 ****        -2.1771  -3.0402   1.8306 H              1 S1                 0.0000
     29 ****         0.5099  -0.6827   1.8389 H              1 S1                 0.0000
     30 ****         2.0310  -2.0212  -0.2390 H              1 S1                 0.0000
     31 ****         2.3936   0.4816   1.3962 H              1 S1                 0.0000
     32 ****         3.5348  -0.8196   1.0810 H              1 S1                 0.0000
     33 ****         3.1966   1.6696  -0.3713 H              1 S1                 0.0000
     34 ****         4.3289   0.3852  -0.7859 H              1 S1                 0.0000
     35 ****         3.3215   1.5987  -3.0686 H              1 S1                 0.0000
     36 ****         1.9941   0.6698  -3.7230 H              1 S1                 0.0000
     37 ****         1.7402   2.9691  -1.7212 H              1 S1                 0.0000
     38 ****         1.2377   2.9834  -3.3922 H              1 S1                 0.0000
     39 ****        -0.7045   2.5864  -1.8728 H              1 S1                 0.0000
     40 ****        -0.4588   1.2242  -2.9446 H              1 S1                 0.0000
     41 ****         0.4769   1.4426  -0.0477 H              1 S1                 0.0000
     42 ****        -0.8219   0.4360  -0.6323 H              1 S1                 0.0000
     43 ****         0.7185  -0.9781  -1.9098 H              1 S1                 0.0000
     44 ****         2.9019  -0.5963  -2.1203 H              1 S1                 0.0000
     45 ****        -3.2759   2.1722   2.2948 LP             1 S1                 0.0000
     46 ****        -3.7136   1.0988   0.0819 LP             1 S1                 0.0000
     47 ****        -4.8246   0.5748   1.1578 LP             1 S1                 0.0000
     48 ****        -1.2832  -3.6018  -0.1364 LP             1 S1                 0.0000
     49 ****         0.2267  -3.0022  -0.7369 LP             1 S1                 0.0000
@<TRIPOS>BOND
    1    1    2 1     
    2    1   21 1     
    3    1   22 1     
    4    1   23 1     
    5    2    7 1     
    6    2    3 2     
    7    3    4 1     
    8    4    5 1     
    9    5    6 1     
   10    5    7 2     
   11    6   24 1     
   12    6   25 1     
   13    6   26 1     
   14    7    8 1     
   15    8    9 1     
   16    8   27 1     
   17    8   28 1     
   18    9   10 2     
   19    9   11 am    
   20   11   12 1     
   21   11   29 1     
   22   12   20 1     
   23   12   13 1     
   24   12   30 1     
   25   13   14 1     
   26   13   31 1     
   27   13   32 1     
   28   14   15 1     
   29   14   33 1     
   30   14   34 1     
   31   15   20 1     
   32   15   16 1     
   33   15   44 1     
   34   16   17 1     
   35   16   35 1     
   36   16   36 1     
   37   17   18 1     
   38   17   37 1     
   39   17   38 1     
   40   18   19 1     
   41   18   39 1     
   42   18   40 1     
   43   19   20 1     
   44   19   41 1     
   45   19   42 1     
   46   20   43 1     
   47    3   45 1     
   48    4   46 1     
   49    4   47 1     
   50   10   48 1     
   51   10   49 1     
@<TRIPOS>SUBSTRUCTURE
      1 S1             1
@<TRIPOS>SET
LONE_PAIRS      STATIC     ATOMS    <user>   **** ""
5 45 46 47 48 49
DONOR_HYDROGENS      STATIC     ATOMS    <user>   **** ""
2 29 44
ATOM$BLUE        STATIC     ATOMS    COLORGROUP SYSTEM
5 45 46 47 48 49
ATOM$RED        STATIC     ATOMS    COLORGROUP SYSTEM
2 29 44
