#       Name:                AV-unprocessed.smi:790
#       Creating user name   scv26
#       Creation time:       Fri Mar 27 01:17:44 2020


#       File generated by GOLD software.
#

@<TRIPOS>MOLECULE
AV-unprocessed.smi:790
    43    45     1
SMALL
NO_CHARGES


@<TRIPOS>ATOM
      1 ****        -0.0616   2.3594  -0.2135 O.2            1 S1                 0.0000
      2 ****        -0.5590   1.2339  -0.2173 C.2            1 S1                 0.0000
      3 ****        -1.8758   0.9658  -0.2489 N.am           1 S1                 0.0000
      4 ****        -2.9686   1.8745  -0.2306 C.ar           1 S1                 0.0000
      5 ****        -2.8882   3.2131   0.2245 C.ar           1 S1                 0.0000
      6 ****        -4.0511   4.0071   0.2098 C.ar           1 S1                 0.0000
      7 ****        -5.2519   3.4338  -0.2510 C.ar           1 S1                 0.0000
      8 ****        -5.3461   2.1561  -0.6758 N.ar           1 S1                 0.0000
      9 ****        -4.2271   1.4010  -0.6590 C.ar           1 S1                 0.0000
     10 ****         0.1598   0.1030  -0.2085 N.am           1 S1                 0.0000
     11 ****         1.6216   0.0141  -0.1801 C.3            1 S1                 0.0000
     12 ****         2.1970  -0.7345  -1.4090 C.3            1 S1                 0.0000
     13 ****         1.4700  -2.0759  -1.6430 C.3            1 S1                 0.0000
     14 ****         1.9429  -2.9251  -0.4491 C.3            1 S1                 0.0000
     15 ****         2.9132  -1.9774   0.2880 C.3            1 S1                 0.0000
     16 ****         3.5409  -1.2279  -0.8815 C.3            1 S1                 0.0000
     17 ****         2.1703  -0.8253   1.0079 C.3            1 S1                 0.0000
     18 ****         1.1641  -1.2422   2.1044 C.3            1 S1                 0.0000
     19 ****         1.8264  -1.9439   3.1351 O.3            1 S1                 0.0000
     20 ****        -2.1275  -0.0079  -0.3369 H              1 S1                 0.0000
     21 ****        -1.9706   3.6417   0.5956 H              1 S1                 0.0000
     22 ****        -4.0237   5.0320   0.5494 H              1 S1                 0.0000
     23 ****        -6.1618   4.0151  -0.2733 H              1 S1                 0.0000
     24 ****        -4.3410   0.3831  -1.0030 H              1 S1                 0.0000
     25 ****        -0.3416  -0.7731  -0.2211 H              1 S1                 0.0000
     26 ****         2.0662   1.0100  -0.1343 H              1 S1                 0.0000
     27 ****         2.2589  -0.1150  -2.3041 H              1 S1                 0.0000
     28 ****         0.3850  -1.9880  -1.6965 H              1 S1                 0.0000
     29 ****         1.8012  -2.5271  -2.5793 H              1 S1                 0.0000
     30 ****         1.1191  -3.2692   0.1744 H              1 S1                 0.0000
     31 ****         2.4705  -3.8114  -0.8038 H              1 S1                 0.0000
     32 ****         3.6287  -2.4975   0.9259 H              1 S1                 0.0000
     33 ****         4.0701  -1.8789  -1.5801 H              1 S1                 0.0000
     34 ****         4.2088  -0.4210  -0.5742 H              1 S1                 0.0000
     35 ****         2.9283  -0.2155   1.5038 H              1 S1                 0.0000
     36 ****         0.7008  -0.3567   2.5409 H              1 S1                 0.0000
     37 ****         0.3565  -1.8594   1.7126 H              1 S1                 0.0000
     38 ****         1.1941  -2.1702   3.8001 H              1 S1                 0.0000
     39 ****        -0.6513   3.1667  -0.2350 LP             1 S1                 0.0000
     40 ****         0.9324   2.4667  -0.1889 LP             1 S1                 0.0000
     41 ****        -6.2170   1.7807  -0.9928 LP             1 S1                 0.0000
     42 ****         2.5401  -1.3663   3.5314 LP             1 S1                 0.0000
     43 ****         2.2387  -2.7764   2.7650 LP             1 S1                 0.0000
@<TRIPOS>BOND
    1    1    2 2     
    2    2    3 am    
    3    2   10 am    
    4    3    4 1     
    5    3   20 1     
    6    4    9 ar    
    7    4    5 ar    
    8    5    6 ar    
    9    5   21 1     
   10    6    7 ar    
   11    6   22 1     
   12    7    8 ar    
   13    7   23 1     
   14    8    9 ar    
   15    9   24 1     
   16   10   11 1     
   17   10   25 1     
   18   11   17 1     
   19   11   12 1     
   20   11   26 1     
   21   12   16 1     
   22   12   13 1     
   23   12   27 1     
   24   13   14 1     
   25   13   28 1     
   26   13   29 1     
   27   14   15 1     
   28   14   30 1     
   29   14   31 1     
   30   15   16 1     
   31   15   17 1     
   32   15   32 1     
   33   16   33 1     
   34   16   34 1     
   35   17   18 1     
   36   17   35 1     
   37   18   19 1     
   38   18   36 1     
   39   18   37 1     
   40   19   38 1     
   41    1   39 1     
   42    1   40 1     
   43    8   41 1     
   44   19   42 1     
   45   19   43 1     
@<TRIPOS>SUBSTRUCTURE
      1 S1             1
@<TRIPOS>SET
LONE_PAIRS      STATIC     ATOMS    <user>   **** ""
5 39 40 41 42 43
DONOR_HYDROGENS      STATIC     ATOMS    <user>   **** ""
3 20 25 38
ATOM$BLUE        STATIC     ATOMS    COLORGROUP SYSTEM
5 39 40 41 42 43
ATOM$RED        STATIC     ATOMS    COLORGROUP SYSTEM
3 20 25 38
