AV-unprocessed.smi:2481|AV-procd|sdf|9772|dock6
  -GOLD-   2272013413D 1   1.00000     0.00000
 Structure written by MMmdl.
 37 38  0  0  0  0  0  0  0  0  1 V2000
  151.1354  138.1982  154.3554 C   0  0  0  0  0  0  0  0  0  0  0  0
  150.1024  139.2142  154.4168 N   0  0  0  0  0  0  0  0  0  0  0  0
  150.3768  140.4600  154.8701 N   0  0  0  0  0  0  0  0  0  0  0  0
  149.1984  141.0753  154.7684 C   0  0  0  0  0  0  0  0  0  0  0  0
  148.1693  140.3215  154.2802 N   0  0  0  0  0  0  0  0  0  0  0  0
  148.8091  139.1731  154.0833 C   0  0  0  0  0  0  0  0  0  0  0  0
  148.2413  137.9751  153.5724 N   0  0  0  0  0  0  0  0  0  0  0  0
  147.0784  137.4007  153.9238 C   0  0  0  0  0  0  0  0  0  0  0  0
  146.2938  137.8418  154.7640 O   0  0  0  0  0  0  0  0  0  0  0  0
  146.8684  136.2711  153.2329 N   0  0  0  0  0  0  0  0  0  0  0  0
  145.7010  135.3975  153.3644 C   0  0  1  0  0  0  0  0  0  0  0  0
  144.5318  135.9134  152.4980 C   0  0  0  0  0  0  0  0  0  0  0  0
  144.8079  135.7488  150.9942 C   0  0  0  0  0  0  0  0  0  0  0  0
  145.1508  134.2922  150.6508 C   0  0  0  0  0  0  0  0  0  0  0  0
  146.3275  133.7795  151.4965 C   0  0  0  0  0  0  0  0  0  0  0  0
  146.0527  133.9281  153.0085 C   0  0  1  0  0  0  0  0  0  0  0  0
  147.2149  133.3500  153.8439 C   0  0  0  0  0  0  0  0  0  0  0  0
  148.4503  133.8983  153.4343 O   0  0  0  0  0  0  0  0  0  0  0  0
  151.3041  137.9110  153.3172 H   0  0  0  0  0  0  0  0  0  0  0  0
  150.8220  137.3212  154.9226 H   0  0  0  0  0  0  0  0  0  0  0  0
  152.0695  138.5746  154.7745 H   0  0  0  0  0  0  0  0  0  0  0  0
  149.0754  142.1085  155.0576 H   0  0  0  0  0  0  0  0  0  0  0  0
  148.7812  137.5054  152.8609 H   0  0  0  0  0  0  0  0  0  0  0  0
  147.5670  135.9895  152.5613 H   0  0  0  0  0  0  0  0  0  0  0  0
  145.3759  135.4189  154.4061 H   0  0  0  0  0  0  0  0  0  0  0  0
  143.6276  135.3607  152.7557 H   0  0  0  0  0  0  0  0  0  0  0  0
  144.3192  136.9586  152.7266 H   0  0  0  0  0  0  0  0  0  0  0  0
  143.9380  136.0701  150.4207 H   0  0  0  0  0  0  0  0  0  0  0  0
  145.6302  136.4000  150.6952 H   0  0  0  0  0  0  0  0  0  0  0  0
  144.2772  133.6617  150.8217 H   0  0  0  0  0  0  0  0  0  0  0  0
  145.3900  134.2071  149.5905 H   0  0  0  0  0  0  0  0  0  0  0  0
  146.5146  132.7328  151.2538 H   0  0  0  0  0  0  0  0  0  0  0  0
  147.2344  134.3219  151.2265 H   0  0  0  0  0  0  0  0  0  0  0  0
  145.1716  133.3224  153.2283 H   0  0  0  0  0  0  0  0  0  0  0  0
  147.0757  133.5898  154.8985 H   0  0  0  0  0  0  0  0  0  0  0  0
  147.2593  132.2632  153.7709 H   0  0  0  0  0  0  0  0  0  0  0  0
  148.2805  134.6268  152.8569 H   0  0  0  0  0  0  0  0  0  0  0  0
  1  2  1  0  0  0  0
  1 19  1  0  0  0  0
  1 20  1  0  0  0  0
  1 21  1  0  0  0  0
  2  6  1  0  0  0  0
  2  3  1  0  0  0  0
  3  4  2  0  0  0  0
  4  5  1  0  0  0  0
  4 22  1  0  0  0  0
  5  6  2  0  0  0  0
  6  7  1  0  0  0  0
  7  8  1  0  0  0  0
  7 23  1  0  0  0  0
  8  9  2  0  0  0  0
  8 10  1  0  0  0  0
 10 11  1  0  0  0  0
 10 24  1  0  0  0  0
 11 16  1  0  0  0  0
 11 12  1  0  0  0  0
 11 25  1  0  0  0  0
 12 13  1  0  0  0  0
 12 26  1  0  0  0  0
 12 27  1  0  0  0  0
 13 14  1  0  0  0  0
 13 28  1  0  0  0  0
 13 29  1  0  0  0  0
 14 15  1  0  0  0  0
 14 30  1  0  0  0  0
 14 31  1  0  0  0  0
 15 16  1  0  0  0  0
 15 32  1  0  0  0  0
 15 33  1  0  0  0  0
 16 17  1  0  0  0  0
 16 34  1  0  0  0  0
 17 18  1  0  0  0  0
 17 35  1  0  0  0  0
 17 36  1  0  0  0  0
 18 37  1  0  0  0  0
M  END
> <s_m_source_file>
AV-unprocessed.smi

> <i_m_source_file_index>
2481

> <i_lp_mmshare_version>
43012

> <i_f3d_flags>
0

> <s_epik_input>
W0NIM11uMW5bY0hdbmMxW05IXUMoPU8pW05IXVtDQEBIXTJbQ0gyXVtDSDJdW0NIMl1bQ0gyXVtDQEhdMltDSDJdW09IXQ==

> <s_epik_cmdline>
J2VwaWtfcHl0aG9uJywgJy1waCcsICc3LjAnLCAnLXRuJywgJzgnLCAnLW1hJywgJzIwMCcsICctbWV0YWxfYmluZGluZycsICctaW1hZScsICc8aW5maWxlLm1hZT4nLCAnLW9tYWUnLCAnPG91dGZpbGUubWFlPic=

> <r_lp_tautomer_probability>
1

> <r_epik_Ionization_Penalty>
2.32704e-05

> <r_epik_Ionization_Penalty_Charging>
0

> <r_epik_Ionization_Penalty_Neutral>
2.32704e-05

> <r_epik_State_Penalty>
-0

> <r_epik_Charging_Adjusted_Penalty>
0

> <i_epik_Tot_Q>
0

> <i_epik_Tot_abs_Q>
0

> <r_epik_Metal_State_Penalty>
-0

> <b_epik_Metal_Only>
0

> <s_lp_Force_Field>
OPLS_2005

> <r_lp_Energy>
12.0368

> <b_lp_Chiralities_Consistent>
1

> <s_lp_Variant>
AV-unprocessed.smi:2481-2

> <Gold.Version>
5.8.1

> <Gold.Id.Protein>
6NUR|6NUR_protein|mol2

> <Gold.PLP.Fitness>
38.8019

> <Gold.PLP.PLP>
-26.8972

> <Gold.PLP.part.hbond>
-3.8688

> <Gold.PLP.part.metal>
0.0000

> <Gold.PLP.part.buried>
-2.4051

> <Gold.PLP.part.nonpolar>
-21.0069

> <Gold.PLP.part.repulsive>
0.3124

> <Gold.PLP.ligand.clash>
0.0000

> <Gold.PLP.ligand.torsion>
0.7958

> <Gold.PLP.Chemscore.Hbond>
3.7808

> <Gold.PLP.Chemscore.CHOScore>
0.7120

> <Gold.PLP.Chemscore.Metal>
0.0000

> <Gold.Chemscore.Hbonds>
donor molecule, donor type, donor heavy atom, donor atom, acceptor molecule, acceptor atom, score
      L1  H     7    23       P1  7948  1.00
      L1  H    10    24       P1  7948  1.00
      L1  H    18    37       P1  7948  0.98
      P1  H  7989  7998       L1     3  0.80
      L1  C     4    22       P1  8028  0.63

> <Gold.PLP.Chemscore.Internal.Correction>
0.0179

> <Gold.Rescore>
     Score         DG    S(hbond)    S(metal)    S(lipo)     H(rot)  DE(clash)    DE(int)     intcor
     11.77     -13.92       2.68        0.00      39.20       1.99       0.02       2.13       ----

> <Gold.Chemscore.Fitness>
11.7672

> <Gold.Chemscore.DG>
-13.9207

> <Gold.Chemscore.ZeroCoef>
-5.4800

> <Gold.Chemscore.Hbond>
2.6777

> <Gold.Chemscore.Metal>
0.0000

> <Gold.Chemscore.Lipo>
39.1953

> <Gold.Chemscore.Internal_Hbond>
0.0000

> <Gold.Chemscore.DEClash>
0.0234

> <Gold.Chemscore.DEInternal>
2.1301

> <Gold.Chemscore.Rot>
1.9877

> <Gold.Chemscore.Internal.Correction>
   9.000000E+99

> <Gold.Chemscore.Hbonds>
donor molecule, donor type, donor heavy atom, donor atom, acceptor molecule, acceptor atom, score
      L1  H     7    23       P1  7948  0.93
      L1  H    10    24       P1  7948  0.92
      L1  H    18    37       P1  7948  0.46
      P1  H  7989  7998       L1     3  0.10

> <Gold.Chemscore.Hbond.Weighted>
-8.9434

> <Gold.Chemscore.Metal.Weighted>
-0.0000

> <Gold.Chemscore.Lipo.Weighted>
-4.5858

> <Gold.Chemscore.Internal_Hbond.Weighted>
0.0000

> <Gold.Chemscore.DEClash.Weighted>
0.0234

> <Gold.Chemscore.DEInternal.Weighted>
2.1301

> <Gold.Chemscore.Rot.Weighted>
5.0885

> <Gold.Chemscore.Internal.Correction.Weighted>
   9.000000E+99

> <Gold.Protein.RotatedTorsions>
[ 6907 6896 6895 6894 ] final -148.54 input  -60.11 | X-H torsion
[ 7974 7965 7964 7962 ] final   32.55 input  175.53 | X-H torsion
[ 8008 7997 7996 7995 ] final   79.30 input   59.86 | X-H torsion
[ 10167 10162 10161 10158 ] final  104.59 input  -65.29 | X-H torsion
[ 10718 10713 10712 10709 ] final -109.65 input   66.30 | X-H torsion
[ 10763 10752 10751 10750 ] final  -98.09 input  -60.55 | X-H torsion
[ 11005 11000 10999 10996 ] final  -52.40 input  -57.11 | X-H torsion

> <Gold.Protein.ActiveResidues>
 VAL166  LYS551  ARG553  GLY616  TRP617  ASP618  TYR619  PRO620  LYS621  CYS622 
 ASP623  PHE694  ASN695  SER759  ASP760  ASP761  ALA762  ILE779  LEU786  VAL792 
 PHE793  MET794  SER795  GLU796  ALA797  LYS798  CYS799  TRP800  GLU811  SER814 

> <Gold.Protein.RotatedAtoms>
  151.1713  133.4782  159.2593 H   0  0  0  0  0  0  0  0  0  0  0  0  # atno 6907 bound_to 6896
  151.1353  135.0151  159.8611 H   0  0  0  0  0  0  0  0  0  0  0  0  # atno 6908 bound_to 6896
  152.5461  134.1612  159.8611 H   0  0  0  0  0  0  0  0  0  0  0  0  # atno 6909 bound_to 6896
  146.1479  139.6512  142.9119 H   0  0  0  0  0  0  0  0  0  0  0  0  # atno 7974 bound_to 7965
  155.8678  140.3450  155.5800 H   0  0  0  0  0  0  0  0  0  0  0  0  # atno 8008 bound_to 7997
  155.7862  140.0865  157.2052 H   0  0  0  0  0  0  0  0  0  0  0  0  # atno 8009 bound_to 7997
  154.4015  140.1491  156.3096 H   0  0  0  0  0  0  0  0  0  0  0  0  # atno 8010 bound_to 7997
  139.7164  144.7067  151.0942 H   0  0  0  0  0  0  0  0  0  0  0  0  # atno 10167 bound_to 10162
  156.0548  130.5774  150.8128 H   0  0  0  0  0  0  0  0  0  0  0  0  # atno 10718 bound_to 10713
  154.7384  135.5022  153.9081 H   0  0  0  0  0  0  0  0  0  0  0  0  # atno 10763 bound_to 10752
  153.1019  135.6687  153.9666 H   0  0  0  0  0  0  0  0  0  0  0  0  # atno 10764 bound_to 10752
  153.9449  135.3064  155.3420 H   0  0  0  0  0  0  0  0  0  0  0  0  # atno 10765 bound_to 10752
  141.0922  133.6630  156.4018 H   0  0  0  0  0  0  0  0  0  0  0  0  # atno 11005 bound_to 11000
  145.4893  141.0438  143.2602 LP  0  0  0  0  0  0  0  0  0  0  0  0  # atno 17320 bound_to 7965
  144.7868  139.6409  143.7130 LP  0  0  0  0  0  0  0  0  0  0  0  0  # atno 17321 bound_to 7965
  140.7744  143.5223  150.9521 LP  0  0  0  0  0  0  0  0  0  0  0  0  # atno 17342 bound_to 10162
  139.8909  143.6954  152.3145 LP  0  0  0  0  0  0  0  0  0  0  0  0  # atno 17343 bound_to 10162
  157.5508  131.0944  150.9698 LP  0  0  0  0  0  0  0  0  0  0  0  0  # atno 17370 bound_to 10713
  156.9959  130.5581  149.5307 LP  0  0  0  0  0  0  0  0  0  0  0  0  # atno 17371 bound_to 10713
  140.5225  134.6290  157.5323 LP  0  0  0  0  0  0  0  0  0  0  0  0  # atno 17394 bound_to 11000
  139.9750  134.7230  155.9967 LP  0  0  0  0  0  0  0  0  0  0  0  0  # atno 17395 bound_to 11000

$$$$
