AV-unprocessed.smi:164|AV-procd|sdf|1385|dock4
  -GOLD-   2262019113D 1   1.00000     0.00000
 Structure written by MMmdl.
 53 55  0  0  0  0  0  0  0  0  1 V2000
  150.8969  144.4601  157.9095 C   0  0  0  0  0  0  0  0  0  0  0  0
  151.6019  143.2102  158.4077 C   0  0  0  0  0  0  0  0  0  0  0  0
  152.4312  143.3009  159.5444 C   0  0  0  0  0  0  0  0  0  0  0  0
  153.1028  142.1645  160.0286 C   0  0  0  0  0  0  0  0  0  0  0  0
  152.9431  140.9209  159.3873 C   0  0  0  0  0  0  0  0  0  0  0  0
  153.6776  139.7033  159.9178 C   0  0  0  0  0  0  0  0  0  0  0  0
  152.0994  140.8160  158.2578 C   0  0  0  0  0  0  0  0  0  0  0  0
  151.9422  139.5986  157.6482 O   0  0  0  0  0  0  0  0  0  0  0  0
  150.9307  138.7938  158.2401 C   0  0  0  0  0  0  0  0  0  0  0  0
  151.1708  137.3141  157.9025 C   0  0  1  0  0  0  0  0  0  0  0  0
  150.3259  136.5442  158.7338 O   0  0  0  0  0  0  0  0  0  0  0  0
  150.9128  136.9881  156.4147 C   0  0  0  0  0  0  0  0  0  0  0  0
  150.5182  135.6073  156.1913 N   0  0  0  0  0  0  0  0  0  0  0  0
  151.4307  134.5891  156.5596 C   0  0  0  0  0  0  0  0  0  0  0  0
  152.5282  134.8405  157.0600 O   0  0  0  0  0  0  0  0  0  0  0  0
  150.9672  133.2334  156.2851 C   0  0  0  0  0  0  0  0  0  0  0  0
  151.7442  132.1873  156.6133 F   0  0  0  0  0  0  0  0  0  0  0  0
  149.7686  133.0087  155.7043 C   0  0  0  0  0  0  0  0  0  0  0  0
  148.9083  134.0277  155.3277 N   0  0  0  0  0  0  0  0  0  0  0  0
  147.5725  133.7516  154.6691 C   0  0  1  0  0  0  0  0  0  0  0  0
  147.7583  132.8975  153.4000 C   0  0  0  0  0  0  0  0  0  0  0  0
  146.7874  131.7539  153.6189 C   0  0  0  0  0  0  0  0  0  0  0  0
  146.7525  131.6550  155.1365 C   0  0  0  0  0  0  0  0  0  0  0  0
  146.7558  133.0188  155.5377 O   0  0  0  0  0  0  0  0  0  0  0  0
  149.2682  135.3711  155.5718 C   0  0  0  0  0  0  0  0  0  0  0  0
  148.5200  136.2946  155.2410 O   0  0  0  0  0  0  0  0  0  0  0  0
  151.4409  141.9647  157.7509 C   0  0  0  0  0  0  0  0  0  0  0  0
  150.5649  141.8599  156.5093 C   0  0  0  0  0  0  0  0  0  0  0  0
  151.0141  145.2877  158.6095 H   0  0  0  0  0  0  0  0  0  0  0  0
  149.8290  144.2782  157.7868 H   0  0  0  0  0  0  0  0  0  0  0  0
  151.3096  144.7715  156.9495 H   0  0  0  0  0  0  0  0  0  0  0  0
  152.5613  144.2469  160.0495 H   0  0  0  0  0  0  0  0  0  0  0  0
  153.7406  142.2523  160.8959 H   0  0  0  0  0  0  0  0  0  0  0  0
  154.1156  139.1301  159.1001 H   0  0  0  0  0  0  0  0  0  0  0  0
  152.9921  139.0555  160.4642 H   0  0  0  0  0  0  0  0  0  0  0  0
  154.4835  139.9916  160.5933 H   0  0  0  0  0  0  0  0  0  0  0  0
  150.9699  138.9200  159.3229 H   0  0  0  0  0  0  0  0  0  0  0  0
  149.9345  139.1079  157.9236 H   0  0  0  0  0  0  0  0  0  0  0  0
  152.2005  137.0733  158.1702 H   0  0  0  0  0  0  0  0  0  0  0  0
  149.4299  136.6936  158.4724 H   0  0  0  0  0  0  0  0  0  0  0  0
  150.1680  137.6463  155.9638 H   0  0  0  0  0  0  0  0  0  0  0  0
  151.8105  137.1527  155.8156 H   0  0  0  0  0  0  0  0  0  0  0  0
  149.4899  131.9802  155.5341 H   0  0  0  0  0  0  0  0  0  0  0  0
  147.1257  134.7310  154.4887 H   0  0  0  0  0  0  0  0  0  0  0  0
  147.5422  133.4782  152.5027 H   0  0  0  0  0  0  0  0  0  0  0  0
  148.7813  132.5219  153.3420 H   0  0  0  0  0  0  0  0  0  0  0  0
  145.8003  132.0211  153.2395 H   0  0  0  0  0  0  0  0  0  0  0  0
  147.1019  130.8275  153.1376 H   0  0  0  0  0  0  0  0  0  0  0  0
  145.8722  131.1291  155.5063 H   0  0  0  0  0  0  0  0  0  0  0  0
  147.6418  131.1474  155.5129 H   0  0  0  0  0  0  0  0  0  0  0  0
  150.7331  140.9327  155.9619 H   0  0  0  0  0  0  0  0  0  0  0  0
  150.7693  142.6773  155.8182 H   0  0  0  0  0  0  0  0  0  0  0  0
  149.5121  141.9001  156.7885 H   0  0  0  0  0  0  0  0  0  0  0  0
  1  2  1  0  0  0  0
  1 29  1  0  0  0  0
  1 30  1  0  0  0  0
  1 31  1  0  0  0  0
  2 27  1  0  0  0  0
  2  3  2  0  0  0  0
  3  4  1  0  0  0  0
  3 32  1  0  0  0  0
  4  5  2  0  0  0  0
  4 33  1  0  0  0  0
  5  6  1  0  0  0  0
  5  7  1  0  0  0  0
  6 34  1  0  0  0  0
  6 35  1  0  0  0  0
  6 36  1  0  0  0  0
  7  8  1  0  0  0  0
  7 27  2  0  0  0  0
  8  9  1  0  0  0  0
  9 10  1  0  0  0  0
  9 37  1  0  0  0  0
  9 38  1  0  0  0  0
 10 11  1  0  0  0  0
 10 12  1  0  0  0  0
 10 39  1  0  0  0  0
 11 40  1  0  0  0  0
 12 13  1  0  0  0  0
 12 41  1  0  0  0  0
 12 42  1  0  0  0  0
 13 25  1  0  0  0  0
 13 14  1  0  0  0  0
 14 15  2  0  0  0  0
 14 16  1  0  0  0  0
 16 17  1  0  0  0  0
 16 18  2  0  0  0  0
 18 19  1  0  0  0  0
 18 43  1  0  0  0  0
 19 20  1  0  0  0  0
 19 25  1  0  0  0  0
 20 24  1  0  0  0  0
 20 21  1  0  0  0  0
 20 44  1  0  0  0  0
 21 22  1  0  0  0  0
 21 45  1  0  0  0  0
 21 46  1  0  0  0  0
 22 23  1  0  0  0  0
 22 47  1  0  0  0  0
 22 48  1  0  0  0  0
 23 24  1  0  0  0  0
 23 49  1  0  0  0  0
 23 50  1  0  0  0  0
 25 26  2  0  0  0  0
 27 28  1  0  0  0  0
 28 51  1  0  0  0  0
 28 52  1  0  0  0  0
 28 53  1  0  0  0  0
M  END
> <s_m_source_file>
AV-unprocessed.smi

> <i_m_source_file_index>
164

> <i_lp_mmshare_version>
43012

> <i_f3d_flags>
0

> <s_epik_input>
W0NIM11jMVtjSF1bY0hdYyhbQ0gzXSljKGMxW0NIM10pT1tDSDJdW0NASF0oW09IXSlbQ0gyXW4yYyg9TyljKEYpW2NIXW4oYzI9TylbQ0BASF0zW0NIMl1bQ0gyXVtDSDJdTzM=

> <s_epik_cmdline>
J2VwaWtfcHl0aG9uJywgJy1waCcsICc3LjAnLCAnLXRuJywgJzgnLCAnLW1hJywgJzIwMCcsICctbWV0YWxfYmluZGluZycsICctaW1hZScsICc8aW5maWxlLm1hZT4nLCAnLW9tYWUnLCAnPG91dGZpbGUubWFlPic=

> <r_lp_tautomer_probability>
1

> <r_epik_Ionization_Penalty>
1.45842e-07

> <r_epik_Ionization_Penalty_Charging>
2.86622e-08

> <r_epik_Ionization_Penalty_Neutral>
1.1718e-07

> <r_epik_State_Penalty>
-0

> <r_epik_Charging_Adjusted_Penalty>
2.86622e-08

> <i_epik_Tot_Q>
0

> <i_epik_Tot_abs_Q>
0

> <r_epik_Metal_State_Penalty>
-0

> <b_epik_Metal_Only>
0

> <s_epik_Chemistry_Notes>
This compound contains an acetal/aminal-like group ( X-CH(R)-Y where X, Y are N, S, or O) that may be acid/base labile, releasing an aldehyde.

> <s_lp_Force_Field>
OPLS_2005

> <r_lp_Energy>
46.8287

> <b_lp_Chiralities_Consistent>
1

> <s_lp_Variant>
AV-unprocessed.smi:164-4

> <Gold.Version>
5.8.1

> <Gold.Id.Protein>
6NUR|6NUR_protein|mol2

> <Gold.PLP.Fitness>
50.8222

> <Gold.PLP.PLP>
-48.1480

> <Gold.PLP.part.hbond>
-2.8169

> <Gold.PLP.part.metal>
0.0000

> <Gold.PLP.part.buried>
-5.4525

> <Gold.PLP.part.nonpolar>
-39.1140

> <Gold.PLP.part.repulsive>
0.1736

> <Gold.PLP.ligand.clash>
0.0000

> <Gold.PLP.ligand.torsion>
0.8785

> <Gold.PLP.Chemscore.Hbond>
1.4461

> <Gold.PLP.Chemscore.CHOScore>
0.0000

> <Gold.PLP.Chemscore.Metal>
0.0000

> <Gold.Chemscore.Hbonds>
donor molecule, donor type, donor heavy atom, donor atom, acceptor molecule, acceptor atom, score
      P1  H  6896  6907       L1    11  1.00
      P1  H 10752 10763       L1    15  0.85

> <Gold.PLP.Chemscore.Internal.Correction>
0.0931

> <Gold.Rescore>
     Score         DG    S(hbond)    S(metal)    S(lipo)     H(rot)  DE(clash)    DE(int)     intcor
     17.53     -18.39       1.87        0.00     116.85       2.73       0.01       0.86       ----

> <Gold.Chemscore.Fitness>
17.5306

> <Gold.Chemscore.DG>
-18.3948

> <Gold.Chemscore.ZeroCoef>
-5.4800

> <Gold.Chemscore.Hbond>
1.8671

> <Gold.Chemscore.Metal>
0.0000

> <Gold.Chemscore.Lipo>
116.8480

> <Gold.Chemscore.Internal_Hbond>
0.0000

> <Gold.Chemscore.DEClash>
0.0050

> <Gold.Chemscore.DEInternal>
0.8591

> <Gold.Chemscore.Rot>
2.7315

> <Gold.Chemscore.Internal.Correction>
   9.000000E+99

> <Gold.Chemscore.Hbonds>
donor molecule, donor type, donor heavy atom, donor atom, acceptor molecule, acceptor atom, score
      P1  H  6896  6907       L1    11  0.96
      P1  H 10752 10763       L1    15  0.16

> <Gold.Chemscore.Hbond.Weighted>
-6.2361

> <Gold.Chemscore.Metal.Weighted>
-0.0000

> <Gold.Chemscore.Lipo.Weighted>
-13.6712

> <Gold.Chemscore.Internal_Hbond.Weighted>
0.0000

> <Gold.Chemscore.DEClash.Weighted>
0.0050

> <Gold.Chemscore.DEInternal.Weighted>
0.8591

> <Gold.Chemscore.Rot.Weighted>
6.9925

> <Gold.Chemscore.Internal.Correction.Weighted>
   9.000000E+99

> <Gold.Protein.RotatedTorsions>
[ 6907 6896 6895 6894 ] final  -43.32 input  -60.11 | X-H torsion
[ 7974 7965 7964 7962 ] final  110.14 input  175.53 | X-H torsion
[ 8008 7997 7996 7995 ] final   48.39 input   59.86 | X-H torsion
[ 10167 10162 10161 10158 ] final -158.78 input  -65.29 | X-H torsion
[ 10718 10713 10712 10709 ] final  -81.51 input   66.30 | X-H torsion
[ 10763 10752 10751 10750 ] final  117.80 input  -60.55 | X-H torsion
[ 11005 11000 10999 10996 ] final   26.45 input  -57.11 | X-H torsion

> <Gold.Protein.ActiveResidues>
 VAL166  LYS551  ARG553  GLY616  TRP617  ASP618  TYR619  PRO620  LYS621  CYS622 
 ASP623  PHE694  ASN695  SER759  ASP760  ASP761  ALA762  ILE779  LEU786  VAL792 
 PHE793  MET794  SER795  GLU796  ALA797  LYS798  CYS799  TRP800  GLU811  SER814 

> <Gold.Protein.RotatedAtoms>
  150.9452  134.8858  159.7637 H   0  0  0  0  0  0  0  0  0  0  0  0  # atno 6907 bound_to 6896
  152.5097  134.3884  159.9385 H   0  0  0  0  0  0  0  0  0  0  0  0  # atno 6908 bound_to 6896
  151.3903  133.3751  159.2755 H   0  0  0  0  0  0  0  0  0  0  0  0  # atno 6909 bound_to 6896
  145.2588  139.2710  143.4028 H   0  0  0  0  0  0  0  0  0  0  0  0  # atno 7974 bound_to 7965
  155.3849  140.3430  155.4248 H   0  0  0  0  0  0  0  0  0  0  0  0  # atno 8008 bound_to 7997
  156.1590  140.1594  156.8677 H   0  0  0  0  0  0  0  0  0  0  0  0  # atno 8009 bound_to 7997
  154.5122  140.0787  156.7993 H   0  0  0  0  0  0  0  0  0  0  0  0  # atno 8010 bound_to 7997
  139.6666  143.9819  152.2258 H   0  0  0  0  0  0  0  0  0  0  0  0  # atno 10167 bound_to 10162
  156.0049  130.4606  150.3963 H   0  0  0  0  0  0  0  0  0  0  0  0  # atno 10718 bound_to 10713
  153.5578  135.3527  155.2787 H   0  0  0  0  0  0  0  0  0  0  0  0  # atno 10763 bound_to 10752
  154.8699  135.4129  154.2864 H   0  0  0  0  0  0  0  0  0  0  0  0  # atno 10764 bound_to 10752
  153.3604  135.7059  153.6786 H   0  0  0  0  0  0  0  0  0  0  0  0  # atno 10765 bound_to 10752
  140.3369  134.2376  155.7695 H   0  0  0  0  0  0  0  0  0  0  0  0  # atno 11005 bound_to 11000
  146.3281  140.2999  142.8620 LP  0  0  0  0  0  0  0  0  0  0  0  0  # atno 17320 bound_to 7965
  144.9437  140.8105  143.5615 LP  0  0  0  0  0  0  0  0  0  0  0  0  # atno 17321 bound_to 7965
  139.9572  144.6581  150.8114 LP  0  0  0  0  0  0  0  0  0  0  0  0  # atno 17342 bound_to 10162
  140.7601  143.3145  151.2767 LP  0  0  0  0  0  0  0  0  0  0  0  0  # atno 17343 bound_to 10162
  157.2034  131.0443  151.2638 LP  0  0  0  0  0  0  0  0  0  0  0  0  # atno 17370 bound_to 10713
  157.3954  130.7305  149.6728 LP  0  0  0  0  0  0  0  0  0  0  0  0  # atno 17371 bound_to 10713
  141.2049  133.7875  157.0263 LP  0  0  0  0  0  0  0  0  0  0  0  0  # atno 17394 bound_to 11000
  140.0813  134.9646  157.1629 LP  0  0  0  0  0  0  0  0  0  0  0  0  # atno 17395 bound_to 11000

$$$$
