AV-unprocessed.smi:864|AV-procd|sdf|3986|dock5
  -GOLD-   22720 1463D 1   1.00000     0.00000
 Structure written by MMmdl.
 44 46  0  0  0  0  0  0  0  0  1 V2000
  144.1303  133.3642  150.7048 C   0  0  0  0  0  0  0  0  0  0  0  0
  145.3757  133.2672  151.5608 C   0  0  0  0  0  0  0  0  0  0  0  0
  146.6587  133.2478  150.9742 C   0  0  0  0  0  0  0  0  0  0  0  0
  147.7814  133.1520  151.8188 C   0  0  0  0  0  0  0  0  0  0  0  0
  147.5794  133.0811  153.2121 C   0  0  0  0  0  0  0  0  0  0  0  0
  148.7568  132.9613  154.1651 C   0  0  0  0  0  0  0  0  0  0  0  0
  148.8908  134.1550  155.1337 C   0  0  0  0  0  0  0  0  0  0  0  0
  149.2023  135.4093  154.4545 N   0  0  0  0  0  0  0  0  0  0  0  0
  149.7452  136.4852  155.0397 C   0  0  0  0  0  0  0  0  0  0  0  0
  149.9941  136.5651  156.2428 O   0  0  0  0  0  0  0  0  0  0  0  0
  150.0236  137.4474  154.1501 N   0  0  0  0  0  0  0  0  0  0  0  0
  150.7370  138.6823  154.4626 C   0  0  2  0  0  0  0  0  0  0  0  0
  152.0832  138.4091  155.1457 C   0  0  0  0  0  0  0  0  0  0  0  0
  152.0590  139.3117  156.3677 C   0  0  0  0  0  0  0  0  0  0  0  0
  153.0095  139.3971  157.1444 O   0  0  0  0  0  0  0  0  0  0  0  0
  150.8957  139.9649  156.4735 N   0  0  0  0  0  0  0  0  0  0  0  0
  150.5154  140.7791  157.5922 C   0  0  0  0  0  0  0  0  0  0  0  0
  150.0488  142.2109  157.4053 C   0  0  0  0  0  0  0  0  0  0  0  0
  151.4186  141.9311  157.9712 C   0  0  0  0  0  0  0  0  0  0  0  0
  149.9414  139.5535  155.4540 C   0  0  0  0  0  0  0  0  0  0  0  0
  146.2542  133.1151  153.6973 C   0  0  0  0  0  0  0  0  0  0  0  0
  145.1719  133.2020  152.8950 N   0  0  0  0  0  0  0  0  0  0  0  0
  144.3784  133.3563  149.6431 H   0  0  0  0  0  0  0  0  0  0  0  0
  143.5924  134.2873  150.9223 H   0  0  0  0  0  0  0  0  0  0  0  0
  143.4657  132.5231  150.9046 H   0  0  0  0  0  0  0  0  0  0  0  0
  146.7829  133.3032  149.9026 H   0  0  0  0  0  0  0  0  0  0  0  0
  148.7782  133.1294  151.4036 H   0  0  0  0  0  0  0  0  0  0  0  0
  148.6596  132.0364  154.7345 H   0  0  0  0  0  0  0  0  0  0  0  0
  149.6717  132.8554  153.5807 H   0  0  0  0  0  0  0  0  0  0  0  0
  147.9463  134.3003  155.6589 H   0  0  0  0  0  0  0  0  0  0  0  0
  149.6399  133.9445  155.8985 H   0  0  0  0  0  0  0  0  0  0  0  0
  149.0404  135.4390  153.4585 H   0  0  0  0  0  0  0  0  0  0  0  0
  149.7801  137.2908  153.1829 H   0  0  0  0  0  0  0  0  0  0  0  0
  150.9209  139.2450  153.5450 H   0  0  0  0  0  0  0  0  0  0  0  0
  152.1859  137.3714  155.4665 H   0  0  0  0  0  0  0  0  0  0  0  0
  152.9251  138.6558  154.4981 H   0  0  0  0  0  0  0  0  0  0  0  0
  150.0453  140.2508  158.4204 H   0  0  0  0  0  0  0  0  0  0  0  0
  150.0027  142.6353  156.4050 H   0  0  0  0  0  0  0  0  0  0  0  0
  149.2916  142.5804  158.0936 H   0  0  0  0  0  0  0  0  0  0  0  0
  151.5730  142.1192  159.0316 H   0  0  0  0  0  0  0  0  0  0  0  0
  152.2753  142.1365  157.3322 H   0  0  0  0  0  0  0  0  0  0  0  0
  149.5088  140.4167  154.9470 H   0  0  0  0  0  0  0  0  0  0  0  0
  149.1305  138.9977  155.9290 H   0  0  0  0  0  0  0  0  0  0  0  0
  146.0544  133.0581  154.7574 H   0  0  0  0  0  0  0  0  0  0  0  0
  1  2  1  0  0  0  0
  1 23  1  0  0  0  0
  1 24  1  0  0  0  0
  1 25  1  0  0  0  0
  2 22  1  0  0  0  0
  2  3  2  0  0  0  0
  3  4  1  0  0  0  0
  3 26  1  0  0  0  0
  4  5  2  0  0  0  0
  4 27  1  0  0  0  0
  5  6  1  0  0  0  0
  5 21  1  0  0  0  0
  6  7  1  0  0  0  0
  6 28  1  0  0  0  0
  6 29  1  0  0  0  0
  7  8  1  0  0  0  0
  7 30  1  0  0  0  0
  7 31  1  0  0  0  0
  8  9  1  0  0  0  0
  8 32  1  0  0  0  0
  9 10  2  0  0  0  0
  9 11  1  0  0  0  0
 11 12  1  0  0  0  0
 11 33  1  0  0  0  0
 12 20  1  0  0  0  0
 12 13  1  0  0  0  0
 12 34  1  0  0  0  0
 13 14  1  0  0  0  0
 13 35  1  0  0  0  0
 13 36  1  0  0  0  0
 14 15  2  0  0  0  0
 14 16  1  0  0  0  0
 16 17  1  0  0  0  0
 16 20  1  0  0  0  0
 17 19  1  0  0  0  0
 17 18  1  0  0  0  0
 17 37  1  0  0  0  0
 18 19  1  0  0  0  0
 18 38  1  0  0  0  0
 18 39  1  0  0  0  0
 19 40  1  0  0  0  0
 19 41  1  0  0  0  0
 20 42  1  0  0  0  0
 20 43  1  0  0  0  0
 21 22  2  0  0  0  0
 21 44  1  0  0  0  0
M  END
> <s_m_source_file>
AV-unprocessed.smi

> <i_m_source_file_index>
864

> <i_lp_mmshare_version>
43012

> <i_f3d_flags>
0

> <s_epik_input>
W0NIM11jMVtjSF1bY0hdYyhbY0hdbjEpW0NIMl1bQ0gyXVtOSF1DKD1PKVtOSF1bQ0BASF0yW0NIMl1DKD1PKU4oW0NIMl0yKVtDSF0zW0NIMl1bQ0gyXTM=

> <s_epik_cmdline>
J2VwaWtfcHl0aG9uJywgJy1waCcsICc3LjAnLCAnLXRuJywgJzgnLCAnLW1hJywgJzIwMCcsICctbWV0YWxfYmluZGluZycsICctaW1hZScsICc8aW5maWxlLm1hZT4nLCAnLW9tYWUnLCAnPG91dGZpbGUubWFlPic=

> <r_epik_Ionization_Penalty>
0.0559435

> <r_epik_Ionization_Penalty_Charging>
0

> <r_epik_Ionization_Penalty_Neutral>
0.0559435

> <r_epik_State_Penalty>
0.0481757

> <r_epik_Charging_Adjusted_Penalty>
0.0481757

> <i_epik_Tot_Q>
0

> <i_epik_Tot_abs_Q>
0

> <r_epik_Metal_State_Penalty>
0.0439988

> <b_epik_Metal_Only>
0

> <s_lp_Force_Field>
OPLS_2005

> <r_lp_Energy>
33.3792

> <b_lp_Chiralities_Consistent>
1

> <s_lp_Variant>
AV-unprocessed.smi:864-1

> <Gold.Version>
5.8.1

> <Gold.Id.Protein>
6NUR|6NUR_protein|mol2

> <Gold.PLP.Fitness>
44.7355

> <Gold.PLP.PLP>
-36.1112

> <Gold.PLP.part.hbond>
-3.2233

> <Gold.PLP.part.metal>
0.0000

> <Gold.PLP.part.buried>
-3.6011

> <Gold.PLP.part.nonpolar>
-30.3977

> <Gold.PLP.part.repulsive>
0.2128

> <Gold.PLP.ligand.clash>
0.0000

> <Gold.PLP.ligand.torsion>
0.3302

> <Gold.PLP.Chemscore.Hbond>
3.0000

> <Gold.PLP.Chemscore.CHOScore>
0.0000

> <Gold.PLP.Chemscore.Metal>
0.0000

> <Gold.Chemscore.Hbonds>
donor molecule, donor type, donor heavy atom, donor atom, acceptor molecule, acceptor atom, score
      L1  H     8    32       P1  7948  1.00
      L1  H    11    33       P1  7948  1.00
      P1  H  7997  8008       L1    15  0.91

> <Gold.PLP.Chemscore.Internal.Correction>
0.2846

> <Gold.Rescore>
     Score         DG    S(hbond)    S(metal)    S(lipo)     H(rot)  DE(clash)    DE(int)     intcor
     17.42     -19.09       2.62        0.00      79.80       1.75       0.20       1.47       ----

> <Gold.Chemscore.Fitness>
17.4192

> <Gold.Chemscore.DG>
-19.0933

> <Gold.Chemscore.ZeroCoef>
-5.4800

> <Gold.Chemscore.Hbond>
2.6231

> <Gold.Chemscore.Metal>
0.0000

> <Gold.Chemscore.Lipo>
79.7999

> <Gold.Chemscore.Internal_Hbond>
0.0000

> <Gold.Chemscore.DEClash>
0.2012

> <Gold.Chemscore.DEInternal>
1.4729

> <Gold.Chemscore.Rot>
1.7518

> <Gold.Chemscore.Internal.Correction>
   9.000000E+99

> <Gold.Chemscore.Hbonds>
donor molecule, donor type, donor heavy atom, donor atom, acceptor molecule, acceptor atom, score
      L1  H     8    32       P1  7948  0.59
      L1  H    11    33       P1  7948  0.48
      P1  H  7997  8008       L1    15  0.67

> <Gold.Chemscore.Hbond.Weighted>
-8.7613

> <Gold.Chemscore.Metal.Weighted>
-0.0000

> <Gold.Chemscore.Lipo.Weighted>
-9.3366

> <Gold.Chemscore.Internal_Hbond.Weighted>
0.0000

> <Gold.Chemscore.DEClash.Weighted>
0.2012

> <Gold.Chemscore.DEInternal.Weighted>
1.4729

> <Gold.Chemscore.Rot.Weighted>
4.4846

> <Gold.Chemscore.Internal.Correction.Weighted>
   9.000000E+99

> <Gold.Protein.RotatedTorsions>
[ 6907 6896 6895 6894 ] final  -52.98 input  -60.11 | X-H torsion
[ 7974 7965 7964 7962 ] final -150.13 input  175.53 | X-H torsion
[ 8008 7997 7996 7995 ] final  -41.03 input   59.86 | X-H torsion
[ 10167 10162 10161 10158 ] final  116.31 input  -65.29 | X-H torsion
[ 10718 10713 10712 10709 ] final  -58.96 input   66.30 | X-H torsion
[ 10763 10752 10751 10750 ] final -147.41 input  -60.55 | X-H torsion
[ 11005 11000 10999 10996 ] final   34.00 input  -57.11 | X-H torsion

> <Gold.Protein.ActiveResidues>
 VAL166  LYS551  ARG553  GLY616  TRP617  ASP618  TYR619  PRO620  LYS621  CYS622 
 ASP623  PHE694  ASN695  SER759  ASP760  ASP761  ALA762  ILE779  LEU786  VAL792 
 PHE793  MET794  SER795  GLU796  ALA797  LYS798  CYS799  TRP800  GLU811  SER814 

> <Gold.Protein.RotatedAtoms>
  150.8468  134.7780  159.6976 H   0  0  0  0  0  0  0  0  0  0  0  0  # atno 6907 bound_to 6896
  152.4543  134.5322  159.9824 H   0  0  0  0  0  0  0  0  0  0  0  0  # atno 6908 bound_to 6896
  151.5451  133.3388  159.2978 H   0  0  0  0  0  0  0  0  0  0  0  0  # atno 6909 bound_to 6896
  144.7926  140.4973  143.5762 H   0  0  0  0  0  0  0  0  0  0  0  0  # atno 7974 bound_to 7965
  154.4007  140.1510  156.3123 H   0  0  0  0  0  0  0  0  0  0  0  0  # atno 8008 bound_to 7997
  155.8604  140.3453  155.5731 H   0  0  0  0  0  0  0  0  0  0  0  0  # atno 8009 bound_to 7997
  155.7886  140.0853  157.2011 H   0  0  0  0  0  0  0  0  0  0  0  0  # atno 8010 bound_to 7997
  139.6256  144.7108  151.2541 H   0  0  0  0  0  0  0  0  0  0  0  0  # atno 10167 bound_to 10162
  156.1096  130.4176  150.0649 H   0  0  0  0  0  0  0  0  0  0  0  0  # atno 10718 bound_to 10713
  154.8287  135.3361  154.6813 H   0  0  0  0  0  0  0  0  0  0  0  0  # atno 10763 bound_to 10752
  153.7435  135.6944  153.4966 H   0  0  0  0  0  0  0  0  0  0  0  0  # atno 10764 bound_to 10752
  153.2227  135.4443  155.0458 H   0  0  0  0  0  0  0  0  0  0  0  0  # atno 10765 bound_to 10752
  140.2573  134.3233  155.7869 H   0  0  0  0  0  0  0  0  0  0  0  0  # atno 11005 bound_to 11000
  145.5755  139.1486  143.3264 LP  0  0  0  0  0  0  0  0  0  0  0  0  # atno 17320 bound_to 7965
  146.2183  140.5887  142.9028 LP  0  0  0  0  0  0  0  0  0  0  0  0  # atno 17321 bound_to 7965
  140.7409  143.6574  150.8194 LP  0  0  0  0  0  0  0  0  0  0  0  0  # atno 17342 bound_to 10162
  140.0192  143.5560  152.2807 LP  0  0  0  0  0  0  0  0  0  0  0  0  # atno 17343 bound_to 10162
  156.8616  130.9493  151.3617 LP  0  0  0  0  0  0  0  0  0  0  0  0  # atno 17370 bound_to 10713
  157.6276  130.8704  149.9217 LP  0  0  0  0  0  0  0  0  0  0  0  0  # atno 17371 bound_to 10713
  141.2194  133.7389  156.9131 LP  0  0  0  0  0  0  0  0  0  0  0  0  # atno 17394 bound_to 11000
  140.1499  134.9237  157.2579 LP  0  0  0  0  0  0  0  0  0  0  0  0  # atno 17395 bound_to 11000

$$$$
