AV-unprocessed.smi:35|AV-procd|sdf|274|dock3
  -GOLD-   2262016 43D 1   1.00000     0.00000
 Structure written by MMmdl.
 28 29  0  0  0  0  0  0  0  0  2 V2000
  148.3696  136.8789  160.8680 O   0  0  0  0  0  0  0  0  0  0  0  0
  148.5767  136.8146  159.6575 C   0  0  0  0  0  0  0  0  0  0  0  0
  149.7538  136.3729  159.1293 N   0  5  0  0  0  0  0  0  0  0  0  0
  149.9828  136.3142  157.7843 C   0  0  0  0  0  0  0  0  0  0  0  0
  151.0311  135.8861  157.3019 O   0  0  0  0  0  0  0  0  0  0  0  0
  148.9698  136.7599  156.8885 N   0  0  0  0  0  0  0  0  0  0  0  0
  149.2287  136.6741  155.3919 C   0  0  1  0  0  0  0  0  0  0  0  0
  148.1446  137.1996  154.6857 O   0  0  0  0  0  0  0  0  0  0  0  0
  148.3815  138.5707  154.3966 C   0  0  2  0  0  0  0  0  0  0  0  0
  147.4763  139.0069  153.2340 C   0  0  0  0  0  0  0  0  0  0  0  0
  147.0273  137.8846  152.5041 O   0  0  0  0  0  0  0  0  0  0  0  0
  149.8817  138.6085  154.0931 C   0  0  1  0  0  0  0  0  0  0  0  0
  150.4163  139.8682  154.4490 O   0  0  0  0  0  0  0  0  0  0  0  0
  150.4646  137.5064  154.9789 C   0  0  2  0  0  0  0  0  0  0  0  0
  151.3858  136.7290  154.2402 O   0  0  0  0  0  0  0  0  0  0  0  0
  147.7487  137.1741  157.3992 C   0  0  0  0  0  0  0  0  0  0  0  0
  147.5261  137.2190  158.7283 C   0  0  0  0  0  0  0  0  0  0  0  0
  145.7346  137.8350  159.3099 Br  0  0  0  0  0  0  0  0  0  0  0  0
  149.3161  135.6045  155.1913 H   0  0  0  0  0  0  0  0  0  0  0  0
  148.1593  139.1577  155.2894 H   0  0  0  0  0  0  0  0  0  0  0  0
  146.6192  139.5750  153.5966 H   0  0  0  0  0  0  0  0  0  0  0  0
  148.0292  139.6571  152.5554 H   0  0  0  0  0  0  0  0  0  0  0  0
  147.7120  137.2330  152.5044 H   0  0  0  0  0  0  0  0  0  0  0  0
  150.0621  138.4044  153.0364 H   0  0  0  0  0  0  0  0  0  0  0  0
  150.6653  139.8388  155.3603 H   0  0  0  0  0  0  0  0  0  0  0  0
  150.9575  137.9175  155.8616 H   0  0  0  0  0  0  0  0  0  0  0  0
  151.0285  136.5815  153.3784 H   0  0  0  0  0  0  0  0  0  0  0  0
  146.9446  137.4629  156.7410 H   0  0  0  0  0  0  0  0  0  0  0  0
  1  2  2  0  0  0  0
  2 17  1  0  0  0  0
  2  3  1  0  0  0  0
  3  4  1  0  0  0  0
  4  5  2  0  0  0  0
  4  6  1  0  0  0  0
  6  7  1  0  0  0  0
  6 16  1  0  0  0  0
  7 14  1  0  0  0  0
  7  8  1  0  0  0  0
  7 19  1  0  0  0  0
  8  9  1  0  0  0  0
  9 10  1  0  0  0  0
  9 12  1  0  0  0  0
  9 20  1  0  0  0  0
 10 11  1  0  0  0  0
 10 21  1  0  0  0  0
 10 22  1  0  0  0  0
 11 23  1  0  0  0  0
 12 13  1  0  0  0  0
 12 14  1  0  0  0  0
 12 24  1  0  0  0  0
 13 25  1  0  0  0  0
 14 15  1  0  0  0  0
 14 26  1  0  0  0  0
 15 27  1  0  0  0  0
 16 17  2  0  0  0  0
 16 28  1  0  0  0  0
 17 18  1  0  0  0  0
M  CHG  1   3  -1
M  END
> <s_m_source_file>
AV-unprocessed.smi

> <i_m_source_file_index>
35

> <i_lp_mmshare_version>
43012

> <i_f3d_flags>
0

> <s_epik_input>
Tz1jMVtuSF1jKD1PKW4oW2NIXWMxQnIpW0NAQEhdMk9bQ0BASF0oW0NIMl1bT0hdKVtDQEBIXShbT0hdKVtDQEhdMltPSF0=

> <s_epik_cmdline>
J2VwaWtfcHl0aG9uJywgJy1waCcsICc3LjAnLCAnLXRuJywgJzgnLCAnLW1hJywgJzIwMCcsICctbWV0YWxfYmluZGluZycsICctaW1hZScsICc8aW5maWxlLm1hZT4nLCAnLW9tYWUnLCAnPG91dGZpbGUubWFlPic=

> <r_epik_Ionization_Penalty>
1.06112

> <r_epik_Ionization_Penalty_Charging>
2.1796e-09

> <r_epik_Ionization_Penalty_Neutral>
1.06112

> <r_epik_State_Penalty>
1.11484

> <r_epik_Charging_Adjusted_Penalty>
1.11484

> <i_epik_Tot_Q>
-1

> <i_epik_Tot_abs_Q>
1

> <r_epik_Metal_State_Penalty>
0.0032876

> <b_epik_Metal_Only>
0

> <s_epik_Chemistry_Notes>
This compound contains an acetal/aminal-like group ( X-CH(R)-Y where X, Y are N, S, or O) that may be acid/base labile, releasing an aldehyde.

> <s_lp_Force_Field>
OPLS_2005

> <r_lp_Energy>
36.7062

> <b_lp_Chiralities_Consistent>
1

> <s_lp_Variant>
AV-unprocessed.smi:35-28

> <Gold.Version>
5.8.1

> <Gold.Id.Protein>
6NUR|6NUR_protein|mol2

> <Gold.PLP.Fitness>
41.2269

> <Gold.PLP.PLP>
-21.1943

> <Gold.PLP.part.hbond>
-6.9290

> <Gold.PLP.part.metal>
0.0000

> <Gold.PLP.part.buried>
-4.0459

> <Gold.PLP.part.nonpolar>
-10.8032

> <Gold.PLP.part.repulsive>
0.4295

> <Gold.PLP.ligand.clash>
0.0000

> <Gold.PLP.ligand.torsion>
0.5561

> <Gold.PLP.Chemscore.Hbond>
7.0385

> <Gold.PLP.Chemscore.CHOScore>
0.0000

> <Gold.PLP.Chemscore.Metal>
0.0000

> <Gold.Chemscore.Hbonds>
donor molecule, donor type, donor heavy atom, donor atom, acceptor molecule, acceptor atom, score
      L1  H    11    23       P1  7948  1.00
      L1  H    15    27       P1  7949  1.00
      P1  H  6896  6907       L1     3  2.00
      P1  H  6931  6943       L1     1  1.00
      P1  H  7989  7998       L1    13  1.00
      P1  H 10752 10765       L1    15  1.00

> <Gold.PLP.Chemscore.Internal.Correction>
0.0292

> <Gold.Rescore>
     Score         DG    S(hbond)    S(metal)    S(lipo)     H(rot)  DE(clash)    DE(int)     intcor
     13.73     -16.66       5.08        0.00      29.87       3.63       2.18       0.75       ----

> <Gold.Chemscore.Fitness>
13.7342

> <Gold.Chemscore.DG>
-16.6623

> <Gold.Chemscore.ZeroCoef>
-5.4800

> <Gold.Chemscore.Hbond>
5.0810

> <Gold.Chemscore.Metal>
0.0000

> <Gold.Chemscore.Lipo>
29.8690

> <Gold.Chemscore.Internal_Hbond>
0.0000

> <Gold.Chemscore.DEClash>
2.1775

> <Gold.Chemscore.DEInternal>
0.7506

> <Gold.Chemscore.Rot>
3.6261

> <Gold.Chemscore.Internal.Correction>
   9.000000E+99

> <Gold.Chemscore.Hbonds>
donor molecule, donor type, donor heavy atom, donor atom, acceptor molecule, acceptor atom, score
      L1  H    11    23       P1  7948  0.98
      L1  H    15    27       P1  7949  0.28
      P1  H  6896  6907       L1     3  0.30
      P1  H  6931  6943       L1     1  0.94
      P1  H  6934  6947       L1     1  0.01
      P1  H  7989  7998       L1    13  0.78
      P1  H 10752 10765       L1    15  0.70

> <Gold.Chemscore.Hbond.Weighted>
-16.9704

> <Gold.Chemscore.Metal.Weighted>
-0.0000

> <Gold.Chemscore.Lipo.Weighted>
-3.4947

> <Gold.Chemscore.Internal_Hbond.Weighted>
0.0000

> <Gold.Chemscore.DEClash.Weighted>
2.1775

> <Gold.Chemscore.DEInternal.Weighted>
0.7506

> <Gold.Chemscore.Rot.Weighted>
9.2828

> <Gold.Chemscore.Internal.Correction.Weighted>
   9.000000E+99

> <Gold.Protein.RotatedTorsions>
[ 6907 6896 6895 6894 ] final  -42.20 input  -60.11 | X-H torsion
[ 7974 7965 7964 7962 ] final -169.42 input  175.53 | X-H torsion
[ 8008 7997 7996 7995 ] final  129.56 input   59.86 | X-H torsion
[ 10167 10162 10161 10158 ] final -136.17 input  -65.29 | X-H torsion
[ 10718 10713 10712 10709 ] final  127.19 input   66.30 | X-H torsion
[ 10763 10752 10751 10750 ] final  174.73 input  -60.55 | X-H torsion
[ 11005 11000 10999 10996 ] final   57.96 input  -57.11 | X-H torsion

> <Gold.Protein.ActiveResidues>
 VAL166  LYS551  ARG553  GLY616  TRP617  ASP618  TYR619  PRO620  LYS621  CYS622 
 ASP623  PHE694  ASN695  SER759  ASP760  ASP761  ALA762  ILE779  LEU786  VAL792 
 PHE793  MET794  SER795  GLU796  ALA797  LYS798  CYS799  TRP800  GLU811  SER814 

> <Gold.Protein.RotatedAtoms>
  150.9580  134.8972  159.7712 H   0  0  0  0  0  0  0  0  0  0  0  0  # atno 6907 bound_to 6896
  152.5145  134.3713  159.9329 H   0  0  0  0  0  0  0  0  0  0  0  0  # atno 6908 bound_to 6896
  151.3726  133.3809  159.2736 H   0  0  0  0  0  0  0  0  0  0  0  0  # atno 6909 bound_to 6896
  144.7186  140.2223  143.6314 H   0  0  0  0  0  0  0  0  0  0  0  0  # atno 7974 bound_to 7965
  156.2938  140.2617  156.2619 H   0  0  0  0  0  0  0  0  0  0  0  0  # atno 8008 bound_to 7997
  154.9780  140.0390  157.2283 H   0  0  0  0  0  0  0  0  0  0  0  0  # atno 8009 bound_to 7997
  154.7798  140.2793  155.6077 H   0  0  0  0  0  0  0  0  0  0  0  0  # atno 8010 bound_to 7997
  139.8705  143.6964  152.2640 H   0  0  0  0  0  0  0  0  0  0  0  0  # atno 10167 bound_to 10162
  157.5355  131.1098  150.8943 H   0  0  0  0  0  0  0  0  0  0  0  0  # atno 10718 bound_to 10713
  154.4579  135.2767  155.1734 H   0  0  0  0  0  0  0  0  0  0  0  0  # atno 10763 bound_to 10752
  154.3534  135.6145  153.5657 H   0  0  0  0  0  0  0  0  0  0  0  0  # atno 10764 bound_to 10752
  152.9852  135.5817  154.4936 H   0  0  0  0  0  0  0  0  0  0  0  0  # atno 10765 bound_to 10752
  140.0413  134.5870  155.9378 H   0  0  0  0  0  0  0  0  0  0  0  0  # atno 11005 bound_to 11000
  145.8489  139.2166  143.1784 LP  0  0  0  0  0  0  0  0  0  0  0  0  # atno 17320 bound_to 7965
  146.0279  140.8286  142.9891 LP  0  0  0  0  0  0  0  0  0  0  0  0  # atno 17321 bound_to 7965
  139.7289  144.7587  151.0834 LP  0  0  0  0  0  0  0  0  0  0  0  0  # atno 17342 bound_to 10162
  140.7761  143.5113  150.9649 LP  0  0  0  0  0  0  0  0  0  0  0  0  # atno 17343 bound_to 10162
  156.9511  130.5420  149.5282 LP  0  0  0  0  0  0  0  0  0  0  0  0  # atno 17370 bound_to 10713
  156.0455  130.5532  150.8870 LP  0  0  0  0  0  0  0  0  0  0  0  0  # atno 17371 bound_to 10713
  141.1884  133.6562  156.5324 LP  0  0  0  0  0  0  0  0  0  0  0  0  # atno 17394 bound_to 11000
  140.4065  134.7310  157.4811 LP  0  0  0  0  0  0  0  0  0  0  0  0  # atno 17395 bound_to 11000

$$$$
