AV-unprocessed.smi:644|AV-procd|sdf|3156|dock6
  -GOLD-   22720 0 83D 1   1.00000     0.00000
 Structure written by MMmdl.
 37 39  0  0  0  0  0  0  0  0  1 V2000
  151.7797  144.4727  159.5875 C   0  0  0  0  0  0  0  0  0  0  0  0
  152.5022  143.2018  159.9983 C   0  0  0  0  0  0  0  0  0  0  0  0
  152.7163  142.1906  159.0343 C   0  0  0  0  0  0  0  0  0  0  0  0
  153.3855  140.9949  159.3753 C   0  0  0  0  0  0  0  0  0  0  0  0
  153.6993  139.8884  158.6047 N   0  0  0  0  0  0  0  0  0  0  0  0
  154.3224  139.1140  159.4883 C   0  0  0  0  0  0  0  0  0  0  0  0
  154.4457  139.5873  160.7434 N   0  0  0  0  0  0  0  0  0  0  0  0
  155.0851  138.9322  161.8702 C   0  0  0  0  0  0  0  0  0  0  0  0
  154.2701  137.7368  162.3989 C   0  0  1  0  0  0  0  0  0  0  0  0
  154.1692  136.7504  161.3891 O   0  0  0  0  0  0  0  0  0  0  0  0
  154.9092  137.1192  163.6530 C   0  0  0  0  0  0  0  0  0  0  0  0
  153.7182  136.1371  164.6166 S   0  0  0  0  0  0  0  0  0  0  0  0
  154.3198  134.5110  164.2899 C   0  0  0  0  0  0  0  0  0  0  0  0
  155.2425  134.1977  163.3686 N   0  0  0  0  0  0  0  0  0  0  0  0
  155.5197  132.8375  163.3392 N   0  0  0  0  0  0  0  0  0  0  0  0
  154.7947  132.1719  164.2411 C   0  0  0  0  0  0  0  0  0  0  0  0
  153.7051  133.1441  165.2123 S   0  0  0  0  0  0  0  0  0  0  0  0
  153.8388  140.8378  160.7176 C   0  0  0  0  0  0  0  0  0  0  0  0
  153.6317  141.8360  161.6858 C   0  0  0  0  0  0  0  0  0  0  0  0
  152.9602  143.0239  161.3287 C   0  0  0  0  0  0  0  0  0  0  0  0
  152.7396  144.0952  162.3819 C   0  0  0  0  0  0  0  0  0  0  0  0
  151.4932  144.4459  158.5358 H   0  0  0  0  0  0  0  0  0  0  0  0
  152.4212  145.3412  159.7374 H   0  0  0  0  0  0  0  0  0  0  0  0
  150.8726  144.6057  160.1774 H   0  0  0  0  0  0  0  0  0  0  0  0
  152.3679  142.3259  158.0210 H   0  0  0  0  0  0  0  0  0  0  0  0
  154.7097  138.1450  159.2082 H   0  0  0  0  0  0  0  0  0  0  0  0
  156.0833  138.6110  161.5691 H   0  0  0  0  0  0  0  0  0  0  0  0
  155.2213  139.6738  162.6585 H   0  0  0  0  0  0  0  0  0  0  0  0
  153.2618  138.0722  162.6446 H   0  0  0  0  0  0  0  0  0  0  0  0
  154.6674  137.0376  160.6390 H   0  0  0  0  0  0  0  0  0  0  0  0
  155.7576  136.4924  163.3751 H   0  0  0  0  0  0  0  0  0  0  0  0
  155.2914  137.9142  164.2945 H   0  0  0  0  0  0  0  0  0  0  0  0
  154.9036  131.1016  164.3364 H   0  0  0  0  0  0  0  0  0  0  0  0
  153.9861  141.6876  162.6951 H   0  0  0  0  0  0  0  0  0  0  0  0
  153.1377  143.7898  163.3501 H   0  0  0  0  0  0  0  0  0  0  0  0
  151.6751  144.2942  162.5069 H   0  0  0  0  0  0  0  0  0  0  0  0
  153.2348  145.0225  162.0934 H   0  0  0  0  0  0  0  0  0  0  0  0
  1  2  1  0  0  0  0
  1 22  1  0  0  0  0
  1 23  1  0  0  0  0
  1 24  1  0  0  0  0
  2 20  1  0  0  0  0
  2  3  2  0  0  0  0
  3  4  1  0  0  0  0
  3 25  1  0  0  0  0
  4 18  2  0  0  0  0
  4  5  1  0  0  0  0
  5  6  2  0  0  0  0
  6  7  1  0  0  0  0
  6 26  1  0  0  0  0
  7  8  1  0  0  0  0
  7 18  1  0  0  0  0
  8  9  1  0  0  0  0
  8 27  1  0  0  0  0
  8 28  1  0  0  0  0
  9 10  1  0  0  0  0
  9 11  1  0  0  0  0
  9 29  1  0  0  0  0
 10 30  1  0  0  0  0
 11 12  1  0  0  0  0
 11 31  1  0  0  0  0
 11 32  1  0  0  0  0
 12 13  1  0  0  0  0
 13 17  1  0  0  0  0
 13 14  2  0  0  0  0
 14 15  1  0  0  0  0
 15 16  2  0  0  0  0
 16 17  1  0  0  0  0
 16 33  1  0  0  0  0
 18 19  1  0  0  0  0
 19 20  2  0  0  0  0
 19 34  1  0  0  0  0
 20 21  1  0  0  0  0
 21 35  1  0  0  0  0
 21 36  1  0  0  0  0
 21 37  1  0  0  0  0
M  END
> <s_m_source_file>
AV-unprocessed.smi

> <i_m_source_file_index>
644

> <i_lp_mmshare_version>
43012

> <i_f3d_flags>
0

> <s_epik_input>
W0NIM11jKFtjSF0xKWMoW0NIM10pW2NIXWMoYzEyKW4oW2NIXW4yKVtDSDJdW0NASF0oW09IXSlbQ0gyXVNjM25uW2NIXXMz

> <s_epik_cmdline>
J2VwaWtfcHl0aG9uJywgJy1waCcsICc3LjAnLCAnLXRuJywgJzgnLCAnLW1hJywgJzIwMCcsICctbWV0YWxfYmluZGluZycsICctaW1hZScsICc8aW5maWxlLm1hZT4nLCAnLW9tYWUnLCAnPG91dGZpbGUubWFlPic=

> <r_lp_tautomer_probability>
1

> <r_epik_Ionization_Penalty>
0.105397

> <r_epik_Ionization_Penalty_Charging>
0

> <r_epik_Ionization_Penalty_Neutral>
0.105397

> <r_epik_State_Penalty>
0.0952713

> <r_epik_Charging_Adjusted_Penalty>
0.0952713

> <i_epik_Tot_Q>
0

> <i_epik_Tot_abs_Q>
0

> <r_epik_Metal_State_Penalty>
0.0807681

> <b_epik_Metal_Only>
0

> <s_lp_Force_Field>
OPLS_2005

> <r_lp_Energy>
7.47595

> <b_lp_Chiralities_Consistent>
1

> <s_lp_Variant>
AV-unprocessed.smi:644-2

> <Gold.Version>
5.8.1

> <Gold.Id.Protein>
6NUR|6NUR_protein|mol2

> <Gold.PLP.Fitness>
49.0785

> <Gold.PLP.PLP>
-47.5434

> <Gold.PLP.part.hbond>
-1.0000

> <Gold.PLP.part.metal>
0.0000

> <Gold.PLP.part.buried>
-3.9091

> <Gold.PLP.part.nonpolar>
-41.5708

> <Gold.PLP.part.repulsive>
0.0144

> <Gold.PLP.ligand.clash>
0.0000

> <Gold.PLP.ligand.torsion>
0.7539

> <Gold.PLP.Chemscore.Hbond>
1.0000

> <Gold.PLP.Chemscore.CHOScore>
0.0000

> <Gold.PLP.Chemscore.Metal>
0.0000

> <Gold.Chemscore.Hbonds>
donor molecule, donor type, donor heavy atom, donor atom, acceptor molecule, acceptor atom, score
      P1  H  7997  8009       L1     5  1.00

> <Gold.PLP.Chemscore.Internal.Correction>
0.0429

> <Gold.Rescore>
     Score         DG    S(hbond)    S(metal)    S(lipo)     H(rot)  DE(clash)    DE(int)     intcor
     17.42     -19.21       0.95        0.00     144.20       2.46       0.37       1.42       ----

> <Gold.Chemscore.Fitness>
17.4204

> <Gold.Chemscore.DG>
-19.2134

> <Gold.Chemscore.ZeroCoef>
-5.4800

> <Gold.Chemscore.Hbond>
0.9451

> <Gold.Chemscore.Metal>
0.0000

> <Gold.Chemscore.Lipo>
144.1982

> <Gold.Chemscore.Internal_Hbond>
0.0000

> <Gold.Chemscore.DEClash>
0.3745

> <Gold.Chemscore.DEInternal>
1.4184

> <Gold.Chemscore.Rot>
2.4588

> <Gold.Chemscore.Internal.Correction>
   9.000000E+99

> <Gold.Chemscore.Hbonds>
donor molecule, donor type, donor heavy atom, donor atom, acceptor molecule, acceptor atom, score
      P1  H  7997  8009       L1     5  0.42

> <Gold.Chemscore.Hbond.Weighted>
-3.1567

> <Gold.Chemscore.Metal.Weighted>
-0.0000

> <Gold.Chemscore.Lipo.Weighted>
-16.8712

> <Gold.Chemscore.Internal_Hbond.Weighted>
0.0000

> <Gold.Chemscore.DEClash.Weighted>
0.3745

> <Gold.Chemscore.DEInternal.Weighted>
1.4184

> <Gold.Chemscore.Rot.Weighted>
6.2946

> <Gold.Chemscore.Internal.Correction.Weighted>
   9.000000E+99

> <Gold.Protein.RotatedTorsions>
[ 6907 6896 6895 6894 ] final  -80.20 input  -60.11 | X-H torsion
[ 7974 7965 7964 7962 ] final  109.69 input  175.53 | X-H torsion
[ 8008 7997 7996 7995 ] final  134.07 input   59.86 | X-H torsion
[ 10167 10162 10161 10158 ] final -140.42 input  -65.29 | X-H torsion
[ 10718 10713 10712 10709 ] final  161.66 input   66.30 | X-H torsion
[ 10763 10752 10751 10750 ] final  168.40 input  -60.55 | X-H torsion
[ 11005 11000 10999 10996 ] final  162.29 input  -57.11 | X-H torsion

> <Gold.Protein.ActiveResidues>
 VAL166  LYS551  ARG553  GLY616  TRP617  ASP618  TYR619  PRO620  LYS621  CYS622 
 ASP623  PHE694  ASN695  SER759  ASP760  ASP761  ALA762  ILE779  LEU786  VAL792 
 PHE793  MET794  SER795  GLU796  ALA797  LYS798  CYS799  TRP800  GLU811  SER814 

> <Gold.Protein.RotatedAtoms>
  150.6934  134.4006  159.5116 H   0  0  0  0  0  0  0  0  0  0  0  0  # atno 6907 bound_to 6896
  152.1780  134.8775  160.0538 H   0  0  0  0  0  0  0  0  0  0  0  0  # atno 6908 bound_to 6896
  151.9776  133.3712  159.4132 H   0  0  0  0  0  0  0  0  0  0  0  0  # atno 6909 bound_to 6896
  145.2645  139.2690  143.3999 H   0  0  0  0  0  0  0  0  0  0  0  0  # atno 7974 bound_to 7965
  156.2997  140.2505  156.3356 H   0  0  0  0  0  0  0  0  0  0  0  0  # atno 8008 bound_to 7997
  154.9103  140.0403  157.1962 H   0  0  0  0  0  0  0  0  0  0  0  0  # atno 8009 bound_to 7997
  154.8412  140.2891  155.5662 H   0  0  0  0  0  0  0  0  0  0  0  0  # atno 8010 bound_to 7997
  139.8284  143.7480  152.2666 H   0  0  0  0  0  0  0  0  0  0  0  0  # atno 10167 bound_to 10162
  157.1334  131.0522  151.2361 H   0  0  0  0  0  0  0  0  0  0  0  0  # atno 10718 bound_to 10713
  154.3680  135.2753  155.2283 H   0  0  0  0  0  0  0  0  0  0  0  0  # atno 10763 bound_to 10752
  154.4442  135.5947  153.6153 H   0  0  0  0  0  0  0  0  0  0  0  0  # atno 10764 bound_to 10752
  152.9840  135.6026  154.3908 H   0  0  0  0  0  0  0  0  0  0  0  0  # atno 10765 bound_to 10752
  140.2243  134.8172  157.3252 H   0  0  0  0  0  0  0  0  0  0  0  0  # atno 11005 bound_to 11000
  146.3265  140.3071  142.8624 LP  0  0  0  0  0  0  0  0  0  0  0  0  # atno 17320 bound_to 7965
  144.9389  140.8057  143.5643 LP  0  0  0  0  0  0  0  0  0  0  0  0  # atno 17321 bound_to 7965
  139.7680  144.7486  151.0266 LP  0  0  0  0  0  0  0  0  0  0  0  0  # atno 17342 bound_to 10162
  140.7808  143.4676  151.0190 LP  0  0  0  0  0  0  0  0  0  0  0  0  # atno 17343 bound_to 10162
  157.4372  130.7524  149.7039 LP  0  0  0  0  0  0  0  0  0  0  0  0  # atno 17370 bound_to 10713
  155.9803  130.4031  150.3535 LP  0  0  0  0  0  0  0  0  0  0  0  0  # atno 17371 bound_to 10713
  140.1817  134.4482  155.7768 LP  0  0  0  0  0  0  0  0  0  0  0  0  # atno 17394 bound_to 11000
  141.2221  133.6986  156.7879 LP  0  0  0  0  0  0  0  0  0  0  0  0  # atno 17395 bound_to 11000

$$$$
