AV-unprocessed.smi:2831|AV-procd|sdf|10908|dock4
  -GOLD-   2272015353D 1   1.00000     0.00000
 Structure written by MMmdl.
 30 31  0  0  0  0  0  0  0  0  1 V2000
  148.4929  129.3322  153.8035 C   0  0  0  0  0  0  0  0  0  0  0  0
  148.9468  130.7076  154.1554 C   0  0  0  0  0  0  0  0  0  0  0  0
  149.7334  130.9629  155.2079 N   0  0  0  0  0  0  0  0  0  0  0  0
  150.0172  132.3154  155.3368 N   0  0  0  0  0  0  0  0  0  0  0  0
  149.4322  133.0428  154.3752 C   0  0  0  0  0  0  0  0  0  0  0  0
  149.5500  134.4540  154.2706 N   0  0  0  0  0  0  0  0  0  0  0  0
  150.0590  135.3171  155.1671 C   0  0  0  0  0  0  0  0  0  0  0  0
  150.5332  135.0082  156.2604 O   0  0  0  0  0  0  0  0  0  0  0  0
  149.9854  136.5802  154.7154 N   0  0  0  0  0  0  0  0  0  0  0  0
  150.4479  137.7958  155.3954 C   0  0  1  0  0  0  0  0  0  0  0  0
  149.7493  137.9452  156.7643 C   0  0  0  0  0  0  0  0  0  0  0  0
  151.9726  137.7309  155.5714 C   0  0  0  0  0  0  0  0  0  0  0  0
  152.5141  138.8604  154.6993 C   0  0  0  0  0  0  0  0  0  0  0  0
  151.4559  139.7995  154.6956 O   0  0  0  0  0  0  0  0  0  0  0  0
  150.2647  139.0526  154.5168 C   0  0  0  0  0  0  0  0  0  0  0  0
  148.4800  132.1241  153.2216 S   0  0  0  0  0  0  0  0  0  0  0  0
  149.2162  128.5916  154.1463 H   0  0  0  0  0  0  0  0  0  0  0  0
  148.3831  129.2366  152.7230 H   0  0  0  0  0  0  0  0  0  0  0  0
  147.5309  129.1271  154.2731 H   0  0  0  0  0  0  0  0  0  0  0  0
  149.2015  134.8543  153.4122 H   0  0  0  0  0  0  0  0  0  0  0  0
  149.5729  136.7189  153.8047 H   0  0  0  0  0  0  0  0  0  0  0  0
  150.1139  138.8233  157.2986 H   0  0  0  0  0  0  0  0  0  0  0  0
  149.9293  137.0753  157.3968 H   0  0  0  0  0  0  0  0  0  0  0  0
  148.6702  138.0598  156.6602 H   0  0  0  0  0  0  0  0  0  0  0  0
  152.2509  137.9158  156.6097 H   0  0  0  0  0  0  0  0  0  0  0  0
  152.4066  136.7691  155.2943 H   0  0  0  0  0  0  0  0  0  0  0  0
  153.4357  139.2915  155.0907 H   0  0  0  0  0  0  0  0  0  0  0  0
  152.7004  138.5140  153.6814 H   0  0  0  0  0  0  0  0  0  0  0  0
  150.1798  138.7972  153.4590 H   0  0  0  0  0  0  0  0  0  0  0  0
  149.3864  139.6401  154.7861 H   0  0  0  0  0  0  0  0  0  0  0  0
  1  2  1  0  0  0  0
  1 17  1  0  0  0  0
  1 18  1  0  0  0  0
  1 19  1  0  0  0  0
  2 16  1  0  0  0  0
  2  3  2  0  0  0  0
  3  4  1  0  0  0  0
  4  5  2  0  0  0  0
  5  6  1  0  0  0  0
  5 16  1  0  0  0  0
  6  7  1  0  0  0  0
  6 20  1  0  0  0  0
  7  8  2  0  0  0  0
  7  9  1  0  0  0  0
  9 10  1  0  0  0  0
  9 21  1  0  0  0  0
 10 15  1  0  0  0  0
 10 11  1  0  0  0  0
 10 12  1  0  0  0  0
 11 22  1  0  0  0  0
 11 23  1  0  0  0  0
 11 24  1  0  0  0  0
 12 13  1  0  0  0  0
 12 25  1  0  0  0  0
 12 26  1  0  0  0  0
 13 14  1  0  0  0  0
 13 27  1  0  0  0  0
 13 28  1  0  0  0  0
 14 15  1  0  0  0  0
 15 29  1  0  0  0  0
 15 30  1  0  0  0  0
M  END
> <s_m_source_file>
AV-unprocessed.smi

> <i_m_source_file_index>
2831

> <i_lp_mmshare_version>
43012

> <i_f3d_flags>
0

> <s_epik_input>
W0NIM11jMW5uYyhzMSlbTkhdQyg9TylbTkhdW0NAQF0yKFtDSDNdKVtDSDJdW0NIMl1PW0NIMl0y

> <s_epik_cmdline>
J2VwaWtfcHl0aG9uJywgJy1waCcsICc3LjAnLCAnLXRuJywgJzgnLCAnLW1hJywgJzIwMCcsICctbWV0YWxfYmluZGluZycsICctaW1hZScsICc8aW5maWxlLm1hZT4nLCAnLW9tYWUnLCAnPG91dGZpbGUubWFlPic=

> <r_lp_tautomer_probability>
1

> <r_epik_Ionization_Penalty>
0.00277018

> <r_epik_Ionization_Penalty_Charging>
0

> <r_epik_Ionization_Penalty_Neutral>
0.00277018

> <r_epik_State_Penalty>
-0

> <r_epik_Charging_Adjusted_Penalty>
0

> <i_epik_Tot_Q>
0

> <i_epik_Tot_abs_Q>
0

> <r_epik_Metal_State_Penalty>
0.356997

> <b_epik_Metal_Only>
0

> <s_lp_Force_Field>
OPLS_2005

> <r_lp_Energy>
15.109

> <b_lp_Chiralities_Consistent>
1

> <s_lp_Variant>
AV-unprocessed.smi:2831-1

> <Gold.Version>
5.8.1

> <Gold.Id.Protein>
6NUR|6NUR_protein|mol2

> <Gold.PLP.Fitness>
33.0616

> <Gold.PLP.PLP>
-24.4163

> <Gold.PLP.part.hbond>
-3.0000

> <Gold.PLP.part.metal>
0.0000

> <Gold.PLP.part.buried>
-4.8451

> <Gold.PLP.part.nonpolar>
-17.8527

> <Gold.PLP.part.repulsive>
0.1449

> <Gold.PLP.ligand.clash>
0.0000

> <Gold.PLP.ligand.torsion>
0.0412

> <Gold.PLP.Chemscore.Hbond>
2.9000

> <Gold.PLP.Chemscore.CHOScore>
0.0000

> <Gold.PLP.Chemscore.Metal>
0.0000

> <Gold.Chemscore.Hbonds>
donor molecule, donor type, donor heavy atom, donor atom, acceptor molecule, acceptor atom, score
      L1  H     6    20       P1  7948  0.72
      L1  H     9    21       P1  7948  0.91
      P1  H  7989  7998       L1    14  1.00

> <Gold.PLP.Chemscore.Internal.Correction>
0.0275

> <Gold.Rescore>
     Score         DG    S(hbond)    S(metal)    S(lipo)     H(rot)  DE(clash)    DE(int)     intcor
     12.93     -14.31       1.92        0.00      42.57       1.00       0.07       1.31       ----

> <Gold.Chemscore.Fitness>
12.9302

> <Gold.Chemscore.DG>
-14.3076

> <Gold.Chemscore.ZeroCoef>
-5.4800

> <Gold.Chemscore.Hbond>
1.9182

> <Gold.Chemscore.Metal>
0.0000

> <Gold.Chemscore.Lipo>
42.5712

> <Gold.Chemscore.Internal_Hbond>
0.0000

> <Gold.Chemscore.DEClash>
0.0650

> <Gold.Chemscore.DEInternal>
1.3124

> <Gold.Chemscore.Rot>
1.0000

> <Gold.Chemscore.Internal.Correction>
   9.000000E+99

> <Gold.Chemscore.Hbonds>
donor molecule, donor type, donor heavy atom, donor atom, acceptor molecule, acceptor atom, score
      L1  H     6    20       P1  7948  0.09
      L1  H     9    21       P1  7948  0.68
      P1  H  7989  7998       L1    14  0.58

> <Gold.Chemscore.Hbond.Weighted>
-6.4068

> <Gold.Chemscore.Metal.Weighted>
-0.0000

> <Gold.Chemscore.Lipo.Weighted>
-4.9808

> <Gold.Chemscore.Internal_Hbond.Weighted>
0.0000

> <Gold.Chemscore.DEClash.Weighted>
0.0650

> <Gold.Chemscore.DEInternal.Weighted>
1.3124

> <Gold.Chemscore.Rot.Weighted>
2.5600

> <Gold.Chemscore.Internal.Correction.Weighted>
   9.000000E+99

> <Gold.Protein.RotatedTorsions>
[ 6907 6896 6895 6894 ] final   74.53 input  -60.11 | X-H torsion
[ 7974 7965 7964 7962 ] final   25.34 input  175.53 | X-H torsion
[ 8008 7997 7996 7995 ] final -116.96 input   59.86 | X-H torsion
[ 10167 10162 10161 10158 ] final  142.40 input  -65.29 | X-H torsion
[ 10718 10713 10712 10709 ] final   50.68 input   66.30 | X-H torsion
[ 10763 10752 10751 10750 ] final  145.04 input  -60.55 | X-H torsion
[ 11005 11000 10999 10996 ] final   -9.70 input  -57.11 | X-H torsion

> <Gold.Protein.ActiveResidues>
 VAL166  LYS551  ARG553  GLY616  TRP617  ASP618  TYR619  PRO620  LYS621  CYS622 
 ASP623  PHE694  ASN695  SER759  ASP760  ASP761  ALA762  ILE779  LEU786  VAL792 
 PHE793  MET794  SER795  GLU796  ALA797  LYS798  CYS799  TRP800  GLU811  SER814 

> <Gold.Protein.RotatedAtoms>
  152.4981  134.4257  159.9495 H   0  0  0  0  0  0  0  0  0  0  0  0  # atno 6907 bound_to 6896
  151.4232  133.3686  159.2766 H   0  0  0  0  0  0  0  0  0  0  0  0  # atno 6908 bound_to 6896
  150.9207  134.8647  159.7547 H   0  0  0  0  0  0  0  0  0  0  0  0  # atno 6909 bound_to 6896
  146.1893  139.7479  142.8843 H   0  0  0  0  0  0  0  0  0  0  0  0  # atno 7974 bound_to 7965
  155.0762  140.0394  157.2624 H   0  0  0  0  0  0  0  0  0  0  0  0  # atno 8008 bound_to 7997
  154.6943  140.2660  155.6757 H   0  0  0  0  0  0  0  0  0  0  0  0  # atno 8009 bound_to 7997
  156.2739  140.2753  156.1532 H   0  0  0  0  0  0  0  0  0  0  0  0  # atno 8010 bound_to 7997
  139.4995  144.6109  151.6272 H   0  0  0  0  0  0  0  0  0  0  0  0  # atno 10167 bound_to 10162
  157.4908  130.8374  149.8200 H   0  0  0  0  0  0  0  0  0  0  0  0  # atno 10718 bound_to 10713
  153.9989  135.2925  155.3404 H   0  0  0  0  0  0  0  0  0  0  0  0  # atno 10763 bound_to 10752
  154.7171  135.5125  153.8758 H   0  0  0  0  0  0  0  0  0  0  0  0  # atno 10764 bound_to 10752
  153.0775  135.6668  154.0232 H   0  0  0  0  0  0  0  0  0  0  0  0  # atno 10765 bound_to 10752
  140.7369  133.8702  155.8937 H   0  0  0  0  0  0  0  0  0  0  0  0  # atno 11005 bound_to 11000
  145.3842  141.0363  143.3160 LP  0  0  0  0  0  0  0  0  0  0  0  0  # atno 17320 bound_to 7965
  144.8456  139.5402  143.6880 LP  0  0  0  0  0  0  0  0  0  0  0  0  # atno 17321 bound_to 7965
  140.5784  143.9988  150.6254 LP  0  0  0  0  0  0  0  0  0  0  0  0  # atno 17342 bound_to 10162
  140.3129  143.3186  152.0861 LP  0  0  0  0  0  0  0  0  0  0  0  0  # atno 17343 bound_to 10162
  156.0172  130.3809  150.2073 LP  0  0  0  0  0  0  0  0  0  0  0  0  # atno 17370 bound_to 10713
  157.0262  130.9994  151.3325 LP  0  0  0  0  0  0  0  0  0  0  0  0  # atno 17371 bound_to 10713
  140.9871  134.1328  157.4442 LP  0  0  0  0  0  0  0  0  0  0  0  0  # atno 17394 bound_to 11000
  139.8814  135.0029  156.6154 LP  0  0  0  0  0  0  0  0  0  0  0  0  # atno 17395 bound_to 11000

$$$$
