AV-unprocessed.smi:2188|AV-procd|sdf|8882|dock6
  -GOLD-   2272012 83D 1   1.00000     0.00000
 Structure written by MMmdl.
 38 40  0  0  0  0  0  0  0  0  2 V2000
  151.7210  140.2272  155.4643 O   0  0  0  0  0  0  0  0  0  0  0  0
  150.9533  140.9833  156.0742 C   0  0  0  0  0  0  0  0  0  0  0  0
  149.6436  141.2052  155.7414 N   0  5  0  0  0  0  0  0  0  0  0  0
  148.8713  140.4423  154.7598 C   0  0  0  0  0  0  0  0  0  0  0  0
  147.9958  141.4040  153.9314 C   0  0  0  0  0  0  0  0  0  0  0  0
  146.7797  141.9289  154.6830 C   0  0  0  0  0  0  0  0  0  0  0  0
  145.8517  142.7876  154.0538 C   0  0  0  0  0  0  0  0  0  0  0  0
  144.7486  143.2566  154.7925 C   0  0  0  0  0  0  0  0  0  0  0  0
  144.6204  142.8509  156.1357 C   0  0  0  0  0  0  0  0  0  0  0  0
  145.5028  142.0358  156.7523 N   0  0  0  0  0  0  0  0  0  0  0  0
  146.5576  141.5891  156.0363 C   0  0  0  0  0  0  0  0  0  0  0  0
  151.4660  141.7389  157.2363 C   0  0  0  0  0  0  0  0  0  0  0  0
  150.9940  142.9956  157.4533 C   0  0  0  0  0  0  0  0  0  0  0  0
  151.4310  143.7925  158.5721 C   0  0  0  0  0  0  0  0  0  0  0  0
  152.3526  143.2743  159.3900 C   0  0  0  0  0  0  0  0  0  0  0  0
  152.9058  142.0077  159.2118 N   0  0  0  0  0  0  0  0  0  0  0  0
  153.9751  141.6200  160.1258 C   0  0  0  0  0  0  0  0  0  0  0  0
  153.8168  140.1686  160.5397 C   0  0  0  0  0  0  0  0  0  0  0  0
  154.0097  139.1917  159.0067 S   0  0  0  0  0  0  0  0  0  0  0  0
  155.3462  139.4669  158.4562 O   0  0  0  0  0  0  0  0  0  0  0  0
  153.6218  137.8034  159.2982 O   0  0  0  0  0  0  0  0  0  0  0  0
  152.8526  139.9168  158.0374 N   0  0  0  0  0  0  0  0  0  0  0  0
  152.4568  141.1522  158.1655 C   0  0  0  0  0  0  0  0  0  0  0  0
  149.5087  139.8796  154.0762 H   0  0  0  0  0  0  0  0  0  0  0  0
  148.2308  139.7049  155.2447 H   0  0  0  0  0  0  0  0  0  0  0  0
  148.5926  142.2541  153.5972 H   0  0  0  0  0  0  0  0  0  0  0  0
  147.6500  140.9026  153.0260 H   0  0  0  0  0  0  0  0  0  0  0  0
  145.9806  143.0784  153.0215 H   0  0  0  0  0  0  0  0  0  0  0  0
  144.0183  143.9111  154.3400 H   0  0  0  0  0  0  0  0  0  0  0  0
  143.7868  143.1925  156.7313 H   0  0  0  0  0  0  0  0  0  0  0  0
  147.2449  140.9404  156.5596 H   0  0  0  0  0  0  0  0  0  0  0  0
  150.2765  143.4455  156.7818 H   0  0  0  0  0  0  0  0  0  0  0  0
  151.0255  144.7786  158.7430 H   0  0  0  0  0  0  0  0  0  0  0  0
  152.7208  143.8238  160.2441 H   0  0  0  0  0  0  0  0  0  0  0  0
  154.9393  141.7844  159.6438 H   0  0  0  0  0  0  0  0  0  0  0  0
  153.9640  142.2433  161.0204 H   0  0  0  0  0  0  0  0  0  0  0  0
  154.5849  139.8625  161.2495 H   0  0  0  0  0  0  0  0  0  0  0  0
  152.8376  139.9691  160.9767 H   0  0  0  0  0  0  0  0  0  0  0  0
  1  2  2  0  0  0  0
  2  3  1  0  0  0  0
  2 12  1  0  0  0  0
  3  4  1  0  0  0  0
  4  5  1  0  0  0  0
  4 24  1  0  0  0  0
  4 25  1  0  0  0  0
  5  6  1  0  0  0  0
  5 26  1  0  0  0  0
  5 27  1  0  0  0  0
  6 11  1  0  0  0  0
  6  7  2  0  0  0  0
  7  8  1  0  0  0  0
  7 28  1  0  0  0  0
  8  9  2  0  0  0  0
  8 29  1  0  0  0  0
  9 10  1  0  0  0  0
  9 30  1  0  0  0  0
 10 11  2  0  0  0  0
 11 31  1  0  0  0  0
 12 23  1  0  0  0  0
 12 13  2  0  0  0  0
 13 14  1  0  0  0  0
 13 32  1  0  0  0  0
 14 15  2  0  0  0  0
 14 33  1  0  0  0  0
 15 16  1  0  0  0  0
 15 34  1  0  0  0  0
 16 23  1  0  0  0  0
 16 17  1  0  0  0  0
 17 18  1  0  0  0  0
 17 35  1  0  0  0  0
 17 36  1  0  0  0  0
 18 19  1  0  0  0  0
 18 37  1  0  0  0  0
 18 38  1  0  0  0  0
 19 20  2  0  0  0  0
 19 21  2  0  0  0  0
 19 22  1  0  0  0  0
 22 23  2  0  0  0  0
M  CHG  1   3  -1
M  END
> <s_m_source_file>
AV-unprocessed.smi

> <i_m_source_file_index>
2188

> <i_lp_mmshare_version>
43012

> <i_f3d_flags>
0

> <s_epik_input>
W0NIMl0xW0NIMl1TKD1PKSg9TylOPUMoTjEyKUMoPVtDSF1bQ0hdPVtDSF0yKUMoPU8pW05IXVtDSDJdW0NIMl1jM1tjSF1bY0hdW2NIXW5bY0hdMw==

> <s_epik_cmdline>
J2VwaWtfcHl0aG9uJywgJy1waCcsICc3LjAnLCAnLXRuJywgJzgnLCAnLW1hJywgJzIwMCcsICctbWV0YWxfYmluZGluZycsICctaW1hZScsICc8aW5maWxlLm1hZT4nLCAnLW9tYWUnLCAnPG91dGZpbGUubWFlPic=

> <r_epik_Ionization_Penalty>
5.61471

> <r_epik_Ionization_Penalty_Charging>
5.5942

> <r_epik_Ionization_Penalty_Neutral>
0.0205175

> <r_epik_State_Penalty>
5.60129

> <r_epik_Charging_Adjusted_Penalty>
11.1955

> <i_epik_Tot_Q>
-1

> <i_epik_Tot_abs_Q>
1

> <r_epik_Metal_State_Penalty>
1.60393

> <b_epik_Metal_Only>
1

> <s_lp_Force_Field>
OPLS_2005

> <r_lp_Energy>
34.9518

> <b_lp_Chiralities_Consistent>
1

> <s_lp_Variant>
AV-unprocessed.smi:2188-3

> <Gold.Version>
5.8.1

> <Gold.Id.Protein>
6NUR|6NUR_protein|mol2

> <Gold.PLP.Fitness>
50.5706

> <Gold.PLP.PLP>
-46.1363

> <Gold.PLP.part.hbond>
-2.3855

> <Gold.PLP.part.metal>
0.0000

> <Gold.PLP.part.buried>
-5.4366

> <Gold.PLP.part.nonpolar>
-38.6578

> <Gold.PLP.part.repulsive>
0.2058

> <Gold.PLP.ligand.clash>
0.0000

> <Gold.PLP.ligand.torsion>
0.7162

> <Gold.PLP.Chemscore.Hbond>
1.8580

> <Gold.PLP.Chemscore.CHOScore>
0.0000

> <Gold.PLP.Chemscore.Metal>
0.0000

> <Gold.Chemscore.Hbonds>
donor molecule, donor type, donor heavy atom, donor atom, acceptor molecule, acceptor atom, score
      P1  H  7989  7998       L1     1  0.80
      P1  H  7997  8008       L1    20  0.32

> <Gold.PLP.Chemscore.Internal.Correction>
0.2927

> <Gold.Rescore>
     Score         DG    S(hbond)    S(metal)    S(lipo)     H(rot)  DE(clash)    DE(int)     intcor
     15.03     -17.13       0.99        0.00     102.95       1.44       0.06       2.03       ----

> <Gold.Chemscore.Fitness>
15.0325

> <Gold.Chemscore.DG>
-17.1277

> <Gold.Chemscore.ZeroCoef>
-5.4800

> <Gold.Chemscore.Hbond>
0.9872

> <Gold.Chemscore.Metal>
0.0000

> <Gold.Chemscore.Lipo>
102.9518

> <Gold.Chemscore.Internal_Hbond>
0.0000

> <Gold.Chemscore.DEClash>
0.0615

> <Gold.Chemscore.DEInternal>
2.0337

> <Gold.Chemscore.Rot>
1.4433

> <Gold.Chemscore.Internal.Correction>
   9.000000E+99

> <Gold.Chemscore.Hbonds>
donor molecule, donor type, donor heavy atom, donor atom, acceptor molecule, acceptor atom, score
      P1  H  7989  7998       L1     1  0.38
      P1  H  7997  8008       L1    20  0.33

> <Gold.Chemscore.Hbond.Weighted>
-3.2973

> <Gold.Chemscore.Metal.Weighted>
-0.0000

> <Gold.Chemscore.Lipo.Weighted>
-12.0454

> <Gold.Chemscore.Internal_Hbond.Weighted>
0.0000

> <Gold.Chemscore.DEClash.Weighted>
0.0615

> <Gold.Chemscore.DEInternal.Weighted>
2.0337

> <Gold.Chemscore.Rot.Weighted>
3.6949

> <Gold.Chemscore.Internal.Correction.Weighted>
   9.000000E+99

> <Gold.Protein.RotatedTorsions>
[ 6907 6896 6895 6894 ] final -124.91 input  -60.11 | X-H torsion
[ 7974 7965 7964 7962 ] final  -80.29 input  175.53 | X-H torsion
[ 8008 7997 7996 7995 ] final -145.74 input   59.86 | X-H torsion
[ 10167 10162 10161 10158 ] final  -34.23 input  -65.29 | X-H torsion
[ 10718 10713 10712 10709 ] final  169.74 input   66.30 | X-H torsion
[ 10763 10752 10751 10750 ] final  156.39 input  -60.55 | X-H torsion
[ 11005 11000 10999 10996 ] final  -26.14 input  -57.11 | X-H torsion

> <Gold.Protein.ActiveResidues>
 VAL166  LYS551  ARG553  GLY616  TRP617  ASP618  TYR619  PRO620  LYS621  CYS622 
 ASP623  PHE694  ASN695  SER759  ASP760  ASP761  ALA762  ILE779  LEU786  VAL792 
 PHE793  MET794  SER795  GLU796  ALA797  LYS798  CYS799  TRP800  GLU811  SER814 

> <Gold.Protein.RotatedAtoms>
  150.8815  133.7366  159.2930 H   0  0  0  0  0  0  0  0  0  0  0  0  # atno 6907 bound_to 6896
  151.4946  135.1057  159.9822 H   0  0  0  0  0  0  0  0  0  0  0  0  # atno 6908 bound_to 6896
  152.4762  133.8099  159.7053 H   0  0  0  0  0  0  0  0  0  0  0  0  # atno 6909 bound_to 6896
  145.5619  140.9480  143.1442 H   0  0  0  0  0  0  0  0  0  0  0  0  # atno 7974 bound_to 7965
  155.5481  140.0614  157.2856 H   0  0  0  0  0  0  0  0  0  0  0  0  # atno 8008 bound_to 7997
  154.4430  140.1907  156.0703 H   0  0  0  0  0  0  0  0  0  0  0  0  # atno 8009 bound_to 7997
  156.0536  140.3281  155.7383 H   0  0  0  0  0  0  0  0  0  0  0  0  # atno 8010 bound_to 7997
  140.7189  143.3563  151.2053 H   0  0  0  0  0  0  0  0  0  0  0  0  # atno 10167 bound_to 10162
  157.0183  131.0224  151.2782 H   0  0  0  0  0  0  0  0  0  0  0  0  # atno 10718 bound_to 10713
  154.1836  135.2798  155.3044 H   0  0  0  0  0  0  0  0  0  0  0  0  # atno 10763 bound_to 10752
  154.5983  135.5538  153.7352 H   0  0  0  0  0  0  0  0  0  0  0  0  # atno 10764 bound_to 10752
  153.0131  135.6385  154.1975 H   0  0  0  0  0  0  0  0  0  0  0  0  # atno 10765 bound_to 10752
  140.9002  133.7529  156.0534 H   0  0  0  0  0  0  0  0  0  0  0  0  # atno 11005 bound_to 11000
  144.7479  139.7272  143.7285 LP  0  0  0  0  0  0  0  0  0  0  0  0  # atno 17320 bound_to 7965
  146.1845  139.5053  142.9845 LP  0  0  0  0  0  0  0  0  0  0  0  0  # atno 17321 bound_to 7965
  139.7105  143.9385  152.2945 LP  0  0  0  0  0  0  0  0  0  0  0  0  # atno 17342 bound_to 10162
  139.9108  144.6857  150.8564 LP  0  0  0  0  0  0  0  0  0  0  0  0  # atno 17343 bound_to 10162
  157.5269  130.8033  149.7872 LP  0  0  0  0  0  0  0  0  0  0  0  0  # atno 17370 bound_to 10713
  156.0111  130.3833  150.2261 LP  0  0  0  0  0  0  0  0  0  0  0  0  # atno 17371 bound_to 10713
  140.8239  134.3257  157.5372 LP  0  0  0  0  0  0  0  0  0  0  0  0  # atno 17394 bound_to 11000
  139.8741  134.9325  156.3555 LP  0  0  0  0  0  0  0  0  0  0  0  0  # atno 17395 bound_to 11000

$$$$
