AV-unprocessed.smi:580|AV-procd|sdf|2990|dock2
  -GOLD-   2262023493D 1   1.00000     0.00000
 Structure written by MMmdl.
 36 37  0  0  0  0  0  0  0  0  1 V2000
  150.6266  141.9501  156.2101 C   0  0  0  0  0  0  0  0  0  0  0  0
  150.3591  140.7032  155.4391 C   0  0  0  0  0  0  0  0  0  0  0  0
  149.2105  140.0334  155.1229 C   0  0  0  0  0  0  0  0  0  0  0  0
  149.6833  138.9256  154.3704 C   0  0  0  0  0  0  0  0  0  0  0  0
  148.7818  137.9643  153.8465 N   0  0  0  0  0  0  0  0  0  0  0  0
  147.4835  137.8050  154.1544 C   0  0  0  0  0  0  0  0  0  0  0  0
  146.8600  138.4821  154.9724 O   0  0  0  0  0  0  0  0  0  0  0  0
  146.9384  136.7991  153.4553 N   0  0  0  0  0  0  0  0  0  0  0  0
  145.5493  136.3527  153.5524 C   0  0  2  0  0  0  0  0  0  0  0  0
  145.4586  134.8991  154.0625 C   0  0  0  0  0  0  0  0  0  0  0  0
  145.9725  133.8851  153.0252 C   0  0  0  0  0  0  0  0  0  0  0  0
  145.2423  134.0322  151.6766 C   0  0  2  0  0  0  0  0  0  0  0  0
  145.7597  133.0209  150.6440 C   0  0  0  0  0  0  0  0  0  0  0  0
  145.3586  135.4775  151.1560 C   0  0  0  0  0  0  0  0  0  0  0  0
  144.8465  136.4978  152.1887 C   0  0  0  0  0  0  0  0  0  0  0  0
  151.0011  138.9189  154.2397 N   0  0  0  0  0  0  0  0  0  0  0  0
  151.4410  140.0579  154.9243 O   0  0  0  0  0  0  0  0  0  0  0  0
  149.7186  142.5438  156.3172 H   0  0  0  0  0  0  0  0  0  0  0  0
  151.3737  142.5648  155.7077 H   0  0  0  0  0  0  0  0  0  0  0  0
  150.9966  141.7146  157.2080 H   0  0  0  0  0  0  0  0  0  0  0  0
  148.1973  140.2965  155.3883 H   0  0  0  0  0  0  0  0  0  0  0  0
  149.1669  137.3303  153.1621 H   0  0  0  0  0  0  0  0  0  0  0  0
  147.5279  136.2980  152.8071 H   0  0  0  0  0  0  0  0  0  0  0  0
  145.0344  137.0029  154.2621 H   0  0  0  0  0  0  0  0  0  0  0  0
  146.0075  134.7868  154.9982 H   0  0  0  0  0  0  0  0  0  0  0  0
  144.4184  134.6692  154.2967 H   0  0  0  0  0  0  0  0  0  0  0  0
  147.0454  134.0195  152.8822 H   0  0  0  0  0  0  0  0  0  0  0  0
  145.8404  132.8738  153.4113 H   0  0  0  0  0  0  0  0  0  0  0  0
  144.1852  133.8194  151.8427 H   0  0  0  0  0  0  0  0  0  0  0  0
  146.8175  133.1781  150.4303 H   0  0  0  0  0  0  0  0  0  0  0  0
  145.2140  133.1057  149.7039 H   0  0  0  0  0  0  0  0  0  0  0  0
  145.6407  131.9980  151.0023 H   0  0  0  0  0  0  0  0  0  0  0  0
  146.3973  135.6977  150.9065 H   0  0  0  0  0  0  0  0  0  0  0  0
  144.7932  135.5853  150.2297 H   0  0  0  0  0  0  0  0  0  0  0  0
  143.7736  136.3558  152.3245 H   0  0  0  0  0  0  0  0  0  0  0  0
  144.9701  137.5116  151.8061 H   0  0  0  0  0  0  0  0  0  0  0  0
  1  2  1  0  0  0  0
  1 18  1  0  0  0  0
  1 19  1  0  0  0  0
  1 20  1  0  0  0  0
  2 17  1  0  0  0  0
  2  3  2  0  0  0  0
  3  4  1  0  0  0  0
  3 21  1  0  0  0  0
  4  5  1  0  0  0  0
  4 16  2  0  0  0  0
  5  6  1  0  0  0  0
  5 22  1  0  0  0  0
  6  7  2  0  0  0  0
  6  8  1  0  0  0  0
  8  9  1  0  0  0  0
  8 23  1  0  0  0  0
  9 15  1  0  0  0  0
  9 10  1  0  0  0  0
  9 24  1  0  0  0  0
 10 11  1  0  0  0  0
 10 25  1  0  0  0  0
 10 26  1  0  0  0  0
 11 12  1  0  0  0  0
 11 27  1  0  0  0  0
 11 28  1  0  0  0  0
 12 13  1  0  0  0  0
 12 14  1  0  0  0  0
 12 29  1  0  0  0  0
 13 30  1  0  0  0  0
 13 31  1  0  0  0  0
 13 32  1  0  0  0  0
 14 15  1  0  0  0  0
 14 33  1  0  0  0  0
 14 34  1  0  0  0  0
 15 35  1  0  0  0  0
 15 36  1  0  0  0  0
 16 17  1  0  0  0  0
M  END
> <s_m_source_file>
AV-unprocessed.smi

> <i_m_source_file_index>
580

> <i_lp_mmshare_version>
43012

> <i_f3d_flags>
0

> <s_epik_input>
W0NIM11jMVtjSF1jKG5vMSlbTkhdQyg9TylbTkhdW0NAQEhdMltDSDJdW0NIMl1bQ0BASF0oW0NIM10pW0NIMl1bQ0gyXTI=

> <s_epik_cmdline>
J2VwaWtfcHl0aG9uJywgJy1waCcsICc3LjAnLCAnLXRuJywgJzgnLCAnLW1hJywgJzIwMCcsICctbWV0YWxfYmluZGluZycsICctaW1hZScsICc8aW5maWxlLm1hZT4nLCAnLW9tYWUnLCAnPG91dGZpbGUubWFlPic=

> <r_lp_tautomer_probability>
1

> <r_epik_Ionization_Penalty>
2.357e-05

> <r_epik_Ionization_Penalty_Charging>
0

> <r_epik_Ionization_Penalty_Neutral>
2.357e-05

> <r_epik_State_Penalty>
-0

> <r_epik_Charging_Adjusted_Penalty>
0

> <i_epik_Tot_Q>
0

> <i_epik_Tot_abs_Q>
0

> <r_epik_Metal_State_Penalty>
-0

> <b_epik_Metal_Only>
0

> <s_lp_Force_Field>
OPLS_2005

> <r_lp_Energy>
6.11035

> <b_lp_Chiralities_Consistent>
1

> <s_lp_Variant>
AV-unprocessed.smi:580-2

> <Gold.Version>
5.8.1

> <Gold.Id.Protein>
6NUR|6NUR_protein|mol2

> <Gold.PLP.Fitness>
32.0158

> <Gold.PLP.PLP>
-24.5244

> <Gold.PLP.part.hbond>
-3.5141

> <Gold.PLP.part.metal>
0.0000

> <Gold.PLP.part.buried>
-2.7296

> <Gold.PLP.part.nonpolar>
-18.9232

> <Gold.PLP.part.repulsive>
0.3035

> <Gold.PLP.ligand.clash>
0.0000

> <Gold.PLP.ligand.torsion>
0.0412

> <Gold.PLP.Chemscore.Hbond>
2.5225

> <Gold.PLP.Chemscore.CHOScore>
0.0000

> <Gold.PLP.Chemscore.Metal>
0.0000

> <Gold.Chemscore.Hbonds>
donor molecule, donor type, donor heavy atom, donor atom, acceptor molecule, acceptor atom, score
      L1  H     5    22       P1  7948  1.00
      L1  H     8    23       P1  7948  1.00
      P1  H  7989  7998       L1    17  0.55

> <Gold.PLP.Chemscore.Internal.Correction>
0.0062

> <Gold.Rescore>
     Score         DG    S(hbond)    S(metal)    S(lipo)     H(rot)  DE(clash)    DE(int)     intcor
     13.79     -15.41       1.93        0.00      51.76       1.00       0.20       1.42       ----

> <Gold.Chemscore.Fitness>
13.7936

> <Gold.Chemscore.DG>
-15.4131

> <Gold.Chemscore.ZeroCoef>
-5.4800

> <Gold.Chemscore.Hbond>
1.9274

> <Gold.Chemscore.Metal>
0.0000

> <Gold.Chemscore.Lipo>
51.7567

> <Gold.Chemscore.Internal_Hbond>
0.0000

> <Gold.Chemscore.DEClash>
0.1965

> <Gold.Chemscore.DEInternal>
1.4230

> <Gold.Chemscore.Rot>
1.0000

> <Gold.Chemscore.Internal.Correction>
   9.000000E+99

> <Gold.Chemscore.Hbonds>
donor molecule, donor type, donor heavy atom, donor atom, acceptor molecule, acceptor atom, score
      L1  H     5    22       P1  7948  0.96
      L1  H     8    23       P1  7948  0.94
      P1  H  7989  7998       L1    17  0.01

> <Gold.Chemscore.Hbond.Weighted>
-6.4376

> <Gold.Chemscore.Metal.Weighted>
-0.0000

> <Gold.Chemscore.Lipo.Weighted>
-6.0555

> <Gold.Chemscore.Internal_Hbond.Weighted>
0.0000

> <Gold.Chemscore.DEClash.Weighted>
0.1965

> <Gold.Chemscore.DEInternal.Weighted>
1.4230

> <Gold.Chemscore.Rot.Weighted>
2.5600

> <Gold.Chemscore.Internal.Correction.Weighted>
   9.000000E+99

> <Gold.Protein.RotatedTorsions>
[ 6907 6896 6895 6894 ] final -120.97 input  -60.11 | X-H torsion
[ 7974 7965 7964 7962 ] final   21.90 input  175.53 | X-H torsion
[ 8008 7997 7996 7995 ] final  141.98 input   59.86 | X-H torsion
[ 10167 10162 10161 10158 ] final -144.18 input  -65.29 | X-H torsion
[ 10718 10713 10712 10709 ] final -108.97 input   66.30 | X-H torsion
[ 10763 10752 10751 10750 ] final -116.35 input  -60.55 | X-H torsion
[ 11005 11000 10999 10996 ] final   37.67 input  -57.11 | X-H torsion

> <Gold.Protein.ActiveResidues>
 VAL166  LYS551  ARG553  GLY616  TRP617  ASP618  TYR619  PRO620  LYS621  CYS622 
 ASP623  PHE694  ASN695  SER759  ASP760  ASP761  ALA762  ILE779  LEU786  VAL792 
 PHE793  MET794  SER795  GLU796  ALA797  LYS798  CYS799  TRP800  GLU811  SER814 

> <Gold.Protein.RotatedAtoms>
  150.8441  133.7889  159.3049 H   0  0  0  0  0  0  0  0  0  0  0  0  # atno 6907 bound_to 6896
  151.5582  135.1064  159.9975 H   0  0  0  0  0  0  0  0  0  0  0  0  # atno 6908 bound_to 6896
  152.4499  133.7565  159.6779 H   0  0  0  0  0  0  0  0  0  0  0  0  # atno 6909 bound_to 6896
  146.2052  139.7962  142.8731 H   0  0  0  0  0  0  0  0  0  0  0  0  # atno 7974 bound_to 7965
  156.2957  140.2301  156.4652 H   0  0  0  0  0  0  0  0  0  0  0  0  # atno 8008 bound_to 7997
  154.7983  140.0450  157.1274 H   0  0  0  0  0  0  0  0  0  0  0  0  # atno 8009 bound_to 7997
  154.9563  140.3048  155.5055 H   0  0  0  0  0  0  0  0  0  0  0  0  # atno 8010 bound_to 7997
  139.7923  143.7949  152.2651 H   0  0  0  0  0  0  0  0  0  0  0  0  # atno 10167 bound_to 10162
  156.0513  130.5740  150.8035 H   0  0  0  0  0  0  0  0  0  0  0  0  # atno 10718 bound_to 10713
  154.8516  135.4349  154.1806 H   0  0  0  0  0  0  0  0  0  0  0  0  # atno 10763 bound_to 10752
  153.2898  135.6960  153.7310 H   0  0  0  0  0  0  0  0  0  0  0  0  # atno 10764 bound_to 10752
  153.6482  135.3456  155.3066 H   0  0  0  0  0  0  0  0  0  0  0  0  # atno 10765 bound_to 10752
  140.2202  134.3650  155.8008 H   0  0  0  0  0  0  0  0  0  0  0  0  # atno 11005 bound_to 11000
  145.3345  141.0274  143.3427 LP  0  0  0  0  0  0  0  0  0  0  0  0  # atno 17320 bound_to 7965
  144.8775  139.4950  143.6738 LP  0  0  0  0  0  0  0  0  0  0  0  0  # atno 17321 bound_to 7965
  139.8044  144.7361  150.9781 LP  0  0  0  0  0  0  0  0  0  0  0  0  # atno 17342 bound_to 10162
  140.7820  143.4313  151.0691 LP  0  0  0  0  0  0  0  0  0  0  0  0  # atno 17343 bound_to 10162
  157.5441  131.0942  150.9786 LP  0  0  0  0  0  0  0  0  0  0  0  0  # atno 17370 bound_to 10713
  157.0062  130.5619  149.5316 LP  0  0  0  0  0  0  0  0  0  0  0  0  # atno 17371 bound_to 10713
  141.2223  133.7189  156.8563 LP  0  0  0  0  0  0  0  0  0  0  0  0  # atno 17394 bound_to 11000
  140.1857  134.9001  157.3002 LP  0  0  0  0  0  0  0  0  0  0  0  0  # atno 17395 bound_to 11000

$$$$
