#       Name:                AV-unprocessed.smi:1178
#       Creating user name   scv26
#       Creation time:       Fri Mar 27 03:54:55 2020


#       File generated by GOLD software.
#

@<TRIPOS>MOLECULE
AV-unprocessed.smi:1178
    43    44     1
SMALL
NO_CHARGES


@<TRIPOS>ATOM
      1 ****        -0.9329   1.6760  -2.5997 O.2            1 S1                 0.0000
      2 ****        -1.3037   1.0753  -1.5916 C.2            1 S1                 0.0000
      3 ****        -2.8065   1.0180  -1.2653 C.3            1 S1                 0.0000
      4 ****        -3.1499   0.2747  -0.0388 N.am           1 S1                 0.0000
      5 ****        -3.5209  -1.0744  -0.1788 C.2            1 S1                 0.0000
      6 ****        -3.8463  -1.8360   0.8829 C.2            1 S1                 0.0000
      7 ****        -3.8068  -1.2274   2.2068 C.2            1 S1                 0.0000
      8 ****        -4.1004  -1.9078   3.1877 O.2            1 S1                 0.0000
      9 ****        -3.4394   0.0847   2.2913 N.pl3          1 S1                -1.0000
     10 ****        -3.1101   0.8469   1.2028 C.2            1 S1                 0.0000
     11 ****        -2.7726   2.0266   1.3024 O.2            1 S1                 0.0000
     12 ****        -0.4480   0.4590  -0.7607 N.am           1 S1                 0.0000
     13 ****         0.9964   0.4327  -0.9283 C.3            1 S1                 0.0000
     14 ****         1.6624  -0.2747   0.2626 C.3            1 S1                 0.0000
     15 ****         3.1241  -0.2895   0.1235 N.am           1 S1                 0.0000
     16 ****         3.9129   0.7107   0.5797 C.2            1 S1                 0.0000
     17 ****         3.5076   1.7187   1.1578 O.2            1 S1                 0.0000
     18 ****         5.4097   0.5095   0.3142 C.3            1 S1                 0.0000
     19 ****         5.5174  -1.0556  -0.5574 S.3            1 S1                 0.0000
     20 ****         3.7895  -1.2773  -0.4989 C.2            1 S1                 0.0000
     21 ****         3.2619  -2.2678  -1.0040 O.2            1 S1                 0.0000
     22 ****        -3.1862   2.0393  -1.2057 H              1 S1                 0.0000
     23 ****        -3.3196   0.5786  -2.1218 H              1 S1                 0.0000
     24 ****        -3.5198  -1.4486  -1.1921 H              1 S1                 0.0000
     25 ****        -4.1275  -2.8712   0.7583 H              1 S1                 0.0000
     26 ****        -0.8281  -0.0073   0.0508 H              1 S1                 0.0000
     27 ****         1.2408  -0.0806  -1.8596 H              1 S1                 0.0000
     28 ****         1.3680   1.4552  -1.0137 H              1 S1                 0.0000
     29 ****         1.3794   0.2201   1.1936 H              1 S1                 0.0000
     30 ****         1.2791  -1.2929   0.3518 H              1 S1                 0.0000
     31 ****         5.8045   1.3187  -0.3005 H              1 S1                 0.0000
     32 ****         5.9664   0.4672   1.2506 H              1 S1                 0.0000
     33 ****        -1.6049   2.1182  -3.1937 LP             1 S1                 0.0000
     34 ****         0.0403   1.7218  -2.8248 LP             1 S1                 0.0000
     35 ****        -4.3621  -2.8660   3.0714 LP             1 S1                 0.0000
     36 ****        -4.0776  -1.5032   4.1019 LP             1 S1                 0.0000
     37 ****        -3.4093   0.5112   3.1953 LP             1 S1                 0.0000
     38 ****        -2.5336   2.5491   0.4839 LP             1 S1                 0.0000
     39 ****        -2.7375   2.4624   2.2018 LP             1 S1                 0.0000
     40 ****         2.5286   1.8423   1.3203 LP             1 S1                 0.0000
     41 ****         4.1572   2.4141   1.4650 LP             1 S1                 0.0000
     42 ****         2.2687  -2.3787  -0.9675 LP             1 S1                 0.0000
     43 ****         3.8263  -2.9618  -1.4509 LP             1 S1                 0.0000
@<TRIPOS>BOND
    1    1    2 2     
    2    2    3 1     
    3    2   12 am    
    4    3    4 1     
    5    3   22 1     
    6    3   23 1     
    7    4   10 am    
    8    4    5 1     
    9    5    6 2     
   10    5   24 1     
   11    6    7 1     
   12    6   25 1     
   13    7    8 2     
   14    7    9 1     
   15    9   10 1     
   16   10   11 2     
   17   12   13 1     
   18   12   26 1     
   19   13   14 1     
   20   13   27 1     
   21   13   28 1     
   22   14   15 1     
   23   14   29 1     
   24   14   30 1     
   25   15   20 am    
   26   15   16 am    
   27   16   17 2     
   28   16   18 1     
   29   18   19 1     
   30   18   31 1     
   31   18   32 1     
   32   19   20 1     
   33   20   21 2     
   34    1   33 1     
   35    1   34 1     
   36    8   35 1     
   37    8   36 1     
   38    9   37 1     
   39   11   38 1     
   40   11   39 1     
   41   17   40 1     
   42   17   41 1     
   43   21   42 1     
   44   21   43 1     
@<TRIPOS>SUBSTRUCTURE
      1 S1             1
@<TRIPOS>SET
LONE_PAIRS      STATIC     ATOMS    <user>   **** ""
11 33 34 35 36 37 38 39 40 41 42 43
DONOR_HYDROGENS      STATIC     ATOMS    <user>   **** ""
1 26
ATOM$BLUE        STATIC     ATOMS    COLORGROUP SYSTEM
11 33 34 35 36 37 38 39 40 41 42 43
ATOM$RED        STATIC     ATOMS    COLORGROUP SYSTEM
1 26
