AV-unprocessed.smi:1207|AV-procd|sdf|5053|dock7
  -GOLD-   22720 4 83D 1   1.00000     0.00000
 Structure written by MMmdl.
 52 54  0  0  0  0  0  0  0  0  2 V2000
  153.1891  142.7926  161.6341 C   0  0  0  0  0  0  0  0  0  0  0  0
  152.5882  142.4596  160.2797 C   0  0  0  0  0  0  0  0  0  0  0  0
  152.6096  141.1204  159.8295 C   0  0  0  0  0  0  0  0  0  0  0  0
  152.0610  140.7682  158.5774 C   0  0  0  0  0  0  0  0  0  0  0  0
  151.9678  139.5374  157.9512 N   0  0  0  0  0  0  0  0  0  0  0  0
  151.3557  139.8591  156.8158 C   0  0  0  0  0  0  0  0  0  0  0  0
  151.0337  141.1543  156.6346 N   0  0  0  0  0  0  0  0  0  0  0  0
  150.3566  141.7292  155.4869 C   0  0  0  0  0  0  0  0  0  0  0  0
  149.4113  140.7239  154.8020 C   0  0  2  0  0  0  0  0  0  0  0  0
  150.1953  139.8772  153.9865 O   0  0  0  0  0  0  0  0  0  0  0  0
  148.3268  141.3910  153.9268 C   0  0  0  0  0  0  0  0  0  0  0  0
  147.1233  141.7554  154.7156 N   0  3  2  0  0  0  0  0  0  0  0  0
  146.1459  140.6440  154.7894 C   0  0  0  0  0  0  0  0  0  0  0  0
  146.5078  143.0336  154.2733 C   0  0  0  0  0  0  0  0  0  0  0  0
  145.5141  143.5412  155.2847 C   0  0  0  0  0  0  0  0  0  0  0  0
  144.4426  144.4601  155.0878 C   0  0  0  0  0  0  0  0  0  0  0  0
  144.0243  145.1627  153.8278 C   0  0  0  0  0  0  0  0  0  0  0  0
  143.7720  144.6804  156.2055 N   0  0  0  0  0  0  0  0  0  0  0  0
  144.3942  143.9037  157.1874 O   0  0  0  0  0  0  0  0  0  0  0  0
  145.4284  143.2376  156.6159 C   0  0  0  0  0  0  0  0  0  0  0  0
  146.2234  142.3490  157.5121 C   0  0  0  0  0  0  0  0  0  0  0  0
  151.4872  141.8012  157.7797 C   0  0  0  0  0  0  0  0  0  0  0  0
  151.4609  143.1379  158.2160 C   0  0  0  0  0  0  0  0  0  0  0  0
  152.0123  143.4720  159.4707 C   0  0  0  0  0  0  0  0  0  0  0  0
  151.9796  144.9177  159.9339 C   0  0  0  0  0  0  0  0  0  0  0  0
  153.5594  141.8982  162.1359 H   0  0  0  0  0  0  0  0  0  0  0  0
  152.4435  143.2535  162.2823 H   0  0  0  0  0  0  0  0  0  0  0  0
  154.0249  143.4830  161.5209 H   0  0  0  0  0  0  0  0  0  0  0  0
  153.0485  140.3491  160.4454 H   0  0  0  0  0  0  0  0  0  0  0  0
  151.1214  139.1091  156.0743 H   0  0  0  0  0  0  0  0  0  0  0  0
  149.8094  142.6159  155.8091 H   0  0  0  0  0  0  0  0  0  0  0  0
  151.1172  142.0712  154.7833 H   0  0  0  0  0  0  0  0  0  0  0  0
  148.9523  140.1050  155.5727 H   0  0  0  0  0  0  0  0  0  0  0  0
  149.7425  139.7397  153.1680 H   0  0  0  0  0  0  0  0  0  0  0  0
  148.7041  142.2906  153.4398 H   0  0  0  0  0  0  0  0  0  0  0  0
  148.0613  140.7040  153.1215 H   0  0  0  0  0  0  0  0  0  0  0  0
  145.7372  140.4166  153.8039 H   0  0  0  0  0  0  0  0  0  0  0  0
  145.3188  140.8893  155.4552 H   0  0  0  0  0  0  0  0  0  0  0  0
  146.6156  139.7413  155.1816 H   0  0  0  0  0  0  0  0  0  0  0  0
  147.2824  143.7846  154.1206 H   0  0  0  0  0  0  0  0  0  0  0  0
  146.0498  142.8926  153.2934 H   0  0  0  0  0  0  0  0  0  0  0  0
  144.2225  144.5513  152.9479 H   0  0  0  0  0  0  0  0  0  0  0  0
  144.5645  146.1018  153.7080 H   0  0  0  0  0  0  0  0  0  0  0  0
  142.9579  145.3911  153.8325 H   0  0  0  0  0  0  0  0  0  0  0  0
  146.9562  141.7732  156.9473 H   0  0  0  0  0  0  0  0  0  0  0  0
  145.5740  141.6458  158.0337 H   0  0  0  0  0  0  0  0  0  0  0  0
  146.7582  142.9347  158.2598 H   0  0  0  0  0  0  0  0  0  0  0  0
  151.0191  143.9003  157.5918 H   0  0  0  0  0  0  0  0  0  0  0  0
  151.5133  145.5644  159.1902 H   0  0  0  0  0  0  0  0  0  0  0  0
  152.9908  145.2852  160.1097 H   0  0  0  0  0  0  0  0  0  0  0  0
  151.4118  145.0092  160.8599 H   0  0  0  0  0  0  0  0  0  0  0  0
  147.4532  141.9018  155.6593 H   0  0  0  0  0  0  0  0  0  0  0  0
  1  2  1  0  0  0  0
  1 26  1  0  0  0  0
  1 27  1  0  0  0  0
  1 28  1  0  0  0  0
  2 24  1  0  0  0  0
  2  3  2  0  0  0  0
  3  4  1  0  0  0  0
  3 29  1  0  0  0  0
  4 22  2  0  0  0  0
  4  5  1  0  0  0  0
  5  6  2  0  0  0  0
  6  7  1  0  0  0  0
  6 30  1  0  0  0  0
  7  8  1  0  0  0  0
  7 22  1  0  0  0  0
  8  9  1  0  0  0  0
  8 31  1  0  0  0  0
  8 32  1  0  0  0  0
  9 10  1  0  0  0  0
  9 11  1  0  0  0  0
  9 33  1  0  0  0  0
 10 34  1  0  0  0  0
 11 12  1  0  0  0  0
 11 35  1  0  0  0  0
 11 36  1  0  0  0  0
 12 13  1  0  0  0  0
 12 14  1  0  0  0  0
 12 52  1  0  0  0  0
 13 37  1  0  0  0  0
 13 38  1  0  0  0  0
 13 39  1  0  0  0  0
 14 15  1  0  0  0  0
 14 40  1  0  0  0  0
 14 41  1  0  0  0  0
 15 20  2  0  0  0  0
 15 16  1  0  0  0  0
 16 17  1  0  0  0  0
 16 18  2  0  0  0  0
 17 42  1  0  0  0  0
 17 43  1  0  0  0  0
 17 44  1  0  0  0  0
 18 19  1  0  0  0  0
 19 20  1  0  0  0  0
 20 21  1  0  0  0  0
 21 45  1  0  0  0  0
 21 46  1  0  0  0  0
 21 47  1  0  0  0  0
 22 23  1  0  0  0  0
 23 24  2  0  0  0  0
 23 48  1  0  0  0  0
 24 25  1  0  0  0  0
 25 49  1  0  0  0  0
 25 50  1  0  0  0  0
 25 51  1  0  0  0  0
M  CHG  1  12   1
M  END
> <s_m_source_file>
AV-unprocessed.smi

> <i_m_source_file_index>
1207

> <i_lp_mmshare_version>
43012

> <i_f3d_flags>
0

> <s_epik_input>
W0NIM11jKFtjSF0xKWMoW0NIM10pW2NIXWMoYzEyKW4oW2NIXW4yKVtDSDJdW0NASF0oW09IXSlbQ0gyXU4oW0NIM10pW0NIMl1jM2MoW0NIM10pbm9jM1tDSDNd

> <s_epik_cmdline>
J2VwaWtfcHl0aG9uJywgJy1waCcsICc3LjAnLCAnLXRuJywgJzgnLCAnLW1hJywgJzIwMCcsICctbWV0YWxfYmluZGluZycsICctaW1hZScsICc8aW5maWxlLm1hZT4nLCAnLW9tYWUnLCAnPG91dGZpbGUubWFlPic=

> <r_epik_Ionization_Penalty>
0.646518

> <r_epik_Ionization_Penalty_Charging>
0.559419

> <r_epik_Ionization_Penalty_Neutral>
0.0870981

> <r_epik_State_Penalty>
0.661677

> <r_epik_Charging_Adjusted_Penalty>
1.2211

> <i_epik_Tot_Q>
1

> <i_epik_Tot_abs_Q>
1

> <r_epik_Metal_State_Penalty>
0.649158

> <b_epik_Metal_Only>
0

> <s_lp_Force_Field>
OPLS_2005

> <r_lp_Energy>
8.09653

> <b_lp_Chiralities_Consistent>
1

> <s_lp_Variant>
AV-unprocessed.smi:1207-5

> <Gold.Version>
5.8.1

> <Gold.Id.Protein>
6NUR|6NUR_protein|mol2

> <Gold.PLP.Fitness>
55.1003

> <Gold.PLP.PLP>
-51.9060

> <Gold.PLP.part.hbond>
-2.0000

> <Gold.PLP.part.metal>
0.0000

> <Gold.PLP.part.buried>
-6.6234

> <Gold.PLP.part.nonpolar>
-43.1048

> <Gold.PLP.part.repulsive>
0.1665

> <Gold.PLP.ligand.clash>
0.0959

> <Gold.PLP.ligand.torsion>
1.6537

> <Gold.PLP.Chemscore.Hbond>
1.9920

> <Gold.PLP.Chemscore.CHOScore>
0.0000

> <Gold.PLP.Chemscore.Metal>
0.0000

> <Gold.Chemscore.Hbonds>
donor molecule, donor type, donor heavy atom, donor atom, acceptor molecule, acceptor atom, score
      L1  H    10    34       P1  7957  0.98
      P1  H  7989  7998       L1    10  0.99

> <Gold.PLP.Chemscore.Internal.Correction>
0.6217

> <Gold.Rescore>
     Score         DG    S(hbond)    S(metal)    S(lipo)     H(rot)  DE(clash)    DE(int)     intcor
     16.57     -19.18       1.29        0.00     133.95       2.46       0.06       2.56       ----

> <Gold.Chemscore.Fitness>
16.5685

> <Gold.Chemscore.DG>
-19.1846

> <Gold.Chemscore.ZeroCoef>
-5.4800

> <Gold.Chemscore.Hbond>
1.2937

> <Gold.Chemscore.Metal>
0.0000

> <Gold.Chemscore.Lipo>
133.9512

> <Gold.Chemscore.Internal_Hbond>
0.0000

> <Gold.Chemscore.DEClash>
0.0605

> <Gold.Chemscore.DEInternal>
2.5555

> <Gold.Chemscore.Rot>
2.4565

> <Gold.Chemscore.Internal.Correction>
   9.000000E+99

> <Gold.Chemscore.Hbonds>
donor molecule, donor type, donor heavy atom, donor atom, acceptor molecule, acceptor atom, score
      L1  H    10    34       P1  7957  0.87
      P1  H  7989  7998       L1    10  0.18

> <Gold.Chemscore.Hbond.Weighted>
-4.3210

> <Gold.Chemscore.Metal.Weighted>
-0.0000

> <Gold.Chemscore.Lipo.Weighted>
-15.6723

> <Gold.Chemscore.Internal_Hbond.Weighted>
0.0000

> <Gold.Chemscore.DEClash.Weighted>
0.0605

> <Gold.Chemscore.DEInternal.Weighted>
2.5555

> <Gold.Chemscore.Rot.Weighted>
6.2887

> <Gold.Chemscore.Internal.Correction.Weighted>
   9.000000E+99

> <Gold.Protein.RotatedTorsions>
[ 6907 6896 6895 6894 ] final  -57.08 input  -60.11 | X-H torsion
[ 7974 7965 7964 7962 ] final  167.20 input  175.53 | X-H torsion
[ 8008 7997 7996 7995 ] final  176.11 input   59.86 | X-H torsion
[ 10167 10162 10161 10158 ] final -143.18 input  -65.29 | X-H torsion
[ 10718 10713 10712 10709 ] final -174.24 input   66.30 | X-H torsion
[ 10763 10752 10751 10750 ] final   95.01 input  -60.55 | X-H torsion
[ 11005 11000 10999 10996 ] final   93.90 input  -57.11 | X-H torsion

> <Gold.Protein.ActiveResidues>
 VAL166  LYS551  ARG553  GLY616  TRP617  ASP618  TYR619  PRO620  LYS621  CYS622 
 ASP623  PHE694  ASN695  SER759  ASP760  ASP761  ALA762  ILE779  LEU786  VAL792 
 PHE793  MET794  SER795  GLU796  ALA797  LYS798  CYS799  TRP800  GLU811  SER814 

> <Gold.Protein.RotatedAtoms>
  150.8115  134.7272  159.6691 H   0  0  0  0  0  0  0  0  0  0  0  0  # atno 6907 bound_to 6896
  152.4234  134.5909  159.9983 H   0  0  0  0  0  0  0  0  0  0  0  0  # atno 6908 bound_to 6896
  151.6118  133.3309  159.3105 H   0  0  0  0  0  0  0  0  0  0  0  0  # atno 6909 bound_to 6896
  144.7433  139.8727  143.6390 H   0  0  0  0  0  0  0  0  0  0  0  0  # atno 7974 bound_to 7965
  156.0799  140.1392  156.9725 H   0  0  0  0  0  0  0  0  0  0  0  0  # atno 8008 bound_to 7997
  154.4579  140.0954  156.6860 H   0  0  0  0  0  0  0  0  0  0  0  0  # atno 8009 bound_to 7997
  155.5092  140.3453  155.4387 H   0  0  0  0  0  0  0  0  0  0  0  0  # atno 8010 bound_to 7997
  139.8017  143.7824  152.2658 H   0  0  0  0  0  0  0  0  0  0  0  0  # atno 10167 bound_to 10162
  156.7822  130.9487  151.3120 H   0  0  0  0  0  0  0  0  0  0  0  0  # atno 10718 bound_to 10713
  153.2482  135.4269  155.0770 H   0  0  0  0  0  0  0  0  0  0  0  0  # atno 10763 bound_to 10752
  154.8370  135.3419  154.6550 H   0  0  0  0  0  0  0  0  0  0  0  0  # atno 10764 bound_to 10752
  153.6972  135.7030  153.5130 H   0  0  0  0  0  0  0  0  0  0  0  0  # atno 10765 bound_to 10752
  139.8804  134.8815  156.3785 H   0  0  0  0  0  0  0  0  0  0  0  0  # atno 11005 bound_to 11000
  146.1269  139.4296  143.0193 LP  0  0  0  0  0  0  0  0  0  0  0  0  # atno 17320 bound_to 7965
  145.7222  141.0071  143.1396 LP  0  0  0  0  0  0  0  0  0  0  0  0  # atno 17321 bound_to 7965
  139.7946  144.7397  150.9908 LP  0  0  0  0  0  0  0  0  0  0  0  0  # atno 17342 bound_to 10162
  140.7820  143.4407  151.0556 LP  0  0  0  0  0  0  0  0  0  0  0  0  # atno 17343 bound_to 10162
  157.6641  130.8992  149.9893 LP  0  0  0  0  0  0  0  0  0  0  0  0  # atno 17370 bound_to 10713
  156.1211  130.3646  149.9886 LP  0  0  0  0  0  0  0  0  0  0  0  0  # atno 17371 bound_to 10713
  140.9415  133.7511  156.0152 LP  0  0  0  0  0  0  0  0  0  0  0  0  # atno 17394 bound_to 11000
  140.8214  134.3285  157.5380 LP  0  0  0  0  0  0  0  0  0  0  0  0  # atno 17395 bound_to 11000

$$$$
