#       Name:                AV-unprocessed.smi:2727
#       Creating user name   scv26
#       Creation time:       Fri Mar 27 14:56:28 2020


#       File generated by GOLD software.
#

@<TRIPOS>MOLECULE
AV-unprocessed.smi:2727
    47    48     1
SMALL
NO_CHARGES


@<TRIPOS>ATOM
      1 ****        -1.8094   1.0285   1.5500 O.2            1 S1                 0.0000
      2 ****        -2.3638  -0.0303   1.8628 C.2            1 S1                 0.0000
      3 ****        -1.6596  -1.1533   2.0712 N.am           1 S1                 0.0000
      4 ****        -0.2085  -1.2705   1.9713 C.3            1 S1                 0.0000
      5 ****         0.2490  -1.4208   0.5060 C.3            1 S1                 0.0000
      6 ****         1.7788  -1.4319   0.3341 C.2            1 S1                 0.0000
      7 ****         2.4931  -1.5140   1.3352 O.2            1 S1                 0.0000
      8 ****         2.3021  -1.3410  -0.9135 N.am           1 S1                 0.0000
      9 ****         3.7516  -1.2651  -1.1325 C.3            1 S1                 0.0000
     10 ****         4.2897   0.1697  -0.9563 C.3            1 S1                 0.0000
     11 ****         3.3496   1.3052  -1.4179 C.3            1 S1                 0.0000
     12 ****         2.5988   1.0447  -2.7388 C.3            1 S1                 0.0000
     13 ****         1.2999   0.2287  -2.5643 C.3            1 S1                 0.0000
     14 ****         1.5163  -1.2394  -2.1517 C.3            1 S1                 0.0000
     15 ****        -3.7155  -0.2733   2.0597 N.2            1 S1                 0.0000
     16 ****        -4.5592   0.7110   2.0095 C.2            1 S1                 0.0000
     17 ****        -5.9334   0.6565   2.1811 N.pl3          1 S1                 0.0000
     18 ****        -6.4291   1.9247   2.0538 C.2            1 S1                 0.0000
     19 ****        -5.4109   2.7445   1.8100 C.2            1 S1                 0.0000
     20 ****        -4.2507   2.0316   1.7764 O.3            1 S1                 0.0000
     21 ****        -2.1679  -1.9877   2.3267 H              1 S1                 0.0000
     22 ****         0.2630  -0.4048   2.4403 H              1 S1                 0.0000
     23 ****         0.0974  -2.1422   2.5507 H              1 S1                 0.0000
     24 ****        -0.1596  -2.3426   0.0906 H              1 S1                 0.0000
     25 ****        -0.1612  -0.5972  -0.0777 H              1 S1                 0.0000
     26 ****         4.2836  -1.9480  -0.4681 H              1 S1                 0.0000
     27 ****         4.0015  -1.6110  -2.1359 H              1 S1                 0.0000
     28 ****         4.5298   0.3347   0.0945 H              1 S1                 0.0000
     29 ****         5.2382   0.2479  -1.4883 H              1 S1                 0.0000
     30 ****         2.6260   1.5250  -0.6315 H              1 S1                 0.0000
     31 ****         3.9456   2.2124  -1.5215 H              1 S1                 0.0000
     32 ****         2.3252   2.0100  -3.1664 H              1 S1                 0.0000
     33 ****         3.2582   0.5732  -3.4683 H              1 S1                 0.0000
     34 ****         0.6553   0.7273  -1.8402 H              1 S1                 0.0000
     35 ****         0.7499   0.2425  -3.5057 H              1 S1                 0.0000
     36 ****         2.0165  -1.7716  -2.9615 H              1 S1                 0.0000
     37 ****         0.5545  -1.7430  -2.0587 H              1 S1                 0.0000
     38 ****        -6.5086  -0.1506   2.3750 H              1 S1                 0.0000
     39 ****        -7.4880   2.1105   2.1551 H              1 S1                 0.0000
     40 ****        -5.3495   3.8101   1.6460 H              1 S1                 0.0000
     41 ****        -2.3542   1.8546   1.4058 LP             1 S1                 0.0000
     42 ****        -0.8158   1.0595   1.4410 LP             1 S1                 0.0000
     43 ****         2.0773  -1.5722   2.2427 LP             1 S1                 0.0000
     44 ****         3.4885  -1.5224   1.2398 LP             1 S1                 0.0000
     45 ****        -4.0379  -1.2027   2.2394 LP             1 S1                 0.0000
     46 ****        -3.8193   2.1266   0.8792 LP             1 S1                 0.0000
     47 ****        -3.6266   2.3646   2.4832 LP             1 S1                 0.0000
@<TRIPOS>BOND
    1    1    2 2     
    2    2   15 1     
    3    2    3 am    
    4    3    4 1     
    5    3   21 1     
    6    4    5 1     
    7    4   22 1     
    8    4   23 1     
    9    5    6 1     
   10    5   24 1     
   11    5   25 1     
   12    6    7 2     
   13    6    8 am    
   14    8   14 1     
   15    8    9 1     
   16    9   10 1     
   17    9   26 1     
   18    9   27 1     
   19   10   11 1     
   20   10   28 1     
   21   10   29 1     
   22   11   12 1     
   23   11   30 1     
   24   11   31 1     
   25   12   13 1     
   26   12   32 1     
   27   12   33 1     
   28   13   14 1     
   29   13   34 1     
   30   13   35 1     
   31   14   36 1     
   32   14   37 1     
   33   15   16 2     
   34   16   20 1     
   35   16   17 1     
   36   17   38 1     
   37   17   18 1     
   38   18   39 1     
   39   18   19 2     
   40   19   40 1     
   41   19   20 1     
   42    1   41 1     
   43    1   42 1     
   44    7   43 1     
   45    7   44 1     
   46   15   45 1     
   47   20   46 1     
   48   20   47 1     
@<TRIPOS>SUBSTRUCTURE
      1 S1             1
@<TRIPOS>SET
LONE_PAIRS      STATIC     ATOMS    <user>   **** ""
7 41 42 43 44 45 46 47
DONOR_HYDROGENS      STATIC     ATOMS    <user>   **** ""
2 21 38
ATOM$BLUE        STATIC     ATOMS    COLORGROUP SYSTEM
7 41 42 43 44 45 46 47
ATOM$RED        STATIC     ATOMS    COLORGROUP SYSTEM
2 21 38
