AV-unprocessed.smi:274|AV-procd|sdf|2061|dock6
  -GOLD-   2262021303D 1   1.00000     0.00000
 Structure written by MMmdl.
 50 53  0  0  0  0  0  0  0  0  1 V2000
  151.1926  139.6525  155.1160 C   0  0  0  0  0  0  0  0  0  0  0  0
  150.3317  140.9115  155.3465 C   0  0  0  0  0  0  0  0  0  0  0  0
  151.0274  141.8054  156.3929 C   0  0  0  0  0  0  0  0  0  0  0  0
  148.8575  140.5529  155.7156 C   0  0  1  0  0  0  0  0  0  0  0  0
  148.1105  141.7226  156.4063 C   0  0  0  0  0  0  0  0  0  0  0  0
  148.3407  141.9866  157.5846 O   0  0  0  0  0  0  0  0  0  0  0  0
  147.1907  142.4159  155.7106 N   0  0  0  0  0  0  0  0  0  0  0  0
  146.7632  142.1457  154.3377 C   0  0  0  0  0  0  0  0  0  0  0  0
  147.6781  141.1526  153.5998 C   0  0  0  0  0  0  0  0  0  0  0  0
  148.1367  140.1075  154.5114 N   0  0  0  0  0  0  0  0  0  0  0  0
  147.3176  139.0279  154.5951 C   0  0  0  0  0  0  0  0  0  0  0  0
  147.0681  138.4491  155.7998 N   0  0  0  0  0  0  0  0  0  0  0  0
  146.2488  137.3970  155.8848 C   0  0  0  0  0  0  0  0  0  0  0  0
  145.5859  136.7747  154.9080 N   0  0  0  0  0  0  0  0  0  0  0  0
  145.8369  137.3480  153.6962 C   0  0  0  0  0  0  0  0  0  0  0  0
  146.6788  138.4695  153.4537 C   0  0  0  0  0  0  0  0  0  0  0  0
  146.6909  138.7697  152.0969 N   0  0  0  0  0  0  0  0  0  0  0  0
  145.8982  137.8784  151.5676 C   0  0  0  0  0  0  0  0  0  0  0  0
  145.3482  136.9800  152.4547 N   0  0  0  0  0  0  0  0  0  0  0  0
  144.4424  135.8862  152.1401 C   0  0  0  0  0  0  0  0  0  0  0  0
  144.9663  134.9549  151.0218 C   0  0  2  0  0  0  0  0  0  0  0  0
  144.9473  135.6545  149.7896 O   0  0  0  0  0  0  0  0  0  0  0  0
  144.1668  133.6651  150.8577 C   0  0  0  0  0  0  0  0  0  0  0  0
  145.2231  132.6657  150.4072 C   0  0  0  0  0  0  0  0  0  0  0  0
  146.3433  133.0269  151.1965 O   0  0  0  0  0  0  0  0  0  0  0  0
  146.4005  134.4478  151.2736 C   0  0  0  0  0  0  0  0  0  0  0  0
  151.2032  139.0150  156.0006 H   0  0  0  0  0  0  0  0  0  0  0  0
  152.2255  139.9180  154.8878 H   0  0  0  0  0  0  0  0  0  0  0  0
  150.8305  139.0554  154.2788 H   0  0  0  0  0  0  0  0  0  0  0  0
  150.3292  141.4713  154.4106 H   0  0  0  0  0  0  0  0  0  0  0  0
  150.9957  141.3516  157.3840 H   0  0  0  0  0  0  0  0  0  0  0  0
  150.5712  142.7923  156.4590 H   0  0  0  0  0  0  0  0  0  0  0  0
  152.0751  141.9665  156.1376 H   0  0  0  0  0  0  0  0  0  0  0  0
  148.9065  139.7338  156.4355 H   0  0  0  0  0  0  0  0  0  0  0  0
  146.7208  143.1713  156.1881 H   0  0  0  0  0  0  0  0  0  0  0  0
  145.7550  141.7335  154.3929 H   0  0  0  0  0  0  0  0  0  0  0  0
  146.6888  143.0814  153.7837 H   0  0  0  0  0  0  0  0  0  0  0  0
  147.1642  140.7487  152.7270 H   0  0  0  0  0  0  0  0  0  0  0  0
  148.5504  141.6774  153.2106 H   0  0  0  0  0  0  0  0  0  0  0  0
  146.1030  136.9971  156.8774 H   0  0  0  0  0  0  0  0  0  0  0  0
  145.6964  137.8487  150.5069 H   0  0  0  0  0  0  0  0  0  0  0  0
  144.2583  135.3160  153.0519 H   0  0  0  0  0  0  0  0  0  0  0  0
  143.4824  136.3156  151.8502 H   0  0  0  0  0  0  0  0  0  0  0  0
  145.2663  135.0781  149.1123 H   0  0  0  0  0  0  0  0  0  0  0  0
  143.7698  133.3418  151.8209 H   0  0  0  0  0  0  0  0  0  0  0  0
  143.3287  133.7495  150.1647 H   0  0  0  0  0  0  0  0  0  0  0  0
  144.9266  131.6305  150.5766 H   0  0  0  0  0  0  0  0  0  0  0  0
  145.4596  132.7918  149.3496 H   0  0  0  0  0  0  0  0  0  0  0  0
  147.1065  134.8252  150.5319 H   0  0  0  0  0  0  0  0  0  0  0  0
  146.7764  134.7357  152.2559 H   0  0  0  0  0  0  0  0  0  0  0  0
  1  2  1  0  0  0  0
  1 27  1  0  0  0  0
  1 28  1  0  0  0  0
  1 29  1  0  0  0  0
  2  3  1  0  0  0  0
  2  4  1  0  0  0  0
  2 30  1  0  0  0  0
  3 31  1  0  0  0  0
  3 32  1  0  0  0  0
  3 33  1  0  0  0  0
  4 10  1  0  0  0  0
  4  5  1  0  0  0  0
  4 34  1  0  0  0  0
  5  6  2  0  0  0  0
  5  7  1  0  0  0  0
  7  8  1  0  0  0  0
  7 35  1  0  0  0  0
  8  9  1  0  0  0  0
  8 36  1  0  0  0  0
  8 37  1  0  0  0  0
  9 10  1  0  0  0  0
  9 38  1  0  0  0  0
  9 39  1  0  0  0  0
 10 11  1  0  0  0  0
 11 16  1  0  0  0  0
 11 12  2  0  0  0  0
 12 13  1  0  0  0  0
 13 14  2  0  0  0  0
 13 40  1  0  0  0  0
 14 15  1  0  0  0  0
 15 19  1  0  0  0  0
 15 16  2  0  0  0  0
 16 17  1  0  0  0  0
 17 18  2  0  0  0  0
 18 19  1  0  0  0  0
 18 41  1  0  0  0  0
 19 20  1  0  0  0  0
 20 21  1  0  0  0  0
 20 42  1  0  0  0  0
 20 43  1  0  0  0  0
 21 26  1  0  0  0  0
 21 22  1  0  0  0  0
 21 23  1  0  0  0  0
 22 44  1  0  0  0  0
 23 24  1  0  0  0  0
 23 45  1  0  0  0  0
 23 46  1  0  0  0  0
 24 25  1  0  0  0  0
 24 47  1  0  0  0  0
 24 48  1  0  0  0  0
 25 26  1  0  0  0  0
 26 49  1  0  0  0  0
 26 50  1  0  0  0  0
M  END
> <s_m_source_file>
AV-unprocessed.smi

> <i_m_source_file_index>
274

> <i_lp_mmshare_version>
43012

> <i_f3d_flags>
0

> <s_epik_input>
W0NIM11bQ0hdKFtDSDNdKVtDQEBIXTFDKD1PKVtOSF1bQ0gyXVtDSDJdTjFjKG5bY0hdbjIpYyhjMjMpbltjSF1uM1tDSDJdW0NAQF00KFtPSF0pW0NIMl1bQ0gyXU9bQ0gyXTQ=

> <s_epik_cmdline>
J2VwaWtfcHl0aG9uJywgJy1waCcsICc3LjAnLCAnLXRuJywgJzgnLCAnLW1hJywgJzIwMCcsICctbWV0YWxfYmluZGluZycsICctaW1hZScsICc8aW5maWxlLm1hZT4nLCAnLW9tYWUnLCAnPG91dGZpbGUubWFlPic=

> <r_lp_tautomer_probability>
1

> <r_epik_Ionization_Penalty>
0.000690079

> <r_epik_Ionization_Penalty_Charging>
0

> <r_epik_Ionization_Penalty_Neutral>
0.000690079

> <r_epik_State_Penalty>
0.000321372

> <r_epik_Charging_Adjusted_Penalty>
0.000321372

> <i_epik_Tot_Q>
0

> <i_epik_Tot_abs_Q>
0

> <r_epik_Metal_State_Penalty>
-0

> <b_epik_Metal_Only>
0

> <s_lp_Force_Field>
OPLS_2005

> <r_lp_Energy>
41.7848

> <b_lp_Chiralities_Consistent>
1

> <s_lp_Variant>
AV-unprocessed.smi:274-4

> <Gold.Version>
5.8.1

> <Gold.Id.Protein>
6NUR|6NUR_protein|mol2

> <Gold.PLP.Fitness>
41.4571

> <Gold.PLP.PLP>
-37.8574

> <Gold.PLP.part.hbond>
-2.5474

> <Gold.PLP.part.metal>
0.0000

> <Gold.PLP.part.buried>
-1.9646

> <Gold.PLP.part.nonpolar>
-33.5802

> <Gold.PLP.part.repulsive>
0.7532

> <Gold.PLP.ligand.clash>
0.0000

> <Gold.PLP.ligand.torsion>
0.8114

> <Gold.PLP.Chemscore.Hbond>
0.9920

> <Gold.PLP.Chemscore.CHOScore>
0.6397

> <Gold.PLP.Chemscore.Metal>
0.0000

> <Gold.Chemscore.Hbonds>
donor molecule, donor type, donor heavy atom, donor atom, acceptor molecule, acceptor atom, score
      L1  H    22    44       P1  7921  1.00
      L1  C    18    41       P1 10171  0.79

> <Gold.PLP.Chemscore.Internal.Correction>
0.3273

> <Gold.Rescore>
     Score         DG    S(hbond)    S(metal)    S(lipo)     H(rot)  DE(clash)    DE(int)     intcor
      6.99     -11.73       0.96        0.00      72.90       2.14       1.30       3.44       ----

> <Gold.Chemscore.Fitness>
6.9915

> <Gold.Chemscore.DG>
-11.7306

> <Gold.Chemscore.ZeroCoef>
-5.4800

> <Gold.Chemscore.Hbond>
0.9604

> <Gold.Chemscore.Metal>
0.0000

> <Gold.Chemscore.Lipo>
72.8982

> <Gold.Chemscore.Internal_Hbond>
0.0000

> <Gold.Chemscore.DEClash>
1.3024

> <Gold.Chemscore.DEInternal>
3.4367

> <Gold.Chemscore.Rot>
2.1431

> <Gold.Chemscore.Internal.Correction>
   9.000000E+99

> <Gold.Chemscore.Hbonds>
donor molecule, donor type, donor heavy atom, donor atom, acceptor molecule, acceptor atom, score
      L1  H    22    44       P1  7921  0.94

> <Gold.Chemscore.Hbond.Weighted>
-3.2077

> <Gold.Chemscore.Metal.Weighted>
-0.0000

> <Gold.Chemscore.Lipo.Weighted>
-8.5291

> <Gold.Chemscore.Internal_Hbond.Weighted>
0.0000

> <Gold.Chemscore.DEClash.Weighted>
1.3024

> <Gold.Chemscore.DEInternal.Weighted>
3.4367

> <Gold.Chemscore.Rot.Weighted>
5.4863

> <Gold.Chemscore.Internal.Correction.Weighted>
   9.000000E+99

> <Gold.Protein.RotatedTorsions>
[ 6907 6896 6895 6894 ] final   78.49 input  -60.11 | X-H torsion
[ 7974 7965 7964 7962 ] final  -46.09 input  175.53 | X-H torsion
[ 8008 7997 7996 7995 ] final   -9.96 input   59.86 | X-H torsion
[ 10167 10162 10161 10158 ] final -134.70 input  -65.29 | X-H torsion
[ 10718 10713 10712 10709 ] final   61.01 input   66.30 | X-H torsion
[ 10763 10752 10751 10750 ] final -135.20 input  -60.55 | X-H torsion
[ 11005 11000 10999 10996 ] final -140.81 input  -57.11 | X-H torsion

> <Gold.Protein.ActiveResidues>
 VAL166  LYS551  ARG553  GLY616  TRP617  ASP618  TYR619  PRO620  LYS621  CYS622 
 ASP623  PHE694  ASN695  SER759  ASP760  ASP761  ALA762  ILE779  LEU786  VAL792 
 PHE793  MET794  SER795  GLU796  ALA797  LYS798  CYS799  TRP800  GLU811  SER814 

> <Gold.Protein.RotatedAtoms>
  152.5161  134.3655  159.9299 H   0  0  0  0  0  0  0  0  0  0  0  0  # atno 6907 bound_to 6896
  151.3609  133.3884  159.2697 H   0  0  0  0  0  0  0  0  0  0  0  0  # atno 6908 bound_to 6896
  150.9653  134.9054  159.7813 H   0  0  0  0  0  0  0  0  0  0  0  0  # atno 6909 bound_to 6896
  145.9754  140.7339  142.9390 H   0  0  0  0  0  0  0  0  0  0  0  0  # atno 7974 bound_to 7965
  154.5598  140.2341  155.8353 H   0  0  0  0  0  0  0  0  0  0  0  0  # atno 8008 bound_to 7997
  156.2020  140.3050  155.9505 H   0  0  0  0  0  0  0  0  0  0  0  0  # atno 8009 bound_to 7997
  155.2910  140.0426  157.3013 H   0  0  0  0  0  0  0  0  0  0  0  0  # atno 8010 bound_to 7997
  139.8853  143.6788  152.2621 H   0  0  0  0  0  0  0  0  0  0  0  0  # atno 10167 bound_to 10162
  157.5796  130.8971  149.9407 H   0  0  0  0  0  0  0  0  0  0  0  0  # atno 10718 bound_to 10713
  154.8707  135.3710  154.4860 H   0  0  0  0  0  0  0  0  0  0  0  0  # atno 10763 bound_to 10752
  153.5510  135.7025  153.5596 H   0  0  0  0  0  0  0  0  0  0  0  0  # atno 10764 bound_to 10752
  153.3715  135.4020  155.1756 H   0  0  0  0  0  0  0  0  0  0  0  0  # atno 10765 bound_to 10752
  140.8386  134.2430  157.4821 H   0  0  0  0  0  0  0  0  0  0  0  0  # atno 11005 bound_to 11000
  144.6847  140.2819  143.7291 LP  0  0  0  0  0  0  0  0  0  0  0  0  # atno 17320 bound_to 7965
  145.7846  139.1904  143.2138 LP  0  0  0  0  0  0  0  0  0  0  0  0  # atno 17321 bound_to 7965
  139.7158  144.7612  151.1036 LP  0  0  0  0  0  0  0  0  0  0  0  0  # atno 17342 bound_to 10162
  140.7737  143.5271  150.9467 LP  0  0  0  0  0  0  0  0  0  0  0  0  # atno 17343 bound_to 10162
  156.0841  130.3670  150.0522 LP  0  0  0  0  0  0  0  0  0  0  0  0  # atno 17370 bound_to 10713
  156.8663  130.9509  151.3613 LP  0  0  0  0  0  0  0  0  0  0  0  0  # atno 17371 bound_to 10713
  139.8703  134.9623  156.4426 LP  0  0  0  0  0  0  0  0  0  0  0  0  # atno 17394 bound_to 11000
  140.8920  133.7841  155.9582 LP  0  0  0  0  0  0  0  0  0  0  0  0  # atno 17395 bound_to 11000

$$$$
