AV-unprocessed.smi:725|AV-procd|sdf|3508|dock7
  -GOLD-   22720 0503D 1   1.00000     0.00000
 Structure written by MMmdl.
 47 48  0  0  0  0  0  0  0  0  1 V2000
  148.6672  141.2567  153.7808 C   0  0  0  0  0  0  0  0  0  0  0  0
  147.4466  141.2560  152.8538 C   0  0  0  0  0  0  0  0  0  0  0  0
  146.4465  140.1365  153.2027 C   0  0  0  0  0  0  0  0  0  0  0  0
  146.7183  138.7631  152.5359 C   0  0  1  0  0  0  0  0  0  0  0  0
  146.4095  138.7686  151.0251 C   0  0  0  0  0  0  0  0  0  0  0  0
  148.0932  138.4659  152.6840 O   0  0  0  0  0  0  0  0  0  0  0  0
  145.9641  137.6263  153.2690 C   0  0  0  0  0  0  0  0  0  0  0  0
  145.9590  136.3706  152.5229 N   0  0  0  0  0  0  0  0  0  0  0  0
  144.8661  135.6709  152.1788 C   0  0  0  0  0  0  0  0  0  0  0  0
  143.7176  136.0285  152.4418 O   0  0  0  0  0  0  0  0  0  0  0  0
  145.1363  134.4067  151.4055 C   0  0  0  0  0  0  0  0  0  0  0  0
  144.3109  134.0798  150.3043 C   0  0  0  0  0  0  0  0  0  0  0  0
  144.5863  132.9281  149.5466 C   0  0  0  0  0  0  0  0  0  0  0  0
  145.6907  132.1406  149.9130 C   0  0  0  0  0  0  0  0  0  0  0  0
  146.4915  132.4350  150.9565 N   0  0  0  0  0  0  0  0  0  0  0  0
  146.2333  133.5418  151.6971 C   0  0  0  0  0  0  0  0  0  0  0  0
  147.0805  133.7719  152.7997 N   0  0  0  0  0  0  0  0  0  0  0  0
  148.3261  133.0148  152.8640 C   0  0  0  0  0  0  0  0  0  0  0  0
  149.2204  133.5787  153.9812 C   0  0  0  0  0  0  0  0  0  0  0  0
  148.5087  133.5657  155.2158 O   0  0  0  0  0  0  0  0  0  0  0  0
  147.3315  134.3671  155.1653 C   0  0  0  0  0  0  0  0  0  0  0  0
  146.3846  133.8284  154.0794 C   0  0  0  0  0  0  0  0  0  0  0  0
  149.3557  142.0593  153.5157 H   0  0  0  0  0  0  0  0  0  0  0  0
  149.2132  140.3153  153.7137 H   0  0  0  0  0  0  0  0  0  0  0  0
  148.3723  141.4012  154.8204 H   0  0  0  0  0  0  0  0  0  0  0  0
  146.9596  142.2288  152.9204 H   0  0  0  0  0  0  0  0  0  0  0  0
  147.7867  141.1486  151.8235 H   0  0  0  0  0  0  0  0  0  0  0  0
  146.4337  140.0061  154.2861 H   0  0  0  0  0  0  0  0  0  0  0  0
  145.4463  140.4783  152.9339 H   0  0  0  0  0  0  0  0  0  0  0  0
  145.3841  139.0824  150.8293 H   0  0  0  0  0  0  0  0  0  0  0  0
  146.5376  137.7755  150.5928 H   0  0  0  0  0  0  0  0  0  0  0  0
  147.0677  139.4429  150.4770 H   0  0  0  0  0  0  0  0  0  0  0  0
  148.5399  138.7049  151.8861 H   0  0  0  0  0  0  0  0  0  0  0  0
  146.3759  137.4758  154.2688 H   0  0  0  0  0  0  0  0  0  0  0  0
  144.9225  137.9125  153.4198 H   0  0  0  0  0  0  0  0  0  0  0  0
  146.8588  136.0030  152.2499 H   0  0  0  0  0  0  0  0  0  0  0  0
  143.4767  134.7091  150.0285 H   0  0  0  0  0  0  0  0  0  0  0  0
  143.9708  132.6597  148.7008 H   0  0  0  0  0  0  0  0  0  0  0  0
  145.9383  131.2503  149.3541 H   0  0  0  0  0  0  0  0  0  0  0  0
  148.1100  131.9637  153.0603 H   0  0  0  0  0  0  0  0  0  0  0  0
  148.8442  133.0690  151.9058 H   0  0  0  0  0  0  0  0  0  0  0  0
  150.1214  132.9739  154.0828 H   0  0  0  0  0  0  0  0  0  0  0  0
  149.5424  134.5945  153.7458 H   0  0  0  0  0  0  0  0  0  0  0  0
  146.8416  134.3414  156.1386 H   0  0  0  0  0  0  0  0  0  0  0  0
  147.5951  135.4074  154.9680 H   0  0  0  0  0  0  0  0  0  0  0  0
  145.4990  134.4605  154.0129 H   0  0  0  0  0  0  0  0  0  0  0  0
  146.0426  132.8271  154.3438 H   0  0  0  0  0  0  0  0  0  0  0  0
  1  2  1  0  0  0  0
  1 23  1  0  0  0  0
  1 24  1  0  0  0  0
  1 25  1  0  0  0  0
  2  3  1  0  0  0  0
  2 26  1  0  0  0  0
  2 27  1  0  0  0  0
  3  4  1  0  0  0  0
  3 28  1  0  0  0  0
  3 29  1  0  0  0  0
  4  5  1  0  0  0  0
  4  6  1  0  0  0  0
  4  7  1  0  0  0  0
  5 30  1  0  0  0  0
  5 31  1  0  0  0  0
  5 32  1  0  0  0  0
  6 33  1  0  0  0  0
  7  8  1  0  0  0  0
  7 34  1  0  0  0  0
  7 35  1  0  0  0  0
  8  9  1  0  0  0  0
  8 36  1  0  0  0  0
  9 10  2  0  0  0  0
  9 11  1  0  0  0  0
 11 16  1  0  0  0  0
 11 12  2  0  0  0  0
 12 13  1  0  0  0  0
 12 37  1  0  0  0  0
 13 14  2  0  0  0  0
 13 38  1  0  0  0  0
 14 15  1  0  0  0  0
 14 39  1  0  0  0  0
 15 16  2  0  0  0  0
 16 17  1  0  0  0  0
 17 22  1  0  0  0  0
 17 18  1  0  0  0  0
 18 19  1  0  0  0  0
 18 40  1  0  0  0  0
 18 41  1  0  0  0  0
 19 20  1  0  0  0  0
 19 42  1  0  0  0  0
 19 43  1  0  0  0  0
 20 21  1  0  0  0  0
 21 22  1  0  0  0  0
 21 44  1  0  0  0  0
 21 45  1  0  0  0  0
 22 46  1  0  0  0  0
 22 47  1  0  0  0  0
M  END
> <s_m_source_file>
AV-unprocessed.smi

> <i_m_source_file_index>
725

> <i_lp_mmshare_version>
43012

> <i_f3d_flags>
0

> <s_epik_input>
W0NIM11bQ0gyXVtDSDJdW0NAQF0oW0NIM10pKFtPSF0pW0NIMl1bTkhdQyg9TyljMVtjSF1bY0hdW2NIXW5jMU4yW0NIMl1bQ0gyXU9bQ0gyXVtDSDJdMg==

> <s_epik_cmdline>
J2VwaWtfcHl0aG9uJywgJy1waCcsICc3LjAnLCAnLXRuJywgJzgnLCAnLW1hJywgJzIwMCcsICctbWV0YWxfYmluZGluZycsICctaW1hZScsICc8aW5maWxlLm1hZT4nLCAnLW9tYWUnLCAnPG91dGZpbGUubWFlPic=

> <r_lp_tautomer_probability>
1

> <r_epik_Ionization_Penalty>
1.23446e-05

> <r_epik_Ionization_Penalty_Charging>
0

> <r_epik_Ionization_Penalty_Neutral>
1.23446e-05

> <r_epik_State_Penalty>
-0

> <r_epik_Charging_Adjusted_Penalty>
0

> <i_epik_Tot_Q>
0

> <i_epik_Tot_abs_Q>
0

> <r_epik_Metal_State_Penalty>
-0

> <b_epik_Metal_Only>
0

> <s_lp_Force_Field>
OPLS_2005

> <r_lp_Energy>
26.7516

> <b_lp_Chiralities_Consistent>
1

> <s_lp_Variant>
AV-unprocessed.smi:725-1

> <Gold.Version>
5.8.1

> <Gold.Id.Protein>
6NUR|6NUR_protein|mol2

> <Gold.PLP.Fitness>
41.6250

> <Gold.PLP.PLP>
-37.7989

> <Gold.PLP.part.hbond>
-3.0000

> <Gold.PLP.part.metal>
0.0000

> <Gold.PLP.part.buried>
-3.5133

> <Gold.PLP.part.nonpolar>
-32.5104

> <Gold.PLP.part.repulsive>
0.5081

> <Gold.PLP.ligand.clash>
0.0000

> <Gold.PLP.ligand.torsion>
1.2730

> <Gold.PLP.Chemscore.Hbond>
2.0000

> <Gold.PLP.Chemscore.CHOScore>
0.0000

> <Gold.PLP.Chemscore.Metal>
0.0000

> <Gold.Chemscore.Hbonds>
donor molecule, donor type, donor heavy atom, donor atom, acceptor molecule, acceptor atom, score
      L1  H     6    33       P1  7957  0.86
      L1  H     8    36       P1  7948  0.76

> <Gold.PLP.Chemscore.Internal.Correction>
0.3722

> <Gold.Rescore>
     Score         DG    S(hbond)    S(metal)    S(lipo)     H(rot)  DE(clash)    DE(int)     intcor
     12.48     -16.30       1.96        0.00      84.40       2.19       1.35       2.46       ----

> <Gold.Chemscore.Fitness>
12.4839

> <Gold.Chemscore.DG>
-16.3002

> <Gold.Chemscore.ZeroCoef>
-5.4800

> <Gold.Chemscore.Hbond>
1.9643

> <Gold.Chemscore.Metal>
0.0000

> <Gold.Chemscore.Lipo>
84.3956

> <Gold.Chemscore.Internal_Hbond>
0.0000

> <Gold.Chemscore.DEClash>
1.3514

> <Gold.Chemscore.DEInternal>
2.4650

> <Gold.Chemscore.Rot>
2.1933

> <Gold.Chemscore.Internal.Correction>
   9.000000E+99

> <Gold.Chemscore.Hbonds>
donor molecule, donor type, donor heavy atom, donor atom, acceptor molecule, acceptor atom, score
      L1  H     6    33       P1  7957  0.59
      L1  H     8    36       P1  7948  0.74

> <Gold.Chemscore.Hbond.Weighted>
-6.5608

> <Gold.Chemscore.Metal.Weighted>
-0.0000

> <Gold.Chemscore.Lipo.Weighted>
-9.8743

> <Gold.Chemscore.Internal_Hbond.Weighted>
0.0000

> <Gold.Chemscore.DEClash.Weighted>
1.3514

> <Gold.Chemscore.DEInternal.Weighted>
2.4650

> <Gold.Chemscore.Rot.Weighted>
5.6149

> <Gold.Chemscore.Internal.Correction.Weighted>
   9.000000E+99

> <Gold.Protein.RotatedTorsions>
[ 6907 6896 6895 6894 ] final  163.56 input  -60.11 | X-H torsion
[ 7974 7965 7964 7962 ] final -144.00 input  175.53 | X-H torsion
[ 8008 7997 7996 7995 ] final  165.07 input   59.86 | X-H torsion
[ 10167 10162 10161 10158 ] final -120.80 input  -65.29 | X-H torsion
[ 10718 10713 10712 10709 ] final  159.45 input   66.30 | X-H torsion
[ 10763 10752 10751 10750 ] final -142.08 input  -60.55 | X-H torsion
[ 11005 11000 10999 10996 ] final -161.59 input  -57.11 | X-H torsion

> <Gold.Protein.ActiveResidues>
 VAL166  LYS551  ARG553  GLY616  TRP617  ASP618  TYR619  PRO620  LYS621  CYS622 
 ASP623  PHE694  ASN695  SER759  ASP760  ASP761  ALA762  ILE779  LEU786  VAL792 
 PHE793  MET794  SER795  GLU796  ALA797  LYS798  CYS799  TRP800  GLU811  SER814 

> <Gold.Protein.RotatedAtoms>
  151.9233  133.3591  159.3904 H   0  0  0  0  0  0  0  0  0  0  0  0  # atno 6907 bound_to 6896
  150.7032  134.4612  159.5391 H   0  0  0  0  0  0  0  0  0  0  0  0  # atno 6908 bound_to 6896
  152.2240  134.8386  160.0533 H   0  0  0  0  0  0  0  0  0  0  0  0  # atno 6909 bound_to 6896
  144.8328  140.5764  143.5503 H   0  0  0  0  0  0  0  0  0  0  0  0  # atno 7974 bound_to 7965
  156.1830  140.1680  156.8238 H   0  0  0  0  0  0  0  0  0  0  0  0  # atno 8008 bound_to 7997
  154.5382  140.0742  156.8496 H   0  0  0  0  0  0  0  0  0  0  0  0  # atno 8009 bound_to 7997
  155.3269  140.3377  155.4242 H   0  0  0  0  0  0  0  0  0  0  0  0  # atno 8010 bound_to 7997
  140.0320  143.5239  152.2172 H   0  0  0  0  0  0  0  0  0  0  0  0  # atno 10167 bound_to 10162
  157.1640  131.0594  151.2217 H   0  0  0  0  0  0  0  0  0  0  0  0  # atno 10718 bound_to 10713
  154.8522  135.3506  154.5971 H   0  0  0  0  0  0  0  0  0  0  0  0  # atno 10763 bound_to 10752
  153.6580  135.6991  153.5191 H   0  0  0  0  0  0  0  0  0  0  0  0  # atno 10764 bound_to 10752
  153.2840  135.4255  155.1063 H   0  0  0  0  0  0  0  0  0  0  0  0  # atno 10765 bound_to 10752
  140.6187  134.4773  157.5222 H   0  0  0  0  0  0  0  0  0  0  0  0  # atno 11005 bound_to 11000
  145.4858  139.1492  143.3737 LP  0  0  0  0  0  0  0  0  0  0  0  0  # atno 17320 bound_to 7965
  146.2630  140.4995  142.8846 LP  0  0  0  0  0  0  0  0  0  0  0  0  # atno 17321 bound_to 7965
  139.6070  144.7599  151.3039 LP  0  0  0  0  0  0  0  0  0  0  0  0  # atno 17342 bound_to 10162
  140.7298  143.6898  150.7932 LP  0  0  0  0  0  0  0  0  0  0  0  0  # atno 17343 bound_to 10162
  157.4105  130.7383  149.6835 LP  0  0  0  0  0  0  0  0  0  0  0  0  # atno 17370 bound_to 10713
  155.9749  130.4096  150.3889 LP  0  0  0  0  0  0  0  0  0  0  0  0  # atno 17371 bound_to 10713
  139.9162  134.8241  156.1359 LP  0  0  0  0  0  0  0  0  0  0  0  0  # atno 17394 bound_to 11000
  141.0757  133.6776  156.2232 LP  0  0  0  0  0  0  0  0  0  0  0  0  # atno 17395 bound_to 11000

$$$$
