AV-unprocessed.smi:1641|AV-procd|sdf|6565|dock6
  -GOLD-   22720 7253D 1   1.00000     0.00000
 Structure written by MMmdl.
 40 41  0  0  0  0  0  0  0  0  2 V2000
  143.8162  143.8605  162.5966 C   0  0  0  0  0  0  0  0  0  0  0  0
  144.6847  143.4618  161.4531 C   0  0  0  0  0  0  0  0  0  0  0  0
  145.0499  142.1967  161.2327 N   0  0  0  0  0  0  0  0  0  0  0  0
  145.8567  142.0736  160.1106 N   0  0  0  0  0  0  0  0  0  0  0  0
  146.0978  143.2448  159.5046 C   0  0  0  0  0  0  0  0  0  0  0  0
  146.8519  143.3388  158.3969 N   0  5  0  0  0  0  0  0  0  0  0  0
  147.5706  142.2739  157.9736 C   0  0  0  0  0  0  0  0  0  0  0  0
  147.4304  141.1044  158.3390 O   0  0  0  0  0  0  0  0  0  0  0  0
  148.5114  142.5829  157.0714 N   0  0  0  0  0  0  0  0  0  0  0  0
  149.4242  141.6352  156.4469 C   0  0  0  0  0  0  0  0  0  0  0  0
  150.3037  140.9659  157.5151 C   0  0  0  0  0  0  0  0  0  0  0  0
  151.0373  141.8892  158.3795 N   0  0  0  0  0  0  0  0  0  0  0  0
  151.5047  143.0740  157.6627 C   0  0  0  0  0  0  0  0  0  0  0  0
  152.3155  144.0333  158.5577 C   0  0  1  0  0  0  0  0  0  0  0  0
  151.4430  144.8303  159.5421 C   0  0  0  0  0  0  0  0  0  0  0  0
  153.3606  143.3268  159.2286 O   0  0  0  0  0  0  0  0  0  0  0  0
  152.9448  142.1661  159.9461 C   0  0  2  0  0  0  0  0  0  0  0  0
  154.1907  141.4975  160.5369 C   0  0  0  0  0  0  0  0  0  0  0  0
  152.1796  141.2277  158.9964 C   0  0  0  0  0  0  0  0  0  0  0  0
  145.3089  144.6154  160.2859 S   0  0  0  0  0  0  0  0  0  0  0  0
  144.3148  143.6375  163.5400 H   0  0  0  0  0  0  0  0  0  0  0  0
  142.8730  143.3150  162.5584 H   0  0  0  0  0  0  0  0  0  0  0  0
  143.6033  144.9289  162.5581 H   0  0  0  0  0  0  0  0  0  0  0  0
  148.5952  143.5509  156.7979 H   0  0  0  0  0  0  0  0  0  0  0  0
  148.8335  140.8985  155.9023 H   0  0  0  0  0  0  0  0  0  0  0  0
  150.0532  142.1526  155.7203 H   0  0  0  0  0  0  0  0  0  0  0  0
  149.6522  140.3486  158.1355 H   0  0  0  0  0  0  0  0  0  0  0  0
  151.0014  140.2770  157.0364 H   0  0  0  0  0  0  0  0  0  0  0  0
  152.1296  142.7643  156.8235 H   0  0  0  0  0  0  0  0  0  0  0  0
  150.6641  143.6190  157.2342 H   0  0  0  0  0  0  0  0  0  0  0  0
  152.8060  144.7601  157.9096 H   0  0  0  0  0  0  0  0  0  0  0  0
  150.7254  145.4527  159.0068 H   0  0  0  0  0  0  0  0  0  0  0  0
  152.0549  145.4879  160.1596 H   0  0  0  0  0  0  0  0  0  0  0  0
  150.8752  144.1795  160.2067 H   0  0  0  0  0  0  0  0  0  0  0  0
  152.2930  142.4627  160.7685 H   0  0  0  0  0  0  0  0  0  0  0  0
  153.9245  140.6098  161.1110 H   0  0  0  0  0  0  0  0  0  0  0  0
  154.7185  142.1789  161.2043 H   0  0  0  0  0  0  0  0  0  0  0  0
  154.8853  141.1940  159.7531 H   0  0  0  0  0  0  0  0  0  0  0  0
  151.8416  140.3536  159.5544 H   0  0  0  0  0  0  0  0  0  0  0  0
  152.8554  140.8604  158.2223 H   0  0  0  0  0  0  0  0  0  0  0  0
  1  2  1  0  0  0  0
  1 21  1  0  0  0  0
  1 22  1  0  0  0  0
  1 23  1  0  0  0  0
  2 20  1  0  0  0  0
  2  3  2  0  0  0  0
  3  4  1  0  0  0  0
  4  5  2  0  0  0  0
  5  6  1  0  0  0  0
  5 20  1  0  0  0  0
  6  7  1  0  0  0  0
  7  8  2  0  0  0  0
  7  9  1  0  0  0  0
  9 10  1  0  0  0  0
  9 24  1  0  0  0  0
 10 11  1  0  0  0  0
 10 25  1  0  0  0  0
 10 26  1  0  0  0  0
 11 12  1  0  0  0  0
 11 27  1  0  0  0  0
 11 28  1  0  0  0  0
 12 19  1  0  0  0  0
 12 13  1  0  0  0  0
 13 14  1  0  0  0  0
 13 29  1  0  0  0  0
 13 30  1  0  0  0  0
 14 15  1  0  0  0  0
 14 16  1  0  0  0  0
 14 31  1  0  0  0  0
 15 32  1  0  0  0  0
 15 33  1  0  0  0  0
 15 34  1  0  0  0  0
 16 17  1  0  0  0  0
 17 18  1  0  0  0  0
 17 19  1  0  0  0  0
 17 35  1  0  0  0  0
 18 36  1  0  0  0  0
 18 37  1  0  0  0  0
 18 38  1  0  0  0  0
 19 39  1  0  0  0  0
 19 40  1  0  0  0  0
M  CHG  1   6  -1
M  END
> <s_m_source_file>
AV-unprocessed.smi

> <i_m_source_file_index>
1641

> <i_lp_mmshare_version>
43012

> <i_f3d_flags>
0

> <s_epik_input>
W0NIM11jMW5uYyhzMSlbTkhdQyg9TylbTkhdW0NIMl1bQ0gyXU4yW0NIMl1bQ0BASF0oW0NIM10pT1tDQEBIXShbQ0gzXSlbQ0gyXTI=

> <s_epik_cmdline>
J2VwaWtfcHl0aG9uJywgJy1waCcsICc3LjAnLCAnLXRuJywgJzgnLCAnLW1hJywgJzIwMCcsICctbWV0YWxfYmluZGluZycsICctaW1hZScsICc8aW5maWxlLm1hZT4nLCAnLW9tYWUnLCAnPG91dGZpbGUubWFlPic=

> <r_lp_tautomer_probability>
1

> <r_epik_Ionization_Penalty>
3.81681

> <r_epik_Ionization_Penalty_Charging>
3.36369

> <r_epik_Ionization_Penalty_Neutral>
0.45313

> <r_epik_State_Penalty>
3.571

> <r_epik_Charging_Adjusted_Penalty>
6.93469

> <i_epik_Tot_Q>
-1

> <i_epik_Tot_abs_Q>
1

> <r_epik_Metal_State_Penalty>
0.710322

> <b_epik_Metal_Only>
1

> <s_lp_Force_Field>
OPLS_2005

> <r_lp_Energy>
20.315

> <b_lp_Chiralities_Consistent>
1

> <s_lp_Variant>
AV-unprocessed.smi:1641-10

> <Gold.Version>
5.8.1

> <Gold.Id.Protein>
6NUR|6NUR_protein|mol2

> <Gold.PLP.Fitness>
46.1597

> <Gold.PLP.PLP>
-40.7611

> <Gold.PLP.part.hbond>
-3.8404

> <Gold.PLP.part.metal>
0.0000

> <Gold.PLP.part.buried>
-6.2304

> <Gold.PLP.part.nonpolar>
-30.9180

> <Gold.PLP.part.repulsive>
0.5772

> <Gold.PLP.ligand.clash>
0.0000

> <Gold.PLP.ligand.torsion>
0.3117

> <Gold.PLP.Chemscore.Hbond>
2.0000

> <Gold.PLP.Chemscore.CHOScore>
0.0000

> <Gold.PLP.Chemscore.Metal>
0.0000

> <Gold.Chemscore.Hbonds>
donor molecule, donor type, donor heavy atom, donor atom, acceptor molecule, acceptor atom, score
      L1  H     9    24       P1  8028  1.00
      P1  H  6934  6946       L1     4  0.85

> <Gold.PLP.Chemscore.Internal.Correction>
0.0220

> <Gold.Rescore>
     Score         DG    S(hbond)    S(metal)    S(lipo)     H(rot)  DE(clash)    DE(int)     intcor
     13.40     -17.01       1.53        0.00      89.15       1.57       0.46       3.15       ----

> <Gold.Chemscore.Fitness>
13.3957

> <Gold.Chemscore.DG>
-17.0074

> <Gold.Chemscore.ZeroCoef>
-5.4800

> <Gold.Chemscore.Hbond>
1.5306

> <Gold.Chemscore.Metal>
0.0000

> <Gold.Chemscore.Lipo>
89.1518

> <Gold.Chemscore.Internal_Hbond>
0.0000

> <Gold.Chemscore.DEClash>
0.4631

> <Gold.Chemscore.DEInternal>
3.1486

> <Gold.Chemscore.Rot>
1.5686

> <Gold.Chemscore.Internal.Correction>
   9.000000E+99

> <Gold.Chemscore.Hbonds>
donor molecule, donor type, donor heavy atom, donor atom, acceptor molecule, acceptor atom, score
      L1  H     9    24       P1  8028  0.29
      P1  H  6934  6946       L1     4  0.15

> <Gold.Chemscore.Hbond.Weighted>
-5.1123

> <Gold.Chemscore.Metal.Weighted>
-0.0000

> <Gold.Chemscore.Lipo.Weighted>
-10.4308

> <Gold.Chemscore.Internal_Hbond.Weighted>
0.0000

> <Gold.Chemscore.DEClash.Weighted>
0.4631

> <Gold.Chemscore.DEInternal.Weighted>
3.1486

> <Gold.Chemscore.Rot.Weighted>
4.0157

> <Gold.Chemscore.Internal.Correction.Weighted>
   9.000000E+99

> <Gold.Protein.RotatedTorsions>
[ 6907 6896 6895 6894 ] final  -24.70 input  -60.11 | X-H torsion
[ 7974 7965 7964 7962 ] final -136.02 input  175.53 | X-H torsion
[ 8008 7997 7996 7995 ] final   35.28 input   59.86 | X-H torsion
[ 10167 10162 10161 10158 ] final -173.05 input  -65.29 | X-H torsion
[ 10718 10713 10712 10709 ] final -101.21 input   66.30 | X-H torsion
[ 10763 10752 10751 10750 ] final  -31.35 input  -60.55 | X-H torsion
[ 11005 11000 10999 10996 ] final   99.99 input  -57.11 | X-H torsion

> <Gold.Protein.ActiveResidues>
 VAL166  LYS551  ARG553  GLY616  TRP617  ASP618  TYR619  PRO620  LYS621  CYS622 
 ASP623  PHE694  ASN695  SER759  ASP760  ASP761  ALA762  ILE779  LEU786  VAL792 
 PHE793  MET794  SER795  GLU796  ALA797  LYS798  CYS799  TRP800  GLU811  SER814 

> <Gold.Protein.RotatedAtoms>
  151.1858  135.0381  159.8811 H   0  0  0  0  0  0  0  0  0  0  0  0  # atno 6907 bound_to 6896
  152.5442  134.1012  159.8328 H   0  0  0  0  0  0  0  0  0  0  0  0  # atno 6908 bound_to 6896
  151.1134  133.5109  159.2637 H   0  0  0  0  0  0  0  0  0  0  0  0  # atno 6909 bound_to 6896
  144.8963  140.6711  143.5113 H   0  0  0  0  0  0  0  0  0  0  0  0  # atno 7974 bound_to 7965
  155.1686  140.3289  155.4397 H   0  0  0  0  0  0  0  0  0  0  0  0  # atno 8008 bound_to 7997
  156.2518  140.1947  156.6740 H   0  0  0  0  0  0  0  0  0  0  0  0  # atno 8009 bound_to 7997
  154.6354  140.0577  156.9768 H   0  0  0  0  0  0  0  0  0  0  0  0  # atno 8010 bound_to 7997
  139.5710  144.1642  152.1383 H   0  0  0  0  0  0  0  0  0  0  0  0  # atno 10167 bound_to 10162
  156.0187  130.5363  150.6930 H   0  0  0  0  0  0  0  0  0  0  0  0  # atno 10718 bound_to 10713
  153.7959  135.6894  153.4863 H   0  0  0  0  0  0  0  0  0  0  0  0  # atno 10763 bound_to 10752
  153.1720  135.4539  154.9913 H   0  0  0  0  0  0  0  0  0  0  0  0  # atno 10764 bound_to 10752
  154.8026  135.3344  154.7451 H   0  0  0  0  0  0  0  0  0  0  0  0  # atno 10765 bound_to 10752
  139.8771  134.9120  156.4689 H   0  0  0  0  0  0  0  0  0  0  0  0  # atno 11005 bound_to 11000
  145.3694  139.1662  143.4340 LP  0  0  0  0  0  0  0  0  0  0  0  0  # atno 17320 bound_to 7965
  146.3083  140.3764  142.8679 LP  0  0  0  0  0  0  0  0  0  0  0  0  # atno 17321 bound_to 7965
  140.1175  144.5403  150.6884 LP  0  0  0  0  0  0  0  0  0  0  0  0  # atno 17342 bound_to 10162
  140.6994  143.2425  151.4907 LP  0  0  0  0  0  0  0  0  0  0  0  0  # atno 17343 bound_to 10162
  157.4607  131.0883  151.0748 LP  0  0  0  0  0  0  0  0  0  0  0  0  # atno 17370 bound_to 10713
  157.1237  130.6072  149.5511 LP  0  0  0  0  0  0  0  0  0  0  0  0  # atno 17371 bound_to 10713
  140.8810  133.7918  155.9467 LP  0  0  0  0  0  0  0  0  0  0  0  0  # atno 17394 bound_to 11000
  140.8854  134.2561  157.5123 LP  0  0  0  0  0  0  0  0  0  0  0  0  # atno 17395 bound_to 11000

$$$$
