AV-unprocessed.smi:1075|AV-procd|sdf|4694|dock9
  -GOLD-   22720 3213D 1   1.00000     0.00000
 Structure written by MMmdl.
 50 51  0  0  0  0  0  0  0  0  1 V2000
  146.1218  132.5039  157.4134 C   0  0  0  0  0  0  0  0  0  0  0  0
  147.1879  133.2646  156.6776 C   0  0  0  0  0  0  0  0  0  0  0  0
  147.8381  132.6739  155.6902 N   0  0  0  0  0  0  0  0  0  0  0  0
  148.6996  133.6063  155.2395 N   0  0  0  0  0  0  0  0  0  0  0  0
  149.5808  133.2804  154.1348 C   0  0  0  0  0  0  0  0  0  0  0  0
  148.5900  134.7923  155.9400 C   0  0  0  0  0  0  0  0  0  0  0  0
  149.4334  135.9843  155.6127 C   0  0  0  0  0  0  0  0  0  0  0  0
  147.6200  134.6068  156.8930 C   0  0  0  0  0  0  0  0  0  0  0  0
  147.0844  135.5702  157.9342 C   0  0  1  0  0  0  0  0  0  0  0  0
  145.5667  135.7898  157.7850 C   0  0  0  0  0  0  0  0  0  0  0  0
  147.4975  135.1040  159.3409 C   0  0  0  0  0  0  0  0  0  0  0  0
  148.6845  135.0592  159.6650 O   0  0  0  0  0  0  0  0  0  0  0  0
  146.4884  134.7534  160.1590 N   0  0  0  0  0  0  0  0  0  0  0  0
  146.5444  134.2852  161.5499 C   0  0  1  0  0  0  0  0  0  0  0  0
  147.8031  133.4162  161.7616 C   0  0  0  0  0  0  0  0  0  0  0  0
  146.6424  135.5356  162.4564 C   0  0  0  0  0  0  0  0  0  0  0  0
  145.3755  136.4110  162.4101 C   0  0  0  0  0  0  0  0  0  0  0  0
  144.1156  135.6060  162.7771 C   0  0  1  0  0  0  0  0  0  0  0  0
  142.8529  136.4761  162.7071 C   0  0  0  0  0  0  0  0  0  0  0  0
  143.9928  134.3601  161.8807 C   0  0  0  0  0  0  0  0  0  0  0  0
  145.2663  133.4961  161.9358 C   0  0  0  0  0  0  0  0  0  0  0  0
  145.1569  133.0038  157.3246 H   0  0  0  0  0  0  0  0  0  0  0  0
  146.3603  132.4278  158.4744 H   0  0  0  0  0  0  0  0  0  0  0  0
  146.0058  131.4907  157.0268 H   0  0  0  0  0  0  0  0  0  0  0  0
  149.2636  133.8212  153.2430 H   0  0  0  0  0  0  0  0  0  0  0  0
  149.5583  132.2098  153.9264 H   0  0  0  0  0  0  0  0  0  0  0  0
  150.6030  133.5672  154.3819 H   0  0  0  0  0  0  0  0  0  0  0  0
  148.9710  136.9064  155.9630 H   0  0  0  0  0  0  0  0  0  0  0  0
  149.5767  136.0834  154.5368 H   0  0  0  0  0  0  0  0  0  0  0  0
  150.4146  135.9010  156.0799 H   0  0  0  0  0  0  0  0  0  0  0  0
  147.5506  136.5474  157.8041 H   0  0  0  0  0  0  0  0  0  0  0  0
  145.0020  134.8690  157.9295 H   0  0  0  0  0  0  0  0  0  0  0  0
  145.3279  136.1696  156.7913 H   0  0  0  0  0  0  0  0  0  0  0  0
  145.1990  136.5200  158.5070 H   0  0  0  0  0  0  0  0  0  0  0  0
  145.5590  134.8335  159.7724 H   0  0  0  0  0  0  0  0  0  0  0  0
  147.9207  133.1421  162.8106 H   0  0  0  0  0  0  0  0  0  0  0  0
  148.7066  133.9468  161.4588 H   0  0  0  0  0  0  0  0  0  0  0  0
  147.7605  132.4867  161.1941 H   0  0  0  0  0  0  0  0  0  0  0  0
  146.8137  135.2258  163.4884 H   0  0  0  0  0  0  0  0  0  0  0  0
  147.5092  136.1361  162.1763 H   0  0  0  0  0  0  0  0  0  0  0  0
  145.4910  137.2501  163.0968 H   0  0  0  0  0  0  0  0  0  0  0  0
  145.2613  136.8467  161.4166 H   0  0  0  0  0  0  0  0  0  0  0  0
  144.2241  135.2671  163.8085 H   0  0  0  0  0  0  0  0  0  0  0  0
  142.6827  136.8479  161.6962 H   0  0  0  0  0  0  0  0  0  0  0  0
  142.9337  137.3380  163.3696 H   0  0  0  0  0  0  0  0  0  0  0  0
  141.9699  135.9114  163.0073 H   0  0  0  0  0  0  0  0  0  0  0  0
  143.1366  133.7625  162.1944 H   0  0  0  0  0  0  0  0  0  0  0  0
  143.7935  134.6600  160.8510 H   0  0  0  0  0  0  0  0  0  0  0  0
  145.1407  132.6196  161.3002 H   0  0  0  0  0  0  0  0  0  0  0  0
  145.3779  133.1066  162.9487 H   0  0  0  0  0  0  0  0  0  0  0  0
  1  2  1  0  0  0  0
  1 22  1  0  0  0  0
  1 23  1  0  0  0  0
  1 24  1  0  0  0  0
  2  8  1  0  0  0  0
  2  3  2  0  0  0  0
  3  4  1  0  0  0  0
  4  5  1  0  0  0  0
  4  6  1  0  0  0  0
  5 25  1  0  0  0  0
  5 26  1  0  0  0  0
  5 27  1  0  0  0  0
  6  7  1  0  0  0  0
  6  8  2  0  0  0  0
  7 28  1  0  0  0  0
  7 29  1  0  0  0  0
  7 30  1  0  0  0  0
  8  9  1  0  0  0  0
  9 10  1  0  0  0  0
  9 11  1  0  0  0  0
  9 31  1  0  0  0  0
 10 32  1  0  0  0  0
 10 33  1  0  0  0  0
 10 34  1  0  0  0  0
 11 12  2  0  0  0  0
 11 13  1  0  0  0  0
 13 14  1  0  0  0  0
 13 35  1  0  0  0  0
 14 21  1  0  0  0  0
 14 15  1  0  0  0  0
 14 16  1  0  0  0  0
 15 36  1  0  0  0  0
 15 37  1  0  0  0  0
 15 38  1  0  0  0  0
 16 17  1  0  0  0  0
 16 39  1  0  0  0  0
 16 40  1  0  0  0  0
 17 18  1  0  0  0  0
 17 41  1  0  0  0  0
 17 42  1  0  0  0  0
 18 19  1  0  0  0  0
 18 20  1  0  0  0  0
 18 43  1  0  0  0  0
 19 44  1  0  0  0  0
 19 45  1  0  0  0  0
 19 46  1  0  0  0  0
 20 21  1  0  0  0  0
 20 47  1  0  0  0  0
 20 48  1  0  0  0  0
 21 49  1  0  0  0  0
 21 50  1  0  0  0  0
M  END
> <s_m_source_file>
AV-unprocessed.smi

> <i_m_source_file_index>
1075

> <i_lp_mmshare_version>
43012

> <i_f3d_flags>
0

> <s_epik_input>
W0NIM11jMW5uKFtDSDNdKWMoW0NIM10pYzFbQ0BIXShbQ0gzXSlDKD1PKVtOSF1bQ0BAXTIoW0NIM10pW0NIMl1bQ0gyXVtDQEBIXShbQ0gzXSlbQ0gyXVtDSDJdMg==

> <s_epik_cmdline>
J2VwaWtfcHl0aG9uJywgJy1waCcsICc3LjAnLCAnLXRuJywgJzgnLCAnLW1hJywgJzIwMCcsICctbWV0YWxfYmluZGluZycsICctaW1hZScsICc8aW5maWxlLm1hZT4nLCAnLW9tYWUnLCAnPG91dGZpbGUubWFlPic=

> <r_lp_tautomer_probability>
1

> <r_epik_Ionization_Penalty>
0.00502928

> <r_epik_Ionization_Penalty_Charging>
0

> <r_epik_Ionization_Penalty_Neutral>
0.00502928

> <r_epik_State_Penalty>
0.0036576

> <r_epik_Charging_Adjusted_Penalty>
0.0036576

> <i_epik_Tot_Q>
0

> <i_epik_Tot_abs_Q>
0

> <r_epik_Metal_State_Penalty>
-0

> <b_epik_Metal_Only>
0

> <s_lp_Force_Field>
OPLS_2005

> <r_lp_Energy>
4.5461

> <b_lp_Chiralities_Consistent>
1

> <s_lp_Variant>
AV-unprocessed.smi:1075-2

> <Gold.Version>
5.8.1

> <Gold.Id.Protein>
6NUR|6NUR_protein|mol2

> <Gold.PLP.Fitness>
27.5975

> <Gold.PLP.PLP>
-25.9015

> <Gold.PLP.part.hbond>
-1.0000

> <Gold.PLP.part.metal>
0.0000

> <Gold.PLP.part.buried>
-4.3254

> <Gold.PLP.part.nonpolar>
-21.2143

> <Gold.PLP.part.repulsive>
0.0000

> <Gold.PLP.ligand.clash>
0.0178

> <Gold.PLP.ligand.torsion>
0.6776

> <Gold.PLP.Chemscore.Hbond>
0.9920

> <Gold.PLP.Chemscore.CHOScore>
0.0000

> <Gold.PLP.Chemscore.Metal>
0.0000

> <Gold.Chemscore.Hbonds>
donor molecule, donor type, donor heavy atom, donor atom, acceptor molecule, acceptor atom, score
      P1  H  6896  6907       L1    12  0.92

> <Gold.PLP.Chemscore.Internal.Correction>
0.0930

> <Gold.Rescore>
     Score         DG    S(hbond)    S(metal)    S(lipo)     H(rot)  DE(clash)    DE(int)     intcor
     11.79     -13.88       0.97        0.00      71.05       1.23       0.14       1.94       ----

> <Gold.Chemscore.Fitness>
11.7900

> <Gold.Chemscore.DG>
-13.8751

> <Gold.Chemscore.ZeroCoef>
-5.4800

> <Gold.Chemscore.Hbond>
0.9690

> <Gold.Chemscore.Metal>
0.0000

> <Gold.Chemscore.Lipo>
71.0492

> <Gold.Chemscore.Internal_Hbond>
0.0000

> <Gold.Chemscore.DEClash>
0.1432

> <Gold.Chemscore.DEInternal>
1.9419

> <Gold.Chemscore.Rot>
1.2321

> <Gold.Chemscore.Internal.Correction>
   9.000000E+99

> <Gold.Chemscore.Hbonds>
donor molecule, donor type, donor heavy atom, donor atom, acceptor molecule, acceptor atom, score
      P1  H  6896  6907       L1    12  0.84

> <Gold.Chemscore.Hbond.Weighted>
-3.2364

> <Gold.Chemscore.Metal.Weighted>
-0.0000

> <Gold.Chemscore.Lipo.Weighted>
-8.3128

> <Gold.Chemscore.Internal_Hbond.Weighted>
0.0000

> <Gold.Chemscore.DEClash.Weighted>
0.1432

> <Gold.Chemscore.DEInternal.Weighted>
1.9419

> <Gold.Chemscore.Rot.Weighted>
3.1541

> <Gold.Chemscore.Internal.Correction.Weighted>
   9.000000E+99

> <Gold.Protein.RotatedTorsions>
[ 6907 6896 6895 6894 ] final  -80.80 input  -60.11 | X-H torsion
[ 7974 7965 7964 7962 ] final -175.89 input  175.53 | X-H torsion
[ 8008 7997 7996 7995 ] final -109.88 input   59.86 | X-H torsion
[ 10167 10162 10161 10158 ] final  174.18 input  -65.29 | X-H torsion
[ 10718 10713 10712 10709 ] final  -38.94 input   66.30 | X-H torsion
[ 10763 10752 10751 10750 ] final  -41.02 input  -60.55 | X-H torsion
[ 11005 11000 10999 10996 ] final -174.93 input  -57.11 | X-H torsion

> <Gold.Protein.ActiveResidues>
 VAL166  LYS551  ARG553  GLY616  TRP617  ASP618  TYR619  PRO620  LYS621  CYS622 
 ASP623  PHE694  ASN695  SER759  ASP760  ASP761  ALA762  ILE779  LEU786  VAL792 
 PHE793  MET794  SER795  GLU796  ALA797  LYS798  CYS799  TRP800  GLU811  SER814 

> <Gold.Protein.RotatedAtoms>
  150.6923  134.3914  159.5077 H   0  0  0  0  0  0  0  0  0  0  0  0  # atno 6907 bound_to 6896
  152.1702  134.8838  160.0544 H   0  0  0  0  0  0  0  0  0  0  0  0  # atno 6908 bound_to 6896
  151.9867  133.3741  159.4165 H   0  0  0  0  0  0  0  0  0  0  0  0  # atno 6909 bound_to 6896
  144.7127  140.1253  143.6402 H   0  0  0  0  0  0  0  0  0  0  0  0  # atno 7974 bound_to 7965
  154.9661  140.0398  157.2212 H   0  0  0  0  0  0  0  0  0  0  0  0  # atno 8008 bound_to 7997
  154.7844  140.2824  155.6016 H   0  0  0  0  0  0  0  0  0  0  0  0  # atno 8009 bound_to 7997
  156.2941  140.2585  156.2677 H   0  0  0  0  0  0  0  0  0  0  0  0  # atno 8010 bound_to 7997
  139.5133  144.3176  152.0233 H   0  0  0  0  0  0  0  0  0  0  0  0  # atno 10167 bound_to 10162
  156.2981  130.4236  149.8171 H   0  0  0  0  0  0  0  0  0  0  0  0  # atno 10718 bound_to 10713
  153.9555  135.6745  153.4744 H   0  0  0  0  0  0  0  0  0  0  0  0  # atno 10763 bound_to 10752
  153.0863  135.4897  154.8600 H   0  0  0  0  0  0  0  0  0  0  0  0  # atno 10764 bound_to 10752
  154.7301  135.3136  154.8864 H   0  0  0  0  0  0  0  0  0  0  0  0  # atno 10765 bound_to 10752
  140.4690  134.6183  157.4874 H   0  0  0  0  0  0  0  0  0  0  0  0  # atno 11005 bound_to 11000
  145.9334  139.2621  143.1311 LP  0  0  0  0  0  0  0  0  0  0  0  0  # atno 17320 bound_to 7965
  145.9499  140.8917  143.0265 LP  0  0  0  0  0  0  0  0  0  0  0  0  # atno 17321 bound_to 7965
  140.2619  144.4058  150.6182 LP  0  0  0  0  0  0  0  0  0  0  0  0  # atno 17342 bound_to 10162
  140.6151  143.2172  151.6808 LP  0  0  0  0  0  0  0  0  0  0  0  0  # atno 17343 bound_to 10162
  156.5559  130.8362  151.3314 LP  0  0  0  0  0  0  0  0  0  0  0  0  # atno 17370 bound_to 10713
  157.7360  130.9772  150.2115 LP  0  0  0  0  0  0  0  0  0  0  0  0  # atno 17371 bound_to 10713
  139.9897  134.7005  155.9711 LP  0  0  0  0  0  0  0  0  0  0  0  0  # atno 17394 bound_to 11000
  141.1586  133.6540  156.4243 LP  0  0  0  0  0  0  0  0  0  0  0  0  # atno 17395 bound_to 11000

$$$$
