#       Name:                AV-unprocessed.smi:447
#       Creating user name   scv26
#       Creation time:       Thu Mar 26 22:59:19 2020


#       File generated by GOLD software.
#

@<TRIPOS>MOLECULE
AV-unprocessed.smi:447
    50    52     1
SMALL
NO_CHARGES


@<TRIPOS>ATOM
      1 ****        -3.3725   2.8232   0.0495 C.3            1 S1                 0.0000
      2 ****        -2.9906   1.4284  -0.4329 C.2            1 S1                 0.0000
      3 ****        -3.7900   0.4987  -0.3271 O.2            1 S1                 0.0000
      4 ****        -1.7604   1.2955  -0.9502 N.am           1 S1                 0.0000
      5 ****        -1.1668   0.0448  -1.4188 C.3            1 S1                 0.0000
      6 ****        -1.6349  -0.2934  -2.8425 C.3            1 S1                 0.0000
      7 ****         0.3320   0.1868  -1.3386 C.2            1 S1                 0.0000
      8 ****         0.9601   1.2891  -1.7600 N.2            1 S1                 0.0000
      9 ****         2.2881   1.0010  -1.5216 C.ar           1 S1                 0.0000
     10 ****         3.4506   1.7724  -1.7470 C.ar           1 S1                 0.0000
     11 ****         4.7222   1.2596  -1.4172 C.ar           1 S1                 0.0000
     12 ****         4.8490  -0.0291  -0.8596 C.ar           1 S1                 0.0000
     13 ****         3.7029  -0.8140  -0.6285 C.ar           1 S1                 0.0000
     14 ****         2.4358  -0.2968  -0.9589 C.ar           1 S1                 0.0000
     15 ****         1.1409  -0.7967  -0.8606 N.pl3          1 S1                 0.0000
     16 ****         0.7871  -2.1119  -0.3405 C.3            1 S1                 0.0000
     17 ****         0.7950  -2.1534   1.2015 C.3            1 S1                 0.0000
     18 ****         0.6764  -3.5016   1.6078 O.3            1 S1                 0.0000
     19 ****        -0.2726  -1.2624   1.8233 C.ar           1 S1                 0.0000
     20 ****         0.0646   0.0393   2.2536 C.ar           1 S1                 0.0000
     21 ****        -0.9142   0.8763   2.8231 C.ar           1 S1                 0.0000
     22 ****        -2.2364   0.4156   2.9694 C.ar           1 S1                 0.0000
     23 ****        -2.5806  -0.8800   2.5391 C.ar           1 S1                 0.0000
     24 ****        -1.6032  -1.7158   1.9652 C.ar           1 S1                 0.0000
     25 ****        -3.0637   3.5808  -0.6715 H              1 S1                 0.0000
     26 ****        -2.8895   3.0358   1.0037 H              1 S1                 0.0000
     27 ****        -4.4514   2.9025   0.1863 H              1 S1                 0.0000
     28 ****        -1.1737   2.1161  -0.9992 H              1 S1                 0.0000
     29 ****        -1.4949  -0.7442  -0.7451 H              1 S1                 0.0000
     30 ****        -1.1879  -1.2265  -3.1865 H              1 S1                 0.0000
     31 ****        -1.3565   0.4890  -3.5493 H              1 S1                 0.0000
     32 ****        -2.7177  -0.4126  -2.8859 H              1 S1                 0.0000
     33 ****         3.3640   2.7604  -2.1742 H              1 S1                 0.0000
     34 ****         5.6044   1.8575  -1.5933 H              1 S1                 0.0000
     35 ****         5.8264  -0.4151  -0.6097 H              1 S1                 0.0000
     36 ****         3.7969  -1.8017  -0.2022 H              1 S1                 0.0000
     37 ****        -0.1689  -2.4405  -0.7460 H              1 S1                 0.0000
     38 ****         1.5227  -2.8193  -0.7258 H              1 S1                 0.0000
     39 ****         1.7691  -1.8166   1.5587 H              1 S1                 0.0000
     40 ****         0.7822  -3.5411   2.5462 H              1 S1                 0.0000
     41 ****         1.0758   0.4026   2.1412 H              1 S1                 0.0000
     42 ****        -0.6509   1.8727   3.1461 H              1 S1                 0.0000
     43 ****        -2.9880   1.0582   3.4038 H              1 S1                 0.0000
     44 ****        -3.5968  -1.2308   2.6424 H              1 S1                 0.0000
     45 ****        -1.8820  -2.7041   1.6300 H              1 S1                 0.0000
     46 ****        -4.6914   0.6577   0.0758 LP             1 S1                 0.0000
     47 ****        -3.5382  -0.4157  -0.6439 LP             1 S1                 0.0000
     48 ****         0.5641   2.1195  -2.1521 LP             1 S1                 0.0000
     49 ****         1.3845  -4.0513   1.1648 LP             1 S1                 0.0000
     50 ****        -0.2252  -3.8525   1.3546 LP             1 S1                 0.0000
@<TRIPOS>BOND
    1    1    2 1     
    2    1   25 1     
    3    1   26 1     
    4    1   27 1     
    5    2    3 2     
    6    2    4 am    
    7    4    5 1     
    8    4   28 1     
    9    5    6 1     
   10    5    7 1     
   11    5   29 1     
   12    6   30 1     
   13    6   31 1     
   14    6   32 1     
   15    7   15 1     
   16    7    8 2     
   17    8    9 1     
   18    9   14 ar    
   19    9   10 ar    
   20   10   11 ar    
   21   10   33 1     
   22   11   12 ar    
   23   11   34 1     
   24   12   13 ar    
   25   12   35 1     
   26   13   14 ar    
   27   13   36 1     
   28   14   15 1     
   29   15   16 1     
   30   16   17 1     
   31   16   37 1     
   32   16   38 1     
   33   17   18 1     
   34   17   19 1     
   35   17   39 1     
   36   18   40 1     
   37   19   24 ar    
   38   19   20 ar    
   39   20   21 ar    
   40   20   41 1     
   41   21   22 ar    
   42   21   42 1     
   43   22   23 ar    
   44   22   43 1     
   45   23   24 ar    
   46   23   44 1     
   47   24   45 1     
   48    3   46 1     
   49    3   47 1     
   50    8   48 1     
   51   18   49 1     
   52   18   50 1     
@<TRIPOS>SUBSTRUCTURE
      1 S1             1
@<TRIPOS>SET
LONE_PAIRS      STATIC     ATOMS    <user>   **** ""
5 46 47 48 49 50
DONOR_HYDROGENS      STATIC     ATOMS    <user>   **** ""
2 28 40
ATOM$BLUE        STATIC     ATOMS    COLORGROUP SYSTEM
5 46 47 48 49 50
ATOM$RED        STATIC     ATOMS    COLORGROUP SYSTEM
2 28 40
