#       Name:                AV-unprocessed.smi:1240
#       Creating user name   scv26
#       Creation time:       Fri Mar 27 04:30:34 2020


#       File generated by GOLD software.
#

@<TRIPOS>MOLECULE
AV-unprocessed.smi:1240
    55    57     1
SMALL
NO_CHARGES


@<TRIPOS>ATOM
      1 ****        -3.0499  -0.0115  -0.7836 O.2            1 S1                 0.0000
      2 ****        -2.1451   0.8010  -0.5600 C.2            1 S1                 0.0000
      3 ****        -0.8851   0.5390  -0.1219 N.pl3          1 S1                -1.0000
      4 ****        -0.3727  -0.7965   0.1835 C.3            1 S1                 0.0000
      5 ****         1.1934  -0.7843   0.2932 C.3            1 S1                 0.0000
      6 ****         1.7537  -0.1562   1.6126 C.3            1 S1                 0.0000
      7 ****         1.5201   1.3372   1.8205 C.3            1 S1                 0.0000
      8 ****         2.5672   1.7018   2.8677 C.3            1 S1                 0.0000
      9 ****         3.6471   0.7974   2.6689 O.3            1 S1                 0.0000
     10 ****         3.2854  -0.1798   1.7011 C.3            1 S1                 0.0000
     11 ****         1.8411  -2.1237   0.0593 N.4            1 S1                 1.0000
     12 ****         1.4883  -3.2446   0.9762 C.3            1 S1                 0.0000
     13 ****         2.4607  -4.4159   0.7634 C.3            1 S1                 0.0000
     14 ****         2.4308  -4.8228  -0.6000 O.3            1 S1                 0.0000
     15 ****         2.8445  -3.7840  -1.4803 C.3            1 S1                 0.0000
     16 ****         1.8908  -2.5849  -1.3539 C.3            1 S1                 0.0000
     17 ****        -2.3433   2.1141  -0.7736 N.am           1 S1                 0.0000
     18 ****        -3.5114   2.7761  -1.2378 C.ar           1 S1                 0.0000
     19 ****        -3.3417   3.9810  -1.9543 C.ar           1 S1                 0.0000
     20 ****        -4.4753   4.6783  -2.4187 C.ar           1 S1                 0.0000
     21 ****        -5.7114   4.1981  -2.1635 N.pl3          1 S1                 1.0000
     22 ****        -5.9236   3.0612  -1.4661 C.ar           1 S1                 0.0000
     23 ****        -4.8284   2.3206  -0.9772 C.ar           1 S1                 0.0000
     24 ****        -0.7935  -1.1959   1.1067 H              1 S1                 0.0000
     25 ****        -0.6626  -1.5036  -0.5940 H              1 S1                 0.0000
     26 ****         1.5637  -0.1560  -0.5189 H              1 S1                 0.0000
     27 ****         1.3591  -0.6825   2.4843 H              1 S1                 0.0000
     28 ****         1.7116   1.8843   0.8961 H              1 S1                 0.0000
     29 ****         0.5097   1.5769   2.1535 H              1 S1                 0.0000
     30 ****         2.8940   2.7384   2.7834 H              1 S1                 0.0000
     31 ****         2.1707   1.5515   3.8724 H              1 S1                 0.0000
     32 ****         3.6758  -1.1598   1.9766 H              1 S1                 0.0000
     33 ****         3.7307   0.1027   0.7460 H              1 S1                 0.0000
     34 ****         1.5354  -2.9214   2.0156 H              1 S1                 0.0000
     35 ****         0.4694  -3.5874   0.7912 H              1 S1                 0.0000
     36 ****         3.4757  -4.1361   1.0502 H              1 S1                 0.0000
     37 ****         2.1742  -5.2602   1.3903 H              1 S1                 0.0000
     38 ****         3.8714  -3.4897  -1.2574 H              1 S1                 0.0000
     39 ****         2.8370  -4.1631  -2.5024 H              1 S1                 0.0000
     40 ****         0.8970  -2.8740  -1.6972 H              1 S1                 0.0000
     41 ****         2.2331  -1.7772  -2.0018 H              1 S1                 0.0000
     42 ****        -1.5261   2.6962  -0.6635 H              1 S1                 0.0000
     43 ****        -2.3516   4.3644  -2.1550 H              1 S1                 0.0000
     44 ****        -4.4301   5.5994  -2.9810 H              1 S1                 0.0000
     45 ****        -6.9561   2.7820  -1.3154 H              1 S1                 0.0000
     46 ****        -5.0149   1.4253  -0.4033 H              1 S1                 0.0000
     47 ****         2.8096  -1.9355   0.2731 H              1 S1                 0.0000
     48 ****        -6.5188   4.7185  -2.5071 H              1 S1                 0.0000
     49 ****        -2.8906  -0.9886  -0.6423 LP             1 S1                 0.0000
     50 ****        -3.9409   0.3085  -1.1056 LP             1 S1                 0.0000
     51 ****        -0.2649   1.3139   0.0002 LP             1 S1                 0.0000
     52 ****         3.8638   0.3440   3.5335 LP             1 S1                 0.0000
     53 ****         4.4481   1.3024   2.3474 LP             1 S1                 0.0000
     54 ****         1.4968  -5.0915  -0.8354 LP             1 S1                 0.0000
     55 ****         3.0421  -5.6056  -0.7159 LP             1 S1                 0.0000
@<TRIPOS>BOND
    1    1    2 2     
    2    2    3 1     
    3    2   17 am    
    4    3    4 1     
    5    4    5 1     
    6    4   24 1     
    7    4   25 1     
    8    5    6 1     
    9    5   11 1     
   10    5   26 1     
   11    6   10 1     
   12    6    7 1     
   13    6   27 1     
   14    7    8 1     
   15    7   28 1     
   16    7   29 1     
   17    8    9 1     
   18    8   30 1     
   19    8   31 1     
   20    9   10 1     
   21   10   32 1     
   22   10   33 1     
   23   11   16 1     
   24   11   12 1     
   25   11   47 1     
   26   12   13 1     
   27   12   34 1     
   28   12   35 1     
   29   13   14 1     
   30   13   36 1     
   31   13   37 1     
   32   14   15 1     
   33   15   16 1     
   34   15   38 1     
   35   15   39 1     
   36   16   40 1     
   37   16   41 1     
   38   17   18 1     
   39   17   42 1     
   40   18   23 ar    
   41   18   19 ar    
   42   19   20 ar    
   43   19   43 1     
   44   20   21 ar    
   45   20   44 1     
   46   21   22 ar    
   47   21   48 1     
   48   22   23 ar    
   49   22   45 1     
   50   23   46 1     
   51    1   49 1     
   52    1   50 1     
   53    3   51 1     
   54    9   52 1     
   55    9   53 1     
   56   14   54 1     
   57   14   55 1     
@<TRIPOS>SUBSTRUCTURE
      1 S1             1
@<TRIPOS>SET
LONE_PAIRS      STATIC     ATOMS    <user>   **** ""
7 49 50 51 52 53 54 55
DONOR_HYDROGENS      STATIC     ATOMS    <user>   **** ""
3 47 42 48
ATOM$BLUE        STATIC     ATOMS    COLORGROUP SYSTEM
7 49 50 51 52 53 54 55
ATOM$RED        STATIC     ATOMS    COLORGROUP SYSTEM
3 47 42 48
