#       Name:                AV-unprocessed.smi:157
#       Creating user name   scv26
#       Creation time:       Thu Mar 26 19:00:19 2020


#       File generated by GOLD software.
#

@<TRIPOS>MOLECULE
AV-unprocessed.smi:157
    45    47     1
SMALL
NO_CHARGES


@<TRIPOS>ATOM
      1 ****        -3.1894   2.8242   2.7367 O.3            1 S1                 0.0000
      2 ****        -2.6087   1.5539   2.5344 C.3            1 S1                 0.0000
      3 ****        -1.0763   1.6466   2.6154 C.3            1 S1                 0.0000
      4 ****        -0.4974   0.3382   2.6552 O.3            1 S1                 0.0000
      5 ****         0.5904   0.2493   1.7797 C.3            1 S1                 0.0000
      6 ****         0.1636  -0.5155   0.5591 N.pl3          1 S1                 0.0000
      7 ****        -1.0752  -0.9730   0.2725 C.2            1 S1                 0.0000
      8 ****        -1.1644  -1.6355  -0.8681 N.pl3          1 S1                 1.0000
      9 ****         0.1040  -1.6589  -1.4062 C.2            1 S1                 0.0000
     10 ****         0.9138  -0.9612  -0.5064 C.2            1 S1                 0.0000
     11 ****         2.2915  -0.6993  -0.5573 N.2            1 S1                 0.0000
     12 ****         2.9917  -0.8206  -1.6380 C.2            1 S1                 0.0000
     13 ****         2.6052  -1.2945  -2.8805 N.pl3          1 S1                 0.0000
     14 ****         1.8391  -2.5151  -3.0584 C.3            1 S1                 0.0000
     15 ****         0.3543  -2.3684  -2.7003 C.3            1 S1                 0.0000
     16 ****        -0.3148  -1.7642  -3.7881 O.3            1 S1                 0.0000
     17 ****         0.9481   1.6860   1.4008 C.3            1 S1                 0.0000
     18 ****        -0.4114   2.3521   1.4266 C.3            1 S1                 0.0000
     19 ****        -0.2789   3.7437   1.6265 O.3            1 S1                 0.0000
     20 ****        -0.7820   2.1337   3.5472 H              1 S1                 0.0000
     21 ****         1.4153  -0.3305   2.1952 H              1 S1                 0.0000
     22 ****        -0.0637  -3.3718  -2.6124 H              1 S1                 0.0000
     23 ****        -0.9490   2.1532   0.4984 H              1 S1                 0.0000
     24 ****        -4.1299   2.7328   2.7152 H              1 S1                 0.0000
     25 ****        -2.9837   0.8809   3.3059 H              1 S1                 0.0000
     26 ****        -2.9331   1.1576   1.5725 H              1 S1                 0.0000
     27 ****        -1.9192  -0.8194   0.9193 H              1 S1                 0.0000
     28 ****         4.0429  -0.5296  -1.6206 H              1 S1                 0.0000
     29 ****         3.2060  -1.1178  -3.6733 H              1 S1                 0.0000
     30 ****         1.9578  -2.8779  -4.0801 H              1 S1                 0.0000
     31 ****         2.2841  -3.2754  -2.4145 H              1 S1                 0.0000
     32 ****        -1.2466  -1.8303  -3.6469 H              1 S1                 0.0000
     33 ****         1.6003   2.0913   2.1761 H              1 S1                 0.0000
     34 ****         1.4586   1.7551   0.4401 H              1 S1                 0.0000
     35 ****        -1.1420   4.1162   1.7288 H              1 S1                 0.0000
     36 ****        -1.9995  -2.0559  -1.2555 H              1 S1                 0.0000
     37 ****        -2.8950   3.4483   2.0130 LP             1 S1                 0.0000
     38 ****        -2.9064   3.1864   3.6248 LP             1 S1                 0.0000
     39 ****        -1.1882  -0.3342   2.3892 LP             1 S1                 0.0000
     40 ****        -0.1859   0.1457   3.5858 LP             1 S1                 0.0000
     41 ****         2.7528  -0.4056   0.2799 LP             1 S1                 0.0000
     42 ****        -0.0693  -2.2334  -4.6363 LP             1 S1                 0.0000
     43 ****        -0.0520  -0.8015  -3.8516 LP             1 S1                 0.0000
     44 ****         0.1748   4.1561   0.8366 LP             1 S1                 0.0000
     45 ****         0.2624   3.9161   2.4495 LP             1 S1                 0.0000
@<TRIPOS>BOND
    1    1    2 1     
    2    1   24 1     
    3    2    3 1     
    4    2   25 1     
    5    2   26 1     
    6    3   20 1     
    7    3   18 1     
    8    3    4 1     
    9    4    5 1     
   10    5   21 1     
   11    5    6 1     
   12    5   17 1     
   13    6   10 1     
   14    6    7 1     
   15    7    8 2     
   16    7   27 1     
   17    8    9 1     
   18    8   36 1     
   19    9   15 1     
   20    9   10 2     
   21   10   11 1     
   22   11   12 2     
   23   12   13 1     
   24   12   28 1     
   25   13   14 1     
   26   13   29 1     
   27   14   15 1     
   28   14   30 1     
   29   14   31 1     
   30   15   22 1     
   31   15   16 1     
   32   16   32 1     
   33   17   18 1     
   34   17   33 1     
   35   17   34 1     
   36   18   23 1     
   37   18   19 1     
   38   19   35 1     
   39    1   37 1     
   40    1   38 1     
   41    4   39 1     
   42    4   40 1     
   43   11   41 1     
   44   16   42 1     
   45   16   43 1     
   46   19   44 1     
   47   19   45 1     
@<TRIPOS>SUBSTRUCTURE
      1 S1             1
@<TRIPOS>SET
LONE_PAIRS      STATIC     ATOMS    <user>   **** ""
9 37 38 39 40 41 42 43 44 45
DONOR_HYDROGENS      STATIC     ATOMS    <user>   **** ""
5 24 36 29 32 35
ATOM$BLUE        STATIC     ATOMS    COLORGROUP SYSTEM
9 37 38 39 40 41 42 43 44 45
ATOM$RED        STATIC     ATOMS    COLORGROUP SYSTEM
5 24 36 29 32 35
