AV-unprocessed.smi:2083|AV-procd|sdf|8507|dock4
  -GOLD-   2272011223D 1   1.00000     0.00000
 Structure written by MMmdl.
 44 45  0  0  0  0  0  0  0  0  3 V2000
  152.5561  141.5789  159.2167 C   0  0  0  0  0  0  0  0  0  0  0  0
  152.0863  140.6498  158.1505 C   0  0  0  0  0  0  0  0  0  0  0  0
  150.8760  140.4675  157.5434 C   0  0  0  0  0  0  0  0  0  0  0  0
  151.1334  139.4178  156.6219 C   0  0  0  0  0  0  0  0  0  0  0  0
  150.1014  138.9256  155.7800 N   0  0  0  0  0  0  0  0  0  0  0  0
  149.7393  139.3472  154.5546 C   0  0  0  0  0  0  0  0  0  0  0  0
  150.3378  140.2849  154.0139 O   0  0  0  0  0  0  0  0  0  0  0  0
  148.6949  138.6321  154.0541 N   0  5  0  0  0  0  0  0  0  0  0  0
  147.2921  139.0303  154.1595 C   0  0  0  0  0  0  0  0  0  0  0  0
  146.4620  138.4172  152.9860 C   0  0  1  0  0  0  0  0  0  0  0  0
  146.8289  139.0049  151.6022 C   0  0  0  0  0  0  0  0  0  0  0  0
  146.4451  136.9153  152.9168 N   0  3  1  0  0  0  0  0  0  0  0  0
  146.3643  136.1696  154.2084 C   0  0  0  0  0  0  0  0  0  0  0  0
  146.7096  134.6874  153.9978 C   0  0  0  0  0  0  0  0  0  0  0  0
  145.7985  134.0561  152.9365 C   0  0  0  0  0  0  0  0  0  0  0  0
  145.8707  134.8536  151.6225 C   0  0  1  0  0  0  0  0  0  0  0  0
  144.9521  134.2512  150.5500 C   0  0  0  0  0  0  0  0  0  0  0  0
  145.5424  136.3382  151.8793 C   0  0  0  0  0  0  0  0  0  0  0  0
  152.3892  138.9974  156.6641 N   0  0  0  0  0  0  0  0  0  0  0  0
  153.0059  139.7846  157.6438 O   0  0  0  0  0  0  0  0  0  0  0  0
  151.8401  142.3859  159.3729 H   0  0  0  0  0  0  0  0  0  0  0  0
  153.5140  142.0247  158.9486 H   0  0  0  0  0  0  0  0  0  0  0  0
  152.6809  141.0494  160.1613 H   0  0  0  0  0  0  0  0  0  0  0  0
  149.9553  141.0001  157.7299 H   0  0  0  0  0  0  0  0  0  0  0  0
  149.5641  138.1578  156.1541 H   0  0  0  0  0  0  0  0  0  0  0  0
  146.8463  138.7230  155.1065 H   0  0  0  0  0  0  0  0  0  0  0  0
  147.1963  140.1158  154.1290 H   0  0  0  0  0  0  0  0  0  0  0  0
  145.4224  138.7046  153.1523 H   0  0  0  0  0  0  0  0  0  0  0  0
  146.6393  140.0787  151.5495 H   0  0  0  0  0  0  0  0  0  0  0  0
  146.2253  138.5466  150.8185 H   0  0  0  0  0  0  0  0  0  0  0  0
  147.8758  138.8479  151.3377 H   0  0  0  0  0  0  0  0  0  0  0  0
  147.0532  136.5918  154.9392 H   0  0  0  0  0  0  0  0  0  0  0  0
  145.3623  136.2503  154.6327 H   0  0  0  0  0  0  0  0  0  0  0  0
  147.7519  134.5941  153.6902 H   0  0  0  0  0  0  0  0  0  0  0  0
  146.6152  134.1461  154.9396 H   0  0  0  0  0  0  0  0  0  0  0  0
  146.0916  133.0194  152.7669 H   0  0  0  0  0  0  0  0  0  0  0  0
  144.7710  134.0336  153.3025 H   0  0  0  0  0  0  0  0  0  0  0  0
  146.8941  134.7947  151.2483 H   0  0  0  0  0  0  0  0  0  0  0  0
  143.9068  134.2834  150.8593 H   0  0  0  0  0  0  0  0  0  0  0  0
  145.2085  133.2097  150.3531 H   0  0  0  0  0  0  0  0  0  0  0  0
  145.0379  134.7942  149.6084 H   0  0  0  0  0  0  0  0  0  0  0  0
  144.5015  136.4397  152.1897 H   0  0  0  0  0  0  0  0  0  0  0  0
  145.6504  136.8947  150.9473 H   0  0  0  0  0  0  0  0  0  0  0  0
  147.3681  136.7005  152.5691 H   0  0  0  0  0  0  0  0  0  0  0  0
  1  2  1  0  0  0  0
  1 21  1  0  0  0  0
  1 22  1  0  0  0  0
  1 23  1  0  0  0  0
  2 20  1  0  0  0  0
  2  3  2  0  0  0  0
  3  4  1  0  0  0  0
  3 24  1  0  0  0  0
  4  5  1  0  0  0  0
  4 19  2  0  0  0  0
  5  6  1  0  0  0  0
  5 25  1  0  0  0  0
  6  7  2  0  0  0  0
  6  8  1  0  0  0  0
  8  9  1  0  0  0  0
  9 10  1  0  0  0  0
  9 26  1  0  0  0  0
  9 27  1  0  0  0  0
 10 11  1  0  0  0  0
 10 12  1  0  0  0  0
 10 28  1  0  0  0  0
 11 29  1  0  0  0  0
 11 30  1  0  0  0  0
 11 31  1  0  0  0  0
 12 18  1  0  0  0  0
 12 13  1  0  0  0  0
 12 44  1  0  0  0  0
 13 14  1  0  0  0  0
 13 32  1  0  0  0  0
 13 33  1  0  0  0  0
 14 15  1  0  0  0  0
 14 34  1  0  0  0  0
 14 35  1  0  0  0  0
 15 16  1  0  0  0  0
 15 36  1  0  0  0  0
 15 37  1  0  0  0  0
 16 17  1  0  0  0  0
 16 18  1  0  0  0  0
 16 38  1  0  0  0  0
 17 39  1  0  0  0  0
 17 40  1  0  0  0  0
 17 41  1  0  0  0  0
 18 42  1  0  0  0  0
 18 43  1  0  0  0  0
 19 20  1  0  0  0  0
M  CHG  1   8  -1
M  CHG  1  12   1
M  END
> <s_m_source_file>
AV-unprocessed.smi

> <i_m_source_file_index>
2083

> <i_lp_mmshare_version>
43012

> <i_f3d_flags>
0

> <s_epik_input>
W0NIM11jMVtjSF1jKG5vMSlbTkhdQyg9TylbTkhdW0NIMl1bQ0BIXShbQ0gzXSlOMltDSDJdW0NIMl1bQ0gyXVtDQEBIXShbQ0gzXSlbQ0gyXTI=

> <s_epik_cmdline>
J2VwaWtfcHl0aG9uJywgJy1waCcsICc3LjAnLCAnLXRuJywgJzgnLCAnLW1hJywgJzIwMCcsICctbWV0YWxfYmluZGluZycsICctaW1hZScsICc8aW5maWxlLm1hZT4nLCAnLW9tYWUnLCAnPG91dGZpbGUubWFlPic=

> <r_epik_Ionization_Penalty>
6.76934

> <r_epik_Ionization_Penalty_Charging>
6.76934

> <r_epik_Ionization_Penalty_Neutral>
5.77849e-06

> <r_epik_State_Penalty>
6.79457

> <r_epik_Charging_Adjusted_Penalty>
13.5639

> <i_epik_Tot_Q>
0

> <i_epik_Tot_abs_Q>
2

> <r_epik_Metal_State_Penalty>
2.72837

> <b_epik_Metal_Only>
1

> <s_lp_Force_Field>
OPLS_2005

> <r_lp_Energy>
21.1768

> <b_lp_Chiralities_Consistent>
1

> <s_lp_Variant>
AV-unprocessed.smi:2083-18

> <Gold.Version>
5.8.1

> <Gold.Id.Protein>
6NUR|6NUR_protein|mol2

> <Gold.PLP.Fitness>
36.4856

> <Gold.PLP.PLP>
-27.9283

> <Gold.PLP.part.hbond>
-3.0573

> <Gold.PLP.part.metal>
0.0000

> <Gold.PLP.part.buried>
-2.7774

> <Gold.PLP.part.nonpolar>
-22.7452

> <Gold.PLP.part.repulsive>
0.9882

> <Gold.PLP.ligand.clash>
0.0000

> <Gold.PLP.ligand.torsion>
1.8389

> <Gold.PLP.Chemscore.Hbond>
4.0000

> <Gold.PLP.Chemscore.CHOScore>
0.0000

> <Gold.PLP.Chemscore.Metal>
0.0000

> <Gold.Chemscore.Hbonds>
donor molecule, donor type, donor heavy atom, donor atom, acceptor molecule, acceptor atom, score
      L1  H    12    44       P1  7948  2.00
      P1  H  7989  7998       L1     7  0.86
      P1  H  7997  8009       L1    20  1.00

> <Gold.PLP.Chemscore.Internal.Correction>
0.2352

> <Gold.Rescore>
     Score         DG    S(hbond)    S(metal)    S(lipo)     H(rot)  DE(clash)    DE(int)     intcor
     16.19     -18.18       2.79        0.00      62.14       1.52       0.13       1.86       ----

> <Gold.Chemscore.Fitness>
16.1892

> <Gold.Chemscore.DG>
-18.1822

> <Gold.Chemscore.ZeroCoef>
-5.4800

> <Gold.Chemscore.Hbond>
2.7905

> <Gold.Chemscore.Metal>
0.0000

> <Gold.Chemscore.Lipo>
62.1413

> <Gold.Chemscore.Internal_Hbond>
0.0000

> <Gold.Chemscore.DEClash>
0.1298

> <Gold.Chemscore.DEInternal>
1.8632

> <Gold.Chemscore.Rot>
1.5190

> <Gold.Chemscore.Internal.Correction>
   9.000000E+99

> <Gold.Chemscore.Hbonds>
donor molecule, donor type, donor heavy atom, donor atom, acceptor molecule, acceptor atom, score
      L1  H    12    44       P1  7948  1.00
      P1  H  7989  7998       L1     7  0.79
      P1  H  7997  8009       L1    20  0.43

> <Gold.Chemscore.Hbond.Weighted>
-9.3203

> <Gold.Chemscore.Metal.Weighted>
-0.0000

> <Gold.Chemscore.Lipo.Weighted>
-7.2705

> <Gold.Chemscore.Internal_Hbond.Weighted>
0.0000

> <Gold.Chemscore.DEClash.Weighted>
0.1298

> <Gold.Chemscore.DEInternal.Weighted>
1.8632

> <Gold.Chemscore.Rot.Weighted>
3.8886

> <Gold.Chemscore.Internal.Correction.Weighted>
   9.000000E+99

> <Gold.Protein.RotatedTorsions>
[ 6907 6896 6895 6894 ] final -109.30 input  -60.11 | X-H torsion
[ 7974 7965 7964 7962 ] final  -13.05 input  175.53 | X-H torsion
[ 8008 7997 7996 7995 ] final  152.29 input   59.86 | X-H torsion
[ 10167 10162 10161 10158 ] final    9.59 input  -65.29 | X-H torsion
[ 10718 10713 10712 10709 ] final  119.28 input   66.30 | X-H torsion
[ 10763 10752 10751 10750 ] final   52.25 input  -60.55 | X-H torsion
[ 11005 11000 10999 10996 ] final   64.92 input  -57.11 | X-H torsion

> <Gold.Protein.ActiveResidues>
 VAL166  LYS551  ARG553  GLY616  TRP617  ASP618  TYR619  PRO620  LYS621  CYS622 
 ASP623  PHE694  ASN695  SER759  ASP760  ASP761  ALA762  ILE779  LEU786  VAL792 
 PHE793  MET794  SER795  GLU796  ALA797  LYS798  CYS799  TRP800  GLU811  SER814 

> <Gold.Protein.RotatedAtoms>
  150.7553  133.9550  159.3497 H   0  0  0  0  0  0  0  0  0  0  0  0  # atno 6907 bound_to 6896
  151.7471  135.0839  160.0334 H   0  0  0  0  0  0  0  0  0  0  0  0  # atno 6908 bound_to 6896
  152.3491  133.6120  159.5967 H   0  0  0  0  0  0  0  0  0  0  0  0  # atno 6909 bound_to 6896
  146.2129  140.3146  142.8385 H   0  0  0  0  0  0  0  0  0  0  0  0  # atno 7974 bound_to 7965
  156.2635  140.2024  156.6311 H   0  0  0  0  0  0  0  0  0  0  0  0  # atno 8008 bound_to 7997
  154.6682  140.0553  157.0161 H   0  0  0  0  0  0  0  0  0  0  0  0  # atno 8009 bound_to 7997
  155.1175  140.3221  155.4508 H   0  0  0  0  0  0  0  0  0  0  0  0  # atno 8010 bound_to 7997
  140.6246  143.8130  150.7217 H   0  0  0  0  0  0  0  0  0  0  0  0  # atno 10167 bound_to 10162
  157.5972  131.1056  150.7874 H   0  0  0  0  0  0  0  0  0  0  0  0  # atno 10718 bound_to 10713
  152.9788  135.5819  154.4548 H   0  0  0  0  0  0  0  0  0  0  0  0  # atno 10763 bound_to 10752
  154.4132  135.2770  155.2025 H   0  0  0  0  0  0  0  0  0  0  0  0  # atno 10764 bound_to 10752
  154.3806  135.6147  153.5843 H   0  0  0  0  0  0  0  0  0  0  0  0  # atno 10765 bound_to 10752
  139.9927  134.6565  156.0062 H   0  0  0  0  0  0  0  0  0  0  0  0  # atno 11005 bound_to 11000
  144.8963  140.7587  143.5895 LP  0  0  0  0  0  0  0  0  0  0  0  0  # atno 17320 bound_to 7965
  145.3071  139.1831  143.4659 LP  0  0  0  0  0  0  0  0  0  0  0  0  # atno 17321 bound_to 7965
  140.1728  143.4180  152.1989 LP  0  0  0  0  0  0  0  0  0  0  0  0  # atno 17342 bound_to 10162
  139.5468  144.7305  151.4558 LP  0  0  0  0  0  0  0  0  0  0  0  0  # atno 17343 bound_to 10162
  156.8282  130.5007  149.5335 LP  0  0  0  0  0  0  0  0  0  0  0  0  # atno 17370 bound_to 10713
  156.1038  130.5989  150.9937 LP  0  0  0  0  0  0  0  0  0  0  0  0  # atno 17371 bound_to 10713
  141.1579  133.6541  156.4223 LP  0  0  0  0  0  0  0  0  0  0  0  0  # atno 17394 bound_to 11000
  140.4876  134.6605  157.5197 LP  0  0  0  0  0  0  0  0  0  0  0  0  # atno 17395 bound_to 11000

$$$$
