AV-unprocessed.smi:648|AV-procd|sdf|3173|dock4
  -GOLD-   22720 0 93D 1   1.00000     0.00000
 Structure written by MMmdl.
 46 47  0  0  0  0  0  0  0  0  2 V2000
  142.2974  135.4683  154.0011 C   0  0  0  0  0  0  0  0  0  0  0  0
  143.6308  135.3604  153.2483 C   0  0  1  0  0  0  0  0  0  0  0  0
  143.4555  134.6382  151.8995 C   0  0  0  0  0  0  0  0  0  0  0  0
  144.7727  134.4888  151.1017 C   0  0  0  0  0  0  0  0  0  0  0  0
  145.6711  133.3976  151.7288 C   0  0  0  0  0  0  0  0  0  0  0  0
  144.4282  134.0156  149.6742 C   0  0  0  0  0  0  0  0  0  0  0  0
  145.4919  135.8668  150.9963 C   0  0  0  0  0  0  0  0  0  0  0  0
  145.6405  136.6816  152.3155 C   0  0  2  0  0  0  0  0  0  0  0  0
  146.1642  138.1102  151.9957 C   0  0  0  0  0  0  0  0  0  0  0  0
  147.4406  138.1085  151.3884 O   0  0  0  0  0  0  0  0  0  0  0  0
  146.6392  135.9859  153.1711 N   0  3  0  0  0  0  0  0  0  0  0  0
  146.9088  136.5192  154.5273 C   0  0  0  0  0  0  0  0  0  0  0  0
  147.9751  135.6746  155.2434 C   0  0  0  0  0  0  0  0  0  0  0  0
  149.2997  136.2604  155.1336 N   0  0  0  0  0  0  0  0  0  0  0  0
  150.5032  135.7416  155.3842 C   0  0  0  0  0  0  0  0  0  0  0  0
  151.5031  136.5873  155.1801 N   0  0  0  0  0  0  0  0  0  0  0  0
  150.7983  137.6788  154.7574 C   0  0  0  0  0  0  0  0  0  0  0  0
  149.4738  137.5344  154.7098 N   0  0  0  0  0  0  0  0  0  0  0  0
  144.2607  136.7479  153.0242 C   0  0  0  0  0  0  0  0  0  0  0  0
  141.5673  136.0503  153.4378 H   0  0  0  0  0  0  0  0  0  0  0  0
  142.4316  135.9498  154.9703 H   0  0  0  0  0  0  0  0  0  0  0  0
  141.8685  134.4823  154.1823 H   0  0  0  0  0  0  0  0  0  0  0  0
  144.2949  134.7705  153.8784 H   0  0  0  0  0  0  0  0  0  0  0  0
  143.0082  133.6562  152.0611 H   0  0  0  0  0  0  0  0  0  0  0  0
  142.7337  135.1974  151.3018 H   0  0  0  0  0  0  0  0  0  0  0  0
  146.6280  133.3274  151.2110 H   0  0  0  0  0  0  0  0  0  0  0  0
  145.1973  132.4173  151.6646 H   0  0  0  0  0  0  0  0  0  0  0  0
  145.8795  133.5645  152.7827 H   0  0  0  0  0  0  0  0  0  0  0  0
  145.3265  133.8942  149.0678 H   0  0  0  0  0  0  0  0  0  0  0  0
  143.7806  134.7258  149.1583 H   0  0  0  0  0  0  0  0  0  0  0  0
  143.9090  133.0565  149.6861 H   0  0  0  0  0  0  0  0  0  0  0  0
  146.4688  135.7393  150.5271 H   0  0  0  0  0  0  0  0  0  0  0  0
  144.9179  136.4680  150.2904 H   0  0  0  0  0  0  0  0  0  0  0  0
  145.4907  138.6331  151.3163 H   0  0  0  0  0  0  0  0  0  0  0  0
  146.2221  138.7077  152.9064 H   0  0  0  0  0  0  0  0  0  0  0  0
  148.0276  137.5894  151.9173 H   0  0  0  0  0  0  0  0  0  0  0  0
  146.3099  135.0374  153.2792 H   0  0  0  0  0  0  0  0  0  0  0  0
  147.2540  137.5496  154.4406 H   0  0  0  0  0  0  0  0  0  0  0  0
  146.0070  136.5441  155.1364 H   0  0  0  0  0  0  0  0  0  0  0  0
  147.7268  135.5586  156.2992 H   0  0  0  0  0  0  0  0  0  0  0  0
  148.0093  134.6721  154.8153 H   0  0  0  0  0  0  0  0  0  0  0  0
  150.6515  134.7304  155.7344 H   0  0  0  0  0  0  0  0  0  0  0  0
  151.2745  138.6079  154.4806 H   0  0  0  0  0  0  0  0  0  0  0  0
  143.5709  137.3358  152.4173 H   0  0  0  0  0  0  0  0  0  0  0  0
  144.3266  137.2833  153.9702 H   0  0  0  0  0  0  0  0  0  0  0  0
  147.5167  135.9559  152.6720 H   0  0  0  0  0  0  0  0  0  0  0  0
  1  2  1  0  0  0  0
  1 20  1  0  0  0  0
  1 21  1  0  0  0  0
  1 22  1  0  0  0  0
  2 19  1  0  0  0  0
  2  3  1  0  0  0  0
  2 23  1  0  0  0  0
  3  4  1  0  0  0  0
  3 24  1  0  0  0  0
  3 25  1  0  0  0  0
  4  5  1  0  0  0  0
  4  6  1  0  0  0  0
  4  7  1  0  0  0  0
  5 26  1  0  0  0  0
  5 27  1  0  0  0  0
  5 28  1  0  0  0  0
  6 29  1  0  0  0  0
  6 30  1  0  0  0  0
  6 31  1  0  0  0  0
  7  8  1  0  0  0  0
  7 32  1  0  0  0  0
  7 33  1  0  0  0  0
  8  9  1  0  0  0  0
  8 11  1  0  0  0  0
  8 19  1  0  0  0  0
  9 10  1  0  0  0  0
  9 34  1  0  0  0  0
  9 35  1  0  0  0  0
 10 36  1  0  0  0  0
 11 12  1  0  0  0  0
 11 37  1  0  0  0  0
 11 46  1  0  0  0  0
 12 13  1  0  0  0  0
 12 38  1  0  0  0  0
 12 39  1  0  0  0  0
 13 14  1  0  0  0  0
 13 40  1  0  0  0  0
 13 41  1  0  0  0  0
 14 18  1  0  0  0  0
 14 15  1  0  0  0  0
 15 16  2  0  0  0  0
 15 42  1  0  0  0  0
 16 17  1  0  0  0  0
 17 18  2  0  0  0  0
 17 43  1  0  0  0  0
 19 44  1  0  0  0  0
 19 45  1  0  0  0  0
M  CHG  1  11   1
M  END
> <s_m_source_file>
AV-unprocessed.smi

> <i_m_source_file_index>
648

> <i_lp_mmshare_version>
43012

> <i_f3d_flags>
0

> <s_epik_input>
W0NIM11DMShbQ0gzXSlbQ0gyXVtDQEBIXShbQ0gzXSlbQ0gyXVtDQF0oW0NIMl0xKShbQ0gyXVtPSF0pW05IXVtDSDJdW0NIMl1uMltjSF1uW2NIXW4y

> <s_epik_cmdline>
J2VwaWtfcHl0aG9uJywgJy1waCcsICc3LjAnLCAnLXRuJywgJzgnLCAnLW1hJywgJzIwMCcsICctbWV0YWxfYmluZGluZycsICctaW1hZScsICc8aW5maWxlLm1hZT4nLCAnLW9tYWUnLCAnPG91dGZpbGUubWFlPic=

> <r_lp_tautomer_probability>
1

> <r_epik_Ionization_Penalty>
0.00942316

> <r_epik_Ionization_Penalty_Charging>
0.00942185

> <r_epik_Ionization_Penalty_Neutral>
1.31257e-06

> <r_epik_State_Penalty>
0.00715409

> <r_epik_Charging_Adjusted_Penalty>
0.0165759

> <i_epik_Tot_Q>
1

> <i_epik_Tot_abs_Q>
1

> <r_epik_Metal_State_Penalty>
0.00715563

> <b_epik_Metal_Only>
0

> <s_lp_Force_Field>
OPLS_2005

> <r_lp_Energy>
29.0097

> <b_lp_Chiralities_Consistent>
1

> <s_lp_Variant>
AV-unprocessed.smi:648-4

> <Gold.Version>
5.8.1

> <Gold.Id.Protein>
6NUR|6NUR_protein|mol2

> <Gold.PLP.Fitness>
43.8316

> <Gold.PLP.PLP>
-30.3756

> <Gold.PLP.part.hbond>
-4.5743

> <Gold.PLP.part.metal>
0.0000

> <Gold.PLP.part.buried>
-2.7102

> <Gold.PLP.part.nonpolar>
-24.8616

> <Gold.PLP.part.repulsive>
0.2991

> <Gold.PLP.ligand.clash>
0.0000

> <Gold.PLP.ligand.torsion>
0.4344

> <Gold.PLP.Chemscore.Hbond>
4.7660

> <Gold.PLP.Chemscore.CHOScore>
0.0000

> <Gold.PLP.Chemscore.Metal>
0.0000

> <Gold.Chemscore.Hbonds>
donor molecule, donor type, donor heavy atom, donor atom, acceptor molecule, acceptor atom, score
      L1  H    10    36       P1  7948  0.80
      L1  H    11    46       P1  7948  2.00
      P1  H  7954  7966       L1    10  0.90
      P1  H 10752 10763       L1    16  1.00

> <Gold.PLP.Chemscore.Internal.Correction>
0.0268

> <Gold.Rescore>
     Score         DG    S(hbond)    S(metal)    S(lipo)     H(rot)  DE(clash)    DE(int)     intcor
     14.08     -15.23       3.35        0.00      57.15       3.17       0.61       0.54       ----

> <Gold.Chemscore.Fitness>
14.0760

> <Gold.Chemscore.DG>
-15.2254

> <Gold.Chemscore.ZeroCoef>
-5.4800

> <Gold.Chemscore.Hbond>
3.3492

> <Gold.Chemscore.Metal>
0.0000

> <Gold.Chemscore.Lipo>
57.1519

> <Gold.Chemscore.Internal_Hbond>
0.0000

> <Gold.Chemscore.DEClash>
0.6139

> <Gold.Chemscore.DEInternal>
0.5355

> <Gold.Chemscore.Rot>
3.1750

> <Gold.Chemscore.Internal.Correction>
   9.000000E+99

> <Gold.Chemscore.Hbonds>
donor molecule, donor type, donor heavy atom, donor atom, acceptor molecule, acceptor atom, score
      L1  H    10    36       P1  7948  0.79
      L1  H    11    46       P1  7948  1.00
      P1  H  7954  7966       L1    10  0.18
      P1  H 10752 10763       L1    16  0.65

> <Gold.Chemscore.Hbond.Weighted>
-11.1865

> <Gold.Chemscore.Metal.Weighted>
-0.0000

> <Gold.Chemscore.Lipo.Weighted>
-6.6868

> <Gold.Chemscore.Internal_Hbond.Weighted>
0.0000

> <Gold.Chemscore.DEClash.Weighted>
0.6139

> <Gold.Chemscore.DEInternal.Weighted>
0.5355

> <Gold.Chemscore.Rot.Weighted>
8.1279

> <Gold.Chemscore.Internal.Correction.Weighted>
   9.000000E+99

> <Gold.Protein.RotatedTorsions>
[ 6907 6896 6895 6894 ] final  150.93 input  -60.11 | X-H torsion
[ 7974 7965 7964 7962 ] final -149.22 input  175.53 | X-H torsion
[ 8008 7997 7996 7995 ] final  143.37 input   59.86 | X-H torsion
[ 10167 10162 10161 10158 ] final  -77.64 input  -65.29 | X-H torsion
[ 10718 10713 10712 10709 ] final  116.13 input   66.30 | X-H torsion
[ 10763 10752 10751 10750 ] final   48.11 input  -60.55 | X-H torsion
[ 11005 11000 10999 10996 ] final -117.35 input  -57.11 | X-H torsion

> <Gold.Protein.ActiveResidues>
 VAL166  LYS551  ARG553  GLY616  TRP617  ASP618  TYR619  PRO620  LYS621  CYS622 
 ASP623  PHE694  ASN695  SER759  ASP760  ASP761  ALA762  ILE779  LEU786  VAL792 
 PHE793  MET794  SER795  GLU796  ALA797  LYS798  CYS799  TRP800  GLU811  SER814 

> <Gold.Protein.RotatedAtoms>
  152.1076  133.4283  159.4615 H   0  0  0  0  0  0  0  0  0  0  0  0  # atno 6907 bound_to 6896
  150.6866  134.2686  159.4588 H   0  0  0  0  0  0  0  0  0  0  0  0  # atno 6908 bound_to 6896
  152.0552  134.9628  160.0625 H   0  0  0  0  0  0  0  0  0  0  0  0  # atno 6909 bound_to 6896
  144.7981  140.5094  143.5726 H   0  0  0  0  0  0  0  0  0  0  0  0  # atno 7974 bound_to 7965
  156.2931  140.2264  156.4879 H   0  0  0  0  0  0  0  0  0  0  0  0  # atno 8008 bound_to 7997
  154.7796  140.0461  157.1138 H   0  0  0  0  0  0  0  0  0  0  0  0  # atno 8009 bound_to 7997
  154.9774  140.3074  155.4964 H   0  0  0  0  0  0  0  0  0  0  0  0  # atno 8010 bound_to 7997
  140.4752  143.2416  151.8143 H   0  0  0  0  0  0  0  0  0  0  0  0  # atno 10167 bound_to 10162
  157.6179  131.1021  150.7429 H   0  0  0  0  0  0  0  0  0  0  0  0  # atno 10718 bound_to 10713
  152.9794  135.5954  154.3873 H   0  0  0  0  0  0  0  0  0  0  0  0  # atno 10763 bound_to 10752
  154.3531  135.2767  155.2363 H   0  0  0  0  0  0  0  0  0  0  0  0  # atno 10764 bound_to 10752
  154.4393  135.6017  153.6174 H   0  0  0  0  0  0  0  0  0  0  0  0  # atno 10765 bound_to 10752
  141.0361  133.9907  157.3069 H   0  0  0  0  0  0  0  0  0  0  0  0  # atno 11005 bound_to 11000
  145.5622  139.1480  143.3335 LP  0  0  0  0  0  0  0  0  0  0  0  0  # atno 17320 bound_to 7965
  146.2255  140.5758  142.8998 LP  0  0  0  0  0  0  0  0  0  0  0  0  # atno 17321 bound_to 7965
  139.4824  144.4842  151.9268 LP  0  0  0  0  0  0  0  0  0  0  0  0  # atno 17342 bound_to 10162
  140.3927  144.2595  150.5898 LP  0  0  0  0  0  0  0  0  0  0  0  0  # atno 17343 bound_to 10162
  156.7792  130.4854  149.5404 LP  0  0  0  0  0  0  0  0  0  0  0  0  # atno 17370 bound_to 10713
  156.1310  130.6178  151.0333 LP  0  0  0  0  0  0  0  0  0  0  0  0  # atno 17371 bound_to 10713
  139.9241  135.0201  156.8173 LP  0  0  0  0  0  0  0  0  0  0  0  0  # atno 17394 bound_to 11000
  140.6320  133.9897  155.7666 LP  0  0  0  0  0  0  0  0  0  0  0  0  # atno 17395 bound_to 11000

$$$$
