AV-unprocessed.smi:2772|AV-procd|sdf|10664|dock3
  -GOLD-   2272015113D 1   1.00000     0.00000
 Structure written by MMmdl.
 55 57  0  0  0  0  0  0  0  0  3 V2000
  153.1891  143.0600  160.3374 C   0  0  0  0  0  0  0  0  0  0  0  0
  152.3637  142.4279  159.2363 C   0  0  0  0  0  0  0  0  0  0  0  0
  152.0983  141.0433  159.2359 C   0  0  0  0  0  0  0  0  0  0  0  0
  151.3285  140.5051  158.1866 C   0  0  0  0  0  0  0  0  0  0  0  0
  150.8583  141.3705  157.1692 C   0  0  0  0  0  0  0  0  0  0  0  0
  150.0601  140.9569  156.0680 N   0  0  0  0  0  0  0  0  0  0  0  0
  149.1049  140.0121  156.0305 C   0  0  0  0  0  0  0  0  0  0  0  0
  148.7634  139.3033  156.9769 O   0  0  0  0  0  0  0  0  0  0  0  0
  148.5671  139.9145  154.8059 N   0  0  0  0  0  0  0  0  0  0  0  0
  147.5060  138.9853  154.4282 C   0  0  2  0  0  0  0  0  0  0  0  0
  147.8939  137.5370  154.7634 C   0  0  0  0  0  0  0  0  0  0  0  0
  146.8098  136.5558  154.2915 C   0  0  0  0  0  0  0  0  0  0  0  0
  146.5534  136.6718  152.8265 N   0  3  1  0  0  0  0  0  0  0  0  0
  145.6264  135.6005  152.3307 C   0  0  2  0  0  0  0  0  0  0  0  0
  146.2074  134.1955  152.6199 C   0  0  0  0  0  0  0  0  0  0  0  0
  145.2811  133.0712  152.1256 C   0  0  0  0  0  0  0  0  0  0  0  0
  145.0062  133.2045  150.6758 N   0  3  1  0  0  0  0  0  0  0  0  0
  144.2097  132.0764  150.1460 C   0  0  0  0  0  0  0  0  0  0  0  0
  144.4057  134.5204  150.3537 C   0  0  0  0  0  0  0  0  0  0  0  0
  145.3127  135.6750  150.8144 C   0  0  0  0  0  0  0  0  0  0  0  0
  146.1667  138.0693  152.4726 C   0  0  0  0  0  0  0  0  0  0  0  0
  147.2271  139.0896  152.9235 C   0  0  0  0  0  0  0  0  0  0  0  0
  151.1735  142.7418  157.2767 C   0  0  0  0  0  0  0  0  0  0  0  0
  151.9111  143.2657  158.2787 N   0  0  0  0  0  0  0  0  0  0  0  0
  153.3027  142.3803  161.1824 H   0  0  0  0  0  0  0  0  0  0  0  0
  152.7139  143.9725  160.6991 H   0  0  0  0  0  0  0  0  0  0  0  0
  154.1823  143.3132  159.9658 H   0  0  0  0  0  0  0  0  0  0  0  0
  152.4707  140.4047  160.0232 H   0  0  0  0  0  0  0  0  0  0  0  0
  151.1068  139.4496  158.1935 H   0  0  0  0  0  0  0  0  0  0  0  0
  150.2784  141.4021  155.1886 H   0  0  0  0  0  0  0  0  0  0  0  0
  148.9120  140.5330  154.0862 H   0  0  0  0  0  0  0  0  0  0  0  0
  146.5934  139.2478  154.9675 H   0  0  0  0  0  0  0  0  0  0  0  0
  148.8459  137.2846  154.2933 H   0  0  0  0  0  0  0  0  0  0  0  0
  148.0413  137.4253  155.8383 H   0  0  0  0  0  0  0  0  0  0  0  0
  147.1285  135.5491  154.5551 H   0  0  0  0  0  0  0  0  0  0  0  0
  145.8830  136.7397  154.8377 H   0  0  0  0  0  0  0  0  0  0  0  0
  144.6786  135.7082  152.8615 H   0  0  0  0  0  0  0  0  0  0  0  0
  147.1832  134.0964  152.1417 H   0  0  0  0  0  0  0  0  0  0  0  0
  146.3762  134.0460  153.6851 H   0  0  0  0  0  0  0  0  0  0  0  0
  145.7478  132.1046  152.3198 H   0  0  0  0  0  0  0  0  0  0  0  0
  144.3414  133.0867  152.6805 H   0  0  0  0  0  0  0  0  0  0  0  0
  143.2223  132.0423  150.6084 H   0  0  0  0  0  0  0  0  0  0  0  0
  144.7107  131.1268  150.3379 H   0  0  0  0  0  0  0  0  0  0  0  0
  144.0789  132.1701  149.0674 H   0  0  0  0  0  0  0  0  0  0  0  0
  144.2440  134.5928  149.2773 H   0  0  0  0  0  0  0  0  0  0  0  0
  143.4255  134.6012  150.8270 H   0  0  0  0  0  0  0  0  0  0  0  0
  144.8021  136.6066  150.5693 H   0  0  0  0  0  0  0  0  0  0  0  0
  146.2396  135.6584  150.2389 H   0  0  0  0  0  0  0  0  0  0  0  0
  146.0638  138.1829  151.3943 H   0  0  0  0  0  0  0  0  0  0  0  0
  145.1993  138.3063  152.9184 H   0  0  0  0  0  0  0  0  0  0  0  0
  146.8941  140.0983  152.6756 H   0  0  0  0  0  0  0  0  0  0  0  0
  148.1488  138.9232  152.3634 H   0  0  0  0  0  0  0  0  0  0  0  0
  150.8269  143.4433  156.5319 H   0  0  0  0  0  0  0  0  0  0  0  0
  147.4370  136.5116  152.3640 H   0  0  0  0  0  0  0  0  0  0  0  0
  145.8992  133.1677  150.2047 H   0  0  0  0  0  0  0  0  0  0  0  0
  1  2  1  0  0  0  0
  1 25  1  0  0  0  0
  1 26  1  0  0  0  0
  1 27  1  0  0  0  0
  2 24  1  0  0  0  0
  2  3  2  0  0  0  0
  3  4  1  0  0  0  0
  3 28  1  0  0  0  0
  4  5  2  0  0  0  0
  4 29  1  0  0  0  0
  5  6  1  0  0  0  0
  5 23  1  0  0  0  0
  6  7  1  0  0  0  0
  6 30  1  0  0  0  0
  7  8  2  0  0  0  0
  7  9  1  0  0  0  0
  9 10  1  0  0  0  0
  9 31  1  0  0  0  0
 10 22  1  0  0  0  0
 10 11  1  0  0  0  0
 10 32  1  0  0  0  0
 11 12  1  0  0  0  0
 11 33  1  0  0  0  0
 11 34  1  0  0  0  0
 12 13  1  0  0  0  0
 12 35  1  0  0  0  0
 12 36  1  0  0  0  0
 13 14  1  0  0  0  0
 13 21  1  0  0  0  0
 13 54  1  0  0  0  0
 14 20  1  0  0  0  0
 14 15  1  0  0  0  0
 14 37  1  0  0  0  0
 15 16  1  0  0  0  0
 15 38  1  0  0  0  0
 15 39  1  0  0  0  0
 16 17  1  0  0  0  0
 16 40  1  0  0  0  0
 16 41  1  0  0  0  0
 17 18  1  0  0  0  0
 17 19  1  0  0  0  0
 17 55  1  0  0  0  0
 18 42  1  0  0  0  0
 18 43  1  0  0  0  0
 18 44  1  0  0  0  0
 19 20  1  0  0  0  0
 19 45  1  0  0  0  0
 19 46  1  0  0  0  0
 20 47  1  0  0  0  0
 20 48  1  0  0  0  0
 21 22  1  0  0  0  0
 21 49  1  0  0  0  0
 21 50  1  0  0  0  0
 22 51  1  0  0  0  0
 22 52  1  0  0  0  0
 23 24  2  0  0  0  0
 23 53  1  0  0  0  0
M  CHG  1  13   1
M  CHG  1  17   1
M  END
> <s_m_source_file>
AV-unprocessed.smi

> <i_m_source_file_index>
2772

> <i_lp_mmshare_version>
43012

> <i_f3d_flags>
0

> <s_epik_input>
W0NIM11jMVtjSF1bY0hdYyhbY0hdbjEpW05IXUMoPU8pW05IXVtDSF0yW0NIMl1bQ0gyXU4oW0NIMl1bQ0gyXTIpW0NIXTNbQ0gyXVtDSDJdTihbQ0gzXSlbQ0gyXVtDSDJdMw==

> <s_epik_cmdline>
J2VwaWtfcHl0aG9uJywgJy1waCcsICc3LjAnLCAnLXRuJywgJzgnLCAnLW1hJywgJzIwMCcsICctbWV0YWxfYmluZGluZycsICctaW1hZScsICc8aW5maWxlLm1hZT4nLCAnLW9tYWUnLCAnPG91dGZpbGUubWFlPic=

> <r_epik_Ionization_Penalty>
0.196786

> <r_epik_Ionization_Penalty_Charging>
0.180787

> <r_epik_Ionization_Penalty_Neutral>
0.0159988

> <r_epik_State_Penalty>
0.163322

> <r_epik_Charging_Adjusted_Penalty>
0.344109

> <i_epik_Tot_Q>
2

> <i_epik_Tot_abs_Q>
2

> <r_epik_Metal_State_Penalty>
0.163596

> <b_epik_Metal_Only>
0

> <s_lp_Force_Field>
OPLS_2005

> <r_lp_Energy>
43.2769

> <b_lp_Chiralities_Consistent>
1

> <s_lp_Variant>
AV-unprocessed.smi:2772-1

> <Gold.Version>
5.8.1

> <Gold.Id.Protein>
6NUR|6NUR_protein|mol2

> <Gold.PLP.Fitness>
46.3590

> <Gold.PLP.PLP>
-37.9457

> <Gold.PLP.part.hbond>
-1.0000

> <Gold.PLP.part.metal>
0.0000

> <Gold.PLP.part.buried>
-5.7047

> <Gold.PLP.part.nonpolar>
-32.3493

> <Gold.PLP.part.repulsive>
0.2336

> <Gold.PLP.ligand.clash>
0.0000

> <Gold.PLP.ligand.torsion>
0.3098

> <Gold.PLP.Chemscore.Hbond>
2.0000

> <Gold.PLP.Chemscore.CHOScore>
1.0000

> <Gold.PLP.Chemscore.Metal>
0.0000

> <Gold.Chemscore.Hbonds>
donor molecule, donor type, donor heavy atom, donor atom, acceptor molecule, acceptor atom, score
      L1  H    13    54       P1  7948  2.00
      L1  C    23    53       P1  8028  1.00

> <Gold.PLP.Chemscore.Internal.Correction>
0.0330

> <Gold.Rescore>
     Score         DG    S(hbond)    S(metal)    S(lipo)     H(rot)  DE(clash)    DE(int)     intcor
     17.14     -18.77       0.99        0.00     111.69       1.21       0.19       1.43       ----

> <Gold.Chemscore.Fitness>
17.1429

> <Gold.Chemscore.DG>
-18.7675

> <Gold.Chemscore.ZeroCoef>
-5.4800

> <Gold.Chemscore.Hbond>
0.9926

> <Gold.Chemscore.Metal>
0.0000

> <Gold.Chemscore.Lipo>
111.6906

> <Gold.Chemscore.Internal_Hbond>
0.0000

> <Gold.Chemscore.DEClash>
0.1946

> <Gold.Chemscore.DEInternal>
1.4300

> <Gold.Chemscore.Rot>
1.2092

> <Gold.Chemscore.Internal.Correction>
   9.000000E+99

> <Gold.Chemscore.Hbonds>
donor molecule, donor type, donor heavy atom, donor atom, acceptor molecule, acceptor atom, score
      L1  H    13    54       P1  7948  0.99

> <Gold.Chemscore.Hbond.Weighted>
-3.3151

> <Gold.Chemscore.Metal.Weighted>
-0.0000

> <Gold.Chemscore.Lipo.Weighted>
-13.0678

> <Gold.Chemscore.Internal_Hbond.Weighted>
0.0000

> <Gold.Chemscore.DEClash.Weighted>
0.1946

> <Gold.Chemscore.DEInternal.Weighted>
1.4300

> <Gold.Chemscore.Rot.Weighted>
3.0955

> <Gold.Chemscore.Internal.Correction.Weighted>
   9.000000E+99

> <Gold.Protein.RotatedTorsions>
[ 6907 6896 6895 6894 ] final  -85.83 input  -60.11 | X-H torsion
[ 7974 7965 7964 7962 ] final   31.60 input  175.53 | X-H torsion
[ 8008 7997 7996 7995 ] final    8.65 input   59.86 | X-H torsion
[ 10167 10162 10161 10158 ] final  -59.66 input  -65.29 | X-H torsion
[ 10718 10713 10712 10709 ] final   -4.56 input   66.30 | X-H torsion
[ 10763 10752 10751 10750 ] final    5.48 input  -60.55 | X-H torsion
[ 11005 11000 10999 10996 ] final -151.20 input  -57.11 | X-H torsion

> <Gold.Protein.ActiveResidues>
 VAL166  LYS551  ARG553  GLY616  TRP617  ASP618  TYR619  PRO620  LYS621  CYS622 
 ASP623  PHE694  ASN695  SER759  ASP760  ASP761  ALA762  ILE779  LEU786  VAL792 
 PHE793  MET794  SER795  GLU796  ALA797  LYS798  CYS799  TRP800  GLU811  SER814 

> <Gold.Protein.RotatedAtoms>
  150.6869  134.3144  159.4759 H   0  0  0  0  0  0  0  0  0  0  0  0  # atno 6907 bound_to 6896
  152.1027  134.9328  160.0578 H   0  0  0  0  0  0  0  0  0  0  0  0  # atno 6908 bound_to 6896
  152.0601  133.4023  159.4451 H   0  0  0  0  0  0  0  0  0  0  0  0  # atno 6909 bound_to 6896
  146.1540  139.6635  142.9079 H   0  0  0  0  0  0  0  0  0  0  0  0  # atno 7974 bound_to 7965
  154.7696  140.2799  155.6148 H   0  0  0  0  0  0  0  0  0  0  0  0  # atno 8008 bound_to 7997
  156.2931  140.2644  156.2423 H   0  0  0  0  0  0  0  0  0  0  0  0  # atno 8009 bound_to 7997
  154.9916  140.0373  157.2311 H   0  0  0  0  0  0  0  0  0  0  0  0  # atno 8010 bound_to 7997
  140.6121  143.2390  151.5684 H   0  0  0  0  0  0  0  0  0  0  0  0  # atno 10167 bound_to 10162
  156.7595  130.5265  149.5788 H   0  0  0  0  0  0  0  0  0  0  0  0  # atno 10718 bound_to 10713
  153.2589  135.6921  153.7600 H   0  0  0  0  0  0  0  0  0  0  0  0  # atno 10763 bound_to 10752
  153.6666  135.3351  155.3143 H   0  0  0  0  0  0  0  0  0  0  0  0  # atno 10764 bound_to 10752
  154.8423  135.4490  154.1572 H   0  0  0  0  0  0  0  0  0  0  0  0  # atno 10765 bound_to 10752
  140.7321  134.3610  157.5164 H   0  0  0  0  0  0  0  0  0  0  0  0  # atno 11005 bound_to 11000
  145.4755  141.0437  143.2675 LP  0  0  0  0  0  0  0  0  0  0  0  0  # atno 17320 bound_to 7965
  144.7939  139.6273  143.7101 LP  0  0  0  0  0  0  0  0  0  0  0  0  # atno 17321 bound_to 7965
  139.5369  144.2755  152.1271 LP  0  0  0  0  0  0  0  0  0  0  0  0  # atno 17342 bound_to 10162
  140.1956  144.4709  150.6457 LP  0  0  0  0  0  0  0  0  0  0  0  0  # atno 17343 bound_to 10162
  156.1348  130.6204  151.0385 LP  0  0  0  0  0  0  0  0  0  0  0  0  # atno 17370 bound_to 10713
  157.6741  131.0854  150.7539 LP  0  0  0  0  0  0  0  0  0  0  0  0  # atno 17371 bound_to 10713
  139.8824  134.9025  156.2834 LP  0  0  0  0  0  0  0  0  0  0  0  0  # atno 17394 bound_to 11000
  140.9912  133.7207  156.0817 LP  0  0  0  0  0  0  0  0  0  0  0  0  # atno 17395 bound_to 11000

$$$$
