AV-unprocessed.smi:3289|AV-procd|sdf|12607|dock5
  -GOLD-   2272018533D 1   1.00000     0.00000
 Structure written by MMmdl.
 40 41  0  0  0  0  0  0  0  0  2 V2000
  152.9714  142.7370  161.8980 C   0  0  0  0  0  0  0  0  0  0  0  0
  152.6468  141.9540  160.6164 C   0  0  0  0  0  0  0  0  0  0  0  0
  153.8439  141.1088  160.1565 C   0  0  0  0  0  0  0  0  0  0  0  0
  152.1637  142.8592  159.5158 C   0  0  0  0  0  0  0  0  0  0  0  0
  152.2535  144.1954  159.5280 N   0  3  0  0  0  0  0  0  0  0  0  0
  151.7601  144.7225  158.3669 C   0  0  0  0  0  0  0  0  0  0  0  0
  151.3605  143.6604  157.6007 C   0  0  0  0  0  0  0  0  0  0  0  0
  151.6261  142.5257  158.3258 N   0  0  0  0  0  0  0  0  0  0  0  0
  151.3696  141.1464  157.8814 C   0  0  0  0  0  0  0  0  0  0  0  0
  150.9226  141.0873  156.4180 C   0  0  0  0  0  0  0  0  0  0  0  0
  151.6843  140.6494  155.5553 O   0  0  0  0  0  0  0  0  0  0  0  0
  149.6779  141.5149  156.1579 N   0  0  0  0  0  0  0  0  0  0  0  0
  149.0442  141.5053  154.8440 C   0  0  0  0  0  0  0  0  0  0  0  0
  147.5308  141.2381  154.9395 C   0  0  2  0  0  0  0  0  0  0  0  0
  146.8066  141.4395  153.6011 C   0  0  0  0  0  0  0  0  0  0  0  0
  146.1681  142.8034  153.7495 C   0  0  0  0  0  0  0  0  0  0  0  0
  145.8300  142.8155  155.2319 C   0  0  0  0  0  0  0  0  0  0  0  0
  146.9428  142.1774  155.8415 O   0  0  0  0  0  0  0  0  0  0  0  0
  152.1031  143.2980  162.2456 H   0  0  0  0  0  0  0  0  0  0  0  0
  153.7861  143.4449  161.7417 H   0  0  0  0  0  0  0  0  0  0  0  0
  153.2703  142.0639  162.7021 H   0  0  0  0  0  0  0  0  0  0  0  0
  151.8269  141.2770  160.8507 H   0  0  0  0  0  0  0  0  0  0  0  0
  153.5931  140.5090  159.2815 H   0  0  0  0  0  0  0  0  0  0  0  0
  154.1646  140.4233  160.9415 H   0  0  0  0  0  0  0  0  0  0  0  0
  154.6968  141.7361  159.8951 H   0  0  0  0  0  0  0  0  0  0  0  0
  151.7359  145.7854  158.1759 H   0  0  0  0  0  0  0  0  0  0  0  0
  150.9237  143.6282  156.6129 H   0  0  0  0  0  0  0  0  0  0  0  0
  152.2665  140.5503  158.0549 H   0  0  0  0  0  0  0  0  0  0  0  0
  150.5831  140.7264  158.5094 H   0  0  0  0  0  0  0  0  0  0  0  0
  149.1241  141.8653  156.9261 H   0  0  0  0  0  0  0  0  0  0  0  0
  149.2397  142.4377  154.3112 H   0  0  0  0  0  0  0  0  0  0  0  0
  149.5189  140.7151  154.2620 H   0  0  0  0  0  0  0  0  0  0  0  0
  147.3543  140.2248  155.3029 H   0  0  0  0  0  0  0  0  0  0  0  0
  147.4642  141.3724  152.7339 H   0  0  0  0  0  0  0  0  0  0  0  0
  146.0285  140.6837  153.4865 H   0  0  0  0  0  0  0  0  0  0  0  0
  146.8921  143.5869  153.5219 H   0  0  0  0  0  0  0  0  0  0  0  0
  145.2958  142.9422  153.1103 H   0  0  0  0  0  0  0  0  0  0  0  0
  145.6803  143.8216  155.6241 H   0  0  0  0  0  0  0  0  0  0  0  0
  144.9293  142.2317  155.4268 H   0  0  0  0  0  0  0  0  0  0  0  0
  152.6368  144.7368  160.2925 H   0  0  0  0  0  0  0  0  0  0  0  0
  1  2  1  0  0  0  0
  1 19  1  0  0  0  0
  1 20  1  0  0  0  0
  1 21  1  0  0  0  0
  2  3  1  0  0  0  0
  2  4  1  0  0  0  0
  2 22  1  0  0  0  0
  3 23  1  0  0  0  0
  3 24  1  0  0  0  0
  3 25  1  0  0  0  0
  4  8  1  0  0  0  0
  4  5  2  0  0  0  0
  5  6  1  0  0  0  0
  5 40  1  0  0  0  0
  6  7  2  0  0  0  0
  6 26  1  0  0  0  0
  7  8  1  0  0  0  0
  7 27  1  0  0  0  0
  8  9  1  0  0  0  0
  9 10  1  0  0  0  0
  9 28  1  0  0  0  0
  9 29  1  0  0  0  0
 10 11  2  0  0  0  0
 10 12  1  0  0  0  0
 12 13  1  0  0  0  0
 12 30  1  0  0  0  0
 13 14  1  0  0  0  0
 13 31  1  0  0  0  0
 13 32  1  0  0  0  0
 14 18  1  0  0  0  0
 14 15  1  0  0  0  0
 14 33  1  0  0  0  0
 15 16  1  0  0  0  0
 15 34  1  0  0  0  0
 15 35  1  0  0  0  0
 16 17  1  0  0  0  0
 16 36  1  0  0  0  0
 16 37  1  0  0  0  0
 17 18  1  0  0  0  0
 17 38  1  0  0  0  0
 17 39  1  0  0  0  0
M  CHG  1   5   1
M  END
> <s_m_source_file>
AV-unprocessed.smi

> <i_m_source_file_index>
3289

> <i_lp_mmshare_version>
43012

> <i_f3d_flags>
0

> <s_epik_input>
W0NIM11bQ0hdKFtDSDNdKWMxbltjSF1bY0hdbjFbQ0gyXUMoPU8pW05IXVtDSDJdW0NAQEhdMltDSDJdW0NIMl1bQ0gyXU8y

> <s_epik_cmdline>
J2VwaWtfcHl0aG9uJywgJy1waCcsICc3LjAnLCAnLXRuJywgJzgnLCAnLW1hJywgJzIwMCcsICctbWV0YWxfYmluZGluZycsICctaW1hZScsICc8aW5maWxlLm1hZT4nLCAnLW9tYWUnLCAnPG91dGZpbGUubWFlPic=

> <r_lp_tautomer_probability>
1

> <r_epik_Ionization_Penalty>
0.274547

> <r_epik_Ionization_Penalty_Charging>
0

> <r_epik_Ionization_Penalty_Neutral>
0.274547

> <r_epik_State_Penalty>
0.266843

> <r_epik_Charging_Adjusted_Penalty>
0.266843

> <i_epik_Tot_Q>
1

> <i_epik_Tot_abs_Q>
1

> <r_epik_Metal_State_Penalty>
0.55046

> <b_epik_Metal_Only>
0

> <s_lp_Force_Field>
OPLS_2005

> <r_lp_Energy>
23.0035

> <b_lp_Chiralities_Consistent>
1

> <s_lp_Variant>
AV-unprocessed.smi:3289-1

> <Gold.Version>
5.8.1

> <Gold.Id.Protein>
6NUR|6NUR_protein|mol2

> <Gold.PLP.Fitness>
48.4639

> <Gold.PLP.PLP>
-44.3772

> <Gold.PLP.part.hbond>
-1.1008

> <Gold.PLP.part.metal>
0.0000

> <Gold.PLP.part.buried>
-5.9864

> <Gold.PLP.part.nonpolar>
-38.1918

> <Gold.PLP.part.repulsive>
0.7061

> <Gold.PLP.ligand.clash>
0.0000

> <Gold.PLP.ligand.torsion>
0.5522

> <Gold.PLP.Chemscore.Hbond>
0.7137

> <Gold.PLP.Chemscore.CHOScore>
0.9863

> <Gold.PLP.Chemscore.Metal>
0.0000

> <Gold.Chemscore.Hbonds>
donor molecule, donor type, donor heavy atom, donor atom, acceptor molecule, acceptor atom, score
      P1  H  7989  7998       L1    11  0.65
      L1  C     7    27       P1  8028  1.00

> <Gold.PLP.Chemscore.Internal.Correction>
0.0911

> <Gold.Rescore>
     Score         DG    S(hbond)    S(metal)    S(lipo)     H(rot)  DE(clash)    DE(int)     intcor
     14.02     -14.55       0.79        0.00      93.89       1.78       0.12       0.41       ----

> <Gold.Chemscore.Fitness>
14.0221

> <Gold.Chemscore.DG>
-14.5513

> <Gold.Chemscore.ZeroCoef>
-5.4800

> <Gold.Chemscore.Hbond>
0.7941

> <Gold.Chemscore.Metal>
0.0000

> <Gold.Chemscore.Lipo>
93.8871

> <Gold.Chemscore.Internal_Hbond>
0.0000

> <Gold.Chemscore.DEClash>
0.1232

> <Gold.Chemscore.DEInternal>
0.4060

> <Gold.Chemscore.Rot>
1.7835

> <Gold.Chemscore.Internal.Correction>
   9.000000E+99

> <Gold.Chemscore.Hbonds>
donor molecule, donor type, donor heavy atom, donor atom, acceptor molecule, acceptor atom, score
      P1  H  7989  7998       L1    11  0.63

> <Gold.Chemscore.Hbond.Weighted>
-2.6523

> <Gold.Chemscore.Metal.Weighted>
-0.0000

> <Gold.Chemscore.Lipo.Weighted>
-10.9848

> <Gold.Chemscore.Internal_Hbond.Weighted>
0.0000

> <Gold.Chemscore.DEClash.Weighted>
0.1232

> <Gold.Chemscore.DEInternal.Weighted>
0.4060

> <Gold.Chemscore.Rot.Weighted>
4.5659

> <Gold.Chemscore.Internal.Correction.Weighted>
   9.000000E+99

> <Gold.Protein.RotatedTorsions>
[ 6907 6896 6895 6894 ] final -102.13 input  -60.11 | X-H torsion
[ 7974 7965 7964 7962 ] final  -90.33 input  175.53 | X-H torsion
[ 8008 7997 7996 7995 ] final  -80.70 input   59.86 | X-H torsion
[ 10167 10162 10161 10158 ] final    9.73 input  -65.29 | X-H torsion
[ 10718 10713 10712 10709 ] final   77.99 input   66.30 | X-H torsion
[ 10763 10752 10751 10750 ] final -157.29 input  -60.55 | X-H torsion
[ 11005 11000 10999 10996 ] final  -18.77 input  -57.11 | X-H torsion

> <Gold.Protein.ActiveResidues>
 VAL166  LYS551  ARG553  GLY616  TRP617  ASP618  TYR619  PRO620  LYS621  CYS622 
 ASP623  PHE694  ASN695  SER759  ASP760  ASP761  ALA762  ILE779  LEU786  VAL792 
 PHE793  MET794  SER795  GLU796  ALA797  LYS798  CYS799  TRP800  GLU811  SER814 

> <Gold.Protein.RotatedAtoms>
  150.7183  134.0628  159.3836 H   0  0  0  0  0  0  0  0  0  0  0  0  # atno 6907 bound_to 6896
  151.8608  135.0522  160.0478 H   0  0  0  0  0  0  0  0  0  0  0  0  # atno 6908 bound_to 6896
  152.2719  133.5354  159.5481 H   0  0  0  0  0  0  0  0  0  0  0  0  # atno 6909 bound_to 6896
  145.4279  140.9554  143.2145 H   0  0  0  0  0  0  0  0  0  0  0  0  # atno 7974 bound_to 7965
  154.5909  140.0659  156.9237 H   0  0  0  0  0  0  0  0  0  0  0  0  # atno 8008 bound_to 7997
  155.2297  140.3336  155.4286 H   0  0  0  0  0  0  0  0  0  0  0  0  # atno 8009 bound_to 7997
  156.2255  140.1817  156.7358 H   0  0  0  0  0  0  0  0  0  0  0  0  # atno 8010 bound_to 7997
  140.6237  143.8148  150.7207 H   0  0  0  0  0  0  0  0  0  0  0  0  # atno 10167 bound_to 10162
  157.6729  130.9847  150.1721 H   0  0  0  0  0  0  0  0  0  0  0  0  # atno 10718 bound_to 10713
  154.7647  135.3128  154.8309 H   0  0  0  0  0  0  0  0  0  0  0  0  # atno 10763 bound_to 10752
  153.9060  135.6810  153.4757 H   0  0  0  0  0  0  0  0  0  0  0  0  # atno 10764 bound_to 10752
  153.1252  135.4805  154.9193 H   0  0  0  0  0  0  0  0  0  0  0  0  # atno 10765 bound_to 10752
  140.8301  133.8003  155.9749 H   0  0  0  0  0  0  0  0  0  0  0  0  # atno 11005 bound_to 11000
  144.8202  139.5805  143.6990 LP  0  0  0  0  0  0  0  0  0  0  0  0  # atno 17320 bound_to 7965
  146.2623  139.6438  142.9354 LP  0  0  0  0  0  0  0  0  0  0  0  0  # atno 17321 bound_to 7965
  140.1744  143.4168  152.1978 LP  0  0  0  0  0  0  0  0  0  0  0  0  # atno 17342 bound_to 10162
  139.5461  144.7299  151.4579 LP  0  0  0  0  0  0  0  0  0  0  0  0  # atno 17343 bound_to 10162
  156.2472  130.3697  149.8271 LP  0  0  0  0  0  0  0  0  0  0  0  0  # atno 17370 bound_to 10713
  156.6054  130.8564  151.3442 LP  0  0  0  0  0  0  0  0  0  0  0  0  # atno 17371 bound_to 10713
  140.9007  134.2382  157.5043 LP  0  0  0  0  0  0  0  0  0  0  0  0  # atno 17394 bound_to 11000
  139.8705  134.9705  156.4704 LP  0  0  0  0  0  0  0  0  0  0  0  0  # atno 17395 bound_to 11000

$$$$
