AV-unprocessed.smi:2309|AV-procd|sdf|9253|dock10
  -GOLD-   2272012473D 1   1.00000     0.00000
 Structure written by MMmdl.
 34 35  0  0  0  0  0  0  0  0  1 V2000
  147.3004  141.2484  152.8958 C   0  0  0  0  0  0  0  0  0  0  0  0
  148.1361  141.3522  154.1594 C   0  0  0  0  0  0  0  0  0  0  0  0
  149.5124  141.1772  153.9890 N   0  0  0  0  0  0  0  0  0  0  0  0
  150.3020  141.2475  155.0099 C   0  0  0  0  0  0  0  0  0  0  0  0
  149.8162  141.4993  156.3043 N   0  0  0  0  0  0  0  0  0  0  0  0
  150.8206  141.5487  157.3810 C   0  0  0  0  0  0  0  0  0  0  0  0
  150.8204  142.9039  158.1239 C   0  0  2  0  0  0  0  0  0  0  0  0
  151.3091  143.9033  157.2496 O   0  0  0  0  0  0  0  0  0  0  0  0
  151.6457  142.8164  159.4067 C   0  0  0  0  0  0  0  0  0  0  0  0
  152.4048  141.6543  159.6794 C   0  0  0  0  0  0  0  0  0  0  0  0
  153.1638  141.5523  160.8606 C   0  0  0  0  0  0  0  0  0  0  0  0
  154.0854  140.1279  161.1736 Cl  0  0  0  0  0  0  0  0  0  0  0  0
  153.1681  142.6110  161.7868 C   0  0  0  0  0  0  0  0  0  0  0  0
  152.4068  143.7664  161.5327 C   0  0  0  0  0  0  0  0  0  0  0  0
  151.6434  143.8732  160.3528 C   0  0  0  0  0  0  0  0  0  0  0  0
  150.7064  145.3061  160.1085 Cl  0  0  0  0  0  0  0  0  0  0  0  0
  148.4882  141.6816  156.5586 C   0  0  0  0  0  0  0  0  0  0  0  0
  148.0696  141.9012  157.6967 O   0  0  0  0  0  0  0  0  0  0  0  0
  147.6013  141.5981  155.3866 C   0  0  0  0  0  0  0  0  0  0  0  0
  146.1105  141.7955  155.6324 C   0  0  0  0  0  0  0  0  0  0  0  0
  146.5614  140.4523  152.9898 H   0  0  0  0  0  0  0  0  0  0  0  0
  147.9206  141.0264  152.0263 H   0  0  0  0  0  0  0  0  0  0  0  0
  146.7808  142.1877  152.7041 H   0  0  0  0  0  0  0  0  0  0  0  0
  151.3824  141.1134  154.9321 H   0  0  0  0  0  0  0  0  0  0  0  0
  150.5951  140.7515  158.0929 H   0  0  0  0  0  0  0  0  0  0  0  0
  151.8229  141.3065  157.0230 H   0  0  0  0  0  0  0  0  0  0  0  0
  149.8019  143.1973  158.3762 H   0  0  0  0  0  0  0  0  0  0  0  0
  150.6059  144.1746  156.6797 H   0  0  0  0  0  0  0  0  0  0  0  0
  152.4063  140.8278  158.9838 H   0  0  0  0  0  0  0  0  0  0  0  0
  153.7488  142.5360  162.6945 H   0  0  0  0  0  0  0  0  0  0  0  0
  152.4054  144.5735  162.2507 H   0  0  0  0  0  0  0  0  0  0  0  0
  145.9287  142.7745  156.0771 H   0  0  0  0  0  0  0  0  0  0  0  0
  145.7400  141.0364  156.3223 H   0  0  0  0  0  0  0  0  0  0  0  0
  145.5130  141.7330  154.7243 H   0  0  0  0  0  0  0  0  0  0  0  0
  1  2  1  0  0  0  0
  1 21  1  0  0  0  0
  1 22  1  0  0  0  0
  1 23  1  0  0  0  0
  2 19  2  0  0  0  0
  2  3  1  0  0  0  0
  3  4  2  0  0  0  0
  4  5  1  0  0  0  0
  4 24  1  0  0  0  0
  5  6  1  0  0  0  0
  5 17  1  0  0  0  0
  6  7  1  0  0  0  0
  6 25  1  0  0  0  0
  6 26  1  0  0  0  0
  7  8  1  0  0  0  0
  7  9  1  0  0  0  0
  7 27  1  0  0  0  0
  8 28  1  0  0  0  0
  9 15  1  0  0  0  0
  9 10  2  0  0  0  0
 10 11  1  0  0  0  0
 10 29  1  0  0  0  0
 11 12  1  0  0  0  0
 11 13  2  0  0  0  0
 13 14  1  0  0  0  0
 13 30  1  0  0  0  0
 14 15  2  0  0  0  0
 14 31  1  0  0  0  0
 15 16  1  0  0  0  0
 17 18  2  0  0  0  0
 17 19  1  0  0  0  0
 19 20  1  0  0  0  0
 20 32  1  0  0  0  0
 20 33  1  0  0  0  0
 20 34  1  0  0  0  0
M  END
> <s_m_source_file>
AV-unprocessed.smi

> <i_m_source_file_index>
2309

> <i_lp_mmshare_version>
43012

> <i_f3d_flags>
0

> <s_epik_input>
W0NIM11jMW5bY0hdbihjKD1PKWMxW0NIM10pW0NIMl1bQ0BIXShbT0hdKWMyW2NIXWMoQ2wpW2NIXVtjSF1jMkNs

> <s_epik_cmdline>
J2VwaWtfcHl0aG9uJywgJy1waCcsICc3LjAnLCAnLXRuJywgJzgnLCAnLW1hJywgJzIwMCcsICctbWV0YWxfYmluZGluZycsICctaW1hZScsICc8aW5maWxlLm1hZT4nLCAnLW9tYWUnLCAnPG91dGZpbGUubWFlPic=

> <r_lp_tautomer_probability>
1

> <r_epik_Ionization_Penalty>
5.09224e-05

> <r_epik_Ionization_Penalty_Charging>
7.56727e-08

> <r_epik_Ionization_Penalty_Neutral>
5.08468e-05

> <r_epik_State_Penalty>
-0

> <r_epik_Charging_Adjusted_Penalty>
7.56727e-08

> <i_epik_Tot_Q>
0

> <i_epik_Tot_abs_Q>
0

> <r_epik_Metal_State_Penalty>
-0

> <b_epik_Metal_Only>
0

> <s_lp_Force_Field>
OPLS_2005

> <r_lp_Energy>
19.5674

> <b_lp_Chiralities_Consistent>
1

> <s_lp_Variant>
AV-unprocessed.smi:2309-1

> <Gold.Version>
5.8.1

> <Gold.Id.Protein>
6NUR|6NUR_protein|mol2

> <Gold.PLP.Fitness>
47.0297

> <Gold.PLP.PLP>
-42.4835

> <Gold.PLP.part.hbond>
-3.0000

> <Gold.PLP.part.metal>
0.0000

> <Gold.PLP.part.buried>
-4.8734

> <Gold.PLP.part.nonpolar>
-34.0044

> <Gold.PLP.part.repulsive>
0.3669

> <Gold.PLP.ligand.clash>
0.0000

> <Gold.PLP.ligand.torsion>
0.1668

> <Gold.PLP.Chemscore.Hbond>
1.6240

> <Gold.PLP.Chemscore.CHOScore>
0.0000

> <Gold.PLP.Chemscore.Metal>
0.0000

> <Gold.Chemscore.Hbonds>
donor molecule, donor type, donor heavy atom, donor atom, acceptor molecule, acceptor atom, score
      L1  H     8    28       P1  8028  0.96
      P1  H  8011  8017       L1     3  0.67

> <Gold.PLP.Chemscore.Internal.Correction>
0.0079

> <Gold.Rescore>
     Score         DG    S(hbond)    S(metal)    S(lipo)     H(rot)  DE(clash)    DE(int)     intcor
     16.93     -18.27       1.26        0.00     115.64       1.93       0.17       1.17       ----

> <Gold.Chemscore.Fitness>
16.9332

> <Gold.Chemscore.DG>
-18.2707

> <Gold.Chemscore.ZeroCoef>
-5.4800

> <Gold.Chemscore.Hbond>
1.2552

> <Gold.Chemscore.Metal>
0.0000

> <Gold.Chemscore.Lipo>
115.6411

> <Gold.Chemscore.Internal_Hbond>
0.0000

> <Gold.Chemscore.DEClash>
0.1651

> <Gold.Chemscore.DEInternal>
1.1724

> <Gold.Chemscore.Rot>
1.9265

> <Gold.Chemscore.Internal.Correction>
   9.000000E+99

> <Gold.Chemscore.Hbonds>
donor molecule, donor type, donor heavy atom, donor atom, acceptor molecule, acceptor atom, score
      L1  H     8    28       P1  8028  0.91
      P1  H  8011  8017       L1     3  0.14

> <Gold.Chemscore.Hbond.Weighted>
-4.1924

> <Gold.Chemscore.Metal.Weighted>
-0.0000

> <Gold.Chemscore.Lipo.Weighted>
-13.5300

> <Gold.Chemscore.Internal_Hbond.Weighted>
0.0000

> <Gold.Chemscore.DEClash.Weighted>
0.1651

> <Gold.Chemscore.DEInternal.Weighted>
1.1724

> <Gold.Chemscore.Rot.Weighted>
4.9317

> <Gold.Chemscore.Internal.Correction.Weighted>
   9.000000E+99

> <Gold.Protein.RotatedTorsions>
[ 6907 6896 6895 6894 ] final   15.00 input  -60.11 | X-H torsion
[ 7974 7965 7964 7962 ] final -122.08 input  175.53 | X-H torsion
[ 8008 7997 7996 7995 ] final  -22.06 input   59.86 | X-H torsion
[ 10167 10162 10161 10158 ] final  175.93 input  -65.29 | X-H torsion
[ 10718 10713 10712 10709 ] final   79.57 input   66.30 | X-H torsion
[ 10763 10752 10751 10750 ] final   78.53 input  -60.55 | X-H torsion
[ 11005 11000 10999 10996 ] final   90.03 input  -57.11 | X-H torsion

> <Gold.Protein.ActiveResidues>
 VAL166  LYS551  ARG553  GLY616  TRP617  ASP618  TYR619  PRO620  LYS621  CYS622 
 ASP623  PHE694  ASN695  SER759  ASP760  ASP761  ALA762  ILE779  LEU786  VAL792 
 PHE793  MET794  SER795  GLU796  ALA797  LYS798  CYS799  TRP800  GLU811  SER814 

> <Gold.Protein.RotatedAtoms>
  151.8112  135.0680  160.0412 H   0  0  0  0  0  0  0  0  0  0  0  0  # atno 6907 bound_to 6896
  152.3019  133.5659  159.5632 H   0  0  0  0  0  0  0  0  0  0  0  0  # atno 6908 bound_to 6896
  150.7277  134.0195  159.3738 H   0  0  0  0  0  0  0  0  0  0  0  0  # atno 6909 bound_to 6896
  145.0333  140.8085  143.4310 H   0  0  0  0  0  0  0  0  0  0  0  0  # atno 7974 bound_to 7965
  154.4667  140.2018  156.0101 H   0  0  0  0  0  0  0  0  0  0  0  0  # atno 8008 bound_to 7997
  156.0939  140.3254  155.7822 H   0  0  0  0  0  0  0  0  0  0  0  0  # atno 8009 bound_to 7997
  155.4911  140.0546  157.2944 H   0  0  0  0  0  0  0  0  0  0  0  0  # atno 8010 bound_to 7997
  139.5195  144.2974  152.0409 H   0  0  0  0  0  0  0  0  0  0  0  0  # atno 10167 bound_to 10162
  157.6781  130.9920  150.1952 H   0  0  0  0  0  0  0  0  0  0  0  0  # atno 10718 bound_to 10713
  153.0881  135.4873  154.8637 H   0  0  0  0  0  0  0  0  0  0  0  0  # atno 10763 bound_to 10752
  154.7236  135.3044  154.9010 H   0  0  0  0  0  0  0  0  0  0  0  0  # atno 10764 bound_to 10752
  153.9667  135.6806  153.4799 H   0  0  0  0  0  0  0  0  0  0  0  0  # atno 10765 bound_to 10752
  139.8864  134.8588  156.3226 H   0  0  0  0  0  0  0  0  0  0  0  0  # atno 11005 bound_to 11000
  145.1742  139.2387  143.5326 LP  0  0  0  0  0  0  0  0  0  0  0  0  # atno 17320 bound_to 7965
  146.3501  140.1501  142.8592 LP  0  0  0  0  0  0  0  0  0  0  0  0  # atno 17321 bound_to 7965
  140.2423  144.4256  150.6255 LP  0  0  0  0  0  0  0  0  0  0  0  0  # atno 17342 bound_to 10162
  140.6282  143.2184  151.6551 LP  0  0  0  0  0  0  0  0  0  0  0  0  # atno 17343 bound_to 10162
  156.2655  130.3715  149.8086 LP  0  0  0  0  0  0  0  0  0  0  0  0  # atno 17370 bound_to 10713
  156.5818  130.8469  151.3385 LP  0  0  0  0  0  0  0  0  0  0  0  0  # atno 17371 bound_to 10713
  140.9777  133.7287  156.0626 LP  0  0  0  0  0  0  0  0  0  0  0  0  # atno 17394 bound_to 11000
  140.7790  134.3747  157.5491 LP  0  0  0  0  0  0  0  0  0  0  0  0  # atno 17395 bound_to 11000

$$$$
