#       Name:                AV-unprocessed.smi:2560
#       Creating user name   scv26
#       Creation time:       Fri Mar 27 14:08:33 2020


#       File generated by GOLD software.
#

@<TRIPOS>MOLECULE
AV-unprocessed.smi:2560
    35    36     1
SMALL
NO_CHARGES


@<TRIPOS>ATOM
      1 ****         7.5703  -2.3683  -0.0213 C.3            1 S1                 0.0000
      2 ****         7.4916  -2.7390  -1.7952 S.3            1 S1                 0.0000
      3 ****         5.8278  -2.4168  -2.2833 C.2            1 S1                 0.0000
      4 ****         5.4406  -2.5942  -3.5595 N.2            1 S1                 0.0000
      5 ****         3.8012  -2.1992  -3.6843 S.3            1 S1                 0.0000
      6 ****         3.7336  -1.8135  -1.9897 C.2            1 S1                 0.0000
      7 ****         2.5396  -1.3667  -1.3523 N.am           1 S1                 0.0000
      8 ****         2.2935  -1.0193  -0.0706 C.2            1 S1                 0.0000
      9 ****         3.1810  -1.0580   0.7797 O.2            1 S1                 0.0000
     10 ****         1.0363  -0.6362   0.2071 N.am           1 S1                 0.0000
     11 ****         0.5355  -0.2104   1.5082 C.3            1 S1                 0.0000
     12 ****        -0.9793  -0.3457   1.5216 C.2            1 S1                 0.0000
     13 ****        -1.8116   0.5933   2.0031 C.2            1 S1                 0.0000
     14 ****        -1.3366   1.8996   2.6104 C.3            1 S1                 0.0000
     15 ****         0.1623   1.8640   2.9552 C.3            1 S1                 0.0000
     16 ****         0.9898   1.2342   1.8244 C.3            1 S1                 0.0000
     17 ****         4.9136  -1.9886  -1.3953 N.2            1 S1                 0.0000
     18 ****         8.5777  -2.5437   0.3552 H              1 S1                 0.0000
     19 ****         6.8786  -3.0037   0.5321 H              1 S1                 0.0000
     20 ****         7.3087  -1.3261   0.1632 H              1 S1                 0.0000
     21 ****         1.7401  -1.2973  -1.9651 H              1 S1                 0.0000
     22 ****         0.3723  -0.6349  -0.5542 H              1 S1                 0.0000
     23 ****         0.9139  -0.8877   2.2756 H              1 S1                 0.0000
     24 ****        -1.3899  -1.2565   1.1103 H              1 S1                 0.0000
     25 ****        -2.8794   0.4380   1.9572 H              1 S1                 0.0000
     26 ****        -1.5424   2.6991   1.8981 H              1 S1                 0.0000
     27 ****        -1.9190   2.1131   3.5069 H              1 S1                 0.0000
     28 ****         0.5184   2.8719   3.1695 H              1 S1                 0.0000
     29 ****         0.3102   1.2848   3.8677 H              1 S1                 0.0000
     30 ****         2.0486   1.2455   2.0852 H              1 S1                 0.0000
     31 ****         0.8878   1.8561   0.9336 H              1 S1                 0.0000
     32 ****         6.0244  -2.9071  -4.3087 LP             1 S1                 0.0000
     33 ****         4.1033  -1.3503   0.5269 LP             1 S1                 0.0000
     34 ****         2.9804  -0.7971   1.7240 LP             1 S1                 0.0000
     35 ****         5.0937  -1.8247  -0.4254 LP             1 S1                 0.0000
@<TRIPOS>BOND
    1    1    2 1     
    2    1   18 1     
    3    1   19 1     
    4    1   20 1     
    5    2    3 1     
    6    3   17 1     
    7    3    4 2     
    8    4    5 1     
    9    5    6 1     
   10    6    7 1     
   11    6   17 2     
   12    7    8 am    
   13    7   21 1     
   14    8    9 2     
   15    8   10 am    
   16   10   11 1     
   17   10   22 1     
   18   11   16 1     
   19   11   12 1     
   20   11   23 1     
   21   12   13 2     
   22   12   24 1     
   23   13   14 1     
   24   13   25 1     
   25   14   15 1     
   26   14   26 1     
   27   14   27 1     
   28   15   16 1     
   29   15   28 1     
   30   15   29 1     
   31   16   30 1     
   32   16   31 1     
   33    4   32 1     
   34    9   33 1     
   35    9   34 1     
   36   17   35 1     
@<TRIPOS>SUBSTRUCTURE
      1 S1             1
@<TRIPOS>SET
LONE_PAIRS      STATIC     ATOMS    <user>   **** ""
4 32 33 34 35
DONOR_HYDROGENS      STATIC     ATOMS    <user>   **** ""
2 21 22
ATOM$BLUE        STATIC     ATOMS    COLORGROUP SYSTEM
4 32 33 34 35
ATOM$RED        STATIC     ATOMS    COLORGROUP SYSTEM
2 21 22
