AV-unprocessed.smi:78|AV-procd|sdf|776|dock10
  -GOLD-   2262017133D 1   1.00000     0.00000
 Structure written by MMmdl.
 56 59  0  0  0  0  0  0  0  0  1 V2000
  152.0083  138.8503  154.2558 C   0  0  0  0  0  0  0  0  0  0  0  0
  150.8865  139.8260  154.6484 C   0  0  0  0  0  0  0  0  0  0  0  0
  151.0580  140.2817  156.1051 C   0  0  0  0  0  0  0  0  0  0  0  0
  149.4762  139.2279  154.4311 C   0  0  0  0  0  0  0  0  0  0  0  0
  148.2951  140.0571  155.0115 C   0  0  1  0  0  0  0  0  0  0  0  0
  148.3005  141.5451  154.5950 C   0  0  0  0  0  0  0  0  0  0  0  0
  149.3557  142.1135  154.3205 O   0  0  0  0  0  0  0  0  0  0  0  0
  147.1242  142.1969  154.5622 N   0  0  0  0  0  0  0  0  0  0  0  0
  145.8102  141.6127  154.8454 C   0  0  0  0  0  0  0  0  0  0  0  0
  145.8782  140.1821  155.4232 C   0  0  0  0  0  0  0  0  0  0  0  0
  146.9770  139.4264  154.8295 N   0  0  0  0  0  0  0  0  0  0  0  0
  146.6369  138.8816  153.6326 C   0  0  0  0  0  0  0  0  0  0  0  0
  146.7294  139.6048  152.4852 N   0  0  0  0  0  0  0  0  0  0  0  0
  146.3763  139.0597  151.3175 C   0  0  0  0  0  0  0  0  0  0  0  0
  145.9042  137.8346  151.0771 N   0  0  0  0  0  0  0  0  0  0  0  0
  145.7994  137.1100  152.2279 C   0  0  0  0  0  0  0  0  0  0  0  0
  146.1438  137.5533  153.5351 C   0  0  0  0  0  0  0  0  0  0  0  0
  145.9218  136.5386  154.4571 N   0  0  0  0  0  0  0  0  0  0  0  0
  145.4757  135.5476  153.7339 C   0  0  0  0  0  0  0  0  0  0  0  0
  145.3435  135.8136  152.3888 N   0  0  0  0  0  0  0  0  0  0  0  0
  144.9091  134.9084  151.3656 C   0  0  0  0  0  0  0  0  0  0  0  0
  144.4692  133.4840  151.7161 C   0  0  0  0  0  0  0  0  0  0  0  0
  145.0104  132.9948  150.3524 C   0  0  0  0  0  0  0  0  0  0  0  0
  145.7412  131.6376  150.3260 C   0  0  0  0  0  0  0  0  0  0  0  0
  146.7849  131.5629  151.2768 O   0  0  0  0  0  0  0  0  0  0  0  0
  143.9858  132.9817  149.2017 C   0  0  0  0  0  0  0  0  0  0  0  0
  142.9987  131.9889  149.3953 O   0  0  0  0  0  0  0  0  0  0  0  0
  145.9000  134.2591  150.3930 C   0  0  0  0  0  0  0  0  0  0  0  0
  151.9283  137.9116  154.8048 H   0  0  0  0  0  0  0  0  0  0  0  0
  152.9894  139.2756  154.4682 H   0  0  0  0  0  0  0  0  0  0  0  0
  151.9858  138.6196  153.1910 H   0  0  0  0  0  0  0  0  0  0  0  0
  150.9933  140.7165  154.0295 H   0  0  0  0  0  0  0  0  0  0  0  0
  150.9724  139.4420  156.7954 H   0  0  0  0  0  0  0  0  0  0  0  0
  150.3010  141.0172  156.3792 H   0  0  0  0  0  0  0  0  0  0  0  0
  152.0335  140.7431  156.2611 H   0  0  0  0  0  0  0  0  0  0  0  0
  149.3270  139.0990  153.3580 H   0  0  0  0  0  0  0  0  0  0  0  0
  149.4513  138.2177  154.8398 H   0  0  0  0  0  0  0  0  0  0  0  0
  148.4486  140.0940  156.0900 H   0  0  0  0  0  0  0  0  0  0  0  0
  147.1390  143.1719  154.2998 H   0  0  0  0  0  0  0  0  0  0  0  0
  145.2541  142.2679  155.5159 H   0  0  0  0  0  0  0  0  0  0  0  0
  145.2608  141.5945  153.9035 H   0  0  0  0  0  0  0  0  0  0  0  0
  146.0520  140.2323  156.4986 H   0  0  0  0  0  0  0  0  0  0  0  0
  144.9208  139.6728  155.2995 H   0  0  0  0  0  0  0  0  0  0  0  0
  146.4849  139.6975  150.4526 H   0  0  0  0  0  0  0  0  0  0  0  0
  145.2236  134.5918  154.1692 H   0  0  0  0  0  0  0  0  0  0  0  0
  144.1207  135.4301  150.8205 H   0  0  0  0  0  0  0  0  0  0  0  0
  145.0143  133.0835  152.5722 H   0  0  0  0  0  0  0  0  0  0  0  0
  143.3940  133.3689  151.8560 H   0  0  0  0  0  0  0  0  0  0  0  0
  145.0533  130.8169  150.5311 H   0  0  0  0  0  0  0  0  0  0  0  0
  146.1723  131.4484  149.3423 H   0  0  0  0  0  0  0  0  0  0  0  0
  147.5379  131.1667  150.8652 H   0  0  0  0  0  0  0  0  0  0  0  0
  143.4773  133.9418  149.1116 H   0  0  0  0  0  0  0  0  0  0  0  0
  144.4754  132.8063  148.2433 H   0  0  0  0  0  0  0  0  0  0  0  0
  142.1640  132.4150  149.5174 H   0  0  0  0  0  0  0  0  0  0  0  0
  146.0003  134.7794  149.4400 H   0  0  0  0  0  0  0  0  0  0  0  0
  146.8784  134.0932  150.8467 H   0  0  0  0  0  0  0  0  0  0  0  0
  1  2  1  0  0  0  0
  1 29  1  0  0  0  0
  1 30  1  0  0  0  0
  1 31  1  0  0  0  0
  2  3  1  0  0  0  0
  2  4  1  0  0  0  0
  2 32  1  0  0  0  0
  3 33  1  0  0  0  0
  3 34  1  0  0  0  0
  3 35  1  0  0  0  0
  4  5  1  0  0  0  0
  4 36  1  0  0  0  0
  4 37  1  0  0  0  0
  5 11  1  0  0  0  0
  5  6  1  0  0  0  0
  5 38  1  0  0  0  0
  6  7  2  0  0  0  0
  6  8  1  0  0  0  0
  8  9  1  0  0  0  0
  8 39  1  0  0  0  0
  9 10  1  0  0  0  0
  9 40  1  0  0  0  0
  9 41  1  0  0  0  0
 10 11  1  0  0  0  0
 10 42  1  0  0  0  0
 10 43  1  0  0  0  0
 11 12  1  0  0  0  0
 12 17  1  0  0  0  0
 12 13  2  0  0  0  0
 13 14  1  0  0  0  0
 14 15  2  0  0  0  0
 14 44  1  0  0  0  0
 15 16  1  0  0  0  0
 16 20  1  0  0  0  0
 16 17  2  0  0  0  0
 17 18  1  0  0  0  0
 18 19  2  0  0  0  0
 19 20  1  0  0  0  0
 19 45  1  0  0  0  0
 20 21  1  0  0  0  0
 21 28  1  0  0  0  0
 21 22  1  0  0  0  0
 21 46  1  0  0  0  0
 22 23  1  0  0  0  0
 22 47  1  0  0  0  0
 22 48  1  0  0  0  0
 23 24  1  0  0  0  0
 23 26  1  0  0  0  0
 23 28  1  0  0  0  0
 24 25  1  0  0  0  0
 24 49  1  0  0  0  0
 24 50  1  0  0  0  0
 25 51  1  0  0  0  0
 26 27  1  0  0  0  0
 26 52  1  0  0  0  0
 26 53  1  0  0  0  0
 27 54  1  0  0  0  0
 28 55  1  0  0  0  0
 28 56  1  0  0  0  0
M  END
> <s_m_source_file>
AV-unprocessed.smi

> <i_m_source_file_index>
78

> <i_lp_mmshare_version>
43012

> <i_f3d_flags>
0

> <s_epik_input>
W0NIM11bQ0hdKFtDSDNdKVtDSDJdW0NAQEhdMUMoPU8pW05IXVtDSDJdW0NIMl1OMWMobltjSF1uMiljKGMyMyluW2NIXW4zW0NIXShbQ0gyXTQpW0NIMl1DNChbQ0gyXVtPSF0pW0NIMl1bT0hd

> <s_epik_cmdline>
J2VwaWtfcHl0aG9uJywgJy1waCcsICc3LjAnLCAnLXRuJywgJzgnLCAnLW1hJywgJzIwMCcsICctbWV0YWxfYmluZGluZycsICctaW1hZScsICc8aW5maWxlLm1hZT4nLCAnLW9tYWUnLCAnPG91dGZpbGUubWFlPic=

> <r_lp_tautomer_probability>
1

> <r_epik_Ionization_Penalty>
0.000550083

> <r_epik_Ionization_Penalty_Charging>
0

> <r_epik_Ionization_Penalty_Neutral>
0.000550083

> <r_epik_State_Penalty>
0.000250415

> <r_epik_Charging_Adjusted_Penalty>
0.000250415

> <i_epik_Tot_Q>
0

> <i_epik_Tot_abs_Q>
0

> <r_epik_Metal_State_Penalty>
-0

> <b_epik_Metal_Only>
0

> <s_lp_Force_Field>
OPLS_2005

> <r_lp_Energy>
48.678

> <b_lp_Chiralities_Consistent>
1

> <s_lp_Variant>
AV-unprocessed.smi:78-2

> <Gold.Version>
5.8.1

> <Gold.Id.Protein>
6NUR|6NUR_protein|mol2

> <Gold.PLP.Fitness>
51.3996

> <Gold.PLP.PLP>
-42.3100

> <Gold.PLP.part.hbond>
-6.8774

> <Gold.PLP.part.metal>
0.0000

> <Gold.PLP.part.buried>
-0.6437

> <Gold.PLP.part.nonpolar>
-37.8363

> <Gold.PLP.part.repulsive>
4.8442

> <Gold.PLP.ligand.clash>
0.0000

> <Gold.PLP.ligand.torsion>
0.8121

> <Gold.PLP.Chemscore.Hbond>
3.0814

> <Gold.PLP.Chemscore.CHOScore>
0.2126

> <Gold.PLP.Chemscore.Metal>
0.0000

> <Gold.Chemscore.Hbonds>
donor molecule, donor type, donor heavy atom, donor atom, acceptor molecule, acceptor atom, score
      L1  H    25    51       P1 10747  1.00
      L1  H    27    54       P1 10186  0.31
      P1  H  8011  8017       L1     7  0.29
      P1  H 10785 10796       L1    27  1.00
      L1  C    14    44       P1 10171  0.01

> <Gold.PLP.Chemscore.Internal.Correction>
0.8316

> <Gold.Rescore>
     Score         DG    S(hbond)    S(metal)    S(lipo)     H(rot)  DE(clash)    DE(int)     intcor
     11.14     -16.61       3.02        0.00      90.47       3.72       3.88       1.59       ----

> <Gold.Chemscore.Fitness>
11.1431

> <Gold.Chemscore.DG>
-16.6127

> <Gold.Chemscore.ZeroCoef>
-5.4800

> <Gold.Chemscore.Hbond>
3.0183

> <Gold.Chemscore.Metal>
0.0000

> <Gold.Chemscore.Lipo>
90.4683

> <Gold.Chemscore.Internal_Hbond>
0.0000

> <Gold.Chemscore.DEClash>
3.8791

> <Gold.Chemscore.DEInternal>
1.5905

> <Gold.Chemscore.Rot>
3.7239

> <Gold.Chemscore.Internal.Correction>
   9.000000E+99

> <Gold.Chemscore.Hbonds>
donor molecule, donor type, donor heavy atom, donor atom, acceptor molecule, acceptor atom, score
      L1  H    25    51       P1 10747  0.98
      L1  H    27    54       P1 10186  0.30
      P1  H  8011  8017       L1     7  0.27
      P1  H 10785 10796       L1    27  0.97

> <Gold.Chemscore.Hbond.Weighted>
-10.0811

> <Gold.Chemscore.Metal.Weighted>
-0.0000

> <Gold.Chemscore.Lipo.Weighted>
-10.5848

> <Gold.Chemscore.Internal_Hbond.Weighted>
0.0000

> <Gold.Chemscore.DEClash.Weighted>
3.8791

> <Gold.Chemscore.DEInternal.Weighted>
1.5905

> <Gold.Chemscore.Rot.Weighted>
9.5332

> <Gold.Chemscore.Internal.Correction.Weighted>
   9.000000E+99

> <Gold.Protein.RotatedTorsions>
[ 6907 6896 6895 6894 ] final  -76.20 input  -60.11 | X-H torsion
[ 7974 7965 7964 7962 ] final   88.84 input  175.53 | X-H torsion
[ 8008 7997 7996 7995 ] final  130.39 input   59.86 | X-H torsion
[ 10167 10162 10161 10158 ] final  106.37 input  -65.29 | X-H torsion
[ 10718 10713 10712 10709 ] final   76.84 input   66.30 | X-H torsion
[ 10763 10752 10751 10750 ] final  -31.21 input  -60.55 | X-H torsion
[ 11005 11000 10999 10996 ] final  -80.01 input  -57.11 | X-H torsion

> <Gold.Protein.ActiveResidues>
 VAL166  LYS551  ARG553  GLY616  TRP617  ASP618  TYR619  PRO620  LYS621  CYS622 
 ASP623  PHE694  ASN695  SER759  ASP760  ASP761  ALA762  ILE779  LEU786  VAL792 
 PHE793  MET794  SER795  GLU796  ALA797  LYS798  CYS799  TRP800  GLU811  SER814 

> <Gold.Protein.RotatedAtoms>
  150.7035  134.4607  159.5378 H   0  0  0  0  0  0  0  0  0  0  0  0  # atno 6907 bound_to 6896
  152.2282  134.8345  160.0486 H   0  0  0  0  0  0  0  0  0  0  0  0  # atno 6908 bound_to 6896
  151.9170  133.3540  159.3920 H   0  0  0  0  0  0  0  0  0  0  0  0  # atno 6909 bound_to 6896
  145.5404  139.2288  143.2569 H   0  0  0  0  0  0  0  0  0  0  0  0  # atno 7974 bound_to 7965
  156.2953  140.2597  156.2755 H   0  0  0  0  0  0  0  0  0  0  0  0  # atno 8008 bound_to 7997
  154.9653  140.0392  157.2228 H   0  0  0  0  0  0  0  0  0  0  0  0  # atno 8009 bound_to 7997
  154.7908  140.2811  155.5997 H   0  0  0  0  0  0  0  0  0  0  0  0  # atno 8010 bound_to 7997
  139.7015  144.7093  151.1178 H   0  0  0  0  0  0  0  0  0  0  0  0  # atno 10167 bound_to 10162
  157.6688  130.9793  150.1555 H   0  0  0  0  0  0  0  0  0  0  0  0  # atno 10718 bound_to 10713
  153.7936  135.6896  153.4867 H   0  0  0  0  0  0  0  0  0  0  0  0  # atno 10763 bound_to 10752
  153.1734  135.4534  154.9931 H   0  0  0  0  0  0  0  0  0  0  0  0  # atno 10764 bound_to 10752
  154.8035  135.3347  154.7430 H   0  0  0  0  0  0  0  0  0  0  0  0  # atno 10765 bound_to 10752
  141.1668  133.7131  156.8209 H   0  0  0  0  0  0  0  0  0  0  0  0  # atno 11005 bound_to 11000
  146.1985  140.6223  142.9113 LP  0  0  0  0  0  0  0  0  0  0  0  0  # atno 17320 bound_to 7965
  144.7580  140.5354  143.6755 LP  0  0  0  0  0  0  0  0  0  0  0  0  # atno 17321 bound_to 7965
  140.7711  143.5418  150.9304 LP  0  0  0  0  0  0  0  0  0  0  0  0  # atno 17342 bound_to 10162
  139.9099  143.6732  152.3117 LP  0  0  0  0  0  0  0  0  0  0  0  0  # atno 17343 bound_to 10162
  156.2344  130.3685  149.8408 LP  0  0  0  0  0  0  0  0  0  0  0  0  # atno 17370 bound_to 10713
  156.6226  130.8632  151.3478 LP  0  0  0  0  0  0  0  0  0  0  0  0  # atno 17371 bound_to 10713
  140.2120  134.8820  157.3284 LP  0  0  0  0  0  0  0  0  0  0  0  0  # atno 17394 bound_to 11000
  140.2077  134.4177  155.7629 LP  0  0  0  0  0  0  0  0  0  0  0  0  # atno 17395 bound_to 11000

$$$$
