AV-unprocessed.smi:1403|AV-procd|sdf|5700|dock3
  -GOLD-   22720 5333D 1   1.00000     0.00000
 Structure written by MMmdl.
 36 37  0  0  0  0  0  0  0  0  1 V2000
  151.3244  140.4591  157.6682 C   0  0  0  0  0  0  0  0  0  0  0  0
  151.2076  141.9173  157.1989 C   0  0  1  0  0  0  0  0  0  0  0  0
  150.0116  142.0439  156.3698 N   0  0  0  0  0  0  0  0  0  0  0  0
  149.7160  141.2901  155.2996 C   0  0  0  0  0  0  0  0  0  0  0  0
  150.4214  140.3571  154.9131 O   0  0  0  0  0  0  0  0  0  0  0  0
  148.4132  141.6434  154.5680 C   0  0  0  0  0  0  0  0  0  0  0  0
  147.4804  140.5104  154.4767 N   0  0  0  0  0  0  0  0  0  0  0  0
  147.8232  139.3773  153.7527 C   0  0  0  0  0  0  0  0  0  0  0  0
  147.0076  138.3051  153.6155 C   0  0  0  0  0  0  0  0  0  0  0  0
  145.6902  138.2940  154.2423 C   0  0  0  0  0  0  0  0  0  0  0  0
  144.8814  137.3710  154.1768 O   0  0  0  0  0  0  0  0  0  0  0  0
  145.3812  139.4525  154.9602 N   0  0  0  0  0  0  0  0  0  0  0  0
  146.2165  140.5614  155.1046 C   0  0  0  0  0  0  0  0  0  0  0  0
  145.8438  141.5354  155.7577 O   0  0  0  0  0  0  0  0  0  0  0  0
  151.1294  142.9100  158.3772 C   0  0  1  0  0  0  0  0  0  0  0  0
  152.1977  142.7142  159.4549 C   0  0  0  0  0  0  0  0  0  0  0  0
  152.3422  144.0942  160.0789 C   0  0  0  0  0  0  0  0  0  0  0  0
  151.6243  145.0254  159.0991 C   0  0  0  0  0  0  0  0  0  0  0  0
  151.3975  144.2346  157.9425 O   0  0  0  0  0  0  0  0  0  0  0  0
  144.4778  139.4920  155.4092 H   0  0  0  0  0  0  0  0  0  0  0  0
  152.2320  140.3004  158.2508 H   0  0  0  0  0  0  0  0  0  0  0  0
  151.3626  139.7770  156.8185 H   0  0  0  0  0  0  0  0  0  0  0  0
  150.4751  140.1717  158.2889 H   0  0  0  0  0  0  0  0  0  0  0  0
  152.0946  142.1446  156.6047 H   0  0  0  0  0  0  0  0  0  0  0  0
  149.3696  142.7834  156.6144 H   0  0  0  0  0  0  0  0  0  0  0  0
  147.9468  142.4792  155.0916 H   0  0  0  0  0  0  0  0  0  0  0  0
  148.6405  142.0202  153.5686 H   0  0  0  0  0  0  0  0  0  0  0  0
  148.7880  139.3429  153.2672 H   0  0  0  0  0  0  0  0  0  0  0  0
  147.3313  137.4515  153.0374 H   0  0  0  0  0  0  0  0  0  0  0  0
  150.1369  142.8841  158.8318 H   0  0  0  0  0  0  0  0  0  0  0  0
  151.9238  141.9496  160.1824 H   0  0  0  0  0  0  0  0  0  0  0  0
  153.1447  142.4207  158.9997 H   0  0  0  0  0  0  0  0  0  0  0  0
  151.8789  144.1408  161.0648 H   0  0  0  0  0  0  0  0  0  0  0  0
  153.3939  144.3610  160.1883 H   0  0  0  0  0  0  0  0  0  0  0  0
  150.6646  145.3463  159.5067 H   0  0  0  0  0  0  0  0  0  0  0  0
  152.2079  145.9146  158.8601 H   0  0  0  0  0  0  0  0  0  0  0  0
  1  2  1  0  0  0  0
  1 21  1  0  0  0  0
  1 22  1  0  0  0  0
  1 23  1  0  0  0  0
  2  3  1  0  0  0  0
  2 15  1  0  0  0  0
  2 24  1  0  0  0  0
  3  4  1  0  0  0  0
  3 25  1  0  0  0  0
  4  5  2  0  0  0  0
  4  6  1  0  0  0  0
  6  7  1  0  0  0  0
  6 26  1  0  0  0  0
  6 27  1  0  0  0  0
  7 13  1  0  0  0  0
  7  8  1  0  0  0  0
  8  9  2  0  0  0  0
  8 28  1  0  0  0  0
  9 10  1  0  0  0  0
  9 29  1  0  0  0  0
 10 11  2  0  0  0  0
 10 12  1  0  0  0  0
 12 20  1  0  0  0  0
 12 13  1  0  0  0  0
 13 14  2  0  0  0  0
 15 19  1  0  0  0  0
 15 16  1  0  0  0  0
 15 30  1  0  0  0  0
 16 17  1  0  0  0  0
 16 31  1  0  0  0  0
 16 32  1  0  0  0  0
 17 18  1  0  0  0  0
 17 33  1  0  0  0  0
 17 34  1  0  0  0  0
 18 19  1  0  0  0  0
 18 35  1  0  0  0  0
 18 36  1  0  0  0  0
M  END
> <s_m_source_file>
AV-unprocessed.smi

> <i_m_source_file_index>
1403

> <i_lp_mmshare_version>
43012

> <i_f3d_flags>
0

> <s_epik_input>
TzFbQ0gyXVtDSDJdW0NIMl1bQ0BIXTFbQ0BIXShbQ0gzXSlbTkhdQyg9TylbQ0gyXW4yW2NIXVtjSF1jKD1PKVtuSF1jMj1P

> <s_epik_cmdline>
J2VwaWtfcHl0aG9uJywgJy1waCcsICc3LjAnLCAnLXRuJywgJzgnLCAnLW1hJywgJzIwMCcsICctbWV0YWxfYmluZGluZycsICctaW1hZScsICc8aW5maWxlLm1hZT4nLCAnLW9tYWUnLCAnPG91dGZpbGUubWFlPic=

> <r_lp_tautomer_probability>
0.999537

> <r_epik_Ionization_Penalty>
0.00331407

> <r_epik_Ionization_Penalty_Charging>
0.00331405

> <r_epik_Ionization_Penalty_Neutral>
2.30132e-08

> <r_epik_State_Penalty>
0.00234266

> <r_epik_Charging_Adjusted_Penalty>
0.00565671

> <i_epik_Tot_Q>
0

> <i_epik_Tot_abs_Q>
0

> <r_epik_Metal_State_Penalty>
0.365604

> <b_epik_Metal_Only>
0

> <s_lp_Force_Field>
OPLS_2005

> <r_lp_Energy>
17.8488

> <b_lp_Chiralities_Consistent>
1

> <s_lp_Variant>
AV-unprocessed.smi:1403-4

> <Gold.Version>
5.8.1

> <Gold.Id.Protein>
6NUR|6NUR_protein|mol2

> <Gold.PLP.Fitness>
41.9256

> <Gold.PLP.PLP>
-33.6152

> <Gold.PLP.part.hbond>
-3.0000

> <Gold.PLP.part.metal>
0.0000

> <Gold.PLP.part.buried>
-4.2665

> <Gold.PLP.part.nonpolar>
-25.6042

> <Gold.PLP.part.repulsive>
0.5245

> <Gold.PLP.ligand.clash>
0.0000

> <Gold.PLP.ligand.torsion>
0.2333

> <Gold.PLP.Chemscore.Hbond>
1.9600

> <Gold.PLP.Chemscore.CHOScore>
0.9452

> <Gold.PLP.Chemscore.Metal>
0.0000

> <Gold.Chemscore.Hbonds>
donor molecule, donor type, donor heavy atom, donor atom, acceptor molecule, acceptor atom, score
      L1  H     3    25       P1  8028  0.36
      P1  H  7989  7998       L1     5  1.00
      L1  C     8    28       P1  7957  1.00

> <Gold.PLP.Chemscore.Internal.Correction>
0.0612

> <Gold.Rescore>
     Score         DG    S(hbond)    S(metal)    S(lipo)     H(rot)  DE(clash)    DE(int)     intcor
     13.12     -15.05       1.64        0.00      79.63       2.04       0.14       1.78       ----

> <Gold.Chemscore.Fitness>
13.1212

> <Gold.Chemscore.DG>
-15.0465

> <Gold.Chemscore.ZeroCoef>
-5.4800

> <Gold.Chemscore.Hbond>
1.6381

> <Gold.Chemscore.Metal>
0.0000

> <Gold.Chemscore.Lipo>
79.6267

> <Gold.Chemscore.Internal_Hbond>
0.0000

> <Gold.Chemscore.DEClash>
0.1443

> <Gold.Chemscore.DEInternal>
1.7810

> <Gold.Chemscore.Rot>
2.0395

> <Gold.Chemscore.Internal.Correction>
   9.000000E+99

> <Gold.Chemscore.Hbonds>
donor molecule, donor type, donor heavy atom, donor atom, acceptor molecule, acceptor atom, score
      L1  H     3    25       P1  8028  0.36
      P1  H  7989  7998       L1     5  0.80

> <Gold.Chemscore.Hbond.Weighted>
-5.4713

> <Gold.Chemscore.Metal.Weighted>
-0.0000

> <Gold.Chemscore.Lipo.Weighted>
-9.3163

> <Gold.Chemscore.Internal_Hbond.Weighted>
0.0000

> <Gold.Chemscore.DEClash.Weighted>
0.1443

> <Gold.Chemscore.DEInternal.Weighted>
1.7810

> <Gold.Chemscore.Rot.Weighted>
5.2211

> <Gold.Chemscore.Internal.Correction.Weighted>
   9.000000E+99

> <Gold.Protein.RotatedTorsions>
[ 6907 6896 6895 6894 ] final  145.03 input  -60.11 | X-H torsion
[ 7974 7965 7964 7962 ] final   85.31 input  175.53 | X-H torsion
[ 8008 7997 7996 7995 ] final   59.23 input   59.86 | X-H torsion
[ 10167 10162 10161 10158 ] final  -67.77 input  -65.29 | X-H torsion
[ 10718 10713 10712 10709 ] final -170.14 input   66.30 | X-H torsion
[ 10763 10752 10751 10750 ] final  143.33 input  -60.55 | X-H torsion
[ 11005 11000 10999 10996 ] final  -56.15 input  -57.11 | X-H torsion

> <Gold.Protein.ActiveResidues>
 VAL166  LYS551  ARG553  GLY616  TRP617  ASP618  TYR619  PRO620  LYS621  CYS622 
 ASP623  PHE694  ASN695  SER759  ASP760  ASP761  ALA762  ILE779  LEU786  VAL792 
 PHE793  MET794  SER795  GLU796  ALA797  LYS798  CYS799  TRP800  GLU811  SER814 

> <Gold.Protein.RotatedAtoms>
  152.1861  133.4740  159.4983 H   0  0  0  0  0  0  0  0  0  0  0  0  # atno 6907 bound_to 6896
  150.6943  134.1772  159.4244 H   0  0  0  0  0  0  0  0  0  0  0  0  # atno 6908 bound_to 6896
  151.9685  135.0088  160.0602 H   0  0  0  0  0  0  0  0  0  0  0  0  # atno 6909 bound_to 6896
  145.5872  139.2333  143.2320 H   0  0  0  0  0  0  0  0  0  0  0  0  # atno 7974 bound_to 7965
  155.5629  140.3488  155.4496 H   0  0  0  0  0  0  0  0  0  0  0  0  # atno 8008 bound_to 7997
  156.0501  140.1315  157.0085 H   0  0  0  0  0  0  0  0  0  0  0  0  # atno 8009 bound_to 7997
  154.4430  140.1006  156.6348 H   0  0  0  0  0  0  0  0  0  0  0  0  # atno 8010 bound_to 7997
  140.5558  143.2312  151.6824 H   0  0  0  0  0  0  0  0  0  0  0  0  # atno 10167 bound_to 10162
  156.7219  130.9273  151.3098 H   0  0  0  0  0  0  0  0  0  0  0  0  # atno 10718 bound_to 10713
  153.9705  135.2951  155.3427 H   0  0  0  0  0  0  0  0  0  0  0  0  # atno 10763 bound_to 10752
  154.7325  135.5061  153.8990 H   0  0  0  0  0  0  0  0  0  0  0  0  # atno 10764 bound_to 10752
  153.0902  135.6705  153.9981 H   0  0  0  0  0  0  0  0  0  0  0  0  # atno 10765 bound_to 10752
  141.1107  133.6611  156.4576 H   0  0  0  0  0  0  0  0  0  0  0  0  # atno 11005 bound_to 11000
  146.1674  140.6698  142.9249 LP  0  0  0  0  0  0  0  0  0  0  0  0  # atno 17320 bound_to 7965
  144.7367  140.4829  143.6898 LP  0  0  0  0  0  0  0  0  0  0  0  0  # atno 17321 bound_to 7965
  139.5047  144.3744  152.0438 LP  0  0  0  0  0  0  0  0  0  0  0  0  # atno 17342 bound_to 10162
  140.2865  144.3801  150.6102 LP  0  0  0  0  0  0  0  0  0  0  0  0  # atno 17343 bound_to 10162
  157.6894  130.9218  150.0474 LP  0  0  0  0  0  0  0  0  0  0  0  0  # atno 17370 bound_to 10713
  156.1589  130.3643  149.9329 LP  0  0  0  0  0  0  0  0  0  0  0  0  # atno 17371 bound_to 10713
  140.4783  134.6688  157.5160 LP  0  0  0  0  0  0  0  0  0  0  0  0  # atno 17394 bound_to 11000
  139.9999  134.6853  155.9548 LP  0  0  0  0  0  0  0  0  0  0  0  0  # atno 17395 bound_to 11000

$$$$
