#       Name:                AV-unprocessed.smi:1579
#       Creating user name   scv26
#       Creation time:       Fri Mar 27 06:57:52 2020


#       File generated by GOLD software.
#

@<TRIPOS>MOLECULE
AV-unprocessed.smi:1579
    53    54     1
SMALL
NO_CHARGES


@<TRIPOS>ATOM
      1 ****        -3.1325   1.6461  -3.3933 C.3            1 S1                 0.0000
      2 ****        -3.1272   1.1426  -1.9752 C.2            1 S1                 0.0000
      3 ****        -2.6544  -0.0448  -1.7816 N.2            1 S1                 0.0000
      4 ****        -2.6048  -0.6042  -0.5197 N.am           1 S1                 0.0000
      5 ****        -2.0426  -1.9614  -0.4957 C.3            1 S1                 0.0000
      6 ****        -0.4990  -1.9653  -0.5517 C.3            1 S1                 0.0000
      7 ****        -0.0873  -3.3085  -0.7144 O.3            1 S1                 0.0000
      8 ****         0.1612  -1.3855   0.7197 C.3            1 S1                 0.0000
      9 ****         1.6441  -1.3343   0.6410 N.4            1 S1                 1.0000
     10 ****         2.2699  -1.2923   1.9879 C.3            1 S1                 0.0000
     11 ****         3.8041  -1.3748   1.8963 C.3            1 S1                 0.0000
     12 ****         4.3932  -0.2749   0.9953 C.3            1 S1                 0.0000
     13 ****         4.3651   1.1147   1.6560 C.3            1 S1                 0.0000
     14 ****         3.6826  -0.3003  -0.3699 C.3            1 S1                 0.0000
     15 ****         2.1507  -0.2406  -0.2311 C.3            1 S1                 0.0000
     16 ****        -3.0267   0.0156   0.6199 C.2            1 S1                 0.0000
     17 ****        -2.9459  -0.5109   1.7306 O.2            1 S1                 0.0000
     18 ****        -3.5620   1.3599   0.3939 C.2            1 S1                 0.0000
     19 ****        -4.0140   2.0439   1.5621 C.1            1 S1                 0.0000
     20 ****        -4.3667   2.6132   2.5061 N.1            1 S1                 0.0000
     21 ****        -3.6188   1.9179  -0.8411 C.2            1 S1                 0.0000
     22 ****        -4.1634   3.3105  -1.1278 C.3            1 S1                 0.0000
     23 ****        -4.1456   1.8888  -3.7143 H              1 S1                 0.0000
     24 ****        -2.7360   0.9059  -4.0899 H              1 S1                 0.0000
     25 ****        -2.5233   2.5452  -3.4872 H              1 S1                 0.0000
     26 ****        -2.3899  -2.5279   0.3704 H              1 S1                 0.0000
     27 ****        -2.4355  -2.5037  -1.3583 H              1 S1                 0.0000
     28 ****        -0.1857  -1.4153  -1.4383 H              1 S1                 0.0000
     29 ****         0.8305  -3.3245  -0.9374 H              1 S1                 0.0000
     30 ****        -0.2035  -0.3786   0.9241 H              1 S1                 0.0000
     31 ****        -0.1430  -1.9962   1.5713 H              1 S1                 0.0000
     32 ****         1.9638  -0.3827   2.5067 H              1 S1                 0.0000
     33 ****         1.9076  -2.1299   2.5855 H              1 S1                 0.0000
     34 ****         4.2423  -1.3220   2.8935 H              1 S1                 0.0000
     35 ****         4.0819  -2.3510   1.4962 H              1 S1                 0.0000
     36 ****         5.4439  -0.5146   0.8252 H              1 S1                 0.0000
     37 ****         3.3508   1.4484   1.8733 H              1 S1                 0.0000
     38 ****         4.8260   1.8630   1.0106 H              1 S1                 0.0000
     39 ****         4.9179   1.1108   2.5959 H              1 S1                 0.0000
     40 ****         4.0346   0.5215  -0.9945 H              1 S1                 0.0000
     41 ****         3.9544  -1.2162  -0.8968 H              1 S1                 0.0000
     42 ****         1.7112  -0.3128  -1.2249 H              1 S1                 0.0000
     43 ****         1.8431   0.7244   0.1738 H              1 S1                 0.0000
     44 ****        -4.5059   3.8139  -0.2242 H              1 S1                 0.0000
     45 ****        -5.0103   3.2566  -1.8124 H              1 S1                 0.0000
     46 ****        -3.3946   3.9378  -1.5800 H              1 S1                 0.0000
     47 ****         1.9383  -2.2063   0.2252 H              1 S1                 0.0000
     48 ****        -2.3170  -0.5701  -2.5628 LP             1 S1                 0.0000
     49 ****        -0.6176  -3.7352  -1.4470 LP             1 S1                 0.0000
     50 ****        -0.2337  -3.8096   0.1385 LP             1 S1                 0.0000
     51 ****        -2.5588  -1.4284   1.8220 LP             1 S1                 0.0000
     52 ****        -3.2673  -0.0208   2.5408 LP             1 S1                 0.0000
     53 ****        -4.6714   3.1050   3.3217 LP             1 S1                 0.0000
@<TRIPOS>BOND
    1    1    2 1     
    2    1   23 1     
    3    1   24 1     
    4    1   25 1     
    5    2   21 1     
    6    2    3 2     
    7    3    4 1     
    8    4    5 1     
    9    4   16 am    
   10    5    6 1     
   11    5   26 1     
   12    5   27 1     
   13    6    7 1     
   14    6    8 1     
   15    6   28 1     
   16    7   29 1     
   17    8    9 1     
   18    8   30 1     
   19    8   31 1     
   20    9   15 1     
   21    9   10 1     
   22    9   47 1     
   23   10   11 1     
   24   10   32 1     
   25   10   33 1     
   26   11   12 1     
   27   11   34 1     
   28   11   35 1     
   29   12   13 1     
   30   12   14 1     
   31   12   36 1     
   32   13   37 1     
   33   13   38 1     
   34   13   39 1     
   35   14   15 1     
   36   14   40 1     
   37   14   41 1     
   38   15   42 1     
   39   15   43 1     
   40   16   17 2     
   41   16   18 1     
   42   18   19 1     
   43   18   21 2     
   44   19   20 3     
   45   21   22 1     
   46   22   44 1     
   47   22   45 1     
   48   22   46 1     
   49    3   48 1     
   50    7   49 1     
   51    7   50 1     
   52   17   51 1     
   53   17   52 1     
   54   20   53 1     
@<TRIPOS>SUBSTRUCTURE
      1 S1             1
@<TRIPOS>SET
LONE_PAIRS      STATIC     ATOMS    <user>   **** ""
6 48 49 50 51 52 53
DONOR_HYDROGENS      STATIC     ATOMS    <user>   **** ""
2 29 47
ATOM$BLUE        STATIC     ATOMS    COLORGROUP SYSTEM
6 48 49 50 51 52 53
ATOM$RED        STATIC     ATOMS    COLORGROUP SYSTEM
2 29 47
