AV-unprocessed.smi:314|AV-procd|sdf|2313|dock2
  -GOLD-   2262022213D 1   1.00000     0.00000
 Structure written by MMmdl.
 48 49  0  0  0  0  0  0  0  0  1 V2000
  152.4703  139.1029  153.8701 C   0  0  0  0  0  0  0  0  0  0  0  0
  152.7112  139.2419  155.2660 O   0  0  0  0  0  0  0  0  0  0  0  0
  152.0608  140.2516  155.9454 C   0  0  0  0  0  0  0  0  0  0  0  0
  152.2884  140.3892  157.3288 C   0  0  0  0  0  0  0  0  0  0  0  0
  151.6286  141.4163  158.0304 C   0  0  0  0  0  0  0  0  0  0  0  0
  150.7605  142.2820  157.3216 C   0  0  0  0  0  0  0  0  0  0  0  0
  150.0258  143.3542  157.9006 N   0  0  0  0  0  0  0  0  0  0  0  0
  149.9240  143.7229  159.1895 C   0  0  0  0  0  0  0  0  0  0  0  0
  150.4779  143.1721  160.1400 O   0  0  0  0  0  0  0  0  0  0  0  0
  149.1332  144.7971  159.3213 N   0  0  0  0  0  0  0  0  0  0  0  0
  148.8009  145.4446  160.5853 C   0  0  0  0  0  0  0  0  0  0  0  0
  147.3014  145.3058  160.9222 C   0  0  0  0  0  0  0  0  0  0  0  0
  146.8559  143.8558  161.1809 C   0  0  0  0  0  0  0  0  0  0  0  0
  147.7049  143.0153  161.4827 O   0  0  0  0  0  0  0  0  0  0  0  0
  145.5426  143.5428  161.0674 N   0  0  0  0  0  0  0  0  0  0  0  0
  144.9564  142.2063  161.2028 C   0  0  0  0  0  0  0  0  0  0  0  0
  144.3974  141.7832  159.8295 C   0  0  1  0  0  0  0  0  0  0  0  0
  143.7103  140.4143  159.8777 C   0  0  0  0  0  0  0  0  0  0  0  0
  143.4365  142.7473  159.4005 O   0  0  0  0  0  0  0  0  0  0  0  0
  143.9581  144.0712  159.2903 C   0  0  1  0  0  0  0  0  0  0  0  0
  142.8307  144.9896  158.8066 C   0  0  0  0  0  0  0  0  0  0  0  0
  144.5202  144.5089  160.6576 C   0  0  0  0  0  0  0  0  0  0  0  0
  150.5976  142.0543  155.9392 C   0  0  0  0  0  0  0  0  0  0  0  0
  151.2263  141.0716  155.2608 N   0  0  0  0  0  0  0  0  0  0  0  0
  153.0567  138.2691  153.4843 H   0  0  0  0  0  0  0  0  0  0  0  0
  152.7686  139.9980  153.3226 H   0  0  0  0  0  0  0  0  0  0  0  0
  151.4199  138.8912  153.6650 H   0  0  0  0  0  0  0  0  0  0  0  0
  152.9568  139.7159  157.8451 H   0  0  0  0  0  0  0  0  0  0  0  0
  151.8017  141.5052  159.0905 H   0  0  0  0  0  0  0  0  0  0  0  0
  149.5296  143.9347  157.2403 H   0  0  0  0  0  0  0  0  0  0  0  0
  148.7194  145.1888  158.4880 H   0  0  0  0  0  0  0  0  0  0  0  0
  149.4076  144.9768  161.3617 H   0  0  0  0  0  0  0  0  0  0  0  0
  149.0939  146.4955  160.5497 H   0  0  0  0  0  0  0  0  0  0  0  0
  147.0741  145.9020  161.8067 H   0  0  0  0  0  0  0  0  0  0  0  0
  146.7105  145.7080  160.0985 H   0  0  0  0  0  0  0  0  0  0  0  0
  145.6558  141.4550  161.5655 H   0  0  0  0  0  0  0  0  0  0  0  0
  144.1539  142.2420  161.9414 H   0  0  0  0  0  0  0  0  0  0  0  0
  145.2085  141.7407  159.1002 H   0  0  0  0  0  0  0  0  0  0  0  0
  144.4073  139.6351  160.1871 H   0  0  0  0  0  0  0  0  0  0  0  0
  143.3198  140.1405  158.8973 H   0  0  0  0  0  0  0  0  0  0  0  0
  142.8757  140.4154  160.5794 H   0  0  0  0  0  0  0  0  0  0  0  0
  144.7568  144.0767  158.5461 H   0  0  0  0  0  0  0  0  0  0  0  0
  143.1815  146.0155  158.6925 H   0  0  0  0  0  0  0  0  0  0  0  0
  141.9984  144.9962  159.5109 H   0  0  0  0  0  0  0  0  0  0  0  0
  142.4470  144.6600  157.8410 H   0  0  0  0  0  0  0  0  0  0  0  0
  143.7266  144.5328  161.4060 H   0  0  0  0  0  0  0  0  0  0  0  0
  144.9030  145.5282  160.5926 H   0  0  0  0  0  0  0  0  0  0  0  0
  149.9417  142.6825  155.3543 H   0  0  0  0  0  0  0  0  0  0  0  0
  1  2  1  0  0  0  0
  1 25  1  0  0  0  0
  1 26  1  0  0  0  0
  1 27  1  0  0  0  0
  2  3  1  0  0  0  0
  3 24  1  0  0  0  0
  3  4  2  0  0  0  0
  4  5  1  0  0  0  0
  4 28  1  0  0  0  0
  5  6  2  0  0  0  0
  5 29  1  0  0  0  0
  6  7  1  0  0  0  0
  6 23  1  0  0  0  0
  7  8  1  0  0  0  0
  7 30  1  0  0  0  0
  8  9  2  0  0  0  0
  8 10  1  0  0  0  0
 10 11  1  0  0  0  0
 10 31  1  0  0  0  0
 11 12  1  0  0  0  0
 11 32  1  0  0  0  0
 11 33  1  0  0  0  0
 12 13  1  0  0  0  0
 12 34  1  0  0  0  0
 12 35  1  0  0  0  0
 13 14  2  0  0  0  0
 13 15  1  0  0  0  0
 15 22  1  0  0  0  0
 15 16  1  0  0  0  0
 16 17  1  0  0  0  0
 16 36  1  0  0  0  0
 16 37  1  0  0  0  0
 17 18  1  0  0  0  0
 17 19  1  0  0  0  0
 17 38  1  0  0  0  0
 18 39  1  0  0  0  0
 18 40  1  0  0  0  0
 18 41  1  0  0  0  0
 19 20  1  0  0  0  0
 20 21  1  0  0  0  0
 20 22  1  0  0  0  0
 20 42  1  0  0  0  0
 21 43  1  0  0  0  0
 21 44  1  0  0  0  0
 21 45  1  0  0  0  0
 22 46  1  0  0  0  0
 22 47  1  0  0  0  0
 23 24  2  0  0  0  0
 23 48  1  0  0  0  0
M  END
> <s_m_source_file>
AV-unprocessed.smi

> <i_m_source_file_index>
314

> <i_lp_mmshare_version>
43012

> <i_f3d_flags>
0

> <s_epik_input>
W0NIM11PYzFbY0hdW2NIXWMoW2NIXW4xKVtOSF1DKD1PKVtOSF1bQ0gyXVtDSDJdQyg9TylOMltDSDJdW0NAQEhdKFtDSDNdKU9bQ0BASF0oW0NIM10pW0NIMl0y

> <s_epik_cmdline>
J2VwaWtfcHl0aG9uJywgJy1waCcsICc3LjAnLCAnLXRuJywgJzgnLCAnLW1hJywgJzIwMCcsICctbWV0YWxfYmluZGluZycsICctaW1hZScsICc8aW5maWxlLm1hZT4nLCAnLW9tYWUnLCAnPG91dGZpbGUubWFlPic=

> <r_lp_tautomer_probability>
1

> <r_epik_Ionization_Penalty>
8.55977e-05

> <r_epik_Ionization_Penalty_Charging>
0

> <r_epik_Ionization_Penalty_Neutral>
8.55977e-05

> <r_epik_State_Penalty>
-0

> <r_epik_Charging_Adjusted_Penalty>
0

> <i_epik_Tot_Q>
0

> <i_epik_Tot_abs_Q>
0

> <r_epik_Metal_State_Penalty>
-0

> <b_epik_Metal_Only>
0

> <s_lp_Force_Field>
OPLS_2005

> <r_lp_Energy>
24.2957

> <b_lp_Chiralities_Consistent>
1

> <s_lp_Variant>
AV-unprocessed.smi:314-1

> <Gold.Version>
5.8.1

> <Gold.Id.Protein>
6NUR|6NUR_protein|mol2

> <Gold.PLP.Fitness>
48.8369

> <Gold.PLP.PLP>
-35.1677

> <Gold.PLP.part.hbond>
-5.7549

> <Gold.PLP.part.metal>
0.0000

> <Gold.PLP.part.buried>
-4.1497

> <Gold.PLP.part.nonpolar>
-26.4368

> <Gold.PLP.part.repulsive>
0.4802

> <Gold.PLP.ligand.clash>
0.0000

> <Gold.PLP.ligand.torsion>
0.3250

> <Gold.PLP.Chemscore.Hbond>
3.7661

> <Gold.PLP.Chemscore.CHOScore>
1.0000

> <Gold.PLP.Chemscore.Metal>
0.0000

> <Gold.Chemscore.Hbonds>
donor molecule, donor type, donor heavy atom, donor atom, acceptor molecule, acceptor atom, score
      L1  H     7    30       P1  8028  1.00
      L1  H    10    31       P1  8029  1.00
      P1  H  6934  6946       L1    14  0.03
      P1  H  7989  7998       L1    24  0.61
      P1  H  7997  8009       L1     2  0.09
      L1  C    23    48       P1  8028  1.00

> <Gold.PLP.Chemscore.Internal.Correction>
0.0210

> <Gold.Rescore>
     Score         DG    S(hbond)    S(metal)    S(lipo)     H(rot)  DE(clash)    DE(int)     intcor
     14.99     -17.34       2.64        0.00      65.55       1.81       0.92       1.43       ----

> <Gold.Chemscore.Fitness>
14.9853

> <Gold.Chemscore.DG>
-17.3408

> <Gold.Chemscore.ZeroCoef>
-5.4800

> <Gold.Chemscore.Hbond>
2.6397

> <Gold.Chemscore.Metal>
0.0000

> <Gold.Chemscore.Lipo>
65.5503

> <Gold.Chemscore.Internal_Hbond>
0.0000

> <Gold.Chemscore.DEClash>
0.9206

> <Gold.Chemscore.DEInternal>
1.4350

> <Gold.Chemscore.Rot>
1.8067

> <Gold.Chemscore.Internal.Correction>
   9.000000E+99

> <Gold.Chemscore.Hbonds>
donor molecule, donor type, donor heavy atom, donor atom, acceptor molecule, acceptor atom, score
      L1  H     7    30       P1  8028  0.55
      L1  H    10    31       P1  8029  0.98
      P1  H  6934  6946       L1    14  0.03
      P1  H  7989  7998       L1    24  0.36

> <Gold.Chemscore.Hbond.Weighted>
-8.8166

> <Gold.Chemscore.Metal.Weighted>
-0.0000

> <Gold.Chemscore.Lipo.Weighted>
-7.6694

> <Gold.Chemscore.Internal_Hbond.Weighted>
0.0000

> <Gold.Chemscore.DEClash.Weighted>
0.9206

> <Gold.Chemscore.DEInternal.Weighted>
1.4350

> <Gold.Chemscore.Rot.Weighted>
4.6252

> <Gold.Chemscore.Internal.Correction.Weighted>
   9.000000E+99

> <Gold.Protein.RotatedTorsions>
[ 6907 6896 6895 6894 ] final  171.14 input  -60.11 | X-H torsion
[ 7974 7965 7964 7962 ] final  124.30 input  175.53 | X-H torsion
[ 8008 7997 7996 7995 ] final -147.04 input   59.86 | X-H torsion
[ 10167 10162 10161 10158 ] final -113.79 input  -65.29 | X-H torsion
[ 10718 10713 10712 10709 ] final   48.52 input   66.30 | X-H torsion
[ 10763 10752 10751 10750 ] final  -33.12 input  -60.55 | X-H torsion
[ 11005 11000 10999 10996 ] final  -61.82 input  -57.11 | X-H torsion

> <Gold.Protein.ActiveResidues>
 VAL166  LYS551  ARG553  GLY616  TRP617  ASP618  TYR619  PRO620  LYS621  CYS622 
 ASP623  PHE694  ASN695  SER759  ASP760  ASP761  ALA762  ILE779  LEU786  VAL792 
 PHE793  MET794  SER795  GLU796  ALA797  LYS798  CYS799  TRP800  GLU811  SER814 

> <Gold.Protein.RotatedAtoms>
  151.8049  133.3374  159.3537 H   0  0  0  0  0  0  0  0  0  0  0  0  # atno 6907 bound_to 6896
  150.7346  134.5719  159.5904 H   0  0  0  0  0  0  0  0  0  0  0  0  # atno 6908 bound_to 6896
  152.3116  134.7491  160.0386 H   0  0  0  0  0  0  0  0  0  0  0  0  # atno 6909 bound_to 6896
  145.0860  139.3621  143.4885 H   0  0  0  0  0  0  0  0  0  0  0  0  # atno 7974 bound_to 7965
  155.5691  140.0632  157.2811 H   0  0  0  0  0  0  0  0  0  0  0  0  # atno 8008 bound_to 7997
  154.4366  140.1872  156.0907 H   0  0  0  0  0  0  0  0  0  0  0  0  # atno 8009 bound_to 7997
  156.0390  140.3298  155.7226 H   0  0  0  0  0  0  0  0  0  0  0  0  # atno 8010 bound_to 7997
  140.1080  143.4553  152.1770 H   0  0  0  0  0  0  0  0  0  0  0  0  # atno 10167 bound_to 10162
  157.4695  130.8246  149.7972 H   0  0  0  0  0  0  0  0  0  0  0  0  # atno 10718 bound_to 10713
  153.8251  135.6871  153.4822 H   0  0  0  0  0  0  0  0  0  0  0  0  # atno 10763 bound_to 10752
  153.1545  135.4604  154.9683 H   0  0  0  0  0  0  0  0  0  0  0  0  # atno 10764 bound_to 10752
  154.7911  135.3302  154.7719 H   0  0  0  0  0  0  0  0  0  0  0  0  # atno 10765 bound_to 10752
  141.1338  133.6634  156.5433 H   0  0  0  0  0  0  0  0  0  0  0  0  # atno 11005 bound_to 11000
  146.3531  140.0673  142.8625 LP  0  0  0  0  0  0  0  0  0  0  0  0  # atno 17320 bound_to 7965
  145.1121  140.9411  143.4650 LP  0  0  0  0  0  0  0  0  0  0  0  0  # atno 17321 bound_to 7965
  139.5635  144.7420  151.4089 LP  0  0  0  0  0  0  0  0  0  0  0  0  # atno 17342 bound_to 10162
  140.6941  143.7790  150.7300 LP  0  0  0  0  0  0  0  0  0  0  0  0  # atno 17343 bound_to 10162
  156.0066  130.3852  150.2409 LP  0  0  0  0  0  0  0  0  0  0  0  0  # atno 17370 bound_to 10713
  157.0591  131.0084  151.3228 LP  0  0  0  0  0  0  0  0  0  0  0  0  # atno 17371 bound_to 10713
  140.4122  134.7262  157.4842 LP  0  0  0  0  0  0  0  0  0  0  0  0  # atno 17394 bound_to 11000
  140.0419  134.6255  155.8970 LP  0  0  0  0  0  0  0  0  0  0  0  0  # atno 17395 bound_to 11000

$$$$
