AV-unprocessed.smi:2946|AV-procd|sdf|11281|dock3
  -GOLD-   2272016173D 1   1.00000     0.00000
 Structure written by MMmdl.
 35 36  0  0  0  0  0  0  0  0  1 V2000
  150.6050  142.1561  156.2162 C   0  0  0  0  0  0  0  0  0  0  0  0
  151.0565  140.7830  156.3186 N   0  0  0  0  0  0  0  0  0  0  0  0
  151.7365  140.2508  157.4178 C   0  0  0  0  0  0  0  0  0  0  0  0
  152.0107  141.1027  158.4825 N   0  0  0  0  0  0  0  0  0  0  0  0
  152.7033  140.7533  159.7142 C   0  0  0  0  0  0  0  0  0  0  0  0
  153.1430  141.9994  160.4982 C   0  0  1  0  0  0  0  0  0  0  0  0
  152.0802  143.0909  160.6492 C   0  0  0  0  0  0  0  0  0  0  0  0
  152.5364  143.7819  161.9141 C   0  0  0  0  0  0  0  0  0  0  0  0
  153.0308  142.6051  162.7502 C   0  0  0  0  0  0  0  0  0  0  0  0
  153.5541  141.6602  161.8207 O   0  0  0  0  0  0  0  0  0  0  0  0
  152.1082  138.9403  157.4421 C   0  0  0  0  0  0  0  0  0  0  0  0
  152.7508  138.3267  158.5618 C   0  0  0  0  0  0  0  0  0  0  0  0
  153.2538  137.8270  159.4774 N   0  0  0  0  0  0  0  0  0  0  0  0
  151.8399  138.0379  156.3247 C   0  0  0  0  0  0  0  0  0  0  0  0
  152.1483  136.8438  156.3171 O   0  0  0  0  0  0  0  0  0  0  0  0
  151.1844  138.6342  155.2284 N   0  0  0  0  0  0  0  0  0  0  0  0
  150.8991  137.7707  154.0992 C   0  0  0  0  0  0  0  0  0  0  0  0
  150.7745  139.9834  155.1838 C   0  0  0  0  0  0  0  0  0  0  0  0
  150.1905  140.4523  154.2022 O   0  0  0  0  0  0  0  0  0  0  0  0
  150.7570  142.6811  157.1564 H   0  0  0  0  0  0  0  0  0  0  0  0
  149.5378  142.1417  155.9868 H   0  0  0  0  0  0  0  0  0  0  0  0
  151.1849  142.6288  155.4215 H   0  0  0  0  0  0  0  0  0  0  0  0
  152.1785  142.0625  158.2161 H   0  0  0  0  0  0  0  0  0  0  0  0
  152.0369  140.1432  160.3245 H   0  0  0  0  0  0  0  0  0  0  0  0
  153.5829  140.1475  159.4977 H   0  0  0  0  0  0  0  0  0  0  0  0
  154.0111  142.4368  160.0029 H   0  0  0  0  0  0  0  0  0  0  0  0
  152.0329  143.7595  159.7894 H   0  0  0  0  0  0  0  0  0  0  0  0
  151.0883  142.6653  160.8017 H   0  0  0  0  0  0  0  0  0  0  0  0
  153.3616  144.4605  161.6939 H   0  0  0  0  0  0  0  0  0  0  0  0
  151.7449  144.3505  162.4033 H   0  0  0  0  0  0  0  0  0  0  0  0
  153.7804  142.9000  163.4847 H   0  0  0  0  0  0  0  0  0  0  0  0
  152.1990  142.1430  163.2830 H   0  0  0  0  0  0  0  0  0  0  0  0
  150.5578  138.3428  153.2370 H   0  0  0  0  0  0  0  0  0  0  0  0
  150.1291  137.0683  154.4220 H   0  0  0  0  0  0  0  0  0  0  0  0
  151.8232  137.2543  153.8322 H   0  0  0  0  0  0  0  0  0  0  0  0
  1  2  1  0  0  0  0
  1 20  1  0  0  0  0
  1 21  1  0  0  0  0
  1 22  1  0  0  0  0
  2 18  1  0  0  0  0
  2  3  1  0  0  0  0
  3  4  1  0  0  0  0
  3 11  2  0  0  0  0
  4  5  1  0  0  0  0
  4 23  1  0  0  0  0
  5  6  1  0  0  0  0
  5 24  1  0  0  0  0
  5 25  1  0  0  0  0
  6 10  1  0  0  0  0
  6  7  1  0  0  0  0
  6 26  1  0  0  0  0
  7  8  1  0  0  0  0
  7 27  1  0  0  0  0
  7 28  1  0  0  0  0
  8  9  1  0  0  0  0
  8 29  1  0  0  0  0
  8 30  1  0  0  0  0
  9 10  1  0  0  0  0
  9 31  1  0  0  0  0
  9 32  1  0  0  0  0
 11 12  1  0  0  0  0
 11 14  1  0  0  0  0
 12 13  3  0  0  0  0
 14 15  2  0  0  0  0
 14 16  1  0  0  0  0
 16 17  1  0  0  0  0
 16 18  1  0  0  0  0
 17 33  1  0  0  0  0
 17 34  1  0  0  0  0
 17 35  1  0  0  0  0
 18 19  2  0  0  0  0
M  END
> <s_m_source_file>
AV-unprocessed.smi

> <i_m_source_file_index>
2946

> <i_lp_mmshare_version>
43012

> <i_f3d_flags>
0

> <s_epik_input>
Tz1jMW4oW0NIM10pYyg9TyljKEMjTiljKG4xW0NIM10pW05IXVtDSDJdW0NAQEhdMltDSDJdW0NIMl1bQ0gyXU8y

> <s_epik_cmdline>
J2VwaWtfcHl0aG9uJywgJy1waCcsICc3LjAnLCAnLXRuJywgJzgnLCAnLW1hJywgJzIwMCcsICctbWV0YWxfYmluZGluZycsICctaW1hZScsICc8aW5maWxlLm1hZT4nLCAnLW9tYWUnLCAnPG91dGZpbGUubWFlPic=

> <r_epik_Ionization_Penalty>
0.000541801

> <r_epik_Ionization_Penalty_Charging>
8.97317e-10

> <r_epik_Ionization_Penalty_Neutral>
0.000541801

> <r_epik_State_Penalty>
0.000338907

> <r_epik_Charging_Adjusted_Penalty>
0.000338908

> <i_epik_Tot_Q>
0

> <i_epik_Tot_abs_Q>
0

> <r_epik_Metal_State_Penalty>
-0

> <b_epik_Metal_Only>
0

> <s_lp_Force_Field>
OPLS_2005

> <r_lp_Energy>
39.9681

> <b_lp_Chiralities_Consistent>
1

> <s_lp_Variant>
AV-unprocessed.smi:2946-2

> <Gold.Version>
5.8.1

> <Gold.Id.Protein>
6NUR|6NUR_protein|mol2

> <Gold.PLP.Fitness>
45.8575

> <Gold.PLP.PLP>
-40.2106

> <Gold.PLP.part.hbond>
-2.0000

> <Gold.PLP.part.metal>
0.0000

> <Gold.PLP.part.buried>
-5.3077

> <Gold.PLP.part.nonpolar>
-33.4310

> <Gold.PLP.part.repulsive>
0.2364

> <Gold.PLP.ligand.clash>
9.8971

> <Gold.PLP.ligand.torsion>
0.1768

> <Gold.PLP.Chemscore.Hbond>
2.0000

> <Gold.PLP.Chemscore.CHOScore>
0.0000

> <Gold.PLP.Chemscore.Metal>
0.0000

> <Gold.Chemscore.Hbonds>
donor molecule, donor type, donor heavy atom, donor atom, acceptor molecule, acceptor atom, score
      P1  H  7989  7998       L1    19  0.56
      P1  H 10752 10765       L1    15  0.80

> <Gold.PLP.Chemscore.Internal.Correction>
9.8975

> <Gold.Rescore>
     Score         DG    S(hbond)    S(metal)    S(lipo)     H(rot)  DE(clash)    DE(int)     intcor
     14.48     -17.27       1.90        0.00      74.79       1.29       0.06       2.73       ----

> <Gold.Chemscore.Fitness>
14.4826

> <Gold.Chemscore.DG>
-17.2682

> <Gold.Chemscore.ZeroCoef>
-5.4800

> <Gold.Chemscore.Hbond>
1.9017

> <Gold.Chemscore.Metal>
0.0000

> <Gold.Chemscore.Lipo>
74.7927

> <Gold.Chemscore.Internal_Hbond>
0.0000

> <Gold.Chemscore.DEClash>
0.0589

> <Gold.Chemscore.DEInternal>
2.7268

> <Gold.Chemscore.Rot>
1.2946

> <Gold.Chemscore.Internal.Correction>
   9.000000E+99

> <Gold.Chemscore.Hbonds>
donor molecule, donor type, donor heavy atom, donor atom, acceptor molecule, acceptor atom, score
      P1  H  7989  7998       L1    19  0.05
      P1  H 10752 10765       L1    15  0.77

> <Gold.Chemscore.Hbond.Weighted>
-6.3516

> <Gold.Chemscore.Metal.Weighted>
-0.0000

> <Gold.Chemscore.Lipo.Weighted>
-8.7507

> <Gold.Chemscore.Internal_Hbond.Weighted>
0.0000

> <Gold.Chemscore.DEClash.Weighted>
0.0589

> <Gold.Chemscore.DEInternal.Weighted>
2.7268

> <Gold.Chemscore.Rot.Weighted>
3.3141

> <Gold.Chemscore.Internal.Correction.Weighted>
   9.000000E+99

> <Gold.Protein.RotatedTorsions>
[ 6907 6896 6895 6894 ] final  128.57 input  -60.11 | X-H torsion
[ 7974 7965 7964 7962 ] final -121.63 input  175.53 | X-H torsion
[ 8008 7997 7996 7995 ] final  139.03 input   59.86 | X-H torsion
[ 10167 10162 10161 10158 ] final   53.45 input  -65.29 | X-H torsion
[ 10718 10713 10712 10709 ] final   29.48 input   66.30 | X-H torsion
[ 10763 10752 10751 10750 ] final -142.29 input  -60.55 | X-H torsion
[ 11005 11000 10999 10996 ] final   53.35 input  -57.11 | X-H torsion

> <Gold.Protein.ActiveResidues>
 VAL166  LYS551  ARG553  GLY616  TRP617  ASP618  TYR619  PRO620  LYS621  CYS622 
 ASP623  PHE694  ASN695  SER759  ASP760  ASP761  ALA762  ILE779  LEU786  VAL792 
 PHE793  MET794  SER795  GLU796  ALA797  LYS798  CYS799  TRP800  GLU811  SER814 

> <Gold.Protein.RotatedAtoms>
  152.3707  133.6414  159.6084 H   0  0  0  0  0  0  0  0  0  0  0  0  # atno 6907 bound_to 6896
  150.7666  133.9275  159.3426 H   0  0  0  0  0  0  0  0  0  0  0  0  # atno 6908 bound_to 6896
  151.7099  135.0916  160.0317 H   0  0  0  0  0  0  0  0  0  0  0  0  # atno 6909 bound_to 6896
  145.0382  140.8123  143.4282 H   0  0  0  0  0  0  0  0  0  0  0  0  # atno 7974 bound_to 7965
  156.2993  140.2378  156.4170 H   0  0  0  0  0  0  0  0  0  0  0  0  # atno 8008 bound_to 7997
  154.8389  140.0429  157.1548 H   0  0  0  0  0  0  0  0  0  0  0  0  # atno 8009 bound_to 7997
  154.9124  140.2992  155.5263 H   0  0  0  0  0  0  0  0  0  0  0  0  # atno 8010 bound_to 7997
  140.2406  144.3587  150.6381 H   0  0  0  0  0  0  0  0  0  0  0  0  # atno 10167 bound_to 10162
  157.2471  130.7097  149.6387 H   0  0  0  0  0  0  0  0  0  0  0  0  # atno 10718 bound_to 10713
  154.8514  135.3500  154.6004 H   0  0  0  0  0  0  0  0  0  0  0  0  # atno 10763 bound_to 10752
  153.6613  135.6989  153.5181 H   0  0  0  0  0  0  0  0  0  0  0  0  # atno 10764 bound_to 10752
  153.2816  135.4262  155.1041 H   0  0  0  0  0  0  0  0  0  0  0  0  # atno 10765 bound_to 10752
  140.0774  134.5385  155.8982 H   0  0  0  0  0  0  0  0  0  0  0  0  # atno 11005 bound_to 11000
  145.1682  139.2419  143.5356 LP  0  0  0  0  0  0  0  0  0  0  0  0  # atno 17320 bound_to 7965
  146.3506  140.1426  142.8594 LP  0  0  0  0  0  0  0  0  0  0  0  0  # atno 17321 bound_to 7965
  140.6116  143.2170  151.6874 LP  0  0  0  0  0  0  0  0  0  0  0  0  # atno 17342 bound_to 10162
  139.5078  144.3632  152.0542 LP  0  0  0  0  0  0  0  0  0  0  0  0  # atno 17343 bound_to 10162
  155.9667  130.4439  150.5442 LP  0  0  0  0  0  0  0  0  0  0  0  0  # atno 17370 bound_to 10713
  157.3318  131.0701  151.1855 LP  0  0  0  0  0  0  0  0  0  0  0  0  # atno 17371 bound_to 10713
  141.2034  133.6632  156.6064 LP  0  0  0  0  0  0  0  0  0  0  0  0  # atno 17394 bound_to 11000
  140.3537  134.7747  157.4485 LP  0  0  0  0  0  0  0  0  0  0  0  0  # atno 17395 bound_to 11000

$$$$
