AV-unprocessed.smi:2936|AV-procd|sdf|11257|dock9
  -GOLD-   2272016153D 1   1.00000     0.00000
 Structure written by MMmdl.
 23 24  0  0  0  0  0  0  0  0  2 V2000
  151.5372  136.6453  155.3371 O   0  0  0  0  0  0  0  0  0  0  0  0
  151.6124  137.0700  156.4889 C   0  0  0  0  0  0  0  0  0  0  0  0
  151.4267  136.2606  157.5762 N   0  5  0  0  0  0  0  0  0  0  0  0
  151.5257  136.8042  158.9130 N   0  0  0  0  0  0  0  0  0  0  0  0
  151.7845  138.0378  159.1007 C   0  0  0  0  0  0  0  0  0  0  0  0
  151.9978  138.9812  157.9826 C   0  0  0  0  0  0  0  0  0  0  0  0
  152.2754  140.3129  158.2521 N   0  0  0  0  0  0  0  0  0  0  0  0
  153.2557  140.7441  159.2372 C   0  0  0  0  0  0  0  0  0  0  0  0
  152.6074  141.7096  160.2452 C   0  0  0  0  0  0  0  0  0  0  0  0
  152.0102  142.7991  159.5466 O   0  0  0  0  0  0  0  0  0  0  0  0
  150.9921  142.3687  158.6465 C   0  0  0  0  0  0  0  0  0  0  0  0
  151.5994  141.4219  157.5963 C   0  0  0  0  0  0  0  0  0  0  0  0
  151.9100  138.4891  156.7199 C   0  0  0  0  0  0  0  0  0  0  0  0
  152.1467  139.5130  155.3423 Cl  0  0  0  0  0  0  0  0  0  0  0  0
  151.8622  138.4646  160.1042 H   0  0  0  0  0  0  0  0  0  0  0  0
  153.6705  139.8791  159.7561 H   0  0  0  0  0  0  0  0  0  0  0  0
  154.0824  141.2343  158.7217 H   0  0  0  0  0  0  0  0  0  0  0  0
  151.8587  141.1986  160.8516 H   0  0  0  0  0  0  0  0  0  0  0  0
  153.3602  142.0973  160.9311 H   0  0  0  0  0  0  0  0  0  0  0  0
  150.1883  141.8789  159.1974 H   0  0  0  0  0  0  0  0  0  0  0  0
  150.5573  143.2411  158.1590 H   0  0  0  0  0  0  0  0  0  0  0  0
  152.3184  141.9566  156.9747 H   0  0  0  0  0  0  0  0  0  0  0  0
  150.8203  141.0455  156.9324 H   0  0  0  0  0  0  0  0  0  0  0  0
  1  2  2  0  0  0  0
  2 13  1  0  0  0  0
  2  3  1  0  0  0  0
  3  4  1  0  0  0  0
  4  5  2  0  0  0  0
  5  6  1  0  0  0  0
  5 15  1  0  0  0  0
  6  7  1  0  0  0  0
  6 13  2  0  0  0  0
  7 12  1  0  0  0  0
  7  8  1  0  0  0  0
  8  9  1  0  0  0  0
  8 16  1  0  0  0  0
  8 17  1  0  0  0  0
  9 10  1  0  0  0  0
  9 18  1  0  0  0  0
  9 19  1  0  0  0  0
 10 11  1  0  0  0  0
 11 12  1  0  0  0  0
 11 20  1  0  0  0  0
 11 21  1  0  0  0  0
 12 22  1  0  0  0  0
 12 23  1  0  0  0  0
 13 14  1  0  0  0  0
M  CHG  1   3  -1
M  END
> <s_m_source_file>
AV-unprocessed.smi

> <i_m_source_file_index>
2936

> <i_lp_mmshare_version>
43012

> <i_f3d_flags>
0

> <s_epik_input>
Tz1jMVtuSF1uW2NIXWMoYzFDbClOMltDSDJdW0NIMl1PW0NIMl1bQ0gyXTI=

> <s_epik_cmdline>
J2VwaWtfcHl0aG9uJywgJy1waCcsICc3LjAnLCAnLXRuJywgJzgnLCAnLW1hJywgJzIwMCcsICctbWV0YWxfYmluZGluZycsICctaW1hZScsICc8aW5maWxlLm1hZT4nLCAnLW9tYWUnLCAnPG91dGZpbGUubWFlPic=

> <r_lp_tautomer_probability>
1

> <r_epik_Ionization_Penalty>
2.40826

> <r_epik_Ionization_Penalty_Charging>
0.00182709

> <r_epik_Ionization_Penalty_Neutral>
2.40643

> <r_epik_State_Penalty>
0.0371983

> <r_epik_Charging_Adjusted_Penalty>
0.0390254

> <i_epik_Tot_Q>
-1

> <i_epik_Tot_abs_Q>
1

> <r_epik_Metal_State_Penalty>
0.000698467

> <b_epik_Metal_Only>
0

> <s_lp_Force_Field>
OPLS_2005

> <r_lp_Energy>
40.7518

> <b_lp_Chiralities_Consistent>
1

> <s_lp_Variant>
AV-unprocessed.smi:2936-1

> <Gold.Version>
5.8.1

> <Gold.Id.Protein>
6NUR|6NUR_protein|mol2

> <Gold.PLP.Fitness>
28.5437

> <Gold.PLP.PLP>
-22.9673

> <Gold.PLP.part.hbond>
-2.8294

> <Gold.PLP.part.metal>
0.0000

> <Gold.PLP.part.buried>
-3.9224

> <Gold.PLP.part.nonpolar>
-16.1269

> <Gold.PLP.part.repulsive>
0.0819

> <Gold.PLP.ligand.clash>
0.0000

> <Gold.PLP.ligand.torsion>
0.8095

> <Gold.PLP.Chemscore.Hbond>
1.8640

> <Gold.PLP.Chemscore.CHOScore>
0.0000

> <Gold.PLP.Chemscore.Metal>
0.0000

> <Gold.Chemscore.Hbonds>
donor molecule, donor type, donor heavy atom, donor atom, acceptor molecule, acceptor atom, score
      P1  H  6896  6907       L1     4  0.91
      P1  H 10752 10765       L1     1  0.99

> <Gold.PLP.Chemscore.Internal.Correction>
1.6033

> <Gold.Rescore>
     Score         DG    S(hbond)    S(metal)    S(lipo)     H(rot)  DE(clash)    DE(int)     intcor
     15.96     -16.97       1.59        0.00      52.70       0.00       0.03       0.99       ----

> <Gold.Chemscore.Fitness>
15.9621

> <Gold.Chemscore.DG>
-16.9732

> <Gold.Chemscore.ZeroCoef>
-5.4800

> <Gold.Chemscore.Hbond>
1.5950

> <Gold.Chemscore.Metal>
0.0000

> <Gold.Chemscore.Lipo>
52.7007

> <Gold.Chemscore.Internal_Hbond>
0.0000

> <Gold.Chemscore.DEClash>
0.0251

> <Gold.Chemscore.DEInternal>
0.9860

> <Gold.Chemscore.Rot>
0.0000

> <Gold.Chemscore.Internal.Correction>
   9.000000E+99

> <Gold.Chemscore.Hbonds>
donor molecule, donor type, donor heavy atom, donor atom, acceptor molecule, acceptor atom, score
      P1  H  6896  6907       L1     4  0.23
      P1  H 10752 10765       L1     1  0.64

> <Gold.Chemscore.Hbond.Weighted>
-5.3272

> <Gold.Chemscore.Metal.Weighted>
-0.0000

> <Gold.Chemscore.Lipo.Weighted>
-6.1660

> <Gold.Chemscore.Internal_Hbond.Weighted>
0.0000

> <Gold.Chemscore.DEClash.Weighted>
0.0251

> <Gold.Chemscore.DEInternal.Weighted>
0.9860

> <Gold.Chemscore.Rot.Weighted>
0.0000

> <Gold.Chemscore.Internal.Correction.Weighted>
   9.000000E+99

> <Gold.Protein.RotatedTorsions>
[ 6907 6896 6895 6894 ] final   -1.40 input  -60.11 | X-H torsion
[ 7974 7965 7964 7962 ] final -131.43 input  175.53 | X-H torsion
[ 8008 7997 7996 7995 ] final -169.88 input   59.86 | X-H torsion
[ 10167 10162 10161 10158 ] final -171.44 input  -65.29 | X-H torsion
[ 10718 10713 10712 10709 ] final -148.10 input   66.30 | X-H torsion
[ 10763 10752 10751 10750 ] final -153.26 input  -60.55 | X-H torsion
[ 11005 11000 10999 10996 ] final  -47.68 input  -57.11 | X-H torsion

> <Gold.Protein.ActiveResidues>
 VAL166  LYS551  ARG553  GLY616  TRP617  ASP618  TYR619  PRO620  LYS621  CYS622 
 ASP623  PHE694  ASN695  SER759  ASP760  ASP761  ALA762  ILE779  LEU786  VAL792 
 PHE793  MET794  SER795  GLU796  ALA797  LYS798  CYS799  TRP800  GLU811  SER814 

> <Gold.Protein.RotatedAtoms>
  151.5466  135.1068  159.9939 H   0  0  0  0  0  0  0  0  0  0  0  0  # atno 6907 bound_to 6896
  152.4511  133.7626  159.6766 H   0  0  0  0  0  0  0  0  0  0  0  0  # atno 6908 bound_to 6896
  150.8439  133.7825  159.3074 H   0  0  0  0  0  0  0  0  0  0  0  0  # atno 6909 bound_to 6896
  144.9380  140.7206  143.4864 H   0  0  0  0  0  0  0  0  0  0  0  0  # atno 7974 bound_to 7965
  155.9109  140.1057  157.1280 H   0  0  0  0  0  0  0  0  0  0  0  0  # atno 8008 bound_to 7997
  154.4039  140.1274  156.4620 H   0  0  0  0  0  0  0  0  0  0  0  0  # atno 8009 bound_to 7997
  155.7311  140.3468  155.5062 H   0  0  0  0  0  0  0  0  0  0  0  0  # atno 8010 bound_to 7997
  139.5802  144.1440  152.1505 H   0  0  0  0  0  0  0  0  0  0  0  0  # atno 10167 bound_to 10162
  156.4160  130.8005  151.2225 H   0  0  0  0  0  0  0  0  0  0  0  0  # atno 10718 bound_to 10713
  154.7939  135.3217  154.7712 H   0  0  0  0  0  0  0  0  0  0  0  0  # atno 10763 bound_to 10752
  153.8395  135.6872  153.4809 H   0  0  0  0  0  0  0  0  0  0  0  0  # atno 10764 bound_to 10752
  153.1622  135.4656  154.9729 H   0  0  0  0  0  0  0  0  0  0  0  0  # atno 10765 bound_to 10752
  141.0655  133.6695  156.3332 H   0  0  0  0  0  0  0  0  0  0  0  0  # atno 11005 bound_to 11000
  145.3036  139.1842  143.4676 LP  0  0  0  0  0  0  0  0  0  0  0  0  # atno 17320 bound_to 7965
  146.3274  140.3030  142.8622 LP  0  0  0  0  0  0  0  0  0  0  0  0  # atno 17321 bound_to 7965
  140.0991  144.5555  150.7001 LP  0  0  0  0  0  0  0  0  0  0  0  0  # atno 17342 bound_to 10162
  140.7081  143.2483  151.4664 LP  0  0  0  0  0  0  0  0  0  0  0  0  # atno 17343 bound_to 10162
  157.7508  131.0243  150.3870 LP  0  0  0  0  0  0  0  0  0  0  0  0  # atno 17370 bound_to 10713
  156.4178  130.3947  149.6846 LP  0  0  0  0  0  0  0  0  0  0  0  0  # atno 17371 bound_to 10713
  140.5781  134.5773  157.5473 LP  0  0  0  0  0  0  0  0  0  0  0  0  # atno 17394 bound_to 11000
  139.9472  134.7680  156.0533 LP  0  0  0  0  0  0  0  0  0  0  0  0  # atno 17395 bound_to 11000

$$$$
