AV-unprocessed.smi:2226|AV-procd|sdf|9006|dock2
  -GOLD-   2272012213D 1   1.00000     0.00000
 Structure written by MMmdl.
 41 43  0  0  0  0  0  0  0  0  3 V2000
  145.8339  143.1598  154.5370 C   0  0  0  0  0  0  0  0  0  0  0  0
  147.0014  142.3913  155.0301 N   0  3  2  0  0  0  0  0  0  0  0  0
  147.9224  141.9070  153.9732 C   0  0  1  0  0  0  0  0  0  0  0  0
  149.2761  141.5361  154.6239 C   0  0  0  0  0  0  0  0  0  0  0  0
  149.1540  140.5565  155.8097 C   0  0  0  0  0  0  0  0  0  0  0  0
  147.9577  140.8830  156.7276 C   0  0  0  0  0  0  0  0  0  0  0  0
  146.6735  141.2884  155.9662 C   0  0  2  0  0  0  0  0  0  0  0  0
  145.9534  140.1250  155.2374 C   0  0  0  0  0  0  0  0  0  0  0  0
  146.6722  139.6219  153.9644 C   0  0  1  0  0  0  0  0  0  0  0  0
  145.7307  138.8638  153.1390 N   0  0  0  0  0  0  0  0  0  0  0  0
  145.7481  137.5344  152.9480 C   0  0  0  0  0  0  0  0  0  0  0  0
  146.5771  136.7794  153.4564 O   0  0  0  0  0  0  0  0  0  0  0  0
  144.7542  137.1360  152.1385 N   0  0  0  0  0  0  0  0  0  0  0  0
  144.4995  135.8023  151.7419 C   0  0  0  0  0  0  0  0  0  0  0  0
  144.8598  135.2927  150.5650 N   0  3  0  0  0  0  0  0  0  0  0  0
  144.4590  133.9807  150.5117 C   0  0  0  0  0  0  0  0  0  0  0  0
  143.8414  133.7297  151.7134 C   0  0  0  0  0  0  0  0  0  0  0  0
  143.8590  134.8656  152.4978 O   0  0  0  0  0  0  0  0  0  0  0  0
  147.2727  140.7784  153.1323 C   0  0  0  0  0  0  0  0  0  0  0  0
  145.1648  142.5519  153.9289 H   0  0  0  0  0  0  0  0  0  0  0  0
  146.1642  144.0055  153.9335 H   0  0  0  0  0  0  0  0  0  0  0  0
  145.2608  143.5580  155.3748 H   0  0  0  0  0  0  0  0  0  0  0  0
  148.1233  142.7405  153.2982 H   0  0  0  0  0  0  0  0  0  0  0  0
  149.9619  141.1354  153.8766 H   0  0  0  0  0  0  0  0  0  0  0  0
  149.7394  142.4536  154.9896 H   0  0  0  0  0  0  0  0  0  0  0  0
  149.0894  139.5330  155.4514 H   0  0  0  0  0  0  0  0  0  0  0  0
  150.0749  140.5791  156.3938 H   0  0  0  0  0  0  0  0  0  0  0  0
  147.7575  140.0435  157.3942 H   0  0  0  0  0  0  0  0  0  0  0  0
  148.2446  141.7132  157.3746 H   0  0  0  0  0  0  0  0  0  0  0  0
  145.9825  141.6801  156.7143 H   0  0  0  0  0  0  0  0  0  0  0  0
  145.7987  139.2937  155.9262 H   0  0  0  0  0  0  0  0  0  0  0  0
  144.9522  140.4640  154.9683 H   0  0  0  0  0  0  0  0  0  0  0  0
  147.4813  138.9632  154.2669 H   0  0  0  0  0  0  0  0  0  0  0  0
  145.0085  139.3974  152.6770 H   0  0  0  0  0  0  0  0  0  0  0  0
  145.3476  135.7580  149.8096 H   0  0  0  0  0  0  0  0  0  0  0  0
  144.6490  133.3683  149.6418 H   0  0  0  0  0  0  0  0  0  0  0  0
  143.3682  132.8578  152.1415 H   0  0  0  0  0  0  0  0  0  0  0  0
  146.4846  141.2230  152.5230 H   0  0  0  0  0  0  0  0  0  0  0  0
  147.9966  140.3822  152.4191 H   0  0  0  0  0  0  0  0  0  0  0  0
  147.5346  143.0576  155.5711 H   0  0  0  0  0  0  0  0  0  0  0  0
  144.1295  137.8410  151.7764 H   0  0  0  0  0  0  0  0  0  0  0  0
  1  2  1  0  0  0  0
  1 20  1  0  0  0  0
  1 21  1  0  0  0  0
  1 22  1  0  0  0  0
  2  7  1  0  0  0  0
  2  3  1  0  0  0  0
  2 40  1  0  0  0  0
  3 19  1  0  0  0  0
  3  4  1  0  0  0  0
  3 23  1  0  0  0  0
  4  5  1  0  0  0  0
  4 24  1  0  0  0  0
  4 25  1  0  0  0  0
  5  6  1  0  0  0  0
  5 26  1  0  0  0  0
  5 27  1  0  0  0  0
  6  7  1  0  0  0  0
  6 28  1  0  0  0  0
  6 29  1  0  0  0  0
  7  8  1  0  0  0  0
  7 30  1  0  0  0  0
  8  9  1  0  0  0  0
  8 31  1  0  0  0  0
  8 32  1  0  0  0  0
  9 10  1  0  0  0  0
  9 19  1  0  0  0  0
  9 33  1  0  0  0  0
 10 34  1  0  0  0  0
 10 11  1  0  0  0  0
 11 13  1  0  0  0  0
 11 12  2  0  0  0  0
 13 14  1  0  0  0  0
 13 41  1  0  0  0  0
 14 18  1  0  0  0  0
 14 15  2  0  0  0  0
 15 35  1  0  0  0  0
 15 16  1  0  0  0  0
 16 36  1  0  0  0  0
 16 17  2  0  0  0  0
 17 37  1  0  0  0  0
 17 18  1  0  0  0  0
 19 38  1  0  0  0  0
 19 39  1  0  0  0  0
M  CHG  1   2   1
M  CHG  1  15   1
M  END
> <s_m_source_file>
AV-unprocessed.smi

> <i_m_source_file_index>
2226

> <i_lp_mmshare_version>
43012

> <i_f3d_flags>
0

> <s_epik_input>
W0NIMl0xW0NIMl1bQ0gyXVtDQEhdKE4oW0NIM10pW0NIXTEyKVtDSDJdW0NASF0oW0NIMl0yKVtOSF1DKD1PKVtOSF1jM25bY0hdW2NIXW8z

> <s_epik_cmdline>
J2VwaWtfcHl0aG9uJywgJy1waCcsICc3LjAnLCAnLXRuJywgJzgnLCAnLW1hJywgJzIwMCcsICctbWV0YWxfYmluZGluZycsICctaW1hZScsICc8aW5maWxlLm1hZT4nLCAnLW9tYWUnLCAnPG91dGZpbGUubWFlPic=

> <r_epik_Ionization_Penalty>
6.92532

> <r_epik_Ionization_Penalty_Charging>
6.82059

> <r_epik_Ionization_Penalty_Neutral>
0.104727

> <r_epik_State_Penalty>
2.17671

> <r_epik_Charging_Adjusted_Penalty>
8.99731

> <i_epik_Tot_Q>
2

> <i_epik_Tot_abs_Q>
2

> <r_epik_Metal_State_Penalty>
2.20618

> <b_epik_Metal_Only>
0

> <s_lp_Force_Field>
OPLS_2005

> <r_lp_Energy>
47.1954

> <b_lp_Chiralities_Consistent>
1

> <s_lp_Variant>
AV-unprocessed.smi:2226-6

> <Gold.Version>
5.8.1

> <Gold.Id.Protein>
6NUR|6NUR_protein|mol2

> <Gold.PLP.Fitness>
39.8393

> <Gold.PLP.PLP>
-27.3939

> <Gold.PLP.part.hbond>
-3.0000

> <Gold.PLP.part.metal>
0.0000

> <Gold.PLP.part.buried>
-4.9121

> <Gold.PLP.part.nonpolar>
-21.2508

> <Gold.PLP.part.repulsive>
0.3659

> <Gold.PLP.ligand.clash>
0.0000

> <Gold.PLP.ligand.torsion>
0.8056

> <Gold.PLP.Chemscore.Hbond>
3.6859

> <Gold.PLP.Chemscore.CHOScore>
0.9975

> <Gold.PLP.Chemscore.Metal>
0.0000

> <Gold.Chemscore.Hbonds>
donor molecule, donor type, donor heavy atom, donor atom, acceptor molecule, acceptor atom, score
      L1  H     2    40       P1  8028  1.58
      L1  H    10    34       P1 10175  1.00
      L1  H    13    41       P1 10171  0.51
      L1  C    17    37       P1 10957  0.02

> <Gold.PLP.Chemscore.Internal.Correction>
0.0066

> <Gold.Rescore>
     Score         DG    S(hbond)    S(metal)    S(lipo)     H(rot)  DE(clash)    DE(int)     intcor
     15.52     -16.28       2.11        0.00      54.04       1.00       0.01       0.75       ----

> <Gold.Chemscore.Fitness>
15.5181

> <Gold.Chemscore.DG>
-16.2782

> <Gold.Chemscore.ZeroCoef>
-5.4800

> <Gold.Chemscore.Hbond>
2.1064

> <Gold.Chemscore.Metal>
0.0000

> <Gold.Chemscore.Lipo>
54.0423

> <Gold.Chemscore.Internal_Hbond>
0.0000

> <Gold.Chemscore.DEClash>
0.0141

> <Gold.Chemscore.DEInternal>
0.7461

> <Gold.Chemscore.Rot>
1.0000

> <Gold.Chemscore.Internal.Correction>
   9.000000E+99

> <Gold.Chemscore.Hbonds>
donor molecule, donor type, donor heavy atom, donor atom, acceptor molecule, acceptor atom, score
      L1  H     2    40       P1  8028  0.19
      L1  H    10    34       P1 10175  1.00
      L1  H    13    41       P1 10171  0.50
      L1  H    15    35       P1  7921  0.01

> <Gold.Chemscore.Hbond.Weighted>
-7.0353

> <Gold.Chemscore.Metal.Weighted>
-0.0000

> <Gold.Chemscore.Lipo.Weighted>
-6.3229

> <Gold.Chemscore.Internal_Hbond.Weighted>
0.0000

> <Gold.Chemscore.DEClash.Weighted>
0.0141

> <Gold.Chemscore.DEInternal.Weighted>
0.7461

> <Gold.Chemscore.Rot.Weighted>
2.5600

> <Gold.Chemscore.Internal.Correction.Weighted>
   9.000000E+99

> <Gold.Protein.RotatedTorsions>
[ 6907 6896 6895 6894 ] final -169.09 input  -60.11 | X-H torsion
[ 7974 7965 7964 7962 ] final  157.38 input  175.53 | X-H torsion
[ 8008 7997 7996 7995 ] final  141.57 input   59.86 | X-H torsion
[ 10167 10162 10161 10158 ] final   87.66 input  -65.29 | X-H torsion
[ 10718 10713 10712 10709 ] final -163.32 input   66.30 | X-H torsion
[ 10763 10752 10751 10750 ] final -119.66 input  -60.55 | X-H torsion
[ 11005 11000 10999 10996 ] final   21.05 input  -57.11 | X-H torsion

> <Gold.Protein.ActiveResidues>
 VAL166  LYS551  ARG553  GLY616  TRP617  ASP618  TYR619  PRO620  LYS621  CYS622 
 ASP623  PHE694  ASN695  SER759  ASP760  ASP761  ALA762  ILE779  LEU786  VAL792 
 PHE793  MET794  SER795  GLU796  ALA797  LYS798  CYS799  TRP800  GLU811  SER814 

> <Gold.Protein.RotatedAtoms>
  151.4861  133.3535  159.2845 H   0  0  0  0  0  0  0  0  0  0  0  0  # atno 6907 bound_to 6896
  150.8865  134.8266  159.7274 H   0  0  0  0  0  0  0  0  0  0  0  0  # atno 6908 bound_to 6896
  152.4796  134.4765  159.9704 H   0  0  0  0  0  0  0  0  0  0  0  0  # atno 6909 bound_to 6896
  144.7907  139.7333  143.6222 H   0  0  0  0  0  0  0  0  0  0  0  0  # atno 7974 bound_to 7965
  156.2963  140.2311  156.4587 H   0  0  0  0  0  0  0  0  0  0  0  0  # atno 8008 bound_to 7997
  154.8037  140.0447  157.1313 H   0  0  0  0  0  0  0  0  0  0  0  0  # atno 8009 bound_to 7997
  154.9503  140.3041  155.5082 H   0  0  0  0  0  0  0  0  0  0  0  0  # atno 8010 bound_to 7997
  139.8751  144.6471  150.8905 H   0  0  0  0  0  0  0  0  0  0  0  0  # atno 10167 bound_to 10162
  156.6230  130.8898  151.2961 H   0  0  0  0  0  0  0  0  0  0  0  0  # atno 10718 bound_to 10713
  154.8623  135.4230  154.2334 H   0  0  0  0  0  0  0  0  0  0  0  0  # atno 10763 bound_to 10752
  153.3314  135.6988  153.6950 H   0  0  0  0  0  0  0  0  0  0  0  0  # atno 10764 bound_to 10752
  153.5965  135.3545  155.2903 H   0  0  0  0  0  0  0  0  0  0  0  0  # atno 10765 bound_to 10752
  140.3959  134.1770  155.7663 H   0  0  0  0  0  0  0  0  0  0  0  0  # atno 11005 bound_to 11000
  146.2157  139.5545  142.9652 LP  0  0  0  0  0  0  0  0  0  0  0  0  # atno 17320 bound_to 7965
  145.5803  141.0383  143.2125 LP  0  0  0  0  0  0  0  0  0  0  0  0  # atno 17321 bound_to 7965
  140.7754  143.3631  151.1789 LP  0  0  0  0  0  0  0  0  0  0  0  0  # atno 17342 bound_to 10162
  139.7247  143.9167  152.2998 LP  0  0  0  0  0  0  0  0  0  0  0  0  # atno 17343 bound_to 10162
  157.7222  130.9574  150.1485 LP  0  0  0  0  0  0  0  0  0  0  0  0  # atno 17370 bound_to 10713
  156.2296  130.3681  149.8460 LP  0  0  0  0  0  0  0  0  0  0  0  0  # atno 17371 bound_to 10713
  141.1874  133.8281  157.1032 LP  0  0  0  0  0  0  0  0  0  0  0  0  # atno 17394 bound_to 11000
  140.0372  134.9872  157.0893 LP  0  0  0  0  0  0  0  0  0  0  0  0  # atno 17395 bound_to 11000

$$$$
