AV-unprocessed.smi:719|AV-procd|sdf|3493|dock3
  -GOLD-   22720 0483D 1   1.00000     0.00000
 Structure written by MMmdl.
 41 43  0  0  0  0  0  0  0  0  1 V2000
  153.9718  139.4513  160.7331 C   0  0  0  0  0  0  0  0  0  0  0  0
  154.4727  140.8881  160.9165 C   0  0  0  0  0  0  0  0  0  0  0  0
  153.4582  141.9036  160.4803 C   0  0  0  0  0  0  0  0  0  0  0  0
  153.0202  141.9069  159.1529 N   0  0  0  0  0  0  0  0  0  0  0  0
  152.1226  142.8641  158.9081 C   0  0  0  0  0  0  0  0  0  0  0  0
  151.4445  143.0451  157.5885 C   0  0  0  0  0  0  0  0  0  0  0  0
  150.6873  141.7969  157.0965 C   0  0  0  0  0  0  0  0  0  0  0  0
  149.7109  142.1054  156.0542 N   0  0  0  0  0  0  0  0  0  0  0  0
  149.4835  141.3684  154.9554 C   0  0  0  0  0  0  0  0  0  0  0  0
  150.1010  140.3374  154.6887 O   0  0  0  0  0  0  0  0  0  0  0  0
  148.4587  141.9458  154.0382 C   0  0  2  0  0  0  0  0  0  0  0  0
  147.0295  142.1465  154.5169 C   0  0  2  0  0  0  0  0  0  0  0  0
  146.4175  141.5176  155.7530 C   0  0  0  0  0  0  0  0  0  0  0  0
  146.6124  139.9984  155.6195 C   0  0  0  0  0  0  0  0  0  0  0  0
  146.8977  139.7356  154.1314 C   0  0  0  0  0  0  0  0  0  0  0  0
  147.3328  141.0574  153.5279 C   0  0  2  0  0  0  0  0  0  0  0  0
  151.7498  143.8387  160.3220 S   0  0  0  0  0  0  0  0  0  0  0  0
  152.8785  142.8853  161.2500 C   0  0  0  0  0  0  0  0  0  0  0  0
  153.1137  143.1737  162.6954 C   0  0  0  0  0  0  0  0  0  0  0  0
  154.7255  138.7324  161.0543 H   0  0  0  0  0  0  0  0  0  0  0  0
  153.7406  139.2470  159.6872 H   0  0  0  0  0  0  0  0  0  0  0  0
  153.0690  139.2704  161.3173 H   0  0  0  0  0  0  0  0  0  0  0  0
  154.7306  141.0468  161.9644 H   0  0  0  0  0  0  0  0  0  0  0  0
  155.4021  141.0183  160.3614 H   0  0  0  0  0  0  0  0  0  0  0  0
  150.7532  143.8841  157.6695 H   0  0  0  0  0  0  0  0  0  0  0  0
  152.1925  143.3363  156.8498 H   0  0  0  0  0  0  0  0  0  0  0  0
  151.3970  141.0451  156.7472 H   0  0  0  0  0  0  0  0  0  0  0  0
  150.1551  141.3430  157.9325 H   0  0  0  0  0  0  0  0  0  0  0  0
  149.1694  142.9491  156.1745 H   0  0  0  0  0  0  0  0  0  0  0  0
  148.8503  142.6562  153.3128 H   0  0  0  0  0  0  0  0  0  0  0  0
  146.5383  143.0523  154.1670 H   0  0  0  0  0  0  0  0  0  0  0  0
  146.8707  141.9177  156.6603 H   0  0  0  0  0  0  0  0  0  0  0  0
  145.3544  141.7582  155.7747 H   0  0  0  0  0  0  0  0  0  0  0  0
  147.4692  139.6858  156.2171 H   0  0  0  0  0  0  0  0  0  0  0  0
  145.7490  139.4381  155.9791 H   0  0  0  0  0  0  0  0  0  0  0  0
  147.6563  138.9672  153.9812 H   0  0  0  0  0  0  0  0  0  0  0  0
  145.9869  139.4093  153.6284 H   0  0  0  0  0  0  0  0  0  0  0  0
  147.0525  141.2027  152.4865 H   0  0  0  0  0  0  0  0  0  0  0  0
  154.1799  143.2607  162.9047 H   0  0  0  0  0  0  0  0  0  0  0  0
  152.7109  142.3744  163.3173 H   0  0  0  0  0  0  0  0  0  0  0  0
  152.6356  144.1065  162.9952 H   0  0  0  0  0  0  0  0  0  0  0  0
  1  2  1  0  0  0  0
  1 20  1  0  0  0  0
  1 21  1  0  0  0  0
  1 22  1  0  0  0  0
  2  3  1  0  0  0  0
  2 23  1  0  0  0  0
  2 24  1  0  0  0  0
  3 18  2  0  0  0  0
  3  4  1  0  0  0  0
  4  5  2  0  0  0  0
  5  6  1  0  0  0  0
  5 17  1  0  0  0  0
  6  7  1  0  0  0  0
  6 25  1  0  0  0  0
  6 26  1  0  0  0  0
  7  8  1  0  0  0  0
  7 27  1  0  0  0  0
  7 28  1  0  0  0  0
  8  9  1  0  0  0  0
  8 29  1  0  0  0  0
  9 10  2  0  0  0  0
  9 11  1  0  0  0  0
 11 16  1  0  0  0  0
 11 12  1  0  0  0  0
 11 30  1  0  0  0  0
 12 16  1  0  0  0  0
 12 13  1  0  0  0  0
 12 31  1  0  0  0  0
 13 14  1  0  0  0  0
 13 32  1  0  0  0  0
 13 33  1  0  0  0  0
 14 15  1  0  0  0  0
 14 34  1  0  0  0  0
 14 35  1  0  0  0  0
 15 16  1  0  0  0  0
 15 36  1  0  0  0  0
 15 37  1  0  0  0  0
 16 38  1  0  0  0  0
 17 18  1  0  0  0  0
 18 19  1  0  0  0  0
 19 39  1  0  0  0  0
 19 40  1  0  0  0  0
 19 41  1  0  0  0  0
M  END
> <s_m_source_file>
AV-unprocessed.smi

> <i_m_source_file_index>
719

> <i_lp_mmshare_version>
43012

> <i_f3d_flags>
0

> <s_epik_input>
W0NIM11bQ0gyXWMxbmMoc2MxW0NIM10pW0NIMl1bQ0gyXVtOSF1DKD1PKVtDQEhdMltDQEhdKFtDQEBIXTIzKVtDSDJdW0NIMl1bQ0gyXTM=

> <s_epik_cmdline>
J2VwaWtfcHl0aG9uJywgJy1waCcsICc3LjAnLCAnLXRuJywgJzgnLCAnLW1hJywgJzIwMCcsICctbWV0YWxfYmluZGluZycsICctaW1hZScsICc8aW5maWxlLm1hZT4nLCAnLW9tYWUnLCAnPG91dGZpbGUubWFlPic=

> <r_epik_Ionization_Penalty>
0.00247473

> <r_epik_Ionization_Penalty_Charging>
0

> <r_epik_Ionization_Penalty_Neutral>
0.00247473

> <r_epik_State_Penalty>
0.00171502

> <r_epik_Charging_Adjusted_Penalty>
0.00171502

> <i_epik_Tot_Q>
0

> <i_epik_Tot_abs_Q>
0

> <r_epik_Metal_State_Penalty>
-0

> <b_epik_Metal_Only>
0

> <s_lp_Force_Field>
OPLS_2005

> <r_lp_Energy>
22.4904

> <b_lp_Chiralities_Consistent>
1

> <s_lp_Variant>
AV-unprocessed.smi:719-1

> <Gold.Version>
5.8.1

> <Gold.Id.Protein>
6NUR|6NUR_protein|mol2

> <Gold.PLP.Fitness>
49.0876

> <Gold.PLP.PLP>
-43.7352

> <Gold.PLP.part.hbond>
-2.0000

> <Gold.PLP.part.metal>
0.0000

> <Gold.PLP.part.buried>
-3.5617

> <Gold.PLP.part.nonpolar>
-38.1562

> <Gold.PLP.part.repulsive>
0.1988

> <Gold.PLP.ligand.clash>
0.0000

> <Gold.PLP.ligand.torsion>
0.3002

> <Gold.PLP.Chemscore.Hbond>
1.9440

> <Gold.PLP.Chemscore.CHOScore>
0.0000

> <Gold.PLP.Chemscore.Metal>
0.0000

> <Gold.Chemscore.Hbonds>
donor molecule, donor type, donor heavy atom, donor atom, acceptor molecule, acceptor atom, score
      L1  H     8    29       P1  8028  0.96
      P1  H  7989  7998       L1    10  0.99

> <Gold.PLP.Chemscore.Internal.Correction>
0.1208

> <Gold.Rescore>
     Score         DG    S(hbond)    S(metal)    S(lipo)     H(rot)  DE(clash)    DE(int)     intcor
     20.11     -21.69       1.64        0.00     122.78       1.42       1.32       0.26       ----

> <Gold.Chemscore.Fitness>
20.1082

> <Gold.Chemscore.DG>
-21.6867

> <Gold.Chemscore.ZeroCoef>
-5.4800

> <Gold.Chemscore.Hbond>
1.6405

> <Gold.Chemscore.Metal>
0.0000

> <Gold.Chemscore.Lipo>
122.7785

> <Gold.Chemscore.Internal_Hbond>
0.0000

> <Gold.Chemscore.DEClash>
1.3165

> <Gold.Chemscore.DEInternal>
0.2619

> <Gold.Chemscore.Rot>
1.4209

> <Gold.Chemscore.Internal.Correction>
   9.000000E+99

> <Gold.Chemscore.Hbonds>
donor molecule, donor type, donor heavy atom, donor atom, acceptor molecule, acceptor atom, score
      L1  H     8    29       P1  8028  0.92
      P1  H  7989  7998       L1    10  0.50

> <Gold.Chemscore.Hbond.Weighted>
-5.4791

> <Gold.Chemscore.Metal.Weighted>
-0.0000

> <Gold.Chemscore.Lipo.Weighted>
-14.3651

> <Gold.Chemscore.Internal_Hbond.Weighted>
0.0000

> <Gold.Chemscore.DEClash.Weighted>
1.3165

> <Gold.Chemscore.DEInternal.Weighted>
0.2619

> <Gold.Chemscore.Rot.Weighted>
3.6376

> <Gold.Chemscore.Internal.Correction.Weighted>
   9.000000E+99

> <Gold.Protein.RotatedTorsions>
[ 6907 6896 6895 6894 ] final  166.48 input  -60.11 | X-H torsion
[ 7974 7965 7964 7962 ] final  -43.01 input  175.53 | X-H torsion
[ 8008 7997 7996 7995 ] final   64.85 input   59.86 | X-H torsion
[ 10167 10162 10161 10158 ] final   27.67 input  -65.29 | X-H torsion
[ 10718 10713 10712 10709 ] final -157.89 input   66.30 | X-H torsion
[ 10763 10752 10751 10750 ] final  124.23 input  -60.55 | X-H torsion
[ 11005 11000 10999 10996 ] final   59.05 input  -57.11 | X-H torsion

> <Gold.Protein.ActiveResidues>
 VAL166  LYS551  ARG553  GLY616  TRP617  ASP618  TYR619  PRO620  LYS621  CYS622 
 ASP623  PHE694  ASN695  SER759  ASP760  ASP761  ALA762  ILE779  LEU786  VAL792 
 PHE793  MET794  SER795  GLU796  ALA797  LYS798  CYS799  TRP800  GLU811  SER814 

> <Gold.Protein.RotatedAtoms>
  151.8783  133.3490  159.3757 H   0  0  0  0  0  0  0  0  0  0  0  0  # atno 6907 bound_to 6896
  150.7134  134.5044  159.5586 H   0  0  0  0  0  0  0  0  0  0  0  0  # atno 6908 bound_to 6896
  152.2591  134.8054  160.0484 H   0  0  0  0  0  0  0  0  0  0  0  0  # atno 6909 bound_to 6896
  146.0061  140.7019  142.9247 H   0  0  0  0  0  0  0  0  0  0  0  0  # atno 7974 bound_to 7965
  155.6525  140.3497  155.4753 H   0  0  0  0  0  0  0  0  0  0  0  0  # atno 8008 bound_to 7997
  155.9836  140.1179  157.0727 H   0  0  0  0  0  0  0  0  0  0  0  0  # atno 8009 bound_to 7997
  154.4198  140.1133  156.5455 H   0  0  0  0  0  0  0  0  0  0  0  0  # atno 8010 bound_to 7997
  140.4918  144.0454  150.6300 H   0  0  0  0  0  0  0  0  0  0  0  0  # atno 10167 bound_to 10162
  156.5465  130.8586  151.2766 H   0  0  0  0  0  0  0  0  0  0  0  0  # atno 10718 bound_to 10713
  153.6582  135.3351  155.3119 H   0  0  0  0  0  0  0  0  0  0  0  0  # atno 10763 bound_to 10752
  154.8521  135.4357  154.1833 H   0  0  0  0  0  0  0  0  0  0  0  0  # atno 10764 bound_to 10752
  153.2792  135.7007  153.7477 H   0  0  0  0  0  0  0  0  0  0  0  0  # atno 10765 bound_to 10752
  140.0332  134.5981  155.9479 H   0  0  0  0  0  0  0  0  0  0  0  0  # atno 11005 bound_to 11000
  144.6936  140.3316  143.7215 LP  0  0  0  0  0  0  0  0  0  0  0  0  # atno 17320 bound_to 7965
  145.7414  139.1765  143.2374 LP  0  0  0  0  0  0  0  0  0  0  0  0  # atno 17321 bound_to 7965
  140.3726  143.2846  152.0261 LP  0  0  0  0  0  0  0  0  0  0  0  0  # atno 17342 bound_to 10162
  139.4853  144.6218  151.7240 LP  0  0  0  0  0  0  0  0  0  0  0  0  # atno 17343 bound_to 10162
  157.7395  130.9834  150.2321 LP  0  0  0  0  0  0  0  0  0  0  0  0  # atno 17370 bound_to 10713
  156.2923  130.3747  149.7829 LP  0  0  0  0  0  0  0  0  0  0  0  0  # atno 17371 bound_to 10713
  141.1843  133.6552  156.5150 LP  0  0  0  0  0  0  0  0  0  0  0  0  # atno 17394 bound_to 11000
  140.4190  134.7204  157.4879 LP  0  0  0  0  0  0  0  0  0  0  0  0  # atno 17395 bound_to 11000

$$$$
