#       Name:                AV-unprocessed.smi:281
#       Creating user name   scv26
#       Creation time:       Thu Mar 26 21:40:47 2020


#       File generated by GOLD software.
#

@<TRIPOS>MOLECULE
AV-unprocessed.smi:281
    67    71     1
SMALL
NO_CHARGES


@<TRIPOS>ATOM
      1 ****        -4.0320  -1.8606  -3.8887 C.3            1 S1                 0.0000
      2 ****        -3.3837  -1.3407  -2.6018 C.3            1 S1                 0.0000
      3 ****        -1.8510  -1.3498  -2.6866 C.3            1 S1                 0.0000
      4 ****        -1.2793  -0.7686  -1.4762 N.3            1 S1                 0.0000
      5 ****         0.0573  -0.9154  -1.2793 C.ar           1 S1                 0.0000
      6 ****         0.8644  -1.2477  -2.3233 N.ar           1 S1                 0.0000
      7 ****         2.1813  -1.3852  -2.1460 C.ar           1 S1                 0.0000
      8 ****         2.8913  -1.2402  -1.0265 N.ar           1 S1                 0.0000
      9 ****         2.0908  -0.9108   0.0269 C.ar           1 S1                 0.0000
     10 ****         0.6780  -0.7345  -0.0097 C.ar           1 S1                 0.0000
     11 ****         0.2113  -0.4257   1.2625 N.2            1 S1                 0.0000
     12 ****         1.2843  -0.4110   2.0043 C.2            1 S1                 0.0000
     13 ****         2.4597  -0.6792   1.3408 N.pl3          1 S1                 0.0000
     14 ****         3.7953  -0.7288   1.9154 C.3            1 S1                 0.0000
     15 ****         4.5619   0.6169   1.8417 C.3            1 S1                 0.0000
     16 ****         4.6801   1.0293   0.4931 O.3            1 S1                 0.0000
     17 ****         5.9465   0.5211   2.4617 C.3            1 S1                 0.0000
     18 ****         5.6713   0.7702   3.9421 C.3            1 S1                 0.0000
     19 ****         4.5282   1.6186   3.9880 O.3            1 S1                 0.0000
     20 ****         3.9498   1.7392   2.6915 C.3            1 S1                 0.0000
     21 ****        -1.7893   0.5702  -1.1948 C.3            1 S1                 0.0000
     22 ****        -3.3403   0.6123  -1.1930 C.3            1 S1                 0.0000
     23 ****        -3.8312   2.0570  -1.2249 C.3            1 S1                 0.0000
     24 ****        -5.1600   1.9979  -0.4911 C.3            1 S1                 0.0000
     25 ****        -4.8648   1.1123   0.5713 O.3            1 S1                 0.0000
     26 ****        -4.0873   0.0396   0.0505 C.3            1 S1                 0.0000
     27 ****        -3.2281  -0.5301   1.1882 C.3            1 S1                 0.0000
     28 ****        -3.8325  -0.0028  -2.3886 O.3            1 S1                 0.0000
     29 ****        -3.7272  -2.8872  -4.0941 H              1 S1                 0.0000
     30 ****        -3.7514  -1.2497  -4.7472 H              1 S1                 0.0000
     31 ****        -5.1192  -1.8463  -3.8104 H              1 S1                 0.0000
     32 ****        -3.7017  -1.9792  -1.7771 H              1 S1                 0.0000
     33 ****        -1.4984  -2.3743  -2.8130 H              1 S1                 0.0000
     34 ****        -1.5202  -0.7797  -3.5562 H              1 S1                 0.0000
     35 ****         2.7470  -1.6476  -3.0278 H              1 S1                 0.0000
     36 ****         1.2473  -0.1988   3.0630 H              1 S1                 0.0000
     37 ****         3.7042  -1.0610   2.9502 H              1 S1                 0.0000
     38 ****         4.3569  -1.5071   1.3967 H              1 S1                 0.0000
     39 ****         5.1568   1.8449   0.4688 H              1 S1                 0.0000
     40 ****         6.4462  -0.4298   2.2732 H              1 S1                 0.0000
     41 ****         6.5910   1.3157   2.0818 H              1 S1                 0.0000
     42 ****         5.4319  -0.1638   4.4515 H              1 S1                 0.0000
     43 ****         6.5229   1.2221   4.4511 H              1 S1                 0.0000
     44 ****         4.2421   2.7152   2.3006 H              1 S1                 0.0000
     45 ****         2.8618   1.7241   2.7331 H              1 S1                 0.0000
     46 ****        -1.4008   0.9656  -0.2574 H              1 S1                 0.0000
     47 ****        -1.4145   1.2320  -1.9769 H              1 S1                 0.0000
     48 ****        -3.1502   2.7015  -0.6668 H              1 S1                 0.0000
     49 ****        -3.9188   2.4627  -2.2335 H              1 S1                 0.0000
     50 ****        -5.4870   2.9719  -0.1268 H              1 S1                 0.0000
     51 ****        -5.9444   1.5779  -1.1229 H              1 S1                 0.0000
     52 ****        -4.7977  -0.7254  -0.2648 H              1 S1                 0.0000
     53 ****        -2.6285  -1.3753   0.8514 H              1 S1                 0.0000
     54 ****        -3.8583  -0.8846   2.0039 H              1 S1                 0.0000
     55 ****        -2.5591   0.2254   1.5997 H              1 S1                 0.0000
     56 ****        -1.6333  -1.3681  -0.7583 LP             1 S1                 0.0000
     57 ****         0.4685  -1.3902  -3.2305 LP             1 S1                 0.0000
     58 ****         3.8825  -1.3579  -0.9672 LP             1 S1                 0.0000
     59 ****        -0.7325  -0.2539   1.5450 LP             1 S1                 0.0000
     60 ****         3.7701   1.1588   0.0992 LP             1 S1                 0.0000
     61 ****         5.1738   0.3345  -0.0298 LP             1 S1                 0.0000
     62 ****         4.8020   2.5239   4.3126 LP             1 S1                 0.0000
     63 ****         3.8535   1.2295   4.6154 LP             1 S1                 0.0000
     64 ****        -5.7140   0.7568   0.9621 LP             1 S1                 0.0000
     65 ****        -4.3477   1.5930   1.2795 LP             1 S1                 0.0000
     66 ****        -4.8315  -0.0131  -2.3446 LP             1 S1                 0.0000
     67 ****        -3.5389   0.5516  -3.1672 LP             1 S1                 0.0000
@<TRIPOS>BOND
    1    1    2 1     
    2    1   29 1     
    3    1   30 1     
    4    1   31 1     
    5    2   28 1     
    6    2    3 1     
    7    2   32 1     
    8    3    4 1     
    9    3   33 1     
   10    3   34 1     
   11    4    5 1     
   12    4   21 1     
   13    5   10 ar    
   14    5    6 ar    
   15    6    7 ar    
   16    7    8 ar    
   17    7   35 1     
   18    8    9 ar    
   19    9   13 1     
   20    9   10 ar    
   21   10   11 1     
   22   11   12 2     
   23   12   13 1     
   24   12   36 1     
   25   13   14 1     
   26   14   15 1     
   27   14   37 1     
   28   14   38 1     
   29   15   20 1     
   30   15   16 1     
   31   15   17 1     
   32   16   39 1     
   33   17   18 1     
   34   17   40 1     
   35   17   41 1     
   36   18   19 1     
   37   18   42 1     
   38   18   43 1     
   39   19   20 1     
   40   20   44 1     
   41   20   45 1     
   42   21   22 1     
   43   21   46 1     
   44   21   47 1     
   45   22   26 1     
   46   22   23 1     
   47   22   28 1     
   48   23   24 1     
   49   23   48 1     
   50   23   49 1     
   51   24   25 1     
   52   24   50 1     
   53   24   51 1     
   54   25   26 1     
   55   26   27 1     
   56   26   52 1     
   57   27   53 1     
   58   27   54 1     
   59   27   55 1     
   60    4   56 1     
   61    6   57 1     
   62    8   58 1     
   63   11   59 1     
   64   16   60 1     
   65   16   61 1     
   66   19   62 1     
   67   19   63 1     
   68   25   64 1     
   69   25   65 1     
   70   28   66 1     
   71   28   67 1     
@<TRIPOS>SUBSTRUCTURE
      1 S1             1
@<TRIPOS>SET
LONE_PAIRS      STATIC     ATOMS    <user>   **** ""
12 56 57 58 59 60 61 62 63 64 65 66 67
DONOR_HYDROGENS      STATIC     ATOMS    <user>   **** ""
1 39
ATOM$BLUE        STATIC     ATOMS    COLORGROUP SYSTEM
12 56 57 58 59 60 61 62 63 64 65 66 67
ATOM$RED        STATIC     ATOMS    COLORGROUP SYSTEM
1 39
