#       Name:                AV-unprocessed.smi:3219
#       Creating user name   scv26
#       Creation time:       Fri Mar 27 18:13:55 2020


#       File generated by GOLD software.
#

@<TRIPOS>MOLECULE
AV-unprocessed.smi:3219
    42    43     1
SMALL
NO_CHARGES


@<TRIPOS>ATOM
      1 ****        -2.9202  -0.1797  -0.7929 C.3            1 S1                 0.0000
      2 ****        -2.8500   0.1550   0.6626 C.2            1 S1                 0.0000
      3 ****        -2.4012  -0.5757   1.7309 C.2            1 S1                 0.0000
      4 ****        -1.8216  -1.9665   1.7601 C.3            1 S1                 0.0000
      5 ****        -0.2856  -1.9482   1.7445 C.3            1 S1                 0.0000
      6 ****         0.2309  -1.3150   0.5150 N.4            1 S1                 1.0000
      7 ****         1.6982  -1.1675   0.4745 C.3            1 S1                 0.0000
      8 ****         2.1516  -0.4517  -0.8106 C.3            1 S1                 0.0000
      9 ****         1.6311   1.0044  -0.8747 C.3            1 S1                 0.0000
     10 ****         2.2926   1.8152  -1.9749 C.2            1 S1                 0.0000
     11 ****         3.4123   1.4282  -2.6083 C.2            1 S1                 0.0000
     12 ****         4.1462   0.1391  -2.2898 C.3            1 S1                 0.0000
     13 ****         3.6852  -0.4793  -0.9568 C.3            1 S1                 0.0000
     14 ****        -2.5970   0.2950   2.8401 C.2            1 S1                 0.0000
     15 ****        -3.1118   1.4604   2.4930 N.2            1 S1                 0.0000
     16 ****        -3.2704   1.3755   1.1564 N.pl3          1 S1                 0.0000
     17 ****        -3.8251   2.5033   0.4330 C.3            1 S1                 0.0000
     18 ****        -2.4074  -1.1161  -1.0107 H              1 S1                 0.0000
     19 ****        -2.4546   0.6008  -1.3952 H              1 S1                 0.0000
     20 ****        -3.9564  -0.2829  -1.1150 H              1 S1                 0.0000
     21 ****        -2.1552  -2.4943   2.6541 H              1 S1                 0.0000
     22 ****        -2.1863  -2.5610   0.9218 H              1 S1                 0.0000
     23 ****         0.0864  -1.4078   2.6164 H              1 S1                 0.0000
     24 ****         0.0998  -2.9664   1.8099 H              1 S1                 0.0000
     25 ****        -0.0630  -1.8623  -0.2813 H              1 S1                 0.0000
     26 ****         2.0359  -0.6156   1.3531 H              1 S1                 0.0000
     27 ****         2.1470  -2.1603   0.5284 H              1 S1                 0.0000
     28 ****         1.7397  -0.9966  -1.6620 H              1 S1                 0.0000
     29 ****         0.5528   1.0112  -1.0380 H              1 S1                 0.0000
     30 ****         1.8115   1.5187   0.0701 H              1 S1                 0.0000
     31 ****         1.8264   2.7541  -2.2360 H              1 S1                 0.0000
     32 ****         3.8267   2.0441  -3.3930 H              1 S1                 0.0000
     33 ****         3.9749  -0.5589  -3.1100 H              1 S1                 0.0000
     34 ****         5.2186   0.3338  -2.2575 H              1 S1                 0.0000
     35 ****         4.1346   0.0716  -0.1291 H              1 S1                 0.0000
     36 ****         4.0598  -1.5010  -0.8836 H              1 S1                 0.0000
     37 ****        -2.3745   0.1162   3.8819 H              1 S1                 0.0000
     38 ****        -4.7086   2.1852  -0.1209 H              1 S1                 0.0000
     39 ****        -3.0843   2.8890  -0.2678 H              1 S1                 0.0000
     40 ****        -4.1089   3.3014   1.1208 H              1 S1                 0.0000
     41 ****        -0.1792  -0.3945   0.4423 H              1 S1                 0.0000
     42 ****        -3.3342   2.2328   3.0879 LP             1 S1                 0.0000
@<TRIPOS>BOND
    1    1    2 1     
    2    1   18 1     
    3    1   19 1     
    4    1   20 1     
    5    2   16 1     
    6    2    3 2     
    7    3    4 1     
    8    3   14 1     
    9    4    5 1     
   10    4   21 1     
   11    4   22 1     
   12    5    6 1     
   13    5   23 1     
   14    5   24 1     
   15    6    7 1     
   16    6   25 1     
   17    6   41 1     
   18    7    8 1     
   19    7   26 1     
   20    7   27 1     
   21    8   13 1     
   22    8    9 1     
   23    8   28 1     
   24    9   10 1     
   25    9   29 1     
   26    9   30 1     
   27   10   11 2     
   28   10   31 1     
   29   11   12 1     
   30   11   32 1     
   31   12   13 1     
   32   12   33 1     
   33   12   34 1     
   34   13   35 1     
   35   13   36 1     
   36   14   15 2     
   37   14   37 1     
   38   15   16 1     
   39   16   17 1     
   40   17   38 1     
   41   17   39 1     
   42   17   40 1     
   43   15   42 1     
@<TRIPOS>SUBSTRUCTURE
      1 S1             1
@<TRIPOS>SET
LONE_PAIRS      STATIC     ATOMS    <user>   **** ""
1 42
DONOR_HYDROGENS      STATIC     ATOMS    <user>   **** ""
2 25 41
ATOM$BLUE        STATIC     ATOMS    COLORGROUP SYSTEM
1 42
ATOM$RED        STATIC     ATOMS    COLORGROUP SYSTEM
2 25 41
