#       Name:                AV-unprocessed.smi:1005
#       Creating user name   scv26
#       Creation time:       Fri Mar 27 02:31:09 2020


#       File generated by GOLD software.
#

@<TRIPOS>MOLECULE
AV-unprocessed.smi:1005
    62    64     1
SMALL
NO_CHARGES


@<TRIPOS>ATOM
      1 ****        -6.8738   1.6263   2.7850 C.3            1 S1                 0.0000
      2 ****        -5.6530   1.7972   1.8971 C.ar           1 S1                 0.0000
      3 ****        -5.8508   2.0761   0.5257 C.ar           1 S1                 0.0000
      4 ****        -4.7153   2.2249  -0.2617 C.ar           1 S1                 0.0000
      5 ****        -4.5746   2.5015  -1.6234 N.pl3          1 S1                 1.0000
      6 ****        -3.2517   2.5512  -1.9434 C.2            1 S1                 0.0000
      7 ****        -2.5456   2.3040  -0.8060 N.pl3          1 S1                 0.0000
      8 ****        -1.0942   2.2383  -0.5876 C.3            1 S1                 0.0000
      9 ****        -0.5618   0.7928  -0.5228 C.3            1 S1                 0.0000
     10 ****        -0.8676   0.1311  -1.7351 O.3            1 S1                 0.0000
     11 ****         0.9644   0.7547  -0.3085 C.3            1 S1                 0.0000
     12 ****         1.4876  -0.6276  -0.1568 N.4            1 S1                 1.0000
     13 ****         1.2187  -1.2245   1.1746 C.3            1 S1                 0.0000
     14 ****         1.7549  -2.6636   1.2330 C.3            1 S1                 0.0000
     15 ****         3.1440  -2.6662   0.9266 O.3            1 S1                 0.0000
     16 ****         3.4139  -2.1910  -0.3877 C.3            1 S1                 0.0000
     17 ****         4.9313  -2.3336  -0.6223 C.3            1 S1                 0.0000
     18 ****         5.3516  -1.9913  -2.0064 N.4            1 S1                 1.0000
     19 ****         6.7931  -1.6649  -2.0824 C.3            1 S1                 0.0000
     20 ****         4.9763  -3.0176  -3.0070 C.3            1 S1                 0.0000
     21 ****         2.9297  -0.7284  -0.4872 C.3            1 S1                 0.0000
     22 ****        -3.4170   2.1035   0.2699 C.ar           1 S1                 0.0000
     23 ****        -3.2036   1.8332   1.6194 C.ar           1 S1                 0.0000
     24 ****        -4.3459   1.6801   2.4374 C.ar           1 S1                 0.0000
     25 ****        -4.1449   1.3855   3.9143 C.3            1 S1                 0.0000
     26 ****        -7.7983   1.7170   2.2141 H              1 S1                 0.0000
     27 ****        -6.8881   2.3871   3.5659 H              1 S1                 0.0000
     28 ****        -6.8706   0.6437   3.2575 H              1 S1                 0.0000
     29 ****        -6.8430   2.1694   0.1085 H              1 S1                 0.0000
     30 ****        -2.8392   2.7476  -2.9230 H              1 S1                 0.0000
     31 ****        -0.6158   2.7841  -1.4022 H              1 S1                 0.0000
     32 ****        -0.8602   2.7826   0.3283 H              1 S1                 0.0000
     33 ****        -1.0703   0.2696   0.2860 H              1 S1                 0.0000
     34 ****        -1.8049   0.1501  -1.8589 H              1 S1                 0.0000
     35 ****         1.4443   1.2356  -1.1627 H              1 S1                 0.0000
     36 ****         1.2429   1.3438   0.5669 H              1 S1                 0.0000
     37 ****         1.6913  -0.6203   1.9507 H              1 S1                 0.0000
     38 ****         0.1496  -1.2328   1.3839 H              1 S1                 0.0000
     39 ****         1.6130  -3.0767   2.2319 H              1 S1                 0.0000
     40 ****         1.2136  -3.3111   0.5413 H              1 S1                 0.0000
     41 ****         2.8669  -2.8148  -1.0952 H              1 S1                 0.0000
     42 ****         5.4486  -1.6844   0.0861 H              1 S1                 0.0000
     43 ****         5.2552  -3.3499  -0.3921 H              1 S1                 0.0000
     44 ****         7.4037  -2.5269  -1.8101 H              1 S1                 0.0000
     45 ****         7.0416  -0.8425  -1.4105 H              1 S1                 0.0000
     46 ****         7.0676  -1.3565  -3.0920 H              1 S1                 0.0000
     47 ****         5.4436  -3.9766  -2.7784 H              1 S1                 0.0000
     48 ****         5.2971  -2.7151  -4.0044 H              1 S1                 0.0000
     49 ****         3.8976  -3.1631  -3.0482 H              1 S1                 0.0000
     50 ****         3.0967  -0.3528  -1.4974 H              1 S1                 0.0000
     51 ****         3.5020  -0.0924   0.1905 H              1 S1                 0.0000
     52 ****        -2.2091   1.7445   2.0307 H              1 S1                 0.0000
     53 ****        -3.0865   1.3529   4.1747 H              1 S1                 0.0000
     54 ****        -4.5822   0.4214   4.1751 H              1 S1                 0.0000
     55 ****        -4.6139   2.1559   4.5267 H              1 S1                 0.0000
     56 ****         4.8646  -1.1431  -2.2590 H              1 S1                 0.0000
     57 ****         0.9993  -1.1900  -0.8396 H              1 S1                 0.0000
     58 ****        -5.3245   2.6493  -2.2871 H              1 S1                 0.0000
     59 ****        -0.5522  -0.8168  -1.6909 LP             1 S1                 0.0000
     60 ****        -0.4172   0.5971  -2.4967 LP             1 S1                 0.0000
     61 ****         3.4881  -3.6017   1.0061 LP             1 S1                 0.0000
     62 ****         3.6182  -2.0796   1.5832 LP             1 S1                 0.0000
@<TRIPOS>BOND
    1    1    2 1     
    2    1   26 1     
    3    1   27 1     
    4    1   28 1     
    5    2   24 ar    
    6    2    3 ar    
    7    3    4 ar    
    8    3   29 1     
    9    4   22 ar    
   10    4    5 1     
   11    5    6 2     
   12    5   58 1     
   13    6    7 1     
   14    6   30 1     
   15    7    8 1     
   16    7   22 1     
   17    8    9 1     
   18    8   31 1     
   19    8   32 1     
   20    9   10 1     
   21    9   11 1     
   22    9   33 1     
   23   10   34 1     
   24   11   12 1     
   25   11   35 1     
   26   11   36 1     
   27   12   21 1     
   28   12   13 1     
   29   12   57 1     
   30   13   14 1     
   31   13   37 1     
   32   13   38 1     
   33   14   15 1     
   34   14   39 1     
   35   14   40 1     
   36   15   16 1     
   37   16   17 1     
   38   16   21 1     
   39   16   41 1     
   40   17   18 1     
   41   17   42 1     
   42   17   43 1     
   43   18   19 1     
   44   18   20 1     
   45   18   56 1     
   46   19   44 1     
   47   19   45 1     
   48   19   46 1     
   49   20   47 1     
   50   20   48 1     
   51   20   49 1     
   52   21   50 1     
   53   21   51 1     
   54   22   23 ar    
   55   23   24 ar    
   56   23   52 1     
   57   24   25 1     
   58   25   53 1     
   59   25   54 1     
   60   25   55 1     
   61   10   59 1     
   62   10   60 1     
   63   15   61 1     
   64   15   62 1     
@<TRIPOS>SUBSTRUCTURE
      1 S1             1
@<TRIPOS>SET
LONE_PAIRS      STATIC     ATOMS    <user>   **** ""
4 59 60 61 62
DONOR_HYDROGENS      STATIC     ATOMS    <user>   **** ""
4 58 34 57 56
ATOM$BLUE        STATIC     ATOMS    COLORGROUP SYSTEM
4 59 60 61 62
ATOM$RED        STATIC     ATOMS    COLORGROUP SYSTEM
4 58 34 57 56
