#       Name:                AV-unprocessed.smi:3093
#       Creating user name   scv26
#       Creation time:       Fri Mar 27 17:16:39 2020


#       File generated by GOLD software.
#

@<TRIPOS>MOLECULE
AV-unprocessed.smi:3093
    26    27     1
SMALL
NO_CHARGES


@<TRIPOS>ATOM
      1 ****        -3.4575  -0.8444   1.2280 C.2            1 S1                 0.0000
      2 ****        -3.2072   0.5313   1.4917 C.2            1 S1                 0.0000
      3 ****        -1.9153   0.8165   1.5277 N.2            1 S1                 0.0000
      4 ****        -1.3012  -0.3626   1.2900 N.pl3          1 S1                 0.0000
      5 ****         0.1483  -0.4272   1.2513 C.3            1 S1                 0.0000
      6 ****         0.6972  -0.3760  -0.1860 C.3            1 S1                 0.0000
      7 ****         0.2689   0.8468  -1.0043 C.3            1 S1                 0.0000
      8 ****         1.3618   0.9454  -2.0613 C.3            1 S1                 0.0000
      9 ****         2.6222   0.5143  -1.3076 C.3            1 S1                 0.0000
     10 ****         2.1736  -0.3689  -0.2117 N.4            1 S1                 1.0000
     11 ****        -2.2092  -1.3841   1.1059 C.2            1 S1                 0.0000
     12 ****        -4.4058  -1.3542   1.1429 H              1 S1                 0.0000
     13 ****        -3.9205   1.3253   1.6567 H              1 S1                 0.0000
     14 ****         0.5523   0.3965   1.8425 H              1 S1                 0.0000
     15 ****         0.4630  -1.3481   1.7439 H              1 S1                 0.0000
     16 ****         0.3781  -1.2707  -0.7229 H              1 S1                 0.0000
     17 ****        -0.7278   0.7419  -1.4345 H              1 S1                 0.0000
     18 ****         0.2758   1.7434  -0.3824 H              1 S1                 0.0000
     19 ****         1.1549   0.2443  -2.8711 H              1 S1                 0.0000
     20 ****         1.4467   1.9429  -2.4936 H              1 S1                 0.0000
     21 ****         3.3391   0.0110  -1.9568 H              1 S1                 0.0000
     22 ****         3.1161   1.3816  -0.8682 H              1 S1                 0.0000
     23 ****         2.5228   0.0007   0.6610 H              1 S1                 0.0000
     24 ****        -1.8955  -2.3978   0.9044 H              1 S1                 0.0000
     25 ****         2.5204  -1.3083  -0.3451 H              1 S1                 0.0000
     26 ****        -1.4894   1.7059   1.6937 LP             1 S1                 0.0000
@<TRIPOS>BOND
    1    1   11 2     
    2    1    2 1     
    3    1   12 1     
    4    2    3 2     
    5    2   13 1     
    6    3    4 1     
    7    4    5 1     
    8    4   11 1     
    9    5    6 1     
   10    5   14 1     
   11    5   15 1     
   12    6   10 1     
   13    6    7 1     
   14    6   16 1     
   15    7    8 1     
   16    7   17 1     
   17    7   18 1     
   18    8    9 1     
   19    8   19 1     
   20    8   20 1     
   21    9   10 1     
   22    9   21 1     
   23    9   22 1     
   24   10   23 1     
   25   10   25 1     
   26   11   24 1     
   27    3   26 1     
@<TRIPOS>SUBSTRUCTURE
      1 S1             1
@<TRIPOS>SET
LONE_PAIRS      STATIC     ATOMS    <user>   **** ""
1 26
DONOR_HYDROGENS      STATIC     ATOMS    <user>   **** ""
2 23 25
ATOM$BLUE        STATIC     ATOMS    COLORGROUP SYSTEM
1 26
ATOM$RED        STATIC     ATOMS    COLORGROUP SYSTEM
2 23 25
