AV-unprocessed.smi:213|AV-procd|sdf|1646|dock2
  -GOLD-   2262020 23D 1   1.00000     0.00000
 Structure written by MMmdl.
 58 61  0  0  0  0  0  0  0  0  1 V2000
  154.3473  141.3470  160.9280 C   0  0  0  0  0  0  0  0  0  0  0  0
  153.1154  140.8530  160.1424 C   0  0  1  0  0  0  0  0  0  0  0  0
  152.8078  141.7311  158.9048 C   0  0  0  0  0  0  0  0  0  0  0  0
  152.0573  142.9611  159.1641 N   0  0  0  0  0  0  0  0  0  0  0  0
  152.0662  143.8304  157.9924 C   0  0  0  0  0  0  0  0  0  0  0  0
  151.2635  145.1209  158.2249 C   0  0  0  0  0  0  0  0  0  0  0  0
  151.7856  145.8045  159.3587 O   0  0  0  0  0  0  0  0  0  0  0  0
  151.7487  145.0096  160.5391 C   0  0  0  0  0  0  0  0  0  0  0  0
  152.5422  143.7091  160.3197 C   0  0  0  0  0  0  0  0  0  0  0  0
  153.3038  139.4518  159.7549 N   0  0  0  0  0  0  0  0  0  0  0  0
  154.3754  138.6503  160.3436 C   0  0  0  0  0  0  0  0  0  0  0  0
  152.6270  138.9195  158.7011 C   0  0  0  0  0  0  0  0  0  0  0  0
  153.0297  139.2722  157.4509 N   0  0  0  0  0  0  0  0  0  0  0  0
  152.4147  138.7799  156.3722 C   0  0  0  0  0  0  0  0  0  0  0  0
  151.3850  137.9351  156.3127 N   0  0  0  0  0  0  0  0  0  0  0  0
  150.9636  137.5842  157.5604 C   0  0  0  0  0  0  0  0  0  0  0  0
  151.5190  138.0230  158.7977 C   0  0  0  0  0  0  0  0  0  0  0  0
  150.8028  137.4590  159.8487 N   0  0  0  0  0  0  0  0  0  0  0  0
  149.8932  136.7248  159.2708 C   0  0  0  0  0  0  0  0  0  0  0  0
  149.9176  136.7436  157.8963 N   0  0  0  0  0  0  0  0  0  0  0  0
  149.0270  136.0300  156.9981 C   0  0  0  0  0  0  0  0  0  0  0  0
  149.1938  134.5005  157.0939 C   0  0  2  0  0  0  0  0  0  0  0  0
  150.5536  134.1950  157.3411 O   0  0  0  0  0  0  0  0  0  0  0  0
  148.7498  133.7836  155.8054 C   0  0  1  0  0  0  0  0  0  0  0  0
  149.4639  134.2550  154.5399 C   0  0  0  0  0  0  0  0  0  0  0  0
  149.2256  133.0954  153.5963 C   0  0  0  0  0  0  0  0  0  0  0  0
  149.2042  131.8860  154.5330 C   0  0  0  0  0  0  0  0  0  0  0  0
  149.0920  132.4043  155.8562 O   0  0  0  0  0  0  0  0  0  0  0  0
  154.2147  142.3581  161.3082 H   0  0  0  0  0  0  0  0  0  0  0  0
  155.2470  141.3534  160.3125 H   0  0  0  0  0  0  0  0  0  0  0  0
  154.5409  140.7049  161.7879 H   0  0  0  0  0  0  0  0  0  0  0  0
  152.2750  140.9051  160.8339 H   0  0  0  0  0  0  0  0  0  0  0  0
  153.7300  141.9582  158.3682 H   0  0  0  0  0  0  0  0  0  0  0  0
  152.2154  141.1310  158.2119 H   0  0  0  0  0  0  0  0  0  0  0  0
  153.0937  144.0883  157.7314 H   0  0  0  0  0  0  0  0  0  0  0  0
  151.6509  143.3006  157.1345 H   0  0  0  0  0  0  0  0  0  0  0  0
  151.3305  145.7722  157.3537 H   0  0  0  0  0  0  0  0  0  0  0  0
  150.2066  144.8966  158.3785 H   0  0  0  0  0  0  0  0  0  0  0  0
  152.1746  145.5786  161.3655 H   0  0  0  0  0  0  0  0  0  0  0  0
  150.7133  144.7883  160.8027 H   0  0  0  0  0  0  0  0  0  0  0  0
  152.4517  143.1047  161.2207 H   0  0  0  0  0  0  0  0  0  0  0  0
  153.6003  143.9431  160.1939 H   0  0  0  0  0  0  0  0  0  0  0  0
  154.9040  138.0782  159.5800 H   0  0  0  0  0  0  0  0  0  0  0  0
  153.9669  137.9540  161.0764 H   0  0  0  0  0  0  0  0  0  0  0  0
  155.1097  139.2798  160.8459 H   0  0  0  0  0  0  0  0  0  0  0  0
  152.8045  139.1101  155.4207 H   0  0  0  0  0  0  0  0  0  0  0  0
  149.1724  136.1518  159.8355 H   0  0  0  0  0  0  0  0  0  0  0  0
  148.0031  136.3157  157.2419 H   0  0  0  0  0  0  0  0  0  0  0  0
  149.2106  136.3721  155.9787 H   0  0  0  0  0  0  0  0  0  0  0  0
  148.6073  134.1262  157.9340 H   0  0  0  0  0  0  0  0  0  0  0  0
  150.9163  133.7933  156.5665 H   0  0  0  0  0  0  0  0  0  0  0  0
  147.6695  133.8673  155.6716 H   0  0  0  0  0  0  0  0  0  0  0  0
  149.0777  135.2003  154.1571 H   0  0  0  0  0  0  0  0  0  0  0  0
  150.5329  134.3721  154.7248 H   0  0  0  0  0  0  0  0  0  0  0  0
  148.2558  133.2061  153.1093 H   0  0  0  0  0  0  0  0  0  0  0  0
  149.9873  133.0179  152.8198 H   0  0  0  0  0  0  0  0  0  0  0  0
  148.3655  131.2266  154.3073 H   0  0  0  0  0  0  0  0  0  0  0  0
  150.1232  131.3045  154.4547 H   0  0  0  0  0  0  0  0  0  0  0  0
  1  2  1  0  0  0  0
  1 29  1  0  0  0  0
  1 30  1  0  0  0  0
  1 31  1  0  0  0  0
  2  3  1  0  0  0  0
  2 10  1  0  0  0  0
  2 32  1  0  0  0  0
  3  4  1  0  0  0  0
  3 33  1  0  0  0  0
  3 34  1  0  0  0  0
  4  9  1  0  0  0  0
  4  5  1  0  0  0  0
  5  6  1  0  0  0  0
  5 35  1  0  0  0  0
  5 36  1  0  0  0  0
  6  7  1  0  0  0  0
  6 37  1  0  0  0  0
  6 38  1  0  0  0  0
  7  8  1  0  0  0  0
  8  9  1  0  0  0  0
  8 39  1  0  0  0  0
  8 40  1  0  0  0  0
  9 41  1  0  0  0  0
  9 42  1  0  0  0  0
 10 11  1  0  0  0  0
 10 12  1  0  0  0  0
 11 43  1  0  0  0  0
 11 44  1  0  0  0  0
 11 45  1  0  0  0  0
 12 17  1  0  0  0  0
 12 13  2  0  0  0  0
 13 14  1  0  0  0  0
 14 15  2  0  0  0  0
 14 46  1  0  0  0  0
 15 16  1  0  0  0  0
 16 20  1  0  0  0  0
 16 17  2  0  0  0  0
 17 18  1  0  0  0  0
 18 19  2  0  0  0  0
 19 20  1  0  0  0  0
 19 47  1  0  0  0  0
 20 21  1  0  0  0  0
 21 22  1  0  0  0  0
 21 48  1  0  0  0  0
 21 49  1  0  0  0  0
 22 23  1  0  0  0  0
 22 24  1  0  0  0  0
 22 50  1  0  0  0  0
 23 51  1  0  0  0  0
 24 28  1  0  0  0  0
 24 25  1  0  0  0  0
 24 52  1  0  0  0  0
 25 26  1  0  0  0  0
 25 53  1  0  0  0  0
 25 54  1  0  0  0  0
 26 27  1  0  0  0  0
 26 55  1  0  0  0  0
 26 56  1  0  0  0  0
 27 28  1  0  0  0  0
 27 57  1  0  0  0  0
 27 58  1  0  0  0  0
M  END
> <s_m_source_file>
AV-unprocessed.smi

> <i_m_source_file_index>
213

> <i_lp_mmshare_version>
43012

> <i_f3d_flags>
0

> <s_epik_input>
W0NIMl0xW0NIMl1PW0NIMl1bQ0gyXU4xW0NIMl1bQ0BASF0oW0NIM10pTihbQ0gzXSljKG5bY0hdbjIpYyhjMjMpbltjSF1uM1tDSDJdW0NASF0oW09IXSlbQ0BASF00W0NIMl1bQ0gyXVtDSDJdTzQ=

> <s_epik_cmdline>
J2VwaWtfcHl0aG9uJywgJy1waCcsICc3LjAnLCAnLXRuJywgJzgnLCAnLW1hJywgJzIwMCcsICctbWV0YWxfYmluZGluZycsICctaW1hZScsICc8aW5maWxlLm1hZT4nLCAnLW9tYWUnLCAnPG91dGZpbGUubWFlPic=

> <r_lp_tautomer_probability>
1

> <r_epik_Ionization_Penalty>
0.423322

> <r_epik_Ionization_Penalty_Charging>
0

> <r_epik_Ionization_Penalty_Neutral>
0.423322

> <r_epik_State_Penalty>
0.569486

> <r_epik_Charging_Adjusted_Penalty>
0.569486

> <i_epik_Tot_Q>
0

> <i_epik_Tot_abs_Q>
0

> <r_epik_Metal_State_Penalty>
0.568671

> <b_epik_Metal_Only>
0

> <s_lp_Force_Field>
OPLS_2005

> <r_lp_Energy>
53.3549

> <b_lp_Chiralities_Consistent>
1

> <s_lp_Variant>
AV-unprocessed.smi:213-14

> <Gold.Version>
5.8.1

> <Gold.Id.Protein>
6NUR|6NUR_protein|mol2

> <Gold.PLP.Fitness>
45.3153

> <Gold.PLP.PLP>
-45.7636

> <Gold.PLP.part.hbond>
-4.0000

> <Gold.PLP.part.metal>
0.0000

> <Gold.PLP.part.buried>
-6.2319

> <Gold.PLP.part.nonpolar>
-35.9908

> <Gold.PLP.part.repulsive>
0.1351

> <Gold.PLP.ligand.clash>
0.0000

> <Gold.PLP.ligand.torsion>
2.6839

> <Gold.PLP.Chemscore.Hbond>
1.4823

> <Gold.PLP.Chemscore.CHOScore>
0.0000

> <Gold.PLP.Chemscore.Metal>
0.0000

> <Gold.Chemscore.Hbonds>
donor molecule, donor type, donor heavy atom, donor atom, acceptor molecule, acceptor atom, score
      P1  H  6896  6908       L1    23  0.53
      P1  H  7997  8008       L1    13  1.00

> <Gold.PLP.Chemscore.Internal.Correction>
0.4727

> <Gold.Rescore>
     Score         DG    S(hbond)    S(metal)    S(lipo)     H(rot)  DE(clash)    DE(int)     intcor
     11.81     -16.72       1.48        0.00     113.75       2.74       0.29       4.62       ----

> <Gold.Chemscore.Fitness>
11.8096

> <Gold.Chemscore.DG>
-16.7199

> <Gold.Chemscore.ZeroCoef>
-5.4800

> <Gold.Chemscore.Hbond>
1.4790

> <Gold.Chemscore.Metal>
0.0000

> <Gold.Chemscore.Lipo>
113.7498

> <Gold.Chemscore.Internal_Hbond>
0.0000

> <Gold.Chemscore.DEClash>
0.2862

> <Gold.Chemscore.DEInternal>
4.6241

> <Gold.Chemscore.Rot>
2.7378

> <Gold.Chemscore.Internal.Correction>
   9.000000E+99

> <Gold.Chemscore.Hbonds>
donor molecule, donor type, donor heavy atom, donor atom, acceptor molecule, acceptor atom, score
      P1  H  6896  6908       L1    23  0.48
      P1  H  7997  8008       L1    13  0.81

> <Gold.Chemscore.Hbond.Weighted>
-4.9399

> <Gold.Chemscore.Metal.Weighted>
-0.0000

> <Gold.Chemscore.Lipo.Weighted>
-13.3087

> <Gold.Chemscore.Internal_Hbond.Weighted>
0.0000

> <Gold.Chemscore.DEClash.Weighted>
0.2862

> <Gold.Chemscore.DEInternal.Weighted>
4.6241

> <Gold.Chemscore.Rot.Weighted>
7.0087

> <Gold.Chemscore.Internal.Correction.Weighted>
   9.000000E+99

> <Gold.Protein.RotatedTorsions>
[ 6907 6896 6895 6894 ] final  100.17 input  -60.11 | X-H torsion
[ 7974 7965 7964 7962 ] final   97.64 input  175.53 | X-H torsion
[ 8008 7997 7996 7995 ] final  -87.72 input   59.86 | X-H torsion
[ 10167 10162 10161 10158 ] final  -89.92 input  -65.29 | X-H torsion
[ 10718 10713 10712 10709 ] final   89.51 input   66.30 | X-H torsion
[ 10763 10752 10751 10750 ] final -134.01 input  -60.55 | X-H torsion
[ 11005 11000 10999 10996 ] final  -39.91 input  -57.11 | X-H torsion

> <Gold.Protein.ActiveResidues>
 VAL166  LYS551  ARG553  GLY616  TRP617  ASP618  TYR619  PRO620  LYS621  CYS622 
 ASP623  PHE694  ASN695  SER759  ASP760  ASP761  ALA762  ILE779  LEU786  VAL792 
 PHE793  MET794  SER795  GLU796  ALA797  LYS798  CYS799  TRP800  GLU811  SER814 

> <Gold.Protein.RotatedAtoms>
  152.5377  134.0317  159.8027 H   0  0  0  0  0  0  0  0  0  0  0  0  # atno 6907 bound_to 6896
  151.0487  133.5635  159.2651 H   0  0  0  0  0  0  0  0  0  0  0  0  # atno 6908 bound_to 6896
  151.2578  135.0651  159.9140 H   0  0  0  0  0  0  0  0  0  0  0  0  # atno 6909 bound_to 6896
  145.4228  139.2319  143.3187 H   0  0  0  0  0  0  0  0  0  0  0  0  # atno 7974 bound_to 7965
  154.6665  140.0562  157.0119 H   0  0  0  0  0  0  0  0  0  0  0  0  # atno 8008 bound_to 7997
  155.1151  140.3242  155.4493 H   0  0  0  0  0  0  0  0  0  0  0  0  # atno 8009 bound_to 7997
  156.2640  140.2007  156.6274 H   0  0  0  0  0  0  0  0  0  0  0  0  # atno 8010 bound_to 7997
  140.3601  143.2846  151.9625 H   0  0  0  0  0  0  0  0  0  0  0  0  # atno 10167 bound_to 10162
  157.6955  131.0336  150.3437 H   0  0  0  0  0  0  0  0  0  0  0  0  # atno 10718 bound_to 10713
  154.8725  135.3748  154.4666 H   0  0  0  0  0  0  0  0  0  0  0  0  # atno 10763 bound_to 10752
  153.5329  135.7027  153.5679 H   0  0  0  0  0  0  0  0  0  0  0  0  # atno 10764 bound_to 10752
  153.3875  135.3980  155.1865 H   0  0  0  0  0  0  0  0  0  0  0  0  # atno 10765 bound_to 10752
  141.0136  133.6896  156.2249 H   0  0  0  0  0  0  0  0  0  0  0  0  # atno 11005 bound_to 11000
  146.2648  140.4954  142.8838 LP  0  0  0  0  0  0  0  0  0  0  0  0  # atno 17320 bound_to 7965
  144.8234  140.6588  143.6338 LP  0  0  0  0  0  0  0  0  0  0  0  0  # atno 17321 bound_to 7965
  139.4815  144.6000  151.7622 LP  0  0  0  0  0  0  0  0  0  0  0  0  # atno 17342 bound_to 10162
  140.5135  144.0988  150.6002 LP  0  0  0  0  0  0  0  0  0  0  0  0  # atno 17343 bound_to 10162
  156.3895  130.3895  149.7041 LP  0  0  0  0  0  0  0  0  0  0  0  0  # atno 17370 bound_to 10713
  156.4396  130.7854  151.2875 LP  0  0  0  0  0  0  0  0  0  0  0  0  # atno 17371 bound_to 10713
  140.6692  134.4885  157.5586 LP  0  0  0  0  0  0  0  0  0  0  0  0  # atno 17394 bound_to 11000
  139.9104  134.8357  156.1550 LP  0  0  0  0  0  0  0  0  0  0  0  0  # atno 17395 bound_to 11000

$$$$
