AV-unprocessed.smi:2144|AV-procd|sdf|8733|dock3
  -GOLD-   2272011503D 1   1.00000     0.00000
 Structure written by MMmdl.
 41 43  0  0  0  0  0  0  0  0  2 V2000
  150.1076  140.2761  153.9468 O   0  0  0  0  0  0  0  0  0  0  0  0
  149.2652  140.6394  155.0210 C   0  0  0  0  0  0  0  0  0  0  0  0
  150.0133  141.1618  156.2067 C   0  0  0  0  0  0  0  0  0  0  0  0
  150.3872  142.4563  156.4199 N   0  3  0  0  0  0  0  0  0  0  0  0
  151.0721  142.5595  157.6309 C   0  0  0  0  0  0  0  0  0  0  0  0
  151.6390  143.6592  158.2675 C   0  0  0  0  0  0  0  0  0  0  0  0
  152.2735  143.4167  159.5036 C   0  0  0  0  0  0  0  0  0  0  0  0
  152.3268  142.1222  160.0604 C   0  0  0  0  0  0  0  0  0  0  0  0
  151.7467  141.0152  159.4062 C   0  0  0  0  0  0  0  0  0  0  0  0
  151.1212  141.2641  158.1849 C   0  0  0  0  0  0  0  0  0  0  0  0
  150.4535  140.4365  157.2753 N   0  0  0  0  0  0  0  0  0  0  0  0
  150.3310  138.9999  157.5702 C   0  0  0  0  0  0  0  0  0  0  0  0
  149.0275  138.6461  158.3145 C   0  0  1  0  0  0  0  0  0  0  0  0
  147.9755  138.5523  157.3744 O   0  0  0  0  0  0  0  0  0  0  0  0
  149.1391  137.3087  159.0636 C   0  0  0  0  0  0  0  0  0  0  0  0
  148.2475  137.3298  160.1706 O   0  0  0  0  0  0  0  0  0  0  0  0
  147.6785  136.1419  160.5783 C   0  0  0  0  0  0  0  0  0  0  0  0
  147.6720  134.9547  159.8022 C   0  0  0  0  0  0  0  0  0  0  0  0
  147.0676  133.7822  160.2967 C   0  0  0  0  0  0  0  0  0  0  0  0
  146.4642  133.7794  161.5677 C   0  0  0  0  0  0  0  0  0  0  0  0
  146.4655  134.9522  162.3448 C   0  0  0  0  0  0  0  0  0  0  0  0
  147.0696  136.1251  161.8518 C   0  0  0  0  0  0  0  0  0  0  0  0
  147.0646  137.2470  162.6108 F   0  0  0  0  0  0  0  0  0  0  0  0
  149.6107  140.3289  153.1443 H   0  0  0  0  0  0  0  0  0  0  0  0
  148.5632  141.3979  154.6741 H   0  0  0  0  0  0  0  0  0  0  0  0
  148.6812  139.7699  155.3239 H   0  0  0  0  0  0  0  0  0  0  0  0
  151.5997  144.6514  157.8424 H   0  0  0  0  0  0  0  0  0  0  0  0
  152.7289  144.2399  160.0350 H   0  0  0  0  0  0  0  0  0  0  0  0
  152.8222  141.9752  161.0093 H   0  0  0  0  0  0  0  0  0  0  0  0
  151.7917  140.0276  159.8413 H   0  0  0  0  0  0  0  0  0  0  0  0
  150.3859  138.4596  156.6243 H   0  0  0  0  0  0  0  0  0  0  0  0
  151.2047  138.6936  158.1471 H   0  0  0  0  0  0  0  0  0  0  0  0
  148.7928  139.4401  159.0244 H   0  0  0  0  0  0  0  0  0  0  0  0
  147.2205  139.0000  157.7240 H   0  0  0  0  0  0  0  0  0  0  0  0
  148.9355  136.4707  158.3943 H   0  0  0  0  0  0  0  0  0  0  0  0
  150.1551  137.1927  159.4447 H   0  0  0  0  0  0  0  0  0  0  0  0
  148.1244  134.9165  158.8231 H   0  0  0  0  0  0  0  0  0  0  0  0
  147.0674  132.8828  159.6987 H   0  0  0  0  0  0  0  0  0  0  0  0
  146.0011  132.8799  161.9459 H   0  0  0  0  0  0  0  0  0  0  0  0
  146.0022  134.9535  163.3203 H   0  0  0  0  0  0  0  0  0  0  0  0
  150.1838  143.2108  155.7768 H   0  0  0  0  0  0  0  0  0  0  0  0
  1  2  1  0  0  0  0
  1 24  1  0  0  0  0
  2  3  1  0  0  0  0
  2 25  1  0  0  0  0
  2 26  1  0  0  0  0
  3 11  1  0  0  0  0
  3  4  2  0  0  0  0
  4  5  1  0  0  0  0
  4 41  1  0  0  0  0
  5 10  2  0  0  0  0
  5  6  1  0  0  0  0
  6  7  2  0  0  0  0
  6 27  1  0  0  0  0
  7  8  1  0  0  0  0
  7 28  1  0  0  0  0
  8  9  2  0  0  0  0
  8 29  1  0  0  0  0
  9 10  1  0  0  0  0
  9 30  1  0  0  0  0
 10 11  1  0  0  0  0
 11 12  1  0  0  0  0
 12 13  1  0  0  0  0
 12 31  1  0  0  0  0
 12 32  1  0  0  0  0
 13 14  1  0  0  0  0
 13 15  1  0  0  0  0
 13 33  1  0  0  0  0
 14 34  1  0  0  0  0
 15 16  1  0  0  0  0
 15 35  1  0  0  0  0
 15 36  1  0  0  0  0
 16 17  1  0  0  0  0
 17 22  1  0  0  0  0
 17 18  2  0  0  0  0
 18 19  1  0  0  0  0
 18 37  1  0  0  0  0
 19 20  2  0  0  0  0
 19 38  1  0  0  0  0
 20 21  1  0  0  0  0
 20 39  1  0  0  0  0
 21 22  2  0  0  0  0
 21 40  1  0  0  0  0
 22 23  1  0  0  0  0
M  CHG  1   4   1
M  END
> <s_m_source_file>
AV-unprocessed.smi

> <i_m_source_file_index>
2144

> <i_lp_mmshare_version>
43012

> <i_f3d_flags>
0

> <s_epik_input>
W2NIXTFbY0hdW2NIXVtjSF1jKGMxMiluKGMobjIpW0NIMl1bT0hdKVtDSDJdW0NASF0oW09IXSlbQ0gyXU9jM1tjSF1bY0hdW2NIXVtjSF1jM0Y=

> <s_epik_cmdline>
J2VwaWtfcHl0aG9uJywgJy1waCcsICc3LjAnLCAnLXRuJywgJzgnLCAnLW1hJywgJzIwMCcsICctbWV0YWxfYmluZGluZycsICctaW1hZScsICc8aW5maWxlLm1hZT4nLCAnLW9tYWUnLCAnPG91dGZpbGUubWFlPic=

> <r_lp_tautomer_probability>
1

> <r_epik_Ionization_Penalty>
1.44003

> <r_epik_Ionization_Penalty_Charging>
1.43917

> <r_epik_Ionization_Penalty_Neutral>
0.000858184

> <r_epik_State_Penalty>
1.52442

> <r_epik_Charging_Adjusted_Penalty>
2.96359

> <i_epik_Tot_Q>
1

> <i_epik_Tot_abs_Q>
1

> <r_epik_Metal_State_Penalty>
5.57019

> <b_epik_Metal_Only>
0

> <s_lp_Force_Field>
OPLS_2005

> <r_lp_Energy>
20.1924

> <b_lp_Chiralities_Consistent>
1

> <s_lp_Variant>
AV-unprocessed.smi:2144-4

> <Gold.Version>
5.8.1

> <Gold.Id.Protein>
6NUR|6NUR_protein|mol2

> <Gold.PLP.Fitness>
60.1333

> <Gold.PLP.PLP>
-51.1197

> <Gold.PLP.part.hbond>
-4.8216

> <Gold.PLP.part.metal>
0.0000

> <Gold.PLP.part.buried>
-4.9008

> <Gold.PLP.part.nonpolar>
-42.6061

> <Gold.PLP.part.repulsive>
0.0751

> <Gold.PLP.ligand.clash>
0.0000

> <Gold.PLP.ligand.torsion>
1.6509

> <Gold.PLP.Chemscore.Hbond>
4.0709

> <Gold.PLP.Chemscore.CHOScore>
0.0000

> <Gold.PLP.Chemscore.Metal>
0.0000

> <Gold.Chemscore.Hbonds>
donor molecule, donor type, donor heavy atom, donor atom, acceptor molecule, acceptor atom, score
      L1  H     1    24       P1  7957  0.93
      L1  H     4    41       P1  8028  1.50
      P1  H  6931  6943       L1    16  0.49
      P1  H  6934  6947       L1    16  0.45
      P1  H  7989  7998       L1     1  0.82

> <Gold.PLP.Chemscore.Internal.Correction>
0.1027

> <Gold.Rescore>
     Score         DG    S(hbond)    S(metal)    S(lipo)     H(rot)  DE(clash)    DE(int)     intcor
     17.77     -19.34       2.70        0.00     113.79       3.31       0.14       1.42       ----

> <Gold.Chemscore.Fitness>
17.7737

> <Gold.Chemscore.DG>
-19.3365

> <Gold.Chemscore.ZeroCoef>
-5.4800

> <Gold.Chemscore.Hbond>
2.7023

> <Gold.Chemscore.Metal>
0.0000

> <Gold.Chemscore.Lipo>
113.7891

> <Gold.Chemscore.Internal_Hbond>
0.0000

> <Gold.Chemscore.DEClash>
0.1426

> <Gold.Chemscore.DEInternal>
1.4202

> <Gold.Chemscore.Rot>
3.3134

> <Gold.Chemscore.Internal.Correction>
   9.000000E+99

> <Gold.Chemscore.Hbonds>
donor molecule, donor type, donor heavy atom, donor atom, acceptor molecule, acceptor atom, score
      L1  H     1    24       P1  7957  0.86
      L1  H     4    41       P1  8028  0.73
      P1  H  6931  6943       L1    16  0.26
      P1  H  6934  6947       L1    16  0.38
      P1  H  7989  7998       L1     1  0.28

> <Gold.Chemscore.Hbond.Weighted>
-9.0255

> <Gold.Chemscore.Metal.Weighted>
-0.0000

> <Gold.Chemscore.Lipo.Weighted>
-13.3133

> <Gold.Chemscore.Internal_Hbond.Weighted>
0.0000

> <Gold.Chemscore.DEClash.Weighted>
0.1426

> <Gold.Chemscore.DEInternal.Weighted>
1.4202

> <Gold.Chemscore.Rot.Weighted>
8.4823

> <Gold.Chemscore.Internal.Correction.Weighted>
   9.000000E+99

> <Gold.Protein.RotatedTorsions>
[ 6907 6896 6895 6894 ] final    4.20 input  -60.11 | X-H torsion
[ 7974 7965 7964 7962 ] final  -80.52 input  175.53 | X-H torsion
[ 8008 7997 7996 7995 ] final -157.60 input   59.86 | X-H torsion
[ 10167 10162 10161 10158 ] final  151.63 input  -65.29 | X-H torsion
[ 10718 10713 10712 10709 ] final  -33.77 input   66.30 | X-H torsion
[ 10763 10752 10751 10750 ] final  -38.59 input  -60.55 | X-H torsion
[ 11005 11000 10999 10996 ] final  -45.56 input  -57.11 | X-H torsion

> <Gold.Protein.ActiveResidues>
 VAL166  LYS551  ARG553  GLY616  TRP617  ASP618  TYR619  PRO620  LYS621  CYS622 
 ASP623  PHE694  ASN695  SER759  ASP760  ASP761  ALA762  ILE779  LEU786  VAL792 
 PHE793  MET794  SER795  GLU796  ALA797  LYS798  CYS799  TRP800  GLU811  SER814 

> <Gold.Protein.RotatedAtoms>
  151.6375  135.1016  160.0134 H   0  0  0  0  0  0  0  0  0  0  0  0  # atno 6907 bound_to 6896
  152.4072  133.6903  159.6375 H   0  0  0  0  0  0  0  0  0  0  0  0  # atno 6908 bound_to 6896
  150.7966  133.8604  159.3271 H   0  0  0  0  0  0  0  0  0  0  0  0  # atno 6909 bound_to 6896
  145.5588  140.9485  143.1459 H   0  0  0  0  0  0  0  0  0  0  0  0  # atno 7974 bound_to 7965
  155.7349  140.0806  157.2272 H   0  0  0  0  0  0  0  0  0  0  0  0  # atno 8008 bound_to 7997
  154.4028  140.1588  156.2605 H   0  0  0  0  0  0  0  0  0  0  0  0  # atno 8009 bound_to 7997
  155.9075  140.3406  155.6076 H   0  0  0  0  0  0  0  0  0  0  0  0  # atno 8010 bound_to 7997
  139.4839  144.5425  151.7540 H   0  0  0  0  0  0  0  0  0  0  0  0  # atno 10167 bound_to 10162
  156.3586  130.4320  149.7642 H   0  0  0  0  0  0  0  0  0  0  0  0  # atno 10718 bound_to 10713
  153.9154  135.6788  153.4749 H   0  0  0  0  0  0  0  0  0  0  0  0  # atno 10763 bound_to 10752
  153.1057  135.4807  154.8943 H   0  0  0  0  0  0  0  0  0  0  0  0  # atno 10764 bound_to 10752
  154.7506  135.3184  154.8521 H   0  0  0  0  0  0  0  0  0  0  0  0  # atno 10765 bound_to 10752
  141.0523  133.6738  156.3031 H   0  0  0  0  0  0  0  0  0  0  0  0  # atno 11005 bound_to 11000
  144.7493  139.7236  143.7279 LP  0  0  0  0  0  0  0  0  0  0  0  0  # atno 17320 bound_to 7965
  146.1865  139.5084  142.9832 LP  0  0  0  0  0  0  0  0  0  0  0  0  # atno 17321 bound_to 7965
  140.4967  144.1230  150.5962 LP  0  0  0  0  0  0  0  0  0  0  0  0  # atno 17342 bound_to 10162
  140.4109  143.2657  151.9833 LP  0  0  0  0  0  0  0  0  0  0  0  0  # atno 17343 bound_to 10162
  156.4815  130.8043  151.3057 LP  0  0  0  0  0  0  0  0  0  0  0  0  # atno 17370 bound_to 10713
  157.7470  131.0004  150.2925 LP  0  0  0  0  0  0  0  0  0  0  0  0  # atno 17371 bound_to 10713
  140.6031  134.5535  157.5521 LP  0  0  0  0  0  0  0  0  0  0  0  0  # atno 17394 bound_to 11000
  139.9361  134.7873  156.0800 LP  0  0  0  0  0  0  0  0  0  0  0  0  # atno 17395 bound_to 11000

$$$$
