#       Name:                AV-unprocessed.smi:1542
#       Creating user name   scv26
#       Creation time:       Fri Mar 27 06:37:29 2020


#       File generated by GOLD software.
#

@<TRIPOS>MOLECULE
AV-unprocessed.smi:1542
    50    52     1
SMALL
NO_CHARGES


@<TRIPOS>ATOM
      1 ****        -4.1575   2.3887  -0.8607 O.3            1 S1                 0.0000
      2 ****        -3.6520   2.9685   0.3232 C.3            1 S1                 0.0000
      3 ****        -2.1167   2.9687   0.3064 C.3            1 S1                 0.0000
      4 ****        -1.5139   1.5553   0.3946 C.3            1 S1                 0.0000
      5 ****        -0.0164   1.5551   0.4401 C.2            1 S1                 0.0000
      6 ****         0.8112   2.5285  -0.0388 N.pl3          1 S1                 1.0000
      7 ****         2.1424   2.1503   0.1364 C.ar           1 S1                 0.0000
      8 ****         3.3261   2.8065  -0.1862 C.ar           1 S1                 0.0000
      9 ****         4.5267   2.1312   0.1165 C.ar           1 S1                 0.0000
     10 ****         4.5200   0.8541   0.7138 C.ar           1 S1                 0.0000
     11 ****         3.3132   0.1997   1.0375 C.ar           1 S1                 0.0000
     12 ****         2.1305   0.8768   0.7399 C.ar           1 S1                 0.0000
     13 ****         0.7795   0.5498   0.9083 N.pl3          1 S1                 0.0000
     14 ****         0.4207  -0.7432   1.5166 C.3            1 S1                 0.0000
     15 ****         0.1693  -1.9063   0.5075 C.3            1 S1                 0.0000
     16 ****         0.9427  -2.9981   0.9720 O.3            1 S1                 0.0000
     17 ****        -1.3196  -2.3305   0.5398 C.3            1 S1                 0.0000
     18 ****        -1.6560  -3.4580  -0.4531 C.3            1 S1                 0.0000
     19 ****        -1.2244  -3.0970  -1.8806 C.3            1 S1                 0.0000
     20 ****         0.2703  -2.7540  -1.9287 C.3            1 S1                 0.0000
     21 ****         0.6103  -1.6130  -0.9536 C.3            1 S1                 0.0000
     22 ****        -5.1020   2.4125  -0.8285 H              1 S1                 0.0000
     23 ****        -4.0265   3.9900   0.3952 H              1 S1                 0.0000
     24 ****        -4.0322   2.4232   1.1876 H              1 S1                 0.0000
     25 ****        -1.7640   3.4769  -0.5922 H              1 S1                 0.0000
     26 ****        -1.7611   3.5576   1.1528 H              1 S1                 0.0000
     27 ****        -1.8958   1.0547   1.2843 H              1 S1                 0.0000
     28 ****        -1.8292   0.9578  -0.4611 H              1 S1                 0.0000
     29 ****         3.3333   3.7827  -0.6482 H              1 S1                 0.0000
     30 ****         5.4713   2.6008  -0.1175 H              1 S1                 0.0000
     31 ****         5.4596   0.3649   0.9268 H              1 S1                 0.0000
     32 ****         3.3204  -0.7817   1.4884 H              1 S1                 0.0000
     33 ****         1.1976  -0.9986   2.2385 H              1 S1                 0.0000
     34 ****        -0.4616  -0.5729   2.1339 H              1 S1                 0.0000
     35 ****         0.7802  -3.7396   0.4089 H              1 S1                 0.0000
     36 ****        -1.6025  -2.6397   1.5472 H              1 S1                 0.0000
     37 ****        -1.9414  -1.4660   0.3047 H              1 S1                 0.0000
     38 ****        -1.1652  -4.3819  -0.1453 H              1 S1                 0.0000
     39 ****        -2.7271  -3.6604  -0.4312 H              1 S1                 0.0000
     40 ****        -1.4384  -3.9265  -2.5553 H              1 S1                 0.0000
     41 ****        -1.8084  -2.2475  -2.2372 H              1 S1                 0.0000
     42 ****         0.8595  -3.6396  -1.6889 H              1 S1                 0.0000
     43 ****         0.5505  -2.4672  -2.9426 H              1 S1                 0.0000
     44 ****         0.1118  -0.7136  -1.3163 H              1 S1                 0.0000
     45 ****         1.6809  -1.4098  -0.9959 H              1 S1                 0.0000
     46 ****         0.4838   3.3889  -0.4590 H              1 S1                 0.0000
     47 ****        -3.8465   1.4409  -0.9311 LP             1 S1                 0.0000
     48 ****        -3.8343   2.9054  -1.6536 LP             1 S1                 0.0000
     49 ****         0.6804  -3.2227   1.9105 LP             1 S1                 0.0000
     50 ****         1.9136  -2.7599   0.9452 LP             1 S1                 0.0000
@<TRIPOS>BOND
    1    1    2 1     
    2    1   22 1     
    3    2    3 1     
    4    2   23 1     
    5    2   24 1     
    6    3    4 1     
    7    3   25 1     
    8    3   26 1     
    9    4    5 1     
   10    4   27 1     
   11    4   28 1     
   12    5   13 1     
   13    5    6 2     
   14    6    7 1     
   15    6   46 1     
   16    7   12 ar    
   17    7    8 ar    
   18    8    9 ar    
   19    8   29 1     
   20    9   10 ar    
   21    9   30 1     
   22   10   11 ar    
   23   10   31 1     
   24   11   12 ar    
   25   11   32 1     
   26   12   13 1     
   27   13   14 1     
   28   14   15 1     
   29   14   33 1     
   30   14   34 1     
   31   15   21 1     
   32   15   16 1     
   33   15   17 1     
   34   16   35 1     
   35   17   18 1     
   36   17   36 1     
   37   17   37 1     
   38   18   19 1     
   39   18   38 1     
   40   18   39 1     
   41   19   20 1     
   42   19   40 1     
   43   19   41 1     
   44   20   21 1     
   45   20   42 1     
   46   20   43 1     
   47   21   44 1     
   48   21   45 1     
   49    1   47 1     
   50    1   48 1     
   51   16   49 1     
   52   16   50 1     
@<TRIPOS>SUBSTRUCTURE
      1 S1             1
@<TRIPOS>SET
LONE_PAIRS      STATIC     ATOMS    <user>   **** ""
4 47 48 49 50
DONOR_HYDROGENS      STATIC     ATOMS    <user>   **** ""
3 22 46 35
ATOM$BLUE        STATIC     ATOMS    COLORGROUP SYSTEM
4 47 48 49 50
ATOM$RED        STATIC     ATOMS    COLORGROUP SYSTEM
3 22 46 35
