#       Name:                AV-unprocessed.smi:190
#       Creating user name   scv26
#       Creation time:       Thu Mar 26 19:31:22 2020


#       File generated by GOLD software.
#

@<TRIPOS>MOLECULE
AV-unprocessed.smi:190
    64    68     1
SMALL
NO_CHARGES


@<TRIPOS>ATOM
      1 ****        -2.7076   1.5802  -3.7566 O.3            1 S1                 0.0000
      2 ****        -3.1754   0.7507  -2.7113 C.3            1 S1                 0.0000
      3 ****        -2.5545  -0.6711  -2.7632 C.3            1 S1                 0.0000
      4 ****        -0.9956  -0.6072  -2.6831 C.3            1 S1                 0.0000
      5 ****        -0.4646   0.0549  -1.4991 N.pl3          1 S1                 0.0000
      6 ****        -0.2202   1.4018  -1.3464 C.2            1 S1                 0.0000
      7 ****         0.2625   1.7545  -0.1867 N.2            1 S1                 0.0000
      8 ****         0.3896   0.5568   0.5044 C.ar           1 S1                 0.0000
      9 ****         0.8564   0.2082   1.8004 C.ar           1 S1                 0.0000
     10 ****         1.3261   1.1331   2.6735 N.3            1 S1                 0.0000
     11 ****         0.8469   1.0546   4.0501 C.3            1 S1                 0.0000
     12 ****         1.8236   1.8893   4.8904 C.3            1 S1                 0.0000
     13 ****         2.8409   2.4332   3.8836 C.3            1 S1                 0.0000
     14 ****         2.7591   1.4477   2.7112 C.3            1 S1                 0.0000
     15 ****         3.3330   2.0039   1.4118 C.3            1 S1                 0.0000
     16 ****         3.8893   0.7809   0.6764 C.3            1 S1                 0.0000
     17 ****         3.9061  -0.2882   1.6173 O.3            1 S1                 0.0000
     18 ****         3.6535   0.2138   2.9228 C.3            1 S1                 0.0000
     19 ****         0.8176  -1.1042   2.1524 N.ar           1 S1                 0.0000
     20 ****         0.3747  -2.0187   1.2854 C.ar           1 S1                 0.0000
     21 ****        -0.0770  -1.8400   0.0428 N.ar           1 S1                 0.0000
     22 ****        -0.0595  -0.5224  -0.3074 C.ar           1 S1                 0.0000
     23 ****        -3.1578  -1.4890  -1.5932 C.3            1 S1                 0.0000
     24 ****        -2.8717  -2.9974  -1.7084 C.3            1 S1                 0.0000
     25 ****        -3.3611  -3.4881  -2.9493 O.3            1 S1                 0.0000
     26 ****        -2.7222  -2.8858  -4.0672 C.3            1 S1                 0.0000
     27 ****        -2.9934  -1.3700  -4.0749 C.3            1 S1                 0.0000
     28 ****        -3.1468   2.4149  -3.6964 H              1 S1                 0.0000
     29 ****        -2.9689   1.2363  -1.7576 H              1 S1                 0.0000
     30 ****        -4.2617   0.6967  -2.7921 H              1 S1                 0.0000
     31 ****        -0.5596  -1.6042  -2.7247 H              1 S1                 0.0000
     32 ****        -0.5985  -0.0877  -3.5559 H              1 S1                 0.0000
     33 ****        -0.4203   2.1227  -2.1257 H              1 S1                 0.0000
     34 ****        -0.1622   1.4638   4.1061 H              1 S1                 0.0000
     35 ****         0.8127   0.0296   4.4209 H              1 S1                 0.0000
     36 ****         1.3223   2.6905   5.4340 H              1 S1                 0.0000
     37 ****         2.3204   1.2501   5.6215 H              1 S1                 0.0000
     38 ****         2.5227   3.4237   3.5541 H              1 S1                 0.0000
     39 ****         3.8423   2.5340   4.3035 H              1 S1                 0.0000
     40 ****         2.6184   2.5782   0.8241 H              1 S1                 0.0000
     41 ****         4.1632   2.6741   1.6391 H              1 S1                 0.0000
     42 ****         3.2597   0.5027  -0.1690 H              1 S1                 0.0000
     43 ****         4.8938   0.9711   0.2976 H              1 S1                 0.0000
     44 ****         4.6121   0.5042   3.3548 H              1 S1                 0.0000
     45 ****         3.2174  -0.5448   3.5734 H              1 S1                 0.0000
     46 ****         0.3829  -3.0393   1.6379 H              1 S1                 0.0000
     47 ****        -2.8103  -1.1130  -0.6312 H              1 S1                 0.0000
     48 ****        -4.2409  -1.3588  -1.5819 H              1 S1                 0.0000
     49 ****        -1.8085  -3.2172  -1.6136 H              1 S1                 0.0000
     50 ****        -3.3730  -3.5313  -0.9010 H              1 S1                 0.0000
     51 ****        -1.6539  -3.1040  -4.0548 H              1 S1                 0.0000
     52 ****        -3.1193  -3.3368  -4.9767 H              1 S1                 0.0000
     53 ****        -4.0631  -1.2207  -4.2276 H              1 S1                 0.0000
     54 ****        -2.5012  -0.9146  -4.9349 H              1 S1                 0.0000
     55 ****        -2.9088   1.1560  -4.6396 LP             1 S1                 0.0000
     56 ****        -1.7203   1.7113  -3.6671 LP             1 S1                 0.0000
     57 ****         0.4888   2.6752   0.1312 LP             1 S1                 0.0000
     58 ****         0.8854   1.8950   2.1990 LP             1 S1                 0.0000
     59 ****         4.8024  -0.7314   1.5999 LP             1 S1                 0.0000
     60 ****         3.2003  -0.9541   1.3756 LP             1 S1                 0.0000
     61 ****         1.1214  -1.3857   3.0626 LP             1 S1                 0.0000
     62 ****        -0.3886  -2.5783  -0.5554 LP             1 S1                 0.0000
     63 ****        -4.3421  -3.3018  -3.0026 LP             1 S1                 0.0000
     64 ****        -3.2069  -4.4755  -2.9862 LP             1 S1                 0.0000
@<TRIPOS>BOND
    1    1    2 1     
    2    1   28 1     
    3    2    3 1     
    4    2   29 1     
    5    2   30 1     
    6    3   27 1     
    7    3    4 1     
    8    3   23 1     
    9    4    5 1     
   10    4   31 1     
   11    4   32 1     
   12    5   22 1     
   13    5    6 1     
   14    6    7 2     
   15    6   33 1     
   16    7    8 1     
   17    8   22 ar    
   18    8    9 ar    
   19    9   10 1     
   20    9   19 ar    
   21   10   14 1     
   22   10   11 1     
   23   11   12 1     
   24   11   34 1     
   25   11   35 1     
   26   12   13 1     
   27   12   36 1     
   28   12   37 1     
   29   13   14 1     
   30   13   38 1     
   31   13   39 1     
   32   14   18 1     
   33   14   15 1     
   34   15   16 1     
   35   15   40 1     
   36   15   41 1     
   37   16   17 1     
   38   16   42 1     
   39   16   43 1     
   40   17   18 1     
   41   18   44 1     
   42   18   45 1     
   43   19   20 ar    
   44   20   21 ar    
   45   20   46 1     
   46   21   22 ar    
   47   23   24 1     
   48   23   47 1     
   49   23   48 1     
   50   24   25 1     
   51   24   49 1     
   52   24   50 1     
   53   25   26 1     
   54   26   27 1     
   55   26   51 1     
   56   26   52 1     
   57   27   53 1     
   58   27   54 1     
   59    1   55 1     
   60    1   56 1     
   61    7   57 1     
   62   10   58 1     
   63   17   59 1     
   64   17   60 1     
   65   19   61 1     
   66   21   62 1     
   67   25   63 1     
   68   25   64 1     
@<TRIPOS>SUBSTRUCTURE
      1 S1             1
@<TRIPOS>SET
LONE_PAIRS      STATIC     ATOMS    <user>   **** ""
10 55 56 57 58 59 60 61 62 63 64
DONOR_HYDROGENS      STATIC     ATOMS    <user>   **** ""
1 28
ATOM$BLUE        STATIC     ATOMS    COLORGROUP SYSTEM
10 55 56 57 58 59 60 61 62 63 64
ATOM$RED        STATIC     ATOMS    COLORGROUP SYSTEM
1 28
