AV-unprocessed.smi:2883|AV-procd|sdf|11077|dock7
  -GOLD-   2272015553D 1   1.00000     0.00000
 Structure written by MMmdl.
 40 42  0  0  0  0  0  0  0  0  2 V2000
  151.2745  137.3263  154.1246 C   0  0  0  0  0  0  0  0  0  0  0  0
  151.8318  138.5129  154.9451 C   0  0  0  0  0  0  0  0  0  0  0  0
  151.9441  138.0163  156.4046 C   0  0  0  0  0  0  0  0  0  0  0  0
  153.2275  138.8987  154.4221 C   0  0  0  0  0  0  0  0  0  0  0  0
  150.8976  139.7276  154.8519 C   0  0  0  0  0  0  0  0  0  0  0  0
  149.7972  139.6540  154.0815 N   0  3  0  0  0  0  0  0  0  0  0  0
  148.9050  140.6740  154.0694 C   0  0  0  0  0  0  0  0  0  0  0  0
  149.1022  141.8022  154.8858 C   0  0  0  0  0  0  0  0  0  0  0  0
  150.2443  141.8015  155.7029 C   0  0  0  0  0  0  0  0  0  0  0  0
  150.4885  142.8886  156.5532 N   0  0  0  0  0  0  0  0  0  0  0  0
  151.7684  143.0296  157.2420 C   0  0  2  0  0  0  0  0  0  0  0  0
  151.8852  142.1392  158.4815 C   0  0  0  0  0  0  0  0  0  0  0  0
  152.2767  143.1557  159.5635 C   0  0  2  0  0  0  0  0  0  0  0  0
  151.0792  144.0156  159.9871 C   0  0  0  0  0  0  0  0  0  0  0  0
  150.9026  144.9218  158.7701 C   0  0  0  0  0  0  0  0  0  0  0  0
  152.0238  144.4284  157.8392 C   0  0  1  0  0  0  0  0  0  0  0  0
  153.0125  144.0967  158.7991 O   0  0  0  0  0  0  0  0  0  0  0  0
  151.1034  140.7595  155.6849 N   0  0  0  0  0  0  0  0  0  0  0  0
  151.9095  136.4447  154.2206 H   0  0  0  0  0  0  0  0  0  0  0  0
  151.2146  137.5568  153.0603 H   0  0  0  0  0  0  0  0  0  0  0  0
  150.2742  137.0466  154.4582 H   0  0  0  0  0  0  0  0  0  0  0  0
  150.9660  137.7588  156.8131 H   0  0  0  0  0  0  0  0  0  0  0  0
  152.3905  138.7660  157.0587 H   0  0  0  0  0  0  0  0  0  0  0  0
  152.5707  137.1261  156.4729 H   0  0  0  0  0  0  0  0  0  0  0  0
  153.9196  138.0575  154.4753 H   0  0  0  0  0  0  0  0  0  0  0  0
  153.6573  139.7154  155.0034 H   0  0  0  0  0  0  0  0  0  0  0  0
  153.1847  139.2233  153.3816 H   0  0  0  0  0  0  0  0  0  0  0  0
  148.0568  140.5494  153.4124 H   0  0  0  0  0  0  0  0  0  0  0  0
  148.3996  142.6231  154.8884 H   0  0  0  0  0  0  0  0  0  0  0  0
  149.8735  143.6889  156.5211 H   0  0  0  0  0  0  0  0  0  0  0  0
  152.5782  142.7740  156.5566 H   0  0  0  0  0  0  0  0  0  0  0  0
  150.9652  141.6097  158.7337 H   0  0  0  0  0  0  0  0  0  0  0  0
  152.6726  141.3980  158.3402 H   0  0  0  0  0  0  0  0  0  0  0  0
  152.8280  142.7237  160.3990 H   0  0  0  0  0  0  0  0  0  0  0  0
  150.1933  143.4176  160.2036 H   0  0  0  0  0  0  0  0  0  0  0  0
  151.3183  144.6061  160.8723 H   0  0  0  0  0  0  0  0  0  0  0  0
  149.9103  144.8486  158.3243 H   0  0  0  0  0  0  0  0  0  0  0  0
  151.0683  145.9631  159.0485 H   0  0  0  0  0  0  0  0  0  0  0  0
  152.3482  145.1707  157.1093 H   0  0  0  0  0  0  0  0  0  0  0  0
  149.6302  138.8346  153.4970 H   0  0  0  0  0  0  0  0  0  0  0  0
  1  2  1  0  0  0  0
  1 19  1  0  0  0  0
  1 20  1  0  0  0  0
  1 21  1  0  0  0  0
  2  3  1  0  0  0  0
  2  4  1  0  0  0  0
  2  5  1  0  0  0  0
  3 22  1  0  0  0  0
  3 23  1  0  0  0  0
  3 24  1  0  0  0  0
  4 25  1  0  0  0  0
  4 26  1  0  0  0  0
  4 27  1  0  0  0  0
  5 18  1  0  0  0  0
  5  6  2  0  0  0  0
  6  7  1  0  0  0  0
  6 40  1  0  0  0  0
  7  8  2  0  0  0  0
  7 28  1  0  0  0  0
  8  9  1  0  0  0  0
  8 29  1  0  0  0  0
  9 10  1  0  0  0  0
  9 18  2  0  0  0  0
 10 11  1  0  0  0  0
 10 30  1  0  0  0  0
 11 16  1  0  0  0  0
 11 12  1  0  0  0  0
 11 31  1  0  0  0  0
 12 13  1  0  0  0  0
 12 32  1  0  0  0  0
 12 33  1  0  0  0  0
 13 17  1  0  0  0  0
 13 14  1  0  0  0  0
 13 34  1  0  0  0  0
 14 15  1  0  0  0  0
 14 35  1  0  0  0  0
 14 36  1  0  0  0  0
 15 16  1  0  0  0  0
 15 37  1  0  0  0  0
 15 38  1  0  0  0  0
 16 17  1  0  0  0  0
 16 39  1  0  0  0  0
M  CHG  1   6   1
M  END
> <s_m_source_file>
AV-unprocessed.smi

> <i_m_source_file_index>
2883

> <i_lp_mmshare_version>
43012

> <i_f3d_flags>
0

> <s_epik_input>
W0NIM11DKFtDSDNdKShbQ0gzXSljMW5bY0hdW2NIXWMobjEpW05IXVtDQEhdKFtDSDJdW0NAQEhdMjMpW0NAQEhdKE8zKVtDSDJdW0NIMl0y

> <s_epik_cmdline>
J2VwaWtfcHl0aG9uJywgJy1waCcsICc3LjAnLCAnLXRuJywgJzgnLCAnLW1hJywgJzIwMCcsICctbWV0YWxfYmluZGluZycsICctaW1hZScsICc8aW5maWxlLm1hZT4nLCAnLW9tYWUnLCAnPG91dGZpbGUubWFlPic=

> <r_lp_tautomer_probability>
0.999336

> <r_epik_Ionization_Penalty>
0.371831

> <r_epik_Ionization_Penalty_Charging>
0.371821

> <r_epik_Ionization_Penalty_Neutral>
1.06897e-05

> <r_epik_State_Penalty>
0.369311

> <r_epik_Charging_Adjusted_Penalty>
0.741132

> <i_epik_Tot_Q>
1

> <i_epik_Tot_abs_Q>
1

> <r_epik_Metal_State_Penalty>
0.621338

> <b_epik_Metal_Only>
0

> <s_lp_Force_Field>
OPLS_2005

> <r_lp_Energy>
39.227

> <b_lp_Chiralities_Consistent>
1

> <s_lp_Variant>
AV-unprocessed.smi:2883-3

> <Gold.Version>
5.8.1

> <Gold.Id.Protein>
6NUR|6NUR_protein|mol2

> <Gold.PLP.Fitness>
41.5301

> <Gold.PLP.PLP>
-39.1966

> <Gold.PLP.part.hbond>
-2.0189

> <Gold.PLP.part.metal>
0.0000

> <Gold.PLP.part.buried>
-2.6734

> <Gold.PLP.part.nonpolar>
-34.7247

> <Gold.PLP.part.repulsive>
0.2041

> <Gold.PLP.ligand.clash>
0.0000

> <Gold.PLP.ligand.torsion>
0.4052

> <Gold.PLP.Chemscore.Hbond>
1.0000

> <Gold.PLP.Chemscore.CHOScore>
0.0000

> <Gold.PLP.Chemscore.Metal>
0.0000

> <Gold.Chemscore.Hbonds>
donor molecule, donor type, donor heavy atom, donor atom, acceptor molecule, acceptor atom, score
      L1  H    10    30       P1  8028  1.00

> <Gold.PLP.Chemscore.Internal.Correction>
0.1438

> <Gold.Rescore>
     Score         DG    S(hbond)    S(metal)    S(lipo)     H(rot)  DE(clash)    DE(int)     intcor
     17.69     -18.70       0.93        0.00     111.85       1.16       0.44       0.57       ----

> <Gold.Chemscore.Fitness>
17.6940

> <Gold.Chemscore.DG>
-18.7046

> <Gold.Chemscore.ZeroCoef>
-5.4800

> <Gold.Chemscore.Hbond>
0.9323

> <Gold.Chemscore.Metal>
0.0000

> <Gold.Chemscore.Lipo>
111.8539

> <Gold.Chemscore.Internal_Hbond>
0.0000

> <Gold.Chemscore.DEClash>
0.4436

> <Gold.Chemscore.DEInternal>
0.5669

> <Gold.Chemscore.Rot>
1.1626

> <Gold.Chemscore.Internal.Correction>
   9.000000E+99

> <Gold.Chemscore.Hbonds>
donor molecule, donor type, donor heavy atom, donor atom, acceptor molecule, acceptor atom, score
      L1  H    10    30       P1  8028  0.95

> <Gold.Chemscore.Hbond.Weighted>
-3.1140

> <Gold.Chemscore.Metal.Weighted>
-0.0000

> <Gold.Chemscore.Lipo.Weighted>
-13.0869

> <Gold.Chemscore.Internal_Hbond.Weighted>
0.0000

> <Gold.Chemscore.DEClash.Weighted>
0.4436

> <Gold.Chemscore.DEInternal.Weighted>
0.5669

> <Gold.Chemscore.Rot.Weighted>
2.9763

> <Gold.Chemscore.Internal.Correction.Weighted>
   9.000000E+99

> <Gold.Protein.RotatedTorsions>
[ 6907 6896 6895 6894 ] final   66.17 input  -60.11 | X-H torsion
[ 7974 7965 7964 7962 ] final   46.74 input  175.53 | X-H torsion
[ 8008 7997 7996 7995 ] final  -27.92 input   59.86 | X-H torsion
[ 10167 10162 10161 10158 ] final   65.41 input  -65.29 | X-H torsion
[ 10718 10713 10712 10709 ] final -160.81 input   66.30 | X-H torsion
[ 10763 10752 10751 10750 ] final -171.19 input  -60.55 | X-H torsion
[ 11005 11000 10999 10996 ] final    6.68 input  -57.11 | X-H torsion

> <Gold.Protein.ActiveResidues>
 VAL166  LYS551  ARG553  GLY616  TRP617  ASP618  TYR619  PRO620  LYS621  CYS622 
 ASP623  PHE694  ASN695  SER759  ASP760  ASP761  ALA762  ILE779  LEU786  VAL792 
 PHE793  MET794  SER795  GLU796  ALA797  LYS798  CYS799  TRP800  GLU811  SER814 

> <Gold.Protein.RotatedAtoms>
  152.4461  134.5491  159.9861 H   0  0  0  0  0  0  0  0  0  0  0  0  # atno 6907 bound_to 6896
  151.5576  133.3402  159.2973 H   0  0  0  0  0  0  0  0  0  0  0  0  # atno 6908 bound_to 6896
  150.8378  134.7690  159.6971 H   0  0  0  0  0  0  0  0  0  0  0  0  # atno 6909 bound_to 6896
  146.0362  139.4824  142.9806 H   0  0  0  0  0  0  0  0  0  0  0  0  # atno 7974 bound_to 7965
  154.4355  140.1859  156.1008 H   0  0  0  0  0  0  0  0  0  0  0  0  # atno 8008 bound_to 7997
  156.0294  140.3332  155.7097 H   0  0  0  0  0  0  0  0  0  0  0  0  # atno 8009 bound_to 7997
  155.5862  140.0626  157.2761 H   0  0  0  0  0  0  0  0  0  0  0  0  # atno 8010 bound_to 7997
  140.1116  144.4813  150.6974 H   0  0  0  0  0  0  0  0  0  0  0  0  # atno 10167 bound_to 10162
  156.5874  130.8755  151.2881 H   0  0  0  0  0  0  0  0  0  0  0  0  # atno 10718 bound_to 10713
  154.6332  135.2889  155.0192 H   0  0  0  0  0  0  0  0  0  0  0  0  # atno 10763 bound_to 10752
  154.1345  135.6528  153.4933 H   0  0  0  0  0  0  0  0  0  0  0  0  # atno 10764 bound_to 10752
  153.0290  135.5318  154.7168 H   0  0  0  0  0  0  0  0  0  0  0  0  # atno 10765 bound_to 10752
  140.5567  134.0231  155.7956 H   0  0  0  0  0  0  0  0  0  0  0  0  # atno 11005 bound_to 11000
  145.6959  141.0150  143.1530 LP  0  0  0  0  0  0  0  0  0  0  0  0  # atno 17320 bound_to 7965
  144.7053  139.8588  143.7432 LP  0  0  0  0  0  0  0  0  0  0  0  0  # atno 17321 bound_to 7965
  140.6922  143.2383  151.5099 LP  0  0  0  0  0  0  0  0  0  0  0  0  # atno 17342 bound_to 10162
  139.5616  144.2142  152.1700 LP  0  0  0  0  0  0  0  0  0  0  0  0  # atno 17343 bound_to 10162
  157.7312  130.9696  150.1868 LP  0  0  0  0  0  0  0  0  0  0  0  0  # atno 17370 bound_to 10713
  156.2579  130.3707  149.8162 LP  0  0  0  0  0  0  0  0  0  0  0  0  # atno 17371 bound_to 10713
  141.1139  133.9572  157.2859 LP  0  0  0  0  0  0  0  0  0  0  0  0  # atno 17394 bound_to 11000
  139.9428  135.0188  156.8760 LP  0  0  0  0  0  0  0  0  0  0  0  0  # atno 17395 bound_to 11000

$$$$
