AV-unprocessed.smi:1419|AV-procd|sdf|5783|dock6
  -GOLD-   22720 5433D 1   1.00000     0.00000
 Structure written by MMmdl.
 41 42  0  0  0  0  0  0  0  0  1 V2000
  148.1871  134.5309  155.7839 C   0  0  0  0  0  0  0  0  0  0  0  0
  149.5859  134.4452  155.1517 C   0  0  1  0  0  0  0  0  0  0  0  0
  149.6490  133.4823  153.9462 C   0  0  0  0  0  0  0  0  0  0  0  0
  149.6271  132.0871  154.3418 N   0  0  0  0  0  0  0  0  0  0  0  0
  150.3011  131.5039  155.4069 C   0  0  0  0  0  0  0  0  0  0  0  0
  149.9780  130.1658  155.3906 C   0  0  0  0  0  0  0  0  0  0  0  0
  149.1084  129.9063  154.3339 N   0  0  0  0  0  0  0  0  0  0  0  0
  148.9448  131.0914  153.7600 C   0  0  0  0  0  0  0  0  0  0  0  0
  150.0080  135.7820  154.7459 N   0  0  0  0  0  0  0  0  0  0  0  0
  151.0622  136.4553  155.2378 C   0  0  0  0  0  0  0  0  0  0  0  0
  151.7768  135.9955  156.1294 O   0  0  0  0  0  0  0  0  0  0  0  0
  151.2622  137.6753  154.6803 N   0  0  0  0  0  0  0  0  0  0  0  0
  152.4247  138.5530  154.8740 C   0  0  0  0  0  0  0  0  0  0  0  0
  152.0018  139.7644  155.7312 C   0  0  2  0  0  0  0  0  0  0  0  0
  151.7161  139.4185  157.2042 C   0  0  0  0  0  0  0  0  0  0  0  0
  150.8857  140.4202  155.1205 O   0  0  0  0  0  0  0  0  0  0  0  0
  149.7602  139.5882  154.8254 C   0  0  1  0  0  0  0  0  0  0  0  0
  148.7092  140.4499  154.1173 C   0  0  0  0  0  0  0  0  0  0  0  0
  150.2117  138.3959  153.9589 C   0  0  0  0  0  0  0  0  0  0  0  0
  147.8695  133.5684  156.1854 H   0  0  0  0  0  0  0  0  0  0  0  0
  147.4418  134.8505  155.0549 H   0  0  0  0  0  0  0  0  0  0  0  0
  148.1730  135.2442  156.6087 H   0  0  0  0  0  0  0  0  0  0  0  0
  150.2700  134.0849  155.9224 H   0  0  0  0  0  0  0  0  0  0  0  0
  148.8111  133.6639  153.2714 H   0  0  0  0  0  0  0  0  0  0  0  0
  150.5573  133.6534  153.3667 H   0  0  0  0  0  0  0  0  0  0  0  0
  150.9397  132.0719  156.0674 H   0  0  0  0  0  0  0  0  0  0  0  0
  150.3012  129.3766  156.0532 H   0  0  0  0  0  0  0  0  0  0  0  0
  148.3156  131.2391  152.8944 H   0  0  0  0  0  0  0  0  0  0  0  0
  149.4649  136.2282  154.0212 H   0  0  0  0  0  0  0  0  0  0  0  0
  153.2872  138.0611  155.3238 H   0  0  0  0  0  0  0  0  0  0  0  0
  152.7692  138.8980  153.8979 H   0  0  0  0  0  0  0  0  0  0  0  0
  152.8214  140.4832  155.7233 H   0  0  0  0  0  0  0  0  0  0  0  0
  152.6022  138.9991  157.6813 H   0  0  0  0  0  0  0  0  0  0  0  0
  150.9143  138.6889  157.3138 H   0  0  0  0  0  0  0  0  0  0  0  0
  151.4314  140.3102  157.7629 H   0  0  0  0  0  0  0  0  0  0  0  0
  149.3265  139.2204  155.7558 H   0  0  0  0  0  0  0  0  0  0  0  0
  147.8178  139.8679  153.8829 H   0  0  0  0  0  0  0  0  0  0  0  0
  149.0978  140.8585  153.1841 H   0  0  0  0  0  0  0  0  0  0  0  0
  148.4040  141.2872  154.7456 H   0  0  0  0  0  0  0  0  0  0  0  0
  150.6026  138.7459  153.0023 H   0  0  0  0  0  0  0  0  0  0  0  0
  149.3573  137.7617  153.7179 H   0  0  0  0  0  0  0  0  0  0  0  0
  1  2  1  0  0  0  0
  1 20  1  0  0  0  0
  1 21  1  0  0  0  0
  1 22  1  0  0  0  0
  2  3  1  0  0  0  0
  2  9  1  0  0  0  0
  2 23  1  0  0  0  0
  3  4  1  0  0  0  0
  3 24  1  0  0  0  0
  3 25  1  0  0  0  0
  4  8  1  0  0  0  0
  4  5  1  0  0  0  0
  5  6  2  0  0  0  0
  5 26  1  0  0  0  0
  6  7  1  0  0  0  0
  6 27  1  0  0  0  0
  7  8  2  0  0  0  0
  8 28  1  0  0  0  0
  9 10  1  0  0  0  0
  9 29  1  0  0  0  0
 10 11  2  0  0  0  0
 10 12  1  0  0  0  0
 12 19  1  0  0  0  0
 12 13  1  0  0  0  0
 13 14  1  0  0  0  0
 13 30  1  0  0  0  0
 13 31  1  0  0  0  0
 14 15  1  0  0  0  0
 14 16  1  0  0  0  0
 14 32  1  0  0  0  0
 15 33  1  0  0  0  0
 15 34  1  0  0  0  0
 15 35  1  0  0  0  0
 16 17  1  0  0  0  0
 17 18  1  0  0  0  0
 17 19  1  0  0  0  0
 17 36  1  0  0  0  0
 18 37  1  0  0  0  0
 18 38  1  0  0  0  0
 18 39  1  0  0  0  0
 19 40  1  0  0  0  0
 19 41  1  0  0  0  0
M  END
> <s_m_source_file>
AV-unprocessed.smi

> <i_m_source_file_index>
1419

> <i_lp_mmshare_version>
43012

> <i_f3d_flags>
0

> <s_epik_input>
W2NIXTFuW2NIXVtjSF1uMVtDSDJdW0NAQEhdKFtDSDNdKVtOSF1DKD1PKU4yW0NIMl1bQ0BASF0oW0NIM10pT1tDQEBIXShbQ0gzXSlbQ0gyXTI=

> <s_epik_cmdline>
J2VwaWtfcHl0aG9uJywgJy1waCcsICc3LjAnLCAnLXRuJywgJzgnLCAnLW1hJywgJzIwMCcsICctbWV0YWxfYmluZGluZycsICctaW1hZScsICc8aW5maWxlLm1hZT4nLCAnLW9tYWUnLCAnPG91dGZpbGUubWFlPic=

> <r_lp_tautomer_probability>
1

> <r_epik_Ionization_Penalty>
0.625124

> <r_epik_Ionization_Penalty_Charging>
0.625093

> <r_epik_Ionization_Penalty_Neutral>
3.17415e-05

> <r_epik_State_Penalty>
0.641455

> <r_epik_Charging_Adjusted_Penalty>
1.26655

> <i_epik_Tot_Q>
0

> <i_epik_Tot_abs_Q>
0

> <r_epik_Metal_State_Penalty>
0.307717

> <b_epik_Metal_Only>
0

> <s_lp_Force_Field>
OPLS_2005

> <r_lp_Energy>
30.8813

> <b_lp_Chiralities_Consistent>
1

> <s_lp_Variant>
AV-unprocessed.smi:1419-10

> <Gold.Version>
5.8.1

> <Gold.Id.Protein>
6NUR|6NUR_protein|mol2

> <Gold.PLP.Fitness>
45.0076

> <Gold.PLP.PLP>
-35.6055

> <Gold.PLP.part.hbond>
-3.0000

> <Gold.PLP.part.metal>
0.0000

> <Gold.PLP.part.buried>
-1.0604

> <Gold.PLP.part.nonpolar>
-31.3161

> <Gold.PLP.part.repulsive>
0.2179

> <Gold.PLP.ligand.clash>
0.4596

> <Gold.PLP.ligand.torsion>
0.4875

> <Gold.PLP.Chemscore.Hbond>
2.7842

> <Gold.PLP.Chemscore.CHOScore>
0.8115

> <Gold.PLP.Chemscore.Metal>
0.0000

> <Gold.Chemscore.Hbonds>
donor molecule, donor type, donor heavy atom, donor atom, acceptor molecule, acceptor atom, score
      L1  H     9    29       P1  7948  0.53
      P1  H  7989  7998       L1    16  1.00
      P1  H 10752 10763       L1    11  0.75
      L1  C     8    28       P1 10747  0.51

> <Gold.PLP.Chemscore.Internal.Correction>
0.0498

> <Gold.Rescore>
     Score         DG    S(hbond)    S(metal)    S(lipo)     H(rot)  DE(clash)    DE(int)     intcor
     12.25     -13.30       1.26        0.00      65.43       1.58       0.55       0.50       ----

> <Gold.Chemscore.Fitness>
12.2506

> <Gold.Chemscore.DG>
-13.3002

> <Gold.Chemscore.ZeroCoef>
-5.4800

> <Gold.Chemscore.Hbond>
1.2580

> <Gold.Chemscore.Metal>
0.0000

> <Gold.Chemscore.Lipo>
65.4296

> <Gold.Chemscore.Internal_Hbond>
0.0000

> <Gold.Chemscore.DEClash>
0.5498

> <Gold.Chemscore.DEInternal>
0.4998

> <Gold.Chemscore.Rot>
1.5769

> <Gold.Chemscore.Internal.Correction>
   9.000000E+99

> <Gold.Chemscore.Hbonds>
donor molecule, donor type, donor heavy atom, donor atom, acceptor molecule, acceptor atom, score
      L1  H     9    29       P1  7948  0.39
      P1  H  7989  7998       L1    16  0.15
      P1  H 10752 10763       L1    11  0.09

> <Gold.Chemscore.Hbond.Weighted>
-4.2019

> <Gold.Chemscore.Metal.Weighted>
-0.0000

> <Gold.Chemscore.Lipo.Weighted>
-7.6553

> <Gold.Chemscore.Internal_Hbond.Weighted>
0.0000

> <Gold.Chemscore.DEClash.Weighted>
0.5498

> <Gold.Chemscore.DEInternal.Weighted>
0.4998

> <Gold.Chemscore.Rot.Weighted>
4.0369

> <Gold.Chemscore.Internal.Correction.Weighted>
   9.000000E+99

> <Gold.Protein.RotatedTorsions>
[ 6907 6896 6895 6894 ] final   -0.08 input  -60.11 | X-H torsion
[ 7974 7965 7964 7962 ] final   20.82 input  175.53 | X-H torsion
[ 8008 7997 7996 7995 ] final  -96.63 input   59.86 | X-H torsion
[ 10167 10162 10161 10158 ] final   -6.21 input  -65.29 | X-H torsion
[ 10718 10713 10712 10709 ] final   35.09 input   66.30 | X-H torsion
[ 10763 10752 10751 10750 ] final   86.94 input  -60.55 | X-H torsion
[ 11005 11000 10999 10996 ] final -107.99 input  -57.11 | X-H torsion

> <Gold.Protein.ActiveResidues>
 VAL166  LYS551  ARG553  GLY616  TRP617  ASP618  TYR619  PRO620  LYS621  CYS622 
 ASP623  PHE694  ASN695  SER759  ASP760  ASP761  ALA762  ILE779  LEU786  VAL792 
 PHE793  MET794  SER795  GLU796  ALA797  LYS798  CYS799  TRP800  GLU811  SER814 

> <Gold.Protein.RotatedAtoms>
  151.5681  135.1063  159.9988 H   0  0  0  0  0  0  0  0  0  0  0  0  # atno 6907 bound_to 6896
  152.4414  133.7451  159.6673 H   0  0  0  0  0  0  0  0  0  0  0  0  # atno 6908 bound_to 6896
  150.8320  133.8006  159.3118 H   0  0  0  0  0  0  0  0  0  0  0  0  # atno 6909 bound_to 6896
  146.2096  139.8115  142.8699 H   0  0  0  0  0  0  0  0  0  0  0  0  # atno 7974 bound_to 7965
  154.7770  140.0469  157.1097 H   0  0  0  0  0  0  0  0  0  0  0  0  # atno 8008 bound_to 7997
  154.9750  140.3094  155.4951 H   0  0  0  0  0  0  0  0  0  0  0  0  # atno 8009 bound_to 7997
  156.2930  140.2246  156.4846 H   0  0  0  0  0  0  0  0  0  0  0  0  # atno 8010 bound_to 7997
  140.6989  143.6219  150.8604 H   0  0  0  0  0  0  0  0  0  0  0  0  # atno 10167 bound_to 10162
  157.3184  130.7435  149.6769 H   0  0  0  0  0  0  0  0  0  0  0  0  # atno 10718 bound_to 10713
  153.1619  135.4562  154.9783 H   0  0  0  0  0  0  0  0  0  0  0  0  # atno 10763 bound_to 10752
  154.7904  135.3218  154.7794 H   0  0  0  0  0  0  0  0  0  0  0  0  # atno 10764 bound_to 10752
  153.8282  135.6941  153.4872 H   0  0  0  0  0  0  0  0  0  0  0  0  # atno 10765 bound_to 10752
  141.0925  133.9029  157.2041 H   0  0  0  0  0  0  0  0  0  0  0  0  # atno 11005 bound_to 11000
  145.3191  141.0239  143.3511 LP  0  0  0  0  0  0  0  0  0  0  0  0  # atno 17320 bound_to 7965
  144.8880  139.4813  143.6691 LP  0  0  0  0  0  0  0  0  0  0  0  0  # atno 17321 bound_to 7965
  139.9940  143.5816  152.2900 LP  0  0  0  0  0  0  0  0  0  0  0  0  # atno 17342 bound_to 10162
  139.6481  144.7659  151.2202 LP  0  0  0  0  0  0  0  0  0  0  0  0  # atno 17343 bound_to 10162
  155.9683  130.4230  150.4543 LP  0  0  0  0  0  0  0  0  0  0  0  0  # atno 17370 bound_to 10713
  157.2554  131.0555  151.2353 LP  0  0  0  0  0  0  0  0  0  0  0  0  # atno 17371 bound_to 10713
  139.9754  135.0115  156.9618 LP  0  0  0  0  0  0  0  0  0  0  0  0  # atno 17394 bound_to 11000
  140.5218  134.0900  155.7294 LP  0  0  0  0  0  0  0  0  0  0  0  0  # atno 17395 bound_to 11000

$$$$
