AV-unprocessed.smi:103|AV-procd|sdf|991|dock1
  -GOLD-   2262017563D 1   1.00000     0.00000
 Structure written by MMmdl.
 53 55  0  0  0  0  0  0  0  0  1 V2000
  145.1156  136.2549  160.9290 C   0  0  0  0  0  0  0  0  0  0  0  0
  146.4434  136.7333  160.3573 C   0  0  0  0  0  0  0  0  0  0  0  0
  147.2903  137.2763  161.0673 O   0  0  0  0  0  0  0  0  0  0  0  0
  146.5524  136.4873  159.0424 O   0  0  0  0  0  0  0  0  0  0  0  0
  147.6507  137.0128  158.3142 C   0  0  0  0  0  0  0  0  0  0  0  0
  148.9617  136.4762  158.9149 C   0  0  2  0  0  0  0  0  0  0  0  0
  149.6979  137.5920  159.4232 O   0  0  0  0  0  0  0  0  0  0  0  0
  150.9065  137.7413  158.7426 C   0  0  2  0  0  0  0  0  0  0  0  0
  151.1988  139.1995  158.5436 N   0  0  0  0  0  0  0  0  0  0  0  0
  152.3367  139.9078  158.8733 C   0  0  0  0  0  0  0  0  0  0  0  0
  153.7714  139.2703  159.7292 S   0  0  0  0  0  0  0  0  0  0  0  0
  154.1843  140.6660  160.8519 C   0  0  0  0  0  0  0  0  0  0  0  0
  153.3282  138.1206  160.5323 O   0  0  0  0  0  0  0  0  0  0  0  0
  154.8365  139.1160  158.7260 O   0  0  0  0  0  0  0  0  0  0  0  0
  152.3206  141.1908  158.6353 N   0  0  0  0  0  0  0  0  0  0  0  0
  151.0932  141.3789  158.0168 C   0  0  0  0  0  0  0  0  0  0  0  0
  150.4329  142.5047  157.4634 C   0  0  0  0  0  0  0  0  0  0  0  0
  150.9675  143.7337  157.4531 N   0  0  0  0  0  0  0  0  0  0  0  0
  149.2069  142.3324  156.9168 N   0  0  0  0  0  0  0  0  0  0  0  0
  148.6524  141.1165  156.9150 C   0  0  0  0  0  0  0  0  0  0  0  0
  149.1461  139.9743  157.3987 N   0  0  0  0  0  0  0  0  0  0  0  0
  150.3836  140.1453  157.9491 C   0  0  0  0  0  0  0  0  0  0  0  0
  150.7814  136.9632  157.4267 C   0  0  2  0  0  0  0  0  0  0  0  0
  150.1416  137.7397  156.4141 O   0  0  0  0  0  0  0  0  0  0  0  0
  150.4378  137.5586  155.1149 C   0  0  0  0  0  0  0  0  0  0  0  0
  149.8049  138.6213  154.2275 C   0  0  0  0  0  0  0  0  0  0  0  0
  151.1505  136.6700  154.6489 O   0  0  0  0  0  0  0  0  0  0  0  0
  149.9046  135.8167  157.8923 C   0  0  2  0  0  0  0  0  0  0  0  0
  149.2677  135.1613  156.8008 O   0  0  0  0  0  0  0  0  0  0  0  0
  149.6695  133.9375  156.4194 C   0  0  0  0  0  0  0  0  0  0  0  0
  149.1485  133.5599  155.0393 C   0  0  0  0  0  0  0  0  0  0  0  0
  150.3704  133.1676  157.0761 O   0  0  0  0  0  0  0  0  0  0  0  0
  144.9011  135.2398  160.5942 H   0  0  0  0  0  0  0  0  0  0  0  0
  144.3061  136.9073  160.6010 H   0  0  0  0  0  0  0  0  0  0  0  0
  145.1447  136.2593  162.0191 H   0  0  0  0  0  0  0  0  0  0  0  0
  147.5496  136.7002  157.2747 H   0  0  0  0  0  0  0  0  0  0  0  0
  147.6473  138.1028  158.3251 H   0  0  0  0  0  0  0  0  0  0  0  0
  148.7376  135.7748  159.7192 H   0  0  0  0  0  0  0  0  0  0  0  0
  151.7033  137.3672  159.3845 H   0  0  0  0  0  0  0  0  0  0  0  0
  155.0599  140.4067  161.4462 H   0  0  0  0  0  0  0  0  0  0  0  0
  153.3413  140.8651  161.5130 H   0  0  0  0  0  0  0  0  0  0  0  0
  154.3980  141.5559  160.2600 H   0  0  0  0  0  0  0  0  0  0  0  0
  151.8822  143.8874  157.8529 H   0  0  0  0  0  0  0  0  0  0  0  0
  150.4567  144.5022  157.0435 H   0  0  0  0  0  0  0  0  0  0  0  0
  147.6737  141.0478  156.4631 H   0  0  0  0  0  0  0  0  0  0  0  0
  151.7585  136.6030  157.1040 H   0  0  0  0  0  0  0  0  0  0  0  0
  150.0745  139.6171  154.5809 H   0  0  0  0  0  0  0  0  0  0  0  0
  148.7187  138.5290  154.2428 H   0  0  0  0  0  0  0  0  0  0  0  0
  150.1480  138.5153  153.1981 H   0  0  0  0  0  0  0  0  0  0  0  0
  150.5508  135.1132  158.4208 H   0  0  0  0  0  0  0  0  0  0  0  0
  149.3201  134.3714  154.3317 H   0  0  0  0  0  0  0  0  0  0  0  0
  148.0783  133.3575  155.0831 H   0  0  0  0  0  0  0  0  0  0  0  0
  149.6550  132.6679  154.6699 H   0  0  0  0  0  0  0  0  0  0  0  0
  1  2  1  0  0  0  0
  1 33  1  0  0  0  0
  1 34  1  0  0  0  0
  1 35  1  0  0  0  0
  2  3  2  0  0  0  0
  2  4  1  0  0  0  0
  4  5  1  0  0  0  0
  5  6  1  0  0  0  0
  5 36  1  0  0  0  0
  5 37  1  0  0  0  0
  6 28  1  0  0  0  0
  6  7  1  0  0  0  0
  6 38  1  0  0  0  0
  7  8  1  0  0  0  0
  8  9  1  0  0  0  0
  8 23  1  0  0  0  0
  8 39  1  0  0  0  0
  9 22  1  0  0  0  0
  9 10  1  0  0  0  0
 10 11  1  0  0  0  0
 10 15  2  0  0  0  0
 11 12  1  0  0  0  0
 11 13  2  0  0  0  0
 11 14  2  0  0  0  0
 12 40  1  0  0  0  0
 12 41  1  0  0  0  0
 12 42  1  0  0  0  0
 15 16  1  0  0  0  0
 16 22  2  0  0  0  0
 16 17  1  0  0  0  0
 17 18  1  0  0  0  0
 17 19  2  0  0  0  0
 18 43  1  0  0  0  0
 18 44  1  0  0  0  0
 19 20  1  0  0  0  0
 20 21  2  0  0  0  0
 20 45  1  0  0  0  0
 21 22  1  0  0  0  0
 23 24  1  0  0  0  0
 23 28  1  0  0  0  0
 23 46  1  0  0  0  0
 24 25  1  0  0  0  0
 25 26  1  0  0  0  0
 25 27  2  0  0  0  0
 26 47  1  0  0  0  0
 26 48  1  0  0  0  0
 26 49  1  0  0  0  0
 28 29  1  0  0  0  0
 28 50  1  0  0  0  0
 29 30  1  0  0  0  0
 30 31  1  0  0  0  0
 30 32  2  0  0  0  0
 31 51  1  0  0  0  0
 31 52  1  0  0  0  0
 31 53  1  0  0  0  0
M  END
> <s_m_source_file>
AV-unprocessed.smi

> <i_m_source_file_index>
103

> <i_lp_mmshare_version>
43012

> <i_f3d_flags>
0

> <s_epik_input>
W0NIM11DKD1PKU9bQ0gyXVtDQEBIXTFPW0NASF0oW0NAQEhdKE9DKD1PKVtDSDNdKVtDQEhdMU9DKD1PKVtDSDNdKW4oYyhuMilTKD1PKSg9TylbQ0gzXSljKGMyMyluW2NIXW5jM1tOSDJd

> <s_epik_cmdline>
J2VwaWtfcHl0aG9uJywgJy1waCcsICc3LjAnLCAnLXRuJywgJzgnLCAnLW1hJywgJzIwMCcsICctbWV0YWxfYmluZGluZycsICctaW1hZScsICc8aW5maWxlLm1hZT4nLCAnLW9tYWUnLCAnPG91dGZpbGUubWFlPic=

> <r_lp_tautomer_probability>
1

> <r_epik_Ionization_Penalty>
1.51338e-05

> <r_epik_Ionization_Penalty_Charging>
0

> <r_epik_Ionization_Penalty_Neutral>
1.51338e-05

> <r_epik_State_Penalty>
-0

> <r_epik_Charging_Adjusted_Penalty>
0

> <i_epik_Tot_Q>
0

> <i_epik_Tot_abs_Q>
0

> <r_epik_Metal_State_Penalty>
-0

> <b_epik_Metal_Only>
0

> <s_epik_Chemistry_Notes>
This compound has an ester and may undergo hydrolysis at high or low pH. This compound contains an acetal/aminal-like group ( X-CH(R)-Y where X, Y are N, S, or O) that may be acid/base labile, releasing an aldehyde.

> <s_lp_Force_Field>
OPLS_2005

> <r_lp_Energy>
16.3317

> <b_lp_Chiralities_Consistent>
1

> <s_lp_Variant>
AV-unprocessed.smi:103-15

> <Gold.Version>
5.8.1

> <Gold.Id.Protein>
6NUR|6NUR_protein|mol2

> <Gold.PLP.Fitness>
45.0686

> <Gold.PLP.PLP>
-32.4090

> <Gold.PLP.part.hbond>
-7.0000

> <Gold.PLP.part.metal>
0.0000

> <Gold.PLP.part.buried>
-4.2564

> <Gold.PLP.part.nonpolar>
-24.1956

> <Gold.PLP.part.repulsive>
1.9921

> <Gold.PLP.ligand.clash>
0.0000

> <Gold.PLP.ligand.torsion>
3.4089

> <Gold.PLP.Chemscore.Hbond>
5.6800

> <Gold.PLP.Chemscore.CHOScore>
0.0000

> <Gold.PLP.Chemscore.Metal>
0.0000

> <Gold.Chemscore.Hbonds>
donor molecule, donor type, donor heavy atom, donor atom, acceptor molecule, acceptor atom, score
      L1  H    18    44       P1  8028  0.67
      P1  H  6896  6907       L1    32  0.36
      P1  H  6931  6943       L1     3  0.54
      P1  H  6934  6947       L1     3  1.00
      P1  H  7997  8008       L1    14  1.00
      P1  H 10752 10764       L1    27  0.83

> <Gold.PLP.Chemscore.Internal.Correction>
2.4374

> <Gold.Rescore>
     Score         DG    S(hbond)    S(metal)    S(lipo)     H(rot)  DE(clash)    DE(int)     intcor
      9.31     -17.57       5.34        0.00      43.80       4.25       2.03       6.24       ----

> <Gold.Chemscore.Fitness>
9.3055

> <Gold.Chemscore.DG>
-17.5688

> <Gold.Chemscore.ZeroCoef>
-5.4800

> <Gold.Chemscore.Hbond>
5.3392

> <Gold.Chemscore.Metal>
0.0000

> <Gold.Chemscore.Lipo>
43.7998

> <Gold.Chemscore.Internal_Hbond>
0.0000

> <Gold.Chemscore.DEClash>
2.0267

> <Gold.Chemscore.DEInternal>
6.2366

> <Gold.Chemscore.Rot>
4.2456

> <Gold.Chemscore.Internal.Correction>
   9.000000E+99

> <Gold.Chemscore.Hbonds>
donor molecule, donor type, donor heavy atom, donor atom, acceptor molecule, acceptor atom, score
      L1  H    18    44       P1  8028  0.54
      P1  H  6896  6907       L1    32  0.35
      P1  H  6931  6943       L1     3  0.53
      P1  H  6934  6947       L1     3  0.77
      P1  H  7997  8008       L1    14  0.95
      P1  H 10752 10764       L1    27  0.82

> <Gold.Chemscore.Hbond.Weighted>
-17.8329

> <Gold.Chemscore.Metal.Weighted>
-0.0000

> <Gold.Chemscore.Lipo.Weighted>
-5.1246

> <Gold.Chemscore.Internal_Hbond.Weighted>
0.0000

> <Gold.Chemscore.DEClash.Weighted>
2.0267

> <Gold.Chemscore.DEInternal.Weighted>
6.2366

> <Gold.Chemscore.Rot.Weighted>
10.8687

> <Gold.Chemscore.Internal.Correction.Weighted>
   9.000000E+99

> <Gold.Protein.RotatedTorsions>
[ 6907 6896 6895 6894 ] final -149.22 input  -60.11 | X-H torsion
[ 7974 7965 7964 7962 ] final  -48.37 input  175.53 | X-H torsion
[ 8008 7997 7996 7995 ] final -141.10 input   59.86 | X-H torsion
[ 10167 10162 10161 10158 ] final  -68.01 input  -65.29 | X-H torsion
[ 10718 10713 10712 10709 ] final -155.82 input   66.30 | X-H torsion
[ 10763 10752 10751 10750 ] final  -81.28 input  -60.55 | X-H torsion
[ 11005 11000 10999 10996 ] final -156.35 input  -57.11 | X-H torsion

> <Gold.Protein.ActiveResidues>
 VAL166  LYS551  ARG553  GLY616  TRP617  ASP618  TYR619  PRO620  LYS621  CYS622 
 ASP623  PHE694  ASN695  SER759  ASP760  ASP761  ALA762  ILE779  LEU786  VAL792 
 PHE793  MET794  SER795  GLU796  ALA797  LYS798  CYS799  TRP800  GLU811  SER814 

> <Gold.Protein.RotatedAtoms>
  151.1810  133.4725  159.2593 H   0  0  0  0  0  0  0  0  0  0  0  0  # atno 6907 bound_to 6896
  151.1259  135.0104  159.8570 H   0  0  0  0  0  0  0  0  0  0  0  0  # atno 6908 bound_to 6896
  152.5458  134.1717  159.8652 H   0  0  0  0  0  0  0  0  0  0  0  0  # atno 6909 bound_to 6896
  145.9519  140.7564  142.9500 H   0  0  0  0  0  0  0  0  0  0  0  0  # atno 7974 bound_to 7965
  155.4722  140.0554  157.2978 H   0  0  0  0  0  0  0  0  0  0  0  0  # atno 8008 bound_to 7997
  154.4694  140.2033  155.9988 H   0  0  0  0  0  0  0  0  0  0  0  0  # atno 8009 bound_to 7997
  156.1029  140.3216  155.7971 H   0  0  0  0  0  0  0  0  0  0  0  0  # atno 8010 bound_to 7997
  140.5540  143.2312  151.6857 H   0  0  0  0  0  0  0  0  0  0  0  0  # atno 10167 bound_to 10162
  156.5180  130.8465  151.2671 H   0  0  0  0  0  0  0  0  0  0  0  0  # atno 10718 bound_to 10713
  154.5617  135.5631  153.7013 H   0  0  0  0  0  0  0  0  0  0  0  0  # atno 10763 bound_to 10752
  153.0020  135.6275  154.2236 H   0  0  0  0  0  0  0  0  0  0  0  0  # atno 10764 bound_to 10752
  154.2174  135.2871  155.2917 H   0  0  0  0  0  0  0  0  0  0  0  0  # atno 10765 bound_to 10752
  140.6765  134.4190  157.5229 H   0  0  0  0  0  0  0  0  0  0  0  0  # atno 11005 bound_to 11000
  144.6797  140.2449  143.7339 LP  0  0  0  0  0  0  0  0  0  0  0  0  # atno 17320 bound_to 7965
  145.8159  139.2023  143.1966 LP  0  0  0  0  0  0  0  0  0  0  0  0  # atno 17321 bound_to 7965
  139.5039  144.3772  152.0412 LP  0  0  0  0  0  0  0  0  0  0  0  0  # atno 17342 bound_to 10162
  140.2892  144.3773  150.6094 LP  0  0  0  0  0  0  0  0  0  0  0  0  # atno 17343 bound_to 10162
  157.7441  130.9927  150.2645 LP  0  0  0  0  0  0  0  0  0  0  0  0  # atno 17370 bound_to 10713
  156.3176  130.3781  149.7604 LP  0  0  0  0  0  0  0  0  0  0  0  0  # atno 17371 bound_to 10713
  139.8965  134.8658  156.2085 LP  0  0  0  0  0  0  0  0  0  0  0  0  # atno 17394 bound_to 11000
  141.0351  133.6968  156.1498 LP  0  0  0  0  0  0  0  0  0  0  0  0  # atno 17395 bound_to 11000

$$$$
