#       Name:                AV-unprocessed.smi:3042
#       Creating user name   scv26
#       Creation time:       Fri Mar 27 16:58:03 2020


#       File generated by GOLD software.
#

@<TRIPOS>MOLECULE
AV-unprocessed.smi:3042
    37    38     1
SMALL
NO_CHARGES


@<TRIPOS>ATOM
      1 ****        -2.5133   2.0153   0.4901 N.3            1 S1                 0.0000
      2 ****        -2.0319   0.6240   0.5119 C.3            1 S1                 0.0000
      3 ****        -0.4874   0.5117   0.4484 C.3            1 S1                 0.0000
      4 ****         0.0082   1.2414  -0.7993 C.ar           1 S1                 0.0000
      5 ****        -0.2575   0.7454  -2.0946 C.ar           1 S1                 0.0000
      6 ****         0.2170   1.4631  -3.2091 C.ar           1 S1                 0.0000
      7 ****         0.9389   2.6517  -2.9831 C.ar           1 S1                 0.0000
      8 ****         1.1997   3.1378  -1.7506 N.ar           1 S1                 0.0000
      9 ****         0.7400   2.4438  -0.6872 C.ar           1 S1                 0.0000
     10 ****         0.0259  -0.8730   0.5056 N.3            1 S1                 0.0000
     11 ****         1.4929  -0.9129   0.4970 C.3            1 S1                 0.0000
     12 ****         2.0453  -2.3469   0.5621 C.3            1 S1                 0.0000
     13 ****         1.5449  -2.9971   1.7232 O.3            1 S1                 0.0000
     14 ****         0.1241  -3.0384   1.7473 C.3            1 S1                 0.0000
     15 ****        -0.4395  -1.6079   1.6849 C.3            1 S1                 0.0000
     16 ****        -3.5286   2.0425   0.5716 H              1 S1                 0.0000
     17 ****        -2.1360   2.5353   1.2808 H              1 S1                 0.0000
     18 ****        -2.4084   0.1591   1.4213 H              1 S1                 0.0000
     19 ****        -2.4750   0.0722  -0.3177 H              1 S1                 0.0000
     20 ****        -0.0936   1.0492   1.3129 H              1 S1                 0.0000
     21 ****        -0.8154  -0.1692  -2.2320 H              1 S1                 0.0000
     22 ****         0.0306   1.1118  -4.2131 H              1 S1                 0.0000
     23 ****         1.3162   3.2281  -3.8148 H              1 S1                 0.0000
     24 ****         0.9649   2.8621   0.2831 H              1 S1                 0.0000
     25 ****         1.8859  -0.4417  -0.4036 H              1 S1                 0.0000
     26 ****         1.8817  -0.3408   1.3408 H              1 S1                 0.0000
     27 ****         1.7678  -2.9104  -0.3301 H              1 S1                 0.0000
     28 ****         3.1344  -2.3314   0.6059 H              1 S1                 0.0000
     29 ****        -0.2443  -3.6349   0.9113 H              1 S1                 0.0000
     30 ****        -0.2018  -3.5341   2.6617 H              1 S1                 0.0000
     31 ****        -0.1608  -1.0687   2.5914 H              1 S1                 0.0000
     32 ****        -1.5251  -1.6879   1.6841 H              1 S1                 0.0000
     33 ****        -2.2163   2.4203  -0.3747 LP             1 S1                 0.0000
     34 ****         1.7169   3.9850  -1.6291 LP             1 S1                 0.0000
     35 ****        -0.3357  -1.3141  -0.3158 LP             1 S1                 0.0000
     36 ****         1.8662  -2.5041   2.5317 LP             1 S1                 0.0000
     37 ****         1.8944  -3.9338   1.7432 LP             1 S1                 0.0000
@<TRIPOS>BOND
    1    1    2 1     
    2    1   16 1     
    3    1   17 1     
    4    2    3 1     
    5    2   18 1     
    6    2   19 1     
    7    3    4 1     
    8    3   10 1     
    9    3   20 1     
   10    4    9 ar    
   11    4    5 ar    
   12    5    6 ar    
   13    5   21 1     
   14    6    7 ar    
   15    6   22 1     
   16    7    8 ar    
   17    7   23 1     
   18    8    9 ar    
   19    9   24 1     
   20   10   15 1     
   21   10   11 1     
   22   11   12 1     
   23   11   25 1     
   24   11   26 1     
   25   12   13 1     
   26   12   27 1     
   27   12   28 1     
   28   13   14 1     
   29   14   15 1     
   30   14   29 1     
   31   14   30 1     
   32   15   31 1     
   33   15   32 1     
   34    1   33 1     
   35    8   34 1     
   36   10   35 1     
   37   13   36 1     
   38   13   37 1     
@<TRIPOS>SUBSTRUCTURE
      1 S1             1
@<TRIPOS>SET
LONE_PAIRS      STATIC     ATOMS    <user>   **** ""
5 33 34 35 36 37
DONOR_HYDROGENS      STATIC     ATOMS    <user>   **** ""
2 16 17
ATOM$BLUE        STATIC     ATOMS    COLORGROUP SYSTEM
5 33 34 35 36 37
ATOM$RED        STATIC     ATOMS    COLORGROUP SYSTEM
2 16 17
