#       Name:                AV-unprocessed.smi:824
#       Creating user name   scv26
#       Creation time:       Fri Mar 27 01:29:48 2020


#       File generated by GOLD software.
#

@<TRIPOS>MOLECULE
AV-unprocessed.smi:824
    59    60     1
SMALL
NO_CHARGES


@<TRIPOS>ATOM
      1 ****        -0.2531   1.9494  -2.4876 C.3            1 S1                 0.0000
      2 ****        -0.9026   1.4551  -1.2072 C.2            1 S1                 0.0000
      3 ****        -0.3211   1.9212  -0.0193 N.2            1 S1                 0.0000
      4 ****        -0.7938   1.5466   1.1305 C.2            1 S1                 0.0000
      5 ****        -0.2205   1.9566   2.3353 N.pl3          1 S1                 0.0000
      6 ****         0.1380   0.9715   3.3576 C.3            1 S1                 0.0000
      7 ****         0.2441   1.6213   4.7469 C.3            1 S1                 0.0000
      8 ****         1.1698   2.6992   4.7038 O.3            1 S1                 0.0000
      9 ****         0.7472   3.7076   3.7959 C.3            1 S1                 0.0000
     10 ****         0.6606   3.1232   2.3764 C.3            1 S1                 0.0000
     11 ****        -1.8960   0.7159   1.2472 N.pl3          1 S1                -1.0000
     12 ****        -2.5189   0.2342   0.1354 C.2            1 S1                 0.0000
     13 ****        -3.5114  -0.4893   0.2082 O.2            1 S1                 0.0000
     14 ****        -1.9694   0.6049  -1.1810 C.2            1 S1                 0.0000
     15 ****        -2.6339   0.0320  -2.4378 C.3            1 S1                 0.0000
     16 ****        -2.3831  -1.4788  -2.6554 C.3            1 S1                 0.0000
     17 ****        -0.8864  -1.8283  -2.7572 C.2            1 S1                 0.0000
     18 ****        -0.2680  -1.3934  -3.7297 O.2            1 S1                 0.0000
     19 ****        -0.2828  -2.5674  -1.7925 N.am           1 S1                 0.0000
     20 ****        -1.0091  -3.2183  -0.6979 C.3            1 S1                 0.0000
     21 ****         1.1744  -2.7770  -1.8014 C.3            1 S1                 0.0000
     22 ****         1.9554  -1.5517  -1.2698 C.3            1 S1                 0.0000
     23 ****         3.4681  -1.7571  -1.4349 C.3            1 S1                 0.0000
     24 ****         1.6130  -1.2227   0.1935 C.3            1 S1                 0.0000
     25 ****         0.1387   1.1173  -3.0700 H              1 S1                 0.0000
     26 ****         0.5776   2.6228  -2.2734 H              1 S1                 0.0000
     27 ****        -0.9738   2.4947  -3.0968 H              1 S1                 0.0000
     28 ****        -0.5880   0.1593   3.4014 H              1 S1                 0.0000
     29 ****         1.0930   0.5205   3.0851 H              1 S1                 0.0000
     30 ****        -0.7311   1.9752   5.0853 H              1 S1                 0.0000
     31 ****         0.5876   0.8890   5.4775 H              1 S1                 0.0000
     32 ****        -0.2159   4.1153   4.1076 H              1 S1                 0.0000
     33 ****         1.4631   4.5291   3.8197 H              1 S1                 0.0000
     34 ****         1.6530   2.8297   2.0317 H              1 S1                 0.0000
     35 ****         0.2999   3.8940   1.6938 H              1 S1                 0.0000
     36 ****        -3.7073   0.2144  -2.3765 H              1 S1                 0.0000
     37 ****        -2.3099   0.5764  -3.3237 H              1 S1                 0.0000
     38 ****        -2.9017  -2.0534  -1.8913 H              1 S1                 0.0000
     39 ****        -2.8516  -1.7776  -3.5935 H              1 S1                 0.0000
     40 ****        -1.7468  -3.9202  -1.0884 H              1 S1                 0.0000
     41 ****        -1.5225  -2.4820  -0.0808 H              1 S1                 0.0000
     42 ****        -0.3543  -3.7774  -0.0298 H              1 S1                 0.0000
     43 ****         1.4445  -3.6617  -1.2237 H              1 S1                 0.0000
     44 ****         1.4992  -3.0066  -2.8180 H              1 S1                 0.0000
     45 ****         1.6836  -0.6836  -1.8714 H              1 S1                 0.0000
     46 ****         3.8203  -2.6028  -0.8438 H              1 S1                 0.0000
     47 ****         4.0217  -0.8738  -1.1155 H              1 S1                 0.0000
     48 ****         3.7275  -1.9475  -2.4767 H              1 S1                 0.0000
     49 ****         1.8604  -2.0528   0.8557 H              1 S1                 0.0000
     50 ****         0.5529  -1.0056   0.3175 H              1 S1                 0.0000
     51 ****         2.1611  -0.3454   0.5383 H              1 S1                 0.0000
     52 ****         0.4602   2.5441  -0.0579 LP             1 S1                 0.0000
     53 ****         2.0610   2.3515   4.4126 LP             1 S1                 0.0000
     54 ****         1.2495   3.0967   5.6179 LP             1 S1                 0.0000
     55 ****        -2.2370   0.4679   2.1540 LP             1 S1                 0.0000
     56 ****        -3.8832  -0.7397   1.1021 LP             1 S1                 0.0000
     57 ****        -3.9463  -0.8270  -0.6265 LP             1 S1                 0.0000
     58 ****        -0.7395  -0.8373  -4.4141 LP             1 S1                 0.0000
     59 ****         0.7055  -1.5965  -3.8348 LP             1 S1                 0.0000
@<TRIPOS>BOND
    1    1    2 1     
    2    1   25 1     
    3    1   26 1     
    4    1   27 1     
    5    2   14 2     
    6    2    3 1     
    7    3    4 2     
    8    4    5 1     
    9    4   11 1     
   10    5   10 1     
   11    5    6 1     
   12    6    7 1     
   13    6   28 1     
   14    6   29 1     
   15    7    8 1     
   16    7   30 1     
   17    7   31 1     
   18    8    9 1     
   19    9   10 1     
   20    9   32 1     
   21    9   33 1     
   22   10   34 1     
   23   10   35 1     
   24   11   12 1     
   25   12   13 2     
   26   12   14 1     
   27   14   15 1     
   28   15   16 1     
   29   15   36 1     
   30   15   37 1     
   31   16   17 1     
   32   16   38 1     
   33   16   39 1     
   34   17   18 2     
   35   17   19 am    
   36   19   20 1     
   37   19   21 1     
   38   20   40 1     
   39   20   41 1     
   40   20   42 1     
   41   21   22 1     
   42   21   43 1     
   43   21   44 1     
   44   22   23 1     
   45   22   24 1     
   46   22   45 1     
   47   23   46 1     
   48   23   47 1     
   49   23   48 1     
   50   24   49 1     
   51   24   50 1     
   52   24   51 1     
   53    3   52 1     
   54    8   53 1     
   55    8   54 1     
   56   11   55 1     
   57   13   56 1     
   58   13   57 1     
   59   18   58 1     
   60   18   59 1     
@<TRIPOS>SUBSTRUCTURE
      1 S1             1
@<TRIPOS>SET
LONE_PAIRS      STATIC     ATOMS    <user>   **** ""
8 52 53 54 55 56 57 58 59
ATOM$BLUE        STATIC     ATOMS    COLORGROUP SYSTEM
8 52 53 54 55 56 57 58 59
