#       Name:                AV-unprocessed.smi:720
#       Creating user name   scv26
#       Creation time:       Fri Mar 27 00:49:36 2020


#       File generated by GOLD software.
#

@<TRIPOS>MOLECULE
AV-unprocessed.smi:720
    50    52     1
SMALL
NO_CHARGES


@<TRIPOS>ATOM
      1 ****        -3.4567  -1.8722  -2.2869 C.3            1 S1                 0.0000
      2 ****        -3.2699  -2.8431  -3.3586 N.3            1 S1                 0.0000
      3 ****        -4.5274  -3.5531  -3.5520 C.3            1 S1                 0.0000
      4 ****        -2.2199  -3.8133  -3.0441 C.3            1 S1                 0.0000
      5 ****        -0.7929  -3.2298  -3.1268 C.3            1 S1                 0.0000
      6 ****        -0.3393  -2.6317  -1.8826 N.pl3          1 S1                 0.0000
      7 ****        -0.1940  -3.2298  -0.6460 C.2            1 S1                 0.0000
      8 ****         0.2877  -2.2853   0.2152 C.2            1 S1                 0.0000
      9 ****         0.4158  -1.1310  -0.6050 C.2            1 S1                 0.0000
     10 ****         0.8997   0.0879  -0.0662 N.am           1 S1                 0.0000
     11 ****         1.0282   1.2737  -0.6933 C.2            1 S1                 0.0000
     12 ****         0.7070   1.4848  -1.8614 O.2            1 S1                 0.0000
     13 ****         1.5353   2.2526   0.0774 N.am           1 S1                 0.0000
     14 ****         1.8003   3.6448  -0.2923 C.3            1 S1                 0.0000
     15 ****         3.0822   3.8146  -1.1414 C.3            1 S1                 0.0000
     16 ****         3.9228   4.7932  -0.3010 C.3            1 S1                 0.0000
     17 ****         3.2612   6.1853  -0.3137 C.3            1 S1                 0.0000
     18 ****         2.0216   5.9839   0.5805 C.3            1 S1                 0.0000
     19 ****         2.1194   4.4940   0.9574 C.3            1 S1                 0.0000
     20 ****         3.6269   4.3165   1.1141 C.3            1 S1                 0.0000
     21 ****         0.0543  -1.3395  -1.8631 N.2            1 S1                 0.0000
     22 ****        -2.5815  -1.2351  -2.1756 H              1 S1                 0.0000
     23 ****        -3.6518  -2.3633  -1.3324 H              1 S1                 0.0000
     24 ****        -4.2980  -1.2149  -2.5095 H              1 S1                 0.0000
     25 ****        -4.4460  -4.2666  -4.3729 H              1 S1                 0.0000
     26 ****        -5.3276  -2.8561  -3.8035 H              1 S1                 0.0000
     27 ****        -4.8193  -4.0982  -2.6529 H              1 S1                 0.0000
     28 ****        -2.4032  -4.2888  -2.0793 H              1 S1                 0.0000
     29 ****        -2.2782  -4.6091  -3.7880 H              1 S1                 0.0000
     30 ****        -0.0947  -4.0335  -3.3632 H              1 S1                 0.0000
     31 ****        -0.7124  -2.5072  -3.9410 H              1 S1                 0.0000
     32 ****        -0.4446  -4.2677  -0.4836 H              1 S1                 0.0000
     33 ****         0.5142  -2.4038   1.2645 H              1 S1                 0.0000
     34 ****         1.1788   0.0589   0.9033 H              1 S1                 0.0000
     35 ****         1.7358   2.0090   1.0368 H              1 S1                 0.0000
     36 ****         0.9269   4.0510  -0.8057 H              1 S1                 0.0000
     37 ****         3.6125   2.8686  -1.2627 H              1 S1                 0.0000
     38 ****         2.8693   4.2031  -2.1379 H              1 S1                 0.0000
     39 ****         4.9790   4.8067  -0.5716 H              1 S1                 0.0000
     40 ****         3.9254   6.9363   0.1158 H              1 S1                 0.0000
     41 ****         2.9990   6.5073  -1.3222 H              1 S1                 0.0000
     42 ****         2.0846   6.6129   1.4694 H              1 S1                 0.0000
     43 ****         1.0908   6.2263   0.0663 H              1 S1                 0.0000
     44 ****         1.5293   4.2326   1.8365 H              1 S1                 0.0000
     45 ****         3.9269   3.2826   1.2939 H              1 S1                 0.0000
     46 ****         4.0609   4.9541   1.8865 H              1 S1                 0.0000
     47 ****        -2.9928  -2.3533  -4.1852 LP             1 S1                 0.0000
     48 ****         0.3199   0.7472  -2.4146 LP             1 S1                 0.0000
     49 ****         0.8330   2.3940  -2.2580 LP             1 S1                 0.0000
     50 ****         0.0695  -0.6897  -2.6230 LP             1 S1                 0.0000
@<TRIPOS>BOND
    1    1    2 1     
    2    1   22 1     
    3    1   23 1     
    4    1   24 1     
    5    2    3 1     
    6    2    4 1     
    7    3   25 1     
    8    3   26 1     
    9    3   27 1     
   10    4    5 1     
   11    4   28 1     
   12    4   29 1     
   13    5    6 1     
   14    5   30 1     
   15    5   31 1     
   16    6   21 1     
   17    6    7 1     
   18    7    8 2     
   19    7   32 1     
   20    8    9 1     
   21    8   33 1     
   22    9   10 1     
   23    9   21 2     
   24   10   11 am    
   25   10   34 1     
   26   11   12 2     
   27   11   13 am    
   28   13   14 1     
   29   13   35 1     
   30   14   19 1     
   31   14   15 1     
   32   14   36 1     
   33   15   16 1     
   34   15   37 1     
   35   15   38 1     
   36   16   20 1     
   37   16   17 1     
   38   16   39 1     
   39   17   18 1     
   40   17   40 1     
   41   17   41 1     
   42   18   19 1     
   43   18   42 1     
   44   18   43 1     
   45   19   20 1     
   46   19   44 1     
   47   20   45 1     
   48   20   46 1     
   49    2   47 1     
   50   12   48 1     
   51   12   49 1     
   52   21   50 1     
@<TRIPOS>SUBSTRUCTURE
      1 S1             1
@<TRIPOS>SET
LONE_PAIRS      STATIC     ATOMS    <user>   **** ""
4 47 48 49 50
DONOR_HYDROGENS      STATIC     ATOMS    <user>   **** ""
2 34 35
ATOM$BLUE        STATIC     ATOMS    COLORGROUP SYSTEM
4 47 48 49 50
ATOM$RED        STATIC     ATOMS    COLORGROUP SYSTEM
2 34 35
