AV-unprocessed.smi:2095|AV-procd|sdf|8559|dock8
  -GOLD-   2272011283D 1   1.00000     0.00000
 Structure written by MMmdl.
 42 43  0  0  0  0  0  0  0  0  2 V2000
  149.6879  144.9432  160.2777 C   0  0  0  0  0  0  0  0  0  0  0  0
  150.9302  144.9364  159.3687 C   0  0  1  0  0  0  0  0  0  0  0  0
  152.2418  144.7975  160.1593 C   0  0  0  0  0  0  0  0  0  0  0  0
  152.4234  143.3645  160.6710 C   0  0  0  0  0  0  0  0  0  0  0  0
  152.3165  142.3589  159.5160 C   0  0  0  0  0  0  0  0  0  0  0  0
  151.0165  142.4811  158.7966 N   0  3  2  0  0  0  0  0  0  0  0  0
  150.8100  141.3563  157.8247 C   0  0  1  0  0  0  0  0  0  0  0  0
  149.2966  141.1630  157.5831 C   0  0  0  0  0  0  0  0  0  0  0  0
  151.5712  141.5179  156.4794 C   0  0  0  0  0  0  0  0  0  0  0  0
  151.4134  140.3630  155.5976 N   0  0  0  0  0  0  0  0  0  0  0  0
  152.0659  139.1955  155.7154 C   0  0  0  0  0  0  0  0  0  0  0  0
  152.8988  138.9725  156.5940 O   0  0  0  0  0  0  0  0  0  0  0  0
  151.7364  138.1217  154.6753 C   0  0  0  0  0  0  0  0  0  0  0  0
  151.1040  136.9667  155.2860 N   0  0  0  0  0  0  0  0  0  0  0  0
  149.9283  136.3818  155.0472 C   0  0  0  0  0  0  0  0  0  0  0  0
  149.7304  135.3397  155.8399 N   0  0  0  0  0  0  0  0  0  0  0  0
  150.8821  135.3060  156.6083 N   0  0  0  0  0  0  0  0  0  0  0  0
  151.7014  136.2683  156.2834 N   0  0  0  0  0  0  0  0  0  0  0  0
  150.8370  143.8641  158.2614 C   0  0  0  0  0  0  0  0  0  0  0  0
  149.5540  143.9924  160.7936 H   0  0  0  0  0  0  0  0  0  0  0  0
  148.7821  145.1332  159.7010 H   0  0  0  0  0  0  0  0  0  0  0  0
  149.7616  145.7241  161.0350 H   0  0  0  0  0  0  0  0  0  0  0  0
  150.9522  145.9099  158.8771 H   0  0  0  0  0  0  0  0  0  0  0  0
  153.0815  145.0543  159.5120 H   0  0  0  0  0  0  0  0  0  0  0  0
  152.2681  145.5041  160.9895 H   0  0  0  0  0  0  0  0  0  0  0  0
  153.3946  143.2675  161.1572 H   0  0  0  0  0  0  0  0  0  0  0  0
  151.6766  143.1368  161.4322 H   0  0  0  0  0  0  0  0  0  0  0  0
  153.1353  142.5153  158.8117 H   0  0  0  0  0  0  0  0  0  0  0  0
  152.4454  141.3556  159.9191 H   0  0  0  0  0  0  0  0  0  0  0  0
  151.1975  140.4480  158.2893 H   0  0  0  0  0  0  0  0  0  0  0  0
  149.0930  140.2700  156.9928 H   0  0  0  0  0  0  0  0  0  0  0  0
  148.8732  142.0152  157.0500 H   0  0  0  0  0  0  0  0  0  0  0  0
  148.7360  141.0474  158.5094 H   0  0  0  0  0  0  0  0  0  0  0  0
  151.2640  142.4345  155.9727 H   0  0  0  0  0  0  0  0  0  0  0  0
  152.6434  141.6037  156.6563 H   0  0  0  0  0  0  0  0  0  0  0  0
  150.7494  140.4560  154.8422 H   0  0  0  0  0  0  0  0  0  0  0  0
  151.0681  138.5164  153.9084 H   0  0  0  0  0  0  0  0  0  0  0  0
  152.6540  137.8103  154.1741 H   0  0  0  0  0  0  0  0  0  0  0  0
  149.2238  136.7174  154.3006 H   0  0  0  0  0  0  0  0  0  0  0  0
  149.8653  143.9791  157.7825 H   0  0  0  0  0  0  0  0  0  0  0  0
  151.5933  144.0519  157.4974 H   0  0  0  0  0  0  0  0  0  0  0  0
  150.2909  142.3729  159.4912 H   0  0  0  0  0  0  0  0  0  0  0  0
  1  2  1  0  0  0  0
  1 20  1  0  0  0  0
  1 21  1  0  0  0  0
  1 22  1  0  0  0  0
  2 19  1  0  0  0  0
  2  3  1  0  0  0  0
  2 23  1  0  0  0  0
  3  4  1  0  0  0  0
  3 24  1  0  0  0  0
  3 25  1  0  0  0  0
  4  5  1  0  0  0  0
  4 26  1  0  0  0  0
  4 27  1  0  0  0  0
  5  6  1  0  0  0  0
  5 28  1  0  0  0  0
  5 29  1  0  0  0  0
  6  7  1  0  0  0  0
  6 19  1  0  0  0  0
  6 42  1  0  0  0  0
  7  8  1  0  0  0  0
  7  9  1  0  0  0  0
  7 30  1  0  0  0  0
  8 31  1  0  0  0  0
  8 32  1  0  0  0  0
  8 33  1  0  0  0  0
  9 10  1  0  0  0  0
  9 34  1  0  0  0  0
  9 35  1  0  0  0  0
 10 11  1  0  0  0  0
 10 36  1  0  0  0  0
 11 12  2  0  0  0  0
 11 13  1  0  0  0  0
 13 14  1  0  0  0  0
 13 37  1  0  0  0  0
 13 38  1  0  0  0  0
 14 18  1  0  0  0  0
 14 15  1  0  0  0  0
 15 16  2  0  0  0  0
 15 39  1  0  0  0  0
 16 17  1  0  0  0  0
 17 18  2  0  0  0  0
 19 40  1  0  0  0  0
 19 41  1  0  0  0  0
M  CHG  1   6   1
M  END
> <s_m_source_file>
AV-unprocessed.smi

> <i_m_source_file_index>
2095

> <i_lp_mmshare_version>
43012

> <i_f3d_flags>
0

> <s_epik_input>
W0NIM11bQ0BASF0xW0NIMl1bQ0gyXVtDSDJdTihbQ0gyXTEpW0NASF0oW0NIM10pW0NIMl1bTkhdQyg9TylbQ0gyXW4yW2NIXW5ubjI=

> <s_epik_cmdline>
J2VwaWtfcHl0aG9uJywgJy1waCcsICc3LjAnLCAnLXRuJywgJzgnLCAnLW1hJywgJzIwMCcsICctbWV0YWxfYmluZGluZycsICctaW1hZScsICc8aW5maWxlLm1hZT4nLCAnLW9tYWUnLCAnPG91dGZpbGUubWFlPic=

> <r_lp_tautomer_probability>
1

> <r_epik_Ionization_Penalty>
0.00268321

> <r_epik_Ionization_Penalty_Charging>
0.00267875

> <r_epik_Ionization_Penalty_Neutral>
4.46125e-06

> <r_epik_State_Penalty>
0.00186642

> <r_epik_Charging_Adjusted_Penalty>
0.00454517

> <i_epik_Tot_Q>
1

> <i_epik_Tot_abs_Q>
1

> <r_epik_Metal_State_Penalty>
-0

> <b_epik_Metal_Only>
0

> <s_lp_Force_Field>
OPLS_2005

> <r_lp_Energy>
29.9009

> <b_lp_Chiralities_Consistent>
1

> <s_lp_Variant>
AV-unprocessed.smi:2095-6

> <Gold.Version>
5.8.1

> <Gold.Id.Protein>
6NUR|6NUR_protein|mol2

> <Gold.PLP.Fitness>
43.6277

> <Gold.PLP.PLP>
-35.5066

> <Gold.PLP.part.hbond>
-2.0000

> <Gold.PLP.part.metal>
0.0000

> <Gold.PLP.part.buried>
-7.9020

> <Gold.PLP.part.nonpolar>
-26.4337

> <Gold.PLP.part.repulsive>
1.1752

> <Gold.PLP.ligand.clash>
0.0000

> <Gold.PLP.ligand.torsion>
0.4736

> <Gold.PLP.Chemscore.Hbond>
2.0000

> <Gold.PLP.Chemscore.CHOScore>
1.0000

> <Gold.PLP.Chemscore.Metal>
0.0000

> <Gold.Chemscore.Hbonds>
donor molecule, donor type, donor heavy atom, donor atom, acceptor molecule, acceptor atom, score
      P1  H  7997  8010       L1    12  1.00
      P1  H 10752 10765       L1    18  0.71
      L1  C    15    39       P1  7948  1.00

> <Gold.PLP.Chemscore.Internal.Correction>
0.0683

> <Gold.Rescore>
     Score         DG    S(hbond)    S(metal)    S(lipo)     H(rot)  DE(clash)    DE(int)     intcor
     12.10     -14.45       1.63        0.00      88.03       2.64       0.53       1.82       ----

> <Gold.Chemscore.Fitness>
12.1015

> <Gold.Chemscore.DG>
-14.4510

> <Gold.Chemscore.ZeroCoef>
-5.4800

> <Gold.Chemscore.Hbond>
1.6289

> <Gold.Chemscore.Metal>
0.0000

> <Gold.Chemscore.Lipo>
88.0260

> <Gold.Chemscore.Internal_Hbond>
0.0000

> <Gold.Chemscore.DEClash>
0.5289

> <Gold.Chemscore.DEInternal>
1.8206

> <Gold.Chemscore.Rot>
2.6439

> <Gold.Chemscore.Internal.Correction>
   9.000000E+99

> <Gold.Chemscore.Hbonds>
donor molecule, donor type, donor heavy atom, donor atom, acceptor molecule, acceptor atom, score
      P1  H  7997  8010       L1    12  0.88
      P1  H 10752 10765       L1    18  0.06

> <Gold.Chemscore.Hbond.Weighted>
-5.4404

> <Gold.Chemscore.Metal.Weighted>
-0.0000

> <Gold.Chemscore.Lipo.Weighted>
-10.2990

> <Gold.Chemscore.Internal_Hbond.Weighted>
0.0000

> <Gold.Chemscore.DEClash.Weighted>
0.5289

> <Gold.Chemscore.DEInternal.Weighted>
1.8206

> <Gold.Chemscore.Rot.Weighted>
6.7685

> <Gold.Chemscore.Internal.Correction.Weighted>
   9.000000E+99

> <Gold.Protein.RotatedTorsions>
[ 6907 6896 6895 6894 ] final  158.89 input  -60.11 | X-H torsion
[ 7974 7965 7964 7962 ] final -153.41 input  175.53 | X-H torsion
[ 8008 7997 7996 7995 ] final   65.38 input   59.86 | X-H torsion
[ 10167 10162 10161 10158 ] final -105.55 input  -65.29 | X-H torsion
[ 10718 10713 10712 10709 ] final -136.87 input   66.30 | X-H torsion
[ 10763 10752 10751 10750 ] final -147.94 input  -60.55 | X-H torsion
[ 11005 11000 10999 10996 ] final   78.68 input  -57.11 | X-H torsion

> <Gold.Protein.ActiveResidues>
 VAL166  LYS551  ARG553  GLY616  TRP617  ASP618  TYR619  PRO620  LYS621  CYS622 
 ASP623  PHE694  ASN695  SER759  ASP760  ASP761  ALA762  ILE779  LEU786  VAL792 
 PHE793  MET794  SER795  GLU796  ALA797  LYS798  CYS799  TRP800  GLU811  SER814 

> <Gold.Protein.RotatedAtoms>
  151.9937  133.3800  159.4154 H   0  0  0  0  0  0  0  0  0  0  0  0  # atno 6907 bound_to 6896
  150.6918  134.3909  159.5085 H   0  0  0  0  0  0  0  0  0  0  0  0  # atno 6908 bound_to 6896
  152.1646  134.8884  160.0590 H   0  0  0  0  0  0  0  0  0  0  0  0  # atno 6909 bound_to 6896
  144.7742  140.4530  143.5885 H   0  0  0  0  0  0  0  0  0  0  0  0  # atno 7974 bound_to 7965
  155.6608  140.3497  155.4782 H   0  0  0  0  0  0  0  0  0  0  0  0  # atno 8008 bound_to 7997
  155.9770  140.1167  157.0784 H   0  0  0  0  0  0  0  0  0  0  0  0  # atno 8009 bound_to 7997
  154.4181  140.1145  156.5370 H   0  0  0  0  0  0  0  0  0  0  0  0  # atno 8010 bound_to 7997
  140.1973  143.3845  152.1158 H   0  0  0  0  0  0  0  0  0  0  0  0  # atno 10167 bound_to 10162
  156.2819  130.7325  151.1325 H   0  0  0  0  0  0  0  0  0  0  0  0  # atno 10718 bound_to 10713
  154.8260  135.3347  154.6896 H   0  0  0  0  0  0  0  0  0  0  0  0  # atno 10763 bound_to 10752
  153.7522  135.6938  153.4948 H   0  0  0  0  0  0  0  0  0  0  0  0  # atno 10764 bound_to 10752
  153.2169  135.4462  155.0394 H   0  0  0  0  0  0  0  0  0  0  0  0  # atno 10765 bound_to 10752
  139.9203  134.7782  156.1680 H   0  0  0  0  0  0  0  0  0  0  0  0  # atno 11005 bound_to 11000
  145.6234  139.1527  143.3010 LP  0  0  0  0  0  0  0  0  0  0  0  0  # atno 17320 bound_to 7965
  146.1911  140.6342  142.9145 LP  0  0  0  0  0  0  0  0  0  0  0  0  # atno 17321 bound_to 7965
  139.5231  144.7067  151.5331 LP  0  0  0  0  0  0  0  0  0  0  0  0  # atno 17342 bound_to 10162
  140.6414  143.8880  150.6696 LP  0  0  0  0  0  0  0  0  0  0  0  0  # atno 17343 bound_to 10162
  157.7317  131.0606  150.5666 LP  0  0  0  0  0  0  0  0  0  0  0  0  # atno 17370 bound_to 10713
  156.5773  130.4295  149.5993 LP  0  0  0  0  0  0  0  0  0  0  0  0  # atno 17371 bound_to 10713
  141.0717  133.6794  156.2154 LP  0  0  0  0  0  0  0  0  0  0  0  0  # atno 17394 bound_to 11000
  140.6495  134.5082  157.5576 LP  0  0  0  0  0  0  0  0  0  0  0  0  # atno 17395 bound_to 11000

$$$$
