AV-unprocessed.smi:133|AV-procd|sdf|1165|dock9
  -GOLD-   2262018303D 1   1.00000     0.00000
 Structure written by MMmdl.
 47 50  0  0  0  0  0  0  0  0  1 V2000
  153.1441  139.1459  157.0991 O   0  0  0  0  0  0  0  0  0  0  0  0
  152.3053  139.6093  156.3253 C   0  0  0  0  0  0  0  0  0  0  0  0
  151.9962  138.9054  154.9942 C   0  0  0  0  0  0  0  0  0  0  0  0
  150.6116  138.3922  154.8992 N   0  0  0  0  0  0  0  0  0  0  0  0
  149.5737  139.2973  154.5642 C   0  0  0  0  0  0  0  0  0  0  0  0
  149.8048  140.4922  154.3738 O   0  0  0  0  0  0  0  0  0  0  0  0
  148.2416  138.7143  154.4527 C   0  0  0  0  0  0  0  0  0  0  0  0
  147.1984  139.4948  154.1236 F   0  0  0  0  0  0  0  0  0  0  0  0
  148.0394  137.3988  154.6704 C   0  0  0  0  0  0  0  0  0  0  0  0
  149.0557  136.5309  155.0178 N   0  0  0  0  0  0  0  0  0  0  0  0
  148.7444  135.0625  155.1932 C   0  0  2  0  0  0  0  0  0  0  0  0
  149.6109  134.1388  154.3162 C   0  0  0  0  0  0  0  0  0  0  0  0
  148.5787  133.3806  153.4974 C   0  0  0  0  0  0  0  0  0  0  0  0
  147.3090  133.5300  154.3287 C   0  0  0  0  0  0  0  0  0  0  0  0
  147.4108  134.8464  154.8484 O   0  0  0  0  0  0  0  0  0  0  0  0
  150.3827  137.0109  155.1089 C   0  0  0  0  0  0  0  0  0  0  0  0
  151.3181  136.2483  155.3566 O   0  0  0  0  0  0  0  0  0  0  0  0
  151.6173  140.7455  156.5394 N   0  0  0  0  0  0  0  0  0  0  0  0
  151.6705  141.6163  157.6608 C   0  0  0  0  0  0  0  0  0  0  0  0
  151.1248  142.9308  157.6556 C   0  0  0  0  0  0  0  0  0  0  0  0
  151.2272  143.7591  158.7949 C   0  0  0  0  0  0  0  0  0  0  0  0
  151.8891  143.2571  159.9277 C   0  0  0  0  0  0  0  0  0  0  0  0
  152.4368  141.9812  159.9339 C   0  0  0  0  0  0  0  0  0  0  0  0
  152.3459  141.1426  158.8097 C   0  0  0  0  0  0  0  0  0  0  0  0
  153.1001  141.6696  161.2477 C   0  0  0  0  0  0  0  0  0  0  0  0
  152.7163  142.8678  162.1496 C   0  0  0  0  0  0  0  0  0  0  0  0
  152.1146  143.9635  161.2365 C   0  0  0  0  0  0  0  0  0  0  0  0
  152.2106  139.5983  154.1789 H   0  0  0  0  0  0  0  0  0  0  0  0
  152.7204  138.1018  154.8524 H   0  0  0  0  0  0  0  0  0  0  0  0
  147.0342  137.0163  154.5683 H   0  0  0  0  0  0  0  0  0  0  0  0
  148.8781  134.8509  156.2551 H   0  0  0  0  0  0  0  0  0  0  0  0
  150.3223  134.6900  153.7005 H   0  0  0  0  0  0  0  0  0  0  0  0
  150.1680  133.4648  154.9678 H   0  0  0  0  0  0  0  0  0  0  0  0
  148.4447  133.8577  152.5260 H   0  0  0  0  0  0  0  0  0  0  0  0
  148.8523  132.3393  153.3259 H   0  0  0  0  0  0  0  0  0  0  0  0
  146.4012  133.3984  153.7398 H   0  0  0  0  0  0  0  0  0  0  0  0
  147.2954  132.8127  155.1511 H   0  0  0  0  0  0  0  0  0  0  0  0
  151.0350  141.0582  155.7764 H   0  0  0  0  0  0  0  0  0  0  0  0
  150.6353  143.3300  156.7807 H   0  0  0  0  0  0  0  0  0  0  0  0
  150.8124  144.7564  158.7915 H   0  0  0  0  0  0  0  0  0  0  0  0
  152.7805  140.1536  158.8304 H   0  0  0  0  0  0  0  0  0  0  0  0
  152.7533  140.7192  161.6551 H   0  0  0  0  0  0  0  0  0  0  0  0
  154.1794  141.6144  161.1019 H   0  0  0  0  0  0  0  0  0  0  0  0
  151.9427  142.5393  162.8449 H   0  0  0  0  0  0  0  0  0  0  0  0
  153.5513  143.2289  162.7509 H   0  0  0  0  0  0  0  0  0  0  0  0
  152.8173  144.7840  161.0880 H   0  0  0  0  0  0  0  0  0  0  0  0
  151.1841  144.3680  161.6364 H   0  0  0  0  0  0  0  0  0  0  0  0
  1  2  2  0  0  0  0
  2  3  1  0  0  0  0
  2 18  1  0  0  0  0
  3  4  1  0  0  0  0
  3 28  1  0  0  0  0
  3 29  1  0  0  0  0
  4 16  1  0  0  0  0
  4  5  1  0  0  0  0
  5  6  2  0  0  0  0
  5  7  1  0  0  0  0
  7  8  1  0  0  0  0
  7  9  2  0  0  0  0
  9 10  1  0  0  0  0
  9 30  1  0  0  0  0
 10 11  1  0  0  0  0
 10 16  1  0  0  0  0
 11 15  1  0  0  0  0
 11 12  1  0  0  0  0
 11 31  1  0  0  0  0
 12 13  1  0  0  0  0
 12 32  1  0  0  0  0
 12 33  1  0  0  0  0
 13 14  1  0  0  0  0
 13 34  1  0  0  0  0
 13 35  1  0  0  0  0
 14 15  1  0  0  0  0
 14 36  1  0  0  0  0
 14 37  1  0  0  0  0
 16 17  2  0  0  0  0
 18 19  1  0  0  0  0
 18 38  1  0  0  0  0
 19 24  1  0  0  0  0
 19 20  2  0  0  0  0
 20 21  1  0  0  0  0
 20 39  1  0  0  0  0
 21 22  2  0  0  0  0
 21 40  1  0  0  0  0
 22 27  1  0  0  0  0
 22 23  1  0  0  0  0
 23 24  2  0  0  0  0
 23 25  1  0  0  0  0
 24 41  1  0  0  0  0
 25 26  1  0  0  0  0
 25 42  1  0  0  0  0
 25 43  1  0  0  0  0
 26 27  1  0  0  0  0
 26 44  1  0  0  0  0
 26 45  1  0  0  0  0
 27 46  1  0  0  0  0
 27 47  1  0  0  0  0
M  END
> <s_m_source_file>
AV-unprocessed.smi

> <i_m_source_file_index>
133

> <i_lp_mmshare_version>
43012

> <i_f3d_flags>
0

> <s_epik_input>
W0NIMl0xW0NIMl1bQ0gyXWMoYzEyKVtjSF1jKFtjSF1bY0hdMilbTkhdQyg9TylbQ0gyXW4zYyg9TyljKEYpW2NIXW4oYzM9TylbQ0BASF00W0NIMl1bQ0gyXVtDSDJdTzQ=

> <s_epik_cmdline>
J2VwaWtfcHl0aG9uJywgJy1waCcsICc3LjAnLCAnLXRuJywgJzgnLCAnLW1hJywgJzIwMCcsICctbWV0YWxfYmluZGluZycsICctaW1hZScsICc8aW5maWxlLm1hZT4nLCAnLW9tYWUnLCAnPG91dGZpbGUubWFlPic=

> <r_lp_tautomer_probability>
1

> <r_epik_Ionization_Penalty>
4.05675e-06

> <r_epik_Ionization_Penalty_Charging>
3.88729e-08

> <r_epik_Ionization_Penalty_Neutral>
4.01788e-06

> <r_epik_State_Penalty>
-0

> <r_epik_Charging_Adjusted_Penalty>
3.88729e-08

> <i_epik_Tot_Q>
0

> <i_epik_Tot_abs_Q>
0

> <r_epik_Metal_State_Penalty>
-0

> <b_epik_Metal_Only>
0

> <s_epik_Chemistry_Notes>
This compound contains an acetal/aminal-like group ( X-CH(R)-Y where X, Y are N, S, or O) that may be acid/base labile, releasing an aldehyde.

> <s_lp_Force_Field>
OPLS_2005

> <r_lp_Energy>
40.9248

> <b_lp_Chiralities_Consistent>
1

> <s_lp_Variant>
AV-unprocessed.smi:133-1

> <Gold.Version>
5.8.1

> <Gold.Id.Protein>
6NUR|6NUR_protein|mol2

> <Gold.PLP.Fitness>
58.9188

> <Gold.PLP.PLP>
-51.4685

> <Gold.PLP.part.hbond>
-3.0000

> <Gold.PLP.part.metal>
0.0000

> <Gold.PLP.part.buried>
-4.7948

> <Gold.PLP.part.nonpolar>
-44.3432

> <Gold.PLP.part.repulsive>
0.4227

> <Gold.PLP.ligand.clash>
0.0818

> <Gold.PLP.ligand.torsion>
0.4359

> <Gold.PLP.Chemscore.Hbond>
2.7920

> <Gold.PLP.Chemscore.CHOScore>
0.0000

> <Gold.PLP.Chemscore.Metal>
0.0000

> <Gold.Chemscore.Hbonds>
donor molecule, donor type, donor heavy atom, donor atom, acceptor molecule, acceptor atom, score
      P1  H  7989  7998       L1     6  0.77
      P1  H  7997  8010       L1     1  0.99
      P1  H 10752 10764       L1    17  1.00

> <Gold.PLP.Chemscore.Internal.Correction>
0.0278

> <Gold.Rescore>
     Score         DG    S(hbond)    S(metal)    S(lipo)     H(rot)  DE(clash)    DE(int)     intcor
     21.29     -24.19       2.61        0.00     120.26       1.59       0.04       2.86       ----

> <Gold.Chemscore.Fitness>
21.2938

> <Gold.Chemscore.DG>
-24.1935

> <Gold.Chemscore.ZeroCoef>
-5.4800

> <Gold.Chemscore.Hbond>
2.6065

> <Gold.Chemscore.Metal>
0.0000

> <Gold.Chemscore.Lipo>
120.2573

> <Gold.Chemscore.Internal_Hbond>
0.0000

> <Gold.Chemscore.DEClash>
0.0380

> <Gold.Chemscore.DEInternal>
2.8618

> <Gold.Chemscore.Rot>
1.5869

> <Gold.Chemscore.Internal.Correction>
   9.000000E+99

> <Gold.Chemscore.Hbonds>
donor molecule, donor type, donor heavy atom, donor atom, acceptor molecule, acceptor atom, score
      P1  H  7989  7998       L1     6  0.65
      P1  H  7997  8010       L1     1  0.70
      P1  H 10752 10764       L1    17  0.97

> <Gold.Chemscore.Hbond.Weighted>
-8.7058

> <Gold.Chemscore.Metal.Weighted>
-0.0000

> <Gold.Chemscore.Lipo.Weighted>
-14.0701

> <Gold.Chemscore.Internal_Hbond.Weighted>
0.0000

> <Gold.Chemscore.DEClash.Weighted>
0.0380

> <Gold.Chemscore.DEInternal.Weighted>
2.8618

> <Gold.Chemscore.Rot.Weighted>
4.0624

> <Gold.Chemscore.Internal.Correction.Weighted>
   9.000000E+99

> <Gold.Protein.RotatedTorsions>
[ 6907 6896 6895 6894 ] final   99.48 input  -60.11 | X-H torsion
[ 7974 7965 7964 7962 ] final  165.87 input  175.53 | X-H torsion
[ 8008 7997 7996 7995 ] final   35.00 input   59.86 | X-H torsion
[ 10167 10162 10161 10158 ] final   72.60 input  -65.29 | X-H torsion
[ 10718 10713 10712 10709 ] final   89.23 input   66.30 | X-H torsion
[ 10763 10752 10751 10750 ] final  -34.92 input  -60.55 | X-H torsion
[ 11005 11000 10999 10996 ] final  -18.24 input  -57.11 | X-H torsion

> <Gold.Protein.ActiveResidues>
 VAL166  LYS551  ARG553  GLY616  TRP617  ASP618  TYR619  PRO620  LYS621  CYS622 
 ASP623  PHE694  ASN695  SER759  ASP760  ASP761  ALA762  ILE779  LEU786  VAL792 
 PHE793  MET794  SER795  GLU796  ALA797  LYS798  CYS799  TRP800  GLU811  SER814 

> <Gold.Protein.RotatedAtoms>
  152.5391  134.0421  159.8072 H   0  0  0  0  0  0  0  0  0  0  0  0  # atno 6907 bound_to 6896
  151.0576  133.5564  159.2644 H   0  0  0  0  0  0  0  0  0  0  0  0  # atno 6908 bound_to 6896
  151.2475  135.0618  159.9103 H   0  0  0  0  0  0  0  0  0  0  0  0  # atno 6909 bound_to 6896
  144.7485  139.8533  143.6374 H   0  0  0  0  0  0  0  0  0  0  0  0  # atno 7974 bound_to 7965
  155.1639  140.3286  155.4406 H   0  0  0  0  0  0  0  0  0  0  0  0  # atno 8008 bound_to 7997
  156.2533  140.1955  156.6696 H   0  0  0  0  0  0  0  0  0  0  0  0  # atno 8009 bound_to 7997
  154.6385  140.0573  156.9804 H   0  0  0  0  0  0  0  0  0  0  0  0  # atno 8010 bound_to 7997
  140.0336  144.5446  150.7488 H   0  0  0  0  0  0  0  0  0  0  0  0  # atno 10167 bound_to 10162
  157.6954  131.0325  150.3394 H   0  0  0  0  0  0  0  0  0  0  0  0  # atno 10718 bound_to 10713
  153.8547  135.6845  153.4789 H   0  0  0  0  0  0  0  0  0  0  0  0  # atno 10763 bound_to 10752
  153.1377  135.4671  154.9445 H   0  0  0  0  0  0  0  0  0  0  0  0  # atno 10764 bound_to 10752
  154.7786  135.3261  154.7987 H   0  0  0  0  0  0  0  0  0  0  0  0  # atno 10765 bound_to 10752
  140.8248  133.8041  155.9697 H   0  0  0  0  0  0  0  0  0  0  0  0  # atno 11005 bound_to 11000
  146.1400  139.4455  143.0115 LP  0  0  0  0  0  0  0  0  0  0  0  0  # atno 17320 bound_to 7965
  145.7032  141.0129  143.1493 LP  0  0  0  0  0  0  0  0  0  0  0  0  # atno 17321 bound_to 7965
  140.7291  143.2669  151.4015 LP  0  0  0  0  0  0  0  0  0  0  0  0  # atno 17342 bound_to 10162
  139.6060  144.1196  152.2249 LP  0  0  0  0  0  0  0  0  0  0  0  0  # atno 17343 bound_to 10162
  156.3857  130.3888  149.7068 LP  0  0  0  0  0  0  0  0  0  0  0  0  # atno 17370 bound_to 10713
  156.4435  130.7872  151.2894 LP  0  0  0  0  0  0  0  0  0  0  0  0  # atno 17371 bound_to 10713
  140.9060  134.2319  157.5014 LP  0  0  0  0  0  0  0  0  0  0  0  0  # atno 17394 bound_to 11000
  139.8707  134.9728  156.4788 LP  0  0  0  0  0  0  0  0  0  0  0  0  # atno 17395 bound_to 11000

$$$$
