AV-unprocessed.smi:3350|AV-procd|sdf|12946|dock10
  -GOLD-   2272019383D 1   1.00000     0.00000
 Structure written by MMmdl.
 41 42  0  0  0  0  0  0  0  0  1 V2000
  144.8902  137.1837  152.7507 C   0  0  0  0  0  0  0  0  0  0  0  0
  145.2141  135.7184  152.4297 C   0  0  1  0  0  0  0  0  0  0  0  0
  144.9668  135.4016  150.9386 C   0  0  0  0  0  0  0  0  0  0  0  0
  145.0014  133.9778  150.6530 N   0  0  0  0  0  0  0  0  0  0  0  0
  143.9419  133.1045  150.5197 C   0  0  0  0  0  0  0  0  0  0  0  0
  144.4622  131.8767  150.2273 C   0  0  0  0  0  0  0  0  0  0  0  0
  145.8673  132.1013  150.2084 C   0  0  0  0  0  0  0  0  0  0  0  0
  146.1872  133.3588  150.4677 N   0  0  0  0  0  0  0  0  0  0  0  0
  146.6051  135.4479  152.7925 N   0  0  0  0  0  0  0  0  0  0  0  0
  147.0177  134.4933  153.6392 C   0  0  0  0  0  0  0  0  0  0  0  0
  146.2634  133.7481  154.2644 O   0  0  0  0  0  0  0  0  0  0  0  0
  148.3546  134.4288  153.6988 N   0  0  0  0  0  0  0  0  0  0  0  0
  149.1162  133.4595  154.4829 C   0  0  1  0  0  0  0  0  0  0  0  0
  148.4976  133.3169  155.8844 C   0  0  0  0  0  0  0  0  0  0  0  0
  149.1645  132.1112  153.7399 C   0  0  1  0  0  0  0  0  0  0  0  0
  149.9786  131.0219  154.4396 C   0  0  0  0  0  0  0  0  0  0  0  0
  149.3883  129.7329  153.8915 C   0  0  0  0  0  0  0  0  0  0  0  0
  148.0404  130.1602  153.3024 C   0  0  0  0  0  0  0  0  0  0  0  0
  147.8758  131.5197  153.6824 O   0  0  0  0  0  0  0  0  0  0  0  0
  143.8498  137.4139  152.5192 H   0  0  0  0  0  0  0  0  0  0  0  0
  145.5177  137.8659  152.1760 H   0  0  0  0  0  0  0  0  0  0  0  0
  145.0458  137.3979  153.8086 H   0  0  0  0  0  0  0  0  0  0  0  0
  144.5463  135.1024  153.0347 H   0  0  0  0  0  0  0  0  0  0  0  0
  143.9929  135.7842  150.6295 H   0  0  0  0  0  0  0  0  0  0  0  0
  145.7081  135.9008  150.3130 H   0  0  0  0  0  0  0  0  0  0  0  0
  142.9177  133.4286  150.6326 H   0  0  0  0  0  0  0  0  0  0  0  0
  143.9217  130.9587  150.0511 H   0  0  0  0  0  0  0  0  0  0  0  0
  146.6588  131.3924  150.0153 H   0  0  0  0  0  0  0  0  0  0  0  0
  147.3084  136.0066  152.3323 H   0  0  0  0  0  0  0  0  0  0  0  0
  148.8876  135.0840  153.1462 H   0  0  0  0  0  0  0  0  0  0  0  0
  150.1404  133.8220  154.5906 H   0  0  0  0  0  0  0  0  0  0  0  0
  149.0616  132.6098  156.4931 H   0  0  0  0  0  0  0  0  0  0  0  0
  147.4683  132.9609  155.8299 H   0  0  0  0  0  0  0  0  0  0  0  0
  148.4921  134.2695  156.4154 H   0  0  0  0  0  0  0  0  0  0  0  0
  149.5342  132.2502  152.7218 H   0  0  0  0  0  0  0  0  0  0  0  0
  151.0499  131.1088  154.2555 H   0  0  0  0  0  0  0  0  0  0  0  0
  149.8178  131.0674  155.5176 H   0  0  0  0  0  0  0  0  0  0  0  0
  150.0243  129.3050  153.1156 H   0  0  0  0  0  0  0  0  0  0  0  0
  149.2716  128.9878  154.6792 H   0  0  0  0  0  0  0  0  0  0  0  0
  148.0588  130.0913  152.2140 H   0  0  0  0  0  0  0  0  0  0  0  0
  147.2128  129.5519  153.6675 H   0  0  0  0  0  0  0  0  0  0  0  0
  1  2  1  0  0  0  0
  1 20  1  0  0  0  0
  1 21  1  0  0  0  0
  1 22  1  0  0  0  0
  2  3  1  0  0  0  0
  2  9  1  0  0  0  0
  2 23  1  0  0  0  0
  3  4  1  0  0  0  0
  3 24  1  0  0  0  0
  3 25  1  0  0  0  0
  4  8  1  0  0  0  0
  4  5  1  0  0  0  0
  5  6  2  0  0  0  0
  5 26  1  0  0  0  0
  6  7  1  0  0  0  0
  6 27  1  0  0  0  0
  7  8  2  0  0  0  0
  7 28  1  0  0  0  0
  9 10  1  0  0  0  0
  9 29  1  0  0  0  0
 10 11  2  0  0  0  0
 10 12  1  0  0  0  0
 12 13  1  0  0  0  0
 12 30  1  0  0  0  0
 13 14  1  0  0  0  0
 13 15  1  0  0  0  0
 13 31  1  0  0  0  0
 14 32  1  0  0  0  0
 14 33  1  0  0  0  0
 14 34  1  0  0  0  0
 15 19  1  0  0  0  0
 15 16  1  0  0  0  0
 15 35  1  0  0  0  0
 16 17  1  0  0  0  0
 16 36  1  0  0  0  0
 16 37  1  0  0  0  0
 17 18  1  0  0  0  0
 17 38  1  0  0  0  0
 17 39  1  0  0  0  0
 18 19  1  0  0  0  0
 18 40  1  0  0  0  0
 18 41  1  0  0  0  0
M  END
> <s_m_source_file>
AV-unprocessed.smi

> <i_m_source_file_index>
3350

> <i_lp_mmshare_version>
43012

> <i_f3d_flags>
0

> <s_epik_input>
bjFbY0hdW2NIXVtjSF1uMVtDSDJdW0NAQEhdKFtDSDNdKVtOSF1DKD1PKVtOSF1bQ0BIXShbQ0gzXSlbQ0BASF0yW0NIMl1bQ0gyXVtDSDJdTzI=

> <s_epik_cmdline>
J2VwaWtfcHl0aG9uJywgJy1waCcsICc3LjAnLCAnLXRuJywgJzgnLCAnLW1hJywgJzIwMCcsICctbWV0YWxfYmluZGluZycsICctaW1hZScsICc8aW5maWxlLm1hZT4nLCAnLW9tYWUnLCAnPG91dGZpbGUubWFlPic=

> <r_lp_tautomer_probability>
1

> <r_epik_Ionization_Penalty>
6.42349e-05

> <r_epik_Ionization_Penalty_Charging>
0

> <r_epik_Ionization_Penalty_Neutral>
6.42349e-05

> <r_epik_State_Penalty>
-0

> <r_epik_Charging_Adjusted_Penalty>
0

> <i_epik_Tot_Q>
0

> <i_epik_Tot_abs_Q>
0

> <r_epik_Metal_State_Penalty>
-0

> <b_epik_Metal_Only>
0

> <s_lp_Force_Field>
OPLS_2005

> <r_lp_Energy>
15.5841

> <b_lp_Chiralities_Consistent>
1

> <s_lp_Variant>
AV-unprocessed.smi:3350-8

> <Gold.Version>
5.8.1

> <Gold.Id.Protein>
6NUR|6NUR_protein|mol2

> <Gold.PLP.Fitness>
43.0763

> <Gold.PLP.PLP>
-32.3688

> <Gold.PLP.part.hbond>
-2.0000

> <Gold.PLP.part.metal>
0.0000

> <Gold.PLP.part.buried>
-4.5013

> <Gold.PLP.part.nonpolar>
-26.5959

> <Gold.PLP.part.repulsive>
0.3429

> <Gold.PLP.ligand.clash>
0.0000

> <Gold.PLP.ligand.torsion>
0.6557

> <Gold.PLP.Chemscore.Hbond>
1.9920

> <Gold.PLP.Chemscore.CHOScore>
2.0000

> <Gold.PLP.Chemscore.Metal>
0.0000

> <Gold.Chemscore.Hbonds>
donor molecule, donor type, donor heavy atom, donor atom, acceptor molecule, acceptor atom, score
      L1  H     9    29       P1  7948  0.99
      L1  H    12    30       P1  7948  1.00
      L1  C     5    26       P1 10186  1.00
      L1  C     7    28       P1 10747  1.00

> <Gold.PLP.Chemscore.Internal.Correction>
0.0429

> <Gold.Rescore>
     Score         DG    S(hbond)    S(metal)    S(lipo)     H(rot)  DE(clash)    DE(int)     intcor
     13.07     -15.29       1.74        0.00      74.10       1.82       0.12       2.11       ----

> <Gold.Chemscore.Fitness>
13.0658

> <Gold.Chemscore.DG>
-15.2934

> <Gold.Chemscore.ZeroCoef>
-5.4800

> <Gold.Chemscore.Hbond>
1.7372

> <Gold.Chemscore.Metal>
0.0000

> <Gold.Chemscore.Lipo>
74.0991

> <Gold.Chemscore.Internal_Hbond>
0.0000

> <Gold.Chemscore.DEClash>
0.1224

> <Gold.Chemscore.DEInternal>
2.1052

> <Gold.Chemscore.Rot>
1.8197

> <Gold.Chemscore.Internal.Correction>
   9.000000E+99

> <Gold.Chemscore.Hbonds>
donor molecule, donor type, donor heavy atom, donor atom, acceptor molecule, acceptor atom, score
      L1  H     9    29       P1  7948  0.93
      L1  H    12    30       P1  7948  0.33

> <Gold.Chemscore.Hbond.Weighted>
-5.8022

> <Gold.Chemscore.Metal.Weighted>
-0.0000

> <Gold.Chemscore.Lipo.Weighted>
-8.6696

> <Gold.Chemscore.Internal_Hbond.Weighted>
0.0000

> <Gold.Chemscore.DEClash.Weighted>
0.1224

> <Gold.Chemscore.DEInternal.Weighted>
2.1052

> <Gold.Chemscore.Rot.Weighted>
4.6583

> <Gold.Chemscore.Internal.Correction.Weighted>
   9.000000E+99

> <Gold.Protein.RotatedTorsions>
[ 6907 6896 6895 6894 ] final  125.13 input  -60.11 | X-H torsion
[ 7974 7965 7964 7962 ] final   25.42 input  175.53 | X-H torsion
[ 8008 7997 7996 7995 ] final  151.91 input   59.86 | X-H torsion
[ 10167 10162 10161 10158 ] final  -73.83 input  -65.29 | X-H torsion
[ 10718 10713 10712 10709 ] final   -9.52 input   66.30 | X-H torsion
[ 10763 10752 10751 10750 ] final -107.95 input  -60.55 | X-H torsion
[ 11005 11000 10999 10996 ] final   26.00 input  -57.11 | X-H torsion

> <Gold.Protein.ActiveResidues>
 VAL166  LYS551  ARG553  GLY616  TRP617  ASP618  TYR619  PRO620  LYS621  CYS622 
 ASP623  PHE694  ASN695  SER759  ASP760  ASP761  ALA762  ILE779  LEU786  VAL792 
 PHE793  MET794  SER795  GLU796  ALA797  LYS798  CYS799  TRP800  GLU811  SER814 

> <Gold.Protein.RotatedAtoms>
  152.4018  133.6830  159.6322 H   0  0  0  0  0  0  0  0  0  0  0  0  # atno 6907 bound_to 6896
  150.7909  133.8777  159.3285 H   0  0  0  0  0  0  0  0  0  0  0  0  # atno 6908 bound_to 6896
  151.6541  135.0999  160.0218 H   0  0  0  0  0  0  0  0  0  0  0  0  # atno 6909 bound_to 6896
  146.1889  139.7468  142.8846 H   0  0  0  0  0  0  0  0  0  0  0  0  # atno 7974 bound_to 7965
  156.2653  140.2035  156.6250 H   0  0  0  0  0  0  0  0  0  0  0  0  # atno 8008 bound_to 7997
  154.6727  140.0548  157.0207 H   0  0  0  0  0  0  0  0  0  0  0  0  # atno 8009 bound_to 7997
  155.1113  140.3215  155.4524 H   0  0  0  0  0  0  0  0  0  0  0  0  # atno 8010 bound_to 7997
  140.5078  143.2350  151.7645 H   0  0  0  0  0  0  0  0  0  0  0  0  # atno 10167 bound_to 10162
  156.6868  130.5053  149.5955 H   0  0  0  0  0  0  0  0  0  0  0  0  # atno 10718 bound_to 10713
  154.8106  135.4656  154.0507 H   0  0  0  0  0  0  0  0  0  0  0  0  # atno 10763 bound_to 10752
  153.1941  135.6859  153.8322 H   0  0  0  0  0  0  0  0  0  0  0  0  # atno 10764 bound_to 10752
  153.7830  135.3254  155.3345 H   0  0  0  0  0  0  0  0  0  0  0  0  # atno 10765 bound_to 10752
  140.3417  134.2325  155.7689 H   0  0  0  0  0  0  0  0  0  0  0  0  # atno 11005 bound_to 11000
  145.3853  141.0364  143.3154 LP  0  0  0  0  0  0  0  0  0  0  0  0  # atno 17320 bound_to 7965
  144.8449  139.5413  143.6883 LP  0  0  0  0  0  0  0  0  0  0  0  0  # atno 17321 bound_to 7965
  139.4888  144.4433  151.9739 LP  0  0  0  0  0  0  0  0  0  0  0  0  # atno 17342 bound_to 10162
  140.3524  144.3072  150.5947 LP  0  0  0  0  0  0  0  0  0  0  0  0  # atno 17343 bound_to 10162
  156.1826  130.6509  151.0970 LP  0  0  0  0  0  0  0  0  0  0  0  0  # atno 17370 bound_to 10713
  157.7023  131.0771  150.6779 LP  0  0  0  0  0  0  0  0  0  0  0  0  # atno 17371 bound_to 10713
  141.2036  133.7907  157.0328 LP  0  0  0  0  0  0  0  0  0  0  0  0  # atno 17394 bound_to 11000
  140.0775  134.9667  157.1570 LP  0  0  0  0  0  0  0  0  0  0  0  0  # atno 17395 bound_to 11000

$$$$
