AV-unprocessed.smi:1213|AV-procd|sdf|5090|dock7
  -GOLD-   22720 4143D 1   1.00000     0.00000
 Structure written by MMmdl.
 36 37  0  0  0  0  0  0  0  0  3 V2000
  146.7678  134.0574  152.0081 N   0  0  0  0  0  0  0  0  0  0  0  0
  145.5041  134.3436  151.6869 C   0  0  0  0  0  0  0  0  0  0  0  0
  144.5841  133.5505  151.8786 O   0  0  0  0  0  0  0  0  0  0  0  0
  145.2418  135.7267  151.0811 C   0  0  0  0  0  0  0  0  0  0  0  0
  146.0845  136.7950  151.6777 N   0  3  2  0  0  0  0  0  0  0  0  0
  145.7919  137.0358  153.1164 C   0  0  0  0  0  0  0  0  0  0  0  0
  146.7785  138.0487  153.7200 C   0  0  0  0  0  0  0  0  0  0  0  0
  146.7592  139.3717  152.9384 C   0  0  1  0  0  0  0  0  0  0  0  0
  147.7603  140.2833  153.4832 N   0  0  0  0  0  0  0  0  0  0  0  0
  147.6255  141.0297  154.5887 C   0  0  0  0  0  0  0  0  0  0  0  0
  146.5797  140.9804  155.2406 O   0  0  0  0  0  0  0  0  0  0  0  0
  148.7094  141.7881  154.8660 N   0  5  0  0  0  0  0  0  0  0  0  0
  149.7275  141.2712  155.5729 C   0  0  0  0  0  0  0  0  0  0  0  0
  150.4944  140.2718  155.1226 N   0  0  0  0  0  0  0  0  0  0  0  0
  151.4984  139.8961  156.0170 C   0  0  0  0  0  0  0  0  0  0  0  0
  151.5010  140.6323  157.1720 C   0  0  0  0  0  0  0  0  0  0  0  0
  150.2349  141.8266  157.1707 S   0  0  0  0  0  0  0  0  0  0  0  0
  147.0259  139.0925  151.4481 C   0  0  0  0  0  0  0  0  0  0  0  0
  146.0378  138.0549  150.8927 C   0  0  0  0  0  0  0  0  0  0  0  0
  146.9894  133.1593  152.4143 H   0  0  0  0  0  0  0  0  0  0  0  0
  147.4997  134.7353  151.8504 H   0  0  0  0  0  0  0  0  0  0  0  0
  145.4555  135.6437  150.0145 H   0  0  0  0  0  0  0  0  0  0  0  0
  144.1862  135.9898  151.1690 H   0  0  0  0  0  0  0  0  0  0  0  0
  144.7691  137.3998  153.2259 H   0  0  0  0  0  0  0  0  0  0  0  0
  145.8542  136.1019  153.6755 H   0  0  0  0  0  0  0  0  0  0  0  0
  146.5284  138.2285  154.7662 H   0  0  0  0  0  0  0  0  0  0  0  0
  147.7838  137.6247  153.7106 H   0  0  0  0  0  0  0  0  0  0  0  0
  145.7699  139.8201  153.0484 H   0  0  0  0  0  0  0  0  0  0  0  0
  148.6348  140.3561  152.9837 H   0  0  0  0  0  0  0  0  0  0  0  0
  152.1691  139.0937  155.7479 H   0  0  0  0  0  0  0  0  0  0  0  0
  152.1662  140.5469  158.0179 H   0  0  0  0  0  0  0  0  0  0  0  0
  146.9499  140.0144  150.8705 H   0  0  0  0  0  0  0  0  0  0  0  0
  148.0465  138.7296  151.3158 H   0  0  0  0  0  0  0  0  0  0  0  0
  146.2861  137.8502  149.8507 H   0  0  0  0  0  0  0  0  0  0  0  0
  145.0231  138.4559  150.9050 H   0  0  0  0  0  0  0  0  0  0  0  0
  147.0377  136.4640  151.6239 H   0  0  0  0  0  0  0  0  0  0  0  0
  1  2  1  0  0  0  0
  1 20  1  0  0  0  0
  1 21  1  0  0  0  0
  2  3  2  0  0  0  0
  2  4  1  0  0  0  0
  4  5  1  0  0  0  0
  4 22  1  0  0  0  0
  4 23  1  0  0  0  0
  5 19  1  0  0  0  0
  5  6  1  0  0  0  0
  5 36  1  0  0  0  0
  6  7  1  0  0  0  0
  6 24  1  0  0  0  0
  6 25  1  0  0  0  0
  7  8  1  0  0  0  0
  7 26  1  0  0  0  0
  7 27  1  0  0  0  0
  8  9  1  0  0  0  0
  8 18  1  0  0  0  0
  8 28  1  0  0  0  0
  9 10  1  0  0  0  0
  9 29  1  0  0  0  0
 10 11  2  0  0  0  0
 10 12  1  0  0  0  0
 12 13  1  0  0  0  0
 13 17  1  0  0  0  0
 13 14  2  0  0  0  0
 14 15  1  0  0  0  0
 15 16  2  0  0  0  0
 15 30  1  0  0  0  0
 16 17  1  0  0  0  0
 16 31  1  0  0  0  0
 18 19  1  0  0  0  0
 18 32  1  0  0  0  0
 18 33  1  0  0  0  0
 19 34  1  0  0  0  0
 19 35  1  0  0  0  0
M  CHG  1   5   1
M  CHG  1  12  -1
M  END
> <s_m_source_file>
AV-unprocessed.smi

> <i_m_source_file_index>
1213

> <i_lp_mmshare_version>
43012

> <i_f3d_flags>
0

> <s_epik_input>
W05IMl1DKD1PKVtDSDJdTjFbQ0gyXVtDSDJdW0NIXShbQ0gyXVtDSDJdMSlbTkhdQyg9TylbTkhdYzJuW2NIXVtjSF1zMg==

> <s_epik_cmdline>
J2VwaWtfcHl0aG9uJywgJy1waCcsICc3LjAnLCAnLXRuJywgJzgnLCAnLW1hJywgJzIwMCcsICctbWV0YWxfYmluZGluZycsICctaW1hZScsICc8aW5maWxlLm1hZT4nLCAnLW9tYWUnLCAnPG91dGZpbGUubWFlPic=

> <r_lp_tautomer_probability>
0.999

> <r_epik_Ionization_Penalty>
7.1168

> <r_epik_Ionization_Penalty_Charging>
6.25003

> <r_epik_Ionization_Penalty_Neutral>
0.866763

> <r_epik_State_Penalty>
6.33484

> <r_epik_Charging_Adjusted_Penalty>
12.5849

> <i_epik_Tot_Q>
0

> <i_epik_Tot_abs_Q>
2

> <r_epik_Metal_State_Penalty>
2.3501

> <b_epik_Metal_Only>
1

> <s_lp_Force_Field>
OPLS_2005

> <r_lp_Energy>
2.02951

> <b_lp_Chiralities_Consistent>
1

> <s_lp_Variant>
AV-unprocessed.smi:1213-7

> <Gold.Version>
5.8.1

> <Gold.Id.Protein>
6NUR|6NUR_protein|mol2

> <Gold.PLP.Fitness>
39.6048

> <Gold.PLP.PLP>
-28.8059

> <Gold.PLP.part.hbond>
-4.0000

> <Gold.PLP.part.metal>
0.0000

> <Gold.PLP.part.buried>
3.3766

> <Gold.PLP.part.nonpolar>
-28.7133

> <Gold.PLP.part.repulsive>
0.5687

> <Gold.PLP.ligand.clash>
0.0000

> <Gold.PLP.ligand.torsion>
2.0128

> <Gold.PLP.Chemscore.Hbond>
4.9260

> <Gold.PLP.Chemscore.CHOScore>
0.0000

> <Gold.PLP.Chemscore.Metal>
0.0000

> <Gold.Chemscore.Hbonds>
donor molecule, donor type, donor heavy atom, donor atom, acceptor molecule, acceptor atom, score
      L1  H     1    21       P1  7948  0.99
      L1  H     5    36       P1  7948  2.00
      L1  H     9    29       P1  7957  0.77
      P1  H  7989  7998       L1    14  0.91

> <Gold.PLP.Chemscore.Internal.Correction>
0.0466

> <Gold.Rescore>
     Score         DG    S(hbond)    S(metal)    S(lipo)     H(rot)  DE(clash)    DE(int)     intcor
     12.78     -18.12       3.08        0.00      64.66       2.04       3.23       2.10       ----

> <Gold.Chemscore.Fitness>
12.7849

> <Gold.Chemscore.DG>
-18.1157

> <Gold.Chemscore.ZeroCoef>
-5.4800

> <Gold.Chemscore.Hbond>
3.0797

> <Gold.Chemscore.Metal>
0.0000

> <Gold.Chemscore.Lipo>
64.6582

> <Gold.Chemscore.Internal_Hbond>
0.0000

> <Gold.Chemscore.DEClash>
3.2340

> <Gold.Chemscore.DEInternal>
2.0968

> <Gold.Chemscore.Rot>
2.0373

> <Gold.Chemscore.Internal.Correction>
   9.000000E+99

> <Gold.Chemscore.Hbonds>
donor molecule, donor type, donor heavy atom, donor atom, acceptor molecule, acceptor atom, score
      L1  H     1    21       P1  7948  0.60
      L1  H     5    36       P1  7948  1.00
      L1  H     9    29       P1  7957  0.74
      P1  H  7989  7998       L1    14  0.20

> <Gold.Chemscore.Hbond.Weighted>
-10.2861

> <Gold.Chemscore.Metal.Weighted>
-0.0000

> <Gold.Chemscore.Lipo.Weighted>
-7.5650

> <Gold.Chemscore.Internal_Hbond.Weighted>
0.0000

> <Gold.Chemscore.DEClash.Weighted>
3.2340

> <Gold.Chemscore.DEInternal.Weighted>
2.0968

> <Gold.Chemscore.Rot.Weighted>
5.2154

> <Gold.Chemscore.Internal.Correction.Weighted>
   9.000000E+99

> <Gold.Protein.RotatedTorsions>
[ 6907 6896 6895 6894 ] final -141.29 input  -60.11 | X-H torsion
[ 7974 7965 7964 7962 ] final -170.41 input  175.53 | X-H torsion
[ 8008 7997 7996 7995 ] final  -32.35 input   59.86 | X-H torsion
[ 10167 10162 10161 10158 ] final -107.30 input  -65.29 | X-H torsion
[ 10718 10713 10712 10709 ] final  167.37 input   66.30 | X-H torsion
[ 10763 10752 10751 10750 ] final  -37.87 input  -60.55 | X-H torsion
[ 11005 11000 10999 10996 ] final   53.78 input  -57.11 | X-H torsion

> <Gold.Protein.ActiveResidues>
 VAL166  LYS551  ARG553  GLY616  TRP617  ASP618  TYR619  PRO620  LYS621  CYS622 
 ASP623  PHE694  ASN695  SER759  ASP760  ASP761  ALA762  ILE779  LEU786  VAL792 
 PHE793  MET794  SER795  GLU796  ALA797  LYS798  CYS799  TRP800  GLU811  SER814 

> <Gold.Protein.RotatedAtoms>
  151.0719  133.5459  159.2626 H   0  0  0  0  0  0  0  0  0  0  0  0  # atno 6907 bound_to 6896
  151.2395  135.0583  159.9029 H   0  0  0  0  0  0  0  0  0  0  0  0  # atno 6908 bound_to 6896
  152.5412  134.0496  159.8157 H   0  0  0  0  0  0  0  0  0  0  0  0  # atno 6909 bound_to 6896
  144.7170  140.2075  143.6331 H   0  0  0  0  0  0  0  0  0  0  0  0  # atno 7974 bound_to 7965
  154.4183  140.1739  156.1714 H   0  0  0  0  0  0  0  0  0  0  0  0  # atno 8008 bound_to 7997
  155.9757  140.3382  155.6593 H   0  0  0  0  0  0  0  0  0  0  0  0  # atno 8009 bound_to 7997
  155.6566  140.0696  157.2559 H   0  0  0  0  0  0  0  0  0  0  0  0  # atno 8010 bound_to 7997
  140.1784  143.3986  152.1300 H   0  0  0  0  0  0  0  0  0  0  0  0  # atno 10167 bound_to 10162
  157.0525  131.0317  151.2676 H   0  0  0  0  0  0  0  0  0  0  0  0  # atno 10718 bound_to 10713
  153.9034  135.6800  153.4754 H   0  0  0  0  0  0  0  0  0  0  0  0  # atno 10763 bound_to 10752
  153.1117  135.4780  154.9043 H   0  0  0  0  0  0  0  0  0  0  0  0  # atno 10764 bound_to 10752
  154.7563  135.3198  154.8417 H   0  0  0  0  0  0  0  0  0  0  0  0  # atno 10765 bound_to 10752
  140.0739  134.5431  155.9017 H   0  0  0  0  0  0  0  0  0  0  0  0  # atno 11005 bound_to 11000
  145.8622  139.2228  143.1710 LP  0  0  0  0  0  0  0  0  0  0  0  0  # atno 17320 bound_to 7965
  146.0163  140.8389  142.9945 LP  0  0  0  0  0  0  0  0  0  0  0  0  # atno 17321 bound_to 7965
  139.5307  144.7155  151.5067 LP  0  0  0  0  0  0  0  0  0  0  0  0  # atno 17342 bound_to 10162
  140.6536  143.8646  150.6811 LP  0  0  0  0  0  0  0  0  0  0  0  0  # atno 17343 bound_to 10162
  157.5019  130.7885  149.7613 LP  0  0  0  0  0  0  0  0  0  0  0  0  # atno 17370 bound_to 10713
  156.0003  130.3884  150.2631 LP  0  0  0  0  0  0  0  0  0  0  0  0  # atno 17371 bound_to 10713
  141.2022  133.6623  156.5994 LP  0  0  0  0  0  0  0  0  0  0  0  0  # atno 17394 bound_to 11000
  140.3586  134.7707  157.4518 LP  0  0  0  0  0  0  0  0  0  0  0  0  # atno 17395 bound_to 11000

$$$$
