#       Name:                AV-unprocessed.smi:1645
#       Creating user name   scv26
#       Creation time:       Fri Mar 27 07:30:48 2020


#       File generated by GOLD software.
#

@<TRIPOS>MOLECULE
AV-unprocessed.smi:1645
    59    62     1
SMALL
NO_CHARGES


@<TRIPOS>ATOM
      1 ****        -0.8541   1.7523  -0.4200 O.2            1 S1                 0.0000
      2 ****        -1.2437   0.6339  -0.7545 C.2            1 S1                 0.0000
      3 ****        -0.4542  -0.4131  -1.0481 N.am           1 S1                 0.0000
      4 ****         0.9640  -0.4954  -1.0021 C.ar           1 S1                 0.0000
      5 ****         1.7929   0.3766  -0.2585 C.ar           1 S1                 0.0000
      6 ****         3.1862   0.1756  -0.2792 C.ar           1 S1                 0.0000
      7 ****         3.7213  -0.8948  -1.0336 C.ar           1 S1                 0.0000
      8 ****         5.1156  -1.1135  -1.0633 N.3            1 S1                 0.0000
      9 ****         5.7536  -1.2551   0.2473 C.3            1 S1                 0.0000
     10 ****         7.2788  -1.0824   0.1446 C.3            1 S1                 0.0000
     11 ****         7.8730  -2.0327  -0.9055 C.3            1 S1                 0.0000
     12 ****         7.1671  -1.8326  -2.2545 C.3            1 S1                 0.0000
     13 ****         5.6437  -1.9911  -2.1111 C.3            1 S1                 0.0000
     14 ****         2.9229  -1.7322  -1.7400 N.ar           1 S1                 0.0000
     15 ****         1.5882  -1.5372  -1.7161 C.ar           1 S1                 0.0000
     16 ****        -2.5396   0.3161  -0.8823 N.am           1 S1                 0.0000
     17 ****        -3.6484   1.2383  -0.6476 C.3            1 S1                 0.0000
     18 ****        -5.0034   0.6939  -1.1200 C.3            1 S1                 0.0000
     19 ****        -6.0383   1.3043  -0.1577 C.3            1 S1                 0.0000
     20 ****        -5.2698   2.1158   0.8128 N.4            1 S1                 1.0000
     21 ****        -5.9012   2.3365   2.1390 C.3            1 S1                 0.0000
     22 ****        -5.7658   1.1205   3.0708 C.3            1 S1                 0.0000
     23 ****        -4.3004   0.6898   3.1897 C.3            1 S1                 0.0000
     24 ****        -3.7423   0.3761   1.7976 C.3            1 S1                 0.0000
     25 ****        -3.8902   1.5812   0.8329 C.3            1 S1                 0.0000
     26 ****        -0.9216  -1.2412  -1.3873 H              1 S1                 0.0000
     27 ****         1.3939   1.1846   0.3342 H              1 S1                 0.0000
     28 ****         3.8266   0.8466   0.2736 H              1 S1                 0.0000
     29 ****         5.3643  -0.5354   0.9662 H              1 S1                 0.0000
     30 ****         5.5190  -2.2450   0.6409 H              1 S1                 0.0000
     31 ****         7.5113  -0.0506  -0.1226 H              1 S1                 0.0000
     32 ****         7.7404  -1.2626   1.1158 H              1 S1                 0.0000
     33 ****         8.9440  -1.8576  -1.0108 H              1 S1                 0.0000
     34 ****         7.7544  -3.0659  -0.5768 H              1 S1                 0.0000
     35 ****         7.3942  -0.8378  -2.6402 H              1 S1                 0.0000
     36 ****         7.5488  -2.5441  -2.9869 H              1 S1                 0.0000
     37 ****         5.3976  -3.0259  -1.8689 H              1 S1                 0.0000
     38 ****         5.1713  -1.7617  -3.0671 H              1 S1                 0.0000
     39 ****         0.9999  -2.2373  -2.2913 H              1 S1                 0.0000
     40 ****        -2.7753  -0.6236  -1.1669 H              1 S1                 0.0000
     41 ****        -3.4541   2.1659  -1.1905 H              1 S1                 0.0000
     42 ****        -5.2018   0.9585  -2.1591 H              1 S1                 0.0000
     43 ****        -5.0340  -0.3944  -1.0470 H              1 S1                 0.0000
     44 ****        -6.7607   1.9322  -0.6797 H              1 S1                 0.0000
     45 ****        -6.5904   0.5105   0.3466 H              1 S1                 0.0000
     46 ****        -5.4135   3.1960   2.6007 H              1 S1                 0.0000
     47 ****        -6.9491   2.6091   2.0083 H              1 S1                 0.0000
     48 ****        -6.1621   1.3649   4.0568 H              1 S1                 0.0000
     49 ****        -6.3656   0.2902   2.6971 H              1 S1                 0.0000
     50 ****        -3.7137   1.4814   3.6577 H              1 S1                 0.0000
     51 ****        -4.2170  -0.1862   3.8337 H              1 S1                 0.0000
     52 ****        -2.6934   0.0913   1.8853 H              1 S1                 0.0000
     53 ****        -4.2626  -0.4949   1.3970 H              1 S1                 0.0000
     54 ****        -3.2125   2.3733   1.1553 H              1 S1                 0.0000
     55 ****        -5.1957   3.0268   0.3826 H              1 S1                 0.0000
     56 ****         0.1256   1.9399  -0.3484 LP             1 S1                 0.0000
     57 ****        -1.5171   2.4736  -0.2197 LP             1 S1                 0.0000
     58 ****         5.4309  -0.2239  -1.3937 LP             1 S1                 0.0000
     59 ****         3.3171  -2.4826  -2.2704 LP             1 S1                 0.0000
@<TRIPOS>BOND
    1    1    2 2     
    2    2    3 am    
    3    2   16 am    
    4    3    4 1     
    5    3   26 1     
    6    4   15 ar    
    7    4    5 ar    
    8    5    6 ar    
    9    5   27 1     
   10    6    7 ar    
   11    6   28 1     
   12    7    8 1     
   13    7   14 ar    
   14    8   13 1     
   15    8    9 1     
   16    9   10 1     
   17    9   29 1     
   18    9   30 1     
   19   10   11 1     
   20   10   31 1     
   21   10   32 1     
   22   11   12 1     
   23   11   33 1     
   24   11   34 1     
   25   12   13 1     
   26   12   35 1     
   27   12   36 1     
   28   13   37 1     
   29   13   38 1     
   30   14   15 ar    
   31   15   39 1     
   32   16   17 1     
   33   16   40 1     
   34   17   25 1     
   35   17   18 1     
   36   17   41 1     
   37   18   19 1     
   38   18   42 1     
   39   18   43 1     
   40   19   20 1     
   41   19   44 1     
   42   19   45 1     
   43   20   25 1     
   44   20   21 1     
   45   20   55 1     
   46   21   22 1     
   47   21   46 1     
   48   21   47 1     
   49   22   23 1     
   50   22   48 1     
   51   22   49 1     
   52   23   24 1     
   53   23   50 1     
   54   23   51 1     
   55   24   25 1     
   56   24   52 1     
   57   24   53 1     
   58   25   54 1     
   59    1   56 1     
   60    1   57 1     
   61    8   58 1     
   62   14   59 1     
@<TRIPOS>SUBSTRUCTURE
      1 S1             1
@<TRIPOS>SET
LONE_PAIRS      STATIC     ATOMS    <user>   **** ""
4 56 57 58 59
DONOR_HYDROGENS      STATIC     ATOMS    <user>   **** ""
3 26 40 55
ATOM$BLUE        STATIC     ATOMS    COLORGROUP SYSTEM
4 56 57 58 59
ATOM$RED        STATIC     ATOMS    COLORGROUP SYSTEM
3 26 40 55
