AV-unprocessed.smi:500|AV-procd|sdf|2734|dock10
  -GOLD-   2262023183D 1   1.00000     0.00000
 Structure written by MMmdl.
 45 47  0  0  0  0  0  0  0  0  1 V2000
  148.7231  126.1447  150.4795 C   0  0  0  0  0  0  0  0  0  0  0  0
  148.7008  126.8036  151.8657 C   0  0  0  0  0  0  0  0  0  0  0  0
  147.4203  127.3334  152.1798 O   0  0  0  0  0  0  0  0  0  0  0  0
  146.8116  128.0546  151.1199 C   0  0  0  0  0  0  0  0  0  0  0  0
  145.6544  128.8830  151.6913 C   0  0  0  0  0  0  0  0  0  0  0  0
  146.0934  130.2057  152.1112 N   0  0  0  0  0  0  0  0  0  0  0  0
  146.9643  130.5365  153.1009 C   0  0  0  0  0  0  0  0  0  0  0  0
  147.6488  129.5073  153.9664 C   0  0  2  0  0  0  0  0  0  0  0  0
  146.6623  128.7736  154.8853 C   0  0  0  0  0  0  0  0  0  0  0  0
  148.6753  130.1810  154.7578 N   0  0  0  0  0  0  0  0  0  0  0  0
  149.9526  129.7817  154.8685 C   0  0  0  0  0  0  0  0  0  0  0  0
  150.3957  128.7686  154.3274 O   0  0  0  0  0  0  0  0  0  0  0  0
  150.8226  130.6361  155.6981 C   0  0  0  0  0  0  0  0  0  0  0  0
  152.1308  130.4963  156.0811 C   0  0  0  0  0  0  0  0  0  0  0  0
  152.4390  131.6215  156.8944 C   0  0  0  0  0  0  0  0  0  0  0  0
  151.2967  132.3667  156.9532 C   0  0  0  0  0  0  0  0  0  0  0  0
  150.3031  131.7792  156.2331 O   0  0  0  0  0  0  0  0  0  0  0  0
  147.1898  131.8443  153.2540 N   0  0  0  0  0  0  0  0  0  0  0  0
  146.3873  132.4114  152.2853 C   0  0  0  0  0  0  0  0  0  0  0  0
  146.1811  133.7672  151.9437 C   0  0  0  0  0  0  0  0  0  0  0  0
  145.2963  134.1138  150.9019 C   0  0  0  0  0  0  0  0  0  0  0  0
  144.6070  133.1119  150.1888 C   0  0  0  0  0  0  0  0  0  0  0  0
  144.7990  131.7550  150.5129 C   0  0  0  0  0  0  0  0  0  0  0  0
  145.6845  131.4138  151.5534 C   0  0  0  0  0  0  0  0  0  0  0  0
  149.6840  125.6622  150.2990 H   0  0  0  0  0  0  0  0  0  0  0  0
  148.5686  126.8698  149.6810 H   0  0  0  0  0  0  0  0  0  0  0  0
  147.9483  125.3824  150.3971 H   0  0  0  0  0  0  0  0  0  0  0  0
  148.9346  126.0481  152.6159 H   0  0  0  0  0  0  0  0  0  0  0  0
  149.4723  127.5704  151.9486 H   0  0  0  0  0  0  0  0  0  0  0  0
  147.5418  128.7135  150.6474 H   0  0  0  0  0  0  0  0  0  0  0  0
  146.4421  127.3721  150.3553 H   0  0  0  0  0  0  0  0  0  0  0  0
  144.8458  128.9827  150.9675 H   0  0  0  0  0  0  0  0  0  0  0  0
  145.2212  128.3680  152.5490 H   0  0  0  0  0  0  0  0  0  0  0  0
  148.1334  128.7511  153.3506 H   0  0  0  0  0  0  0  0  0  0  0  0
  145.8948  128.2617  154.3042 H   0  0  0  0  0  0  0  0  0  0  0  0
  146.1595  129.4625  155.5650 H   0  0  0  0  0  0  0  0  0  0  0  0
  147.1731  128.0237  155.4900 H   0  0  0  0  0  0  0  0  0  0  0  0
  148.4003  131.0270  155.2351 H   0  0  0  0  0  0  0  0  0  0  0  0
  152.7880  129.6824  155.8113 H   0  0  0  0  0  0  0  0  0  0  0  0
  153.3766  131.8549  157.3770 H   0  0  0  0  0  0  0  0  0  0  0  0
  151.0288  133.2935  157.4387 H   0  0  0  0  0  0  0  0  0  0  0  0
  146.7044  134.5417  152.4845 H   0  0  0  0  0  0  0  0  0  0  0  0
  145.1454  135.1531  150.6494 H   0  0  0  0  0  0  0  0  0  0  0  0
  143.9306  133.3855  149.3923 H   0  0  0  0  0  0  0  0  0  0  0  0
  144.2706  130.9875  149.9673 H   0  0  0  0  0  0  0  0  0  0  0  0
  1  2  1  0  0  0  0
  1 25  1  0  0  0  0
  1 26  1  0  0  0  0
  1 27  1  0  0  0  0
  2  3  1  0  0  0  0
  2 28  1  0  0  0  0
  2 29  1  0  0  0  0
  3  4  1  0  0  0  0
  4  5  1  0  0  0  0
  4 30  1  0  0  0  0
  4 31  1  0  0  0  0
  5  6  1  0  0  0  0
  5 32  1  0  0  0  0
  5 33  1  0  0  0  0
  6 24  1  0  0  0  0
  6  7  1  0  0  0  0
  7  8  1  0  0  0  0
  7 18  2  0  0  0  0
  8  9  1  0  0  0  0
  8 10  1  0  0  0  0
  8 34  1  0  0  0  0
  9 35  1  0  0  0  0
  9 36  1  0  0  0  0
  9 37  1  0  0  0  0
 10 11  1  0  0  0  0
 10 38  1  0  0  0  0
 11 12  2  0  0  0  0
 11 13  1  0  0  0  0
 13 17  1  0  0  0  0
 13 14  2  0  0  0  0
 14 15  1  0  0  0  0
 14 39  1  0  0  0  0
 15 16  2  0  0  0  0
 15 40  1  0  0  0  0
 16 17  1  0  0  0  0
 16 41  1  0  0  0  0
 18 19  1  0  0  0  0
 19 24  2  0  0  0  0
 19 20  1  0  0  0  0
 20 21  2  0  0  0  0
 20 42  1  0  0  0  0
 21 22  1  0  0  0  0
 21 43  1  0  0  0  0
 22 23  2  0  0  0  0
 22 44  1  0  0  0  0
 23 24  1  0  0  0  0
 23 45  1  0  0  0  0
M  END
> <s_m_source_file>
AV-unprocessed.smi

> <i_m_source_file_index>
500

> <i_lp_mmshare_version>
43012

> <i_f3d_flags>
0

> <s_epik_input>
W0NIM11bQ0gyXU9bQ0gyXVtDSDJdbihjKGMxMilbY0hdW2NIXVtjSF1bY0hdMiljKG4xKVtDQEhdKFtDSDNdKVtOSF1DKD1PKWMzW2NIXVtjSF1bY0hdbzM=

> <s_epik_cmdline>
J2VwaWtfcHl0aG9uJywgJy1waCcsICc3LjAnLCAnLXRuJywgJzgnLCAnLW1hJywgJzIwMCcsICctbWV0YWxfYmluZGluZycsICctaW1hZScsICc8aW5maWxlLm1hZT4nLCAnLW9tYWUnLCAnPG91dGZpbGUubWFlPic=

> <r_epik_Ionization_Penalty>
0.109801

> <r_epik_Ionization_Penalty_Charging>
0

> <r_epik_Ionization_Penalty_Neutral>
0.109801

> <r_epik_State_Penalty>
0.0995533

> <r_epik_Charging_Adjusted_Penalty>
0.0995533

> <i_epik_Tot_Q>
0

> <i_epik_Tot_abs_Q>
0

> <r_epik_Metal_State_Penalty>
0.0918163

> <b_epik_Metal_Only>
0

> <s_lp_Force_Field>
OPLS_2005

> <r_lp_Energy>
8.25657

> <b_lp_Chiralities_Consistent>
1

> <s_lp_Variant>
AV-unprocessed.smi:500-1

> <Gold.Version>
5.8.1

> <Gold.Id.Protein>
6NUR|6NUR_protein|mol2

> <Gold.PLP.Fitness>
42.9499

> <Gold.PLP.PLP>
-44.0352

> <Gold.PLP.part.hbond>
0.0000

> <Gold.PLP.part.metal>
0.0000

> <Gold.PLP.part.buried>
-8.3039

> <Gold.PLP.part.nonpolar>
-36.1270

> <Gold.PLP.part.repulsive>
0.3663

> <Gold.PLP.ligand.clash>
0.0000

> <Gold.PLP.ligand.torsion>
0.5923

> <Gold.PLP.Chemscore.Hbond>
0.0000

> <Gold.PLP.Chemscore.CHOScore>
0.0000

> <Gold.PLP.Chemscore.Metal>
0.0000

> <Gold.PLP.Chemscore.Internal.Correction>
0.0993

> <Gold.Rescore>
     Score         DG    S(hbond)    S(metal)    S(lipo)     H(rot)  DE(clash)    DE(int)     intcor
     12.90     -13.68       0.00        0.00     112.00       1.92       0.00       0.77       ----

> <Gold.Chemscore.Fitness>
12.9029

> <Gold.Chemscore.DG>
-13.6802

> <Gold.Chemscore.ZeroCoef>
-5.4800

> <Gold.Chemscore.Hbond>
0.0000

> <Gold.Chemscore.Metal>
0.0000

> <Gold.Chemscore.Lipo>
112.0021

> <Gold.Chemscore.Internal_Hbond>
0.0000

> <Gold.Chemscore.DEClash>
0.0030

> <Gold.Chemscore.DEInternal>
0.7742

> <Gold.Chemscore.Rot>
1.9156

> <Gold.Chemscore.Internal.Correction>
   9.000000E+99

> <Gold.Chemscore.Hbond.Weighted>
-0.0000

> <Gold.Chemscore.Metal.Weighted>
-0.0000

> <Gold.Chemscore.Lipo.Weighted>
-13.1042

> <Gold.Chemscore.Internal_Hbond.Weighted>
0.0000

> <Gold.Chemscore.DEClash.Weighted>
0.0030

> <Gold.Chemscore.DEInternal.Weighted>
0.7742

> <Gold.Chemscore.Rot.Weighted>
4.9041

> <Gold.Chemscore.Internal.Correction.Weighted>
   9.000000E+99

> <Gold.Protein.RotatedTorsions>
[ 6907 6896 6895 6894 ] final  -57.18 input  -60.11 | X-H torsion
[ 7974 7965 7964 7962 ] final   86.18 input  175.53 | X-H torsion
[ 8008 7997 7996 7995 ] final   88.48 input   59.86 | X-H torsion
[ 10167 10162 10161 10158 ] final  106.63 input  -65.29 | X-H torsion
[ 10718 10713 10712 10709 ] final  130.95 input   66.30 | X-H torsion
[ 10763 10752 10751 10750 ] final -172.95 input  -60.55 | X-H torsion
[ 11005 11000 10999 10996 ] final  152.98 input  -57.11 | X-H torsion

> <Gold.Protein.ActiveResidues>
 VAL166  LYS551  ARG553  GLY616  TRP617  ASP618  TYR619  PRO620  LYS621  CYS622 
 ASP623  PHE694  ASN695  SER759  ASP760  ASP761  ALA762  ILE779  LEU786  VAL792 
 PHE793  MET794  SER795  GLU796  ALA797  LYS798  CYS799  TRP800  GLU811  SER814 

> <Gold.Protein.RotatedAtoms>
  150.8107  134.7260  159.6684 H   0  0  0  0  0  0  0  0  0  0  0  0  # atno 6907 bound_to 6896
  152.4227  134.5923  159.9987 H   0  0  0  0  0  0  0  0  0  0  0  0  # atno 6908 bound_to 6896
  151.6134  133.3308  159.3108 H   0  0  0  0  0  0  0  0  0  0  0  0  # atno 6909 bound_to 6896
  145.5757  139.2319  143.2381 H   0  0  0  0  0  0  0  0  0  0  0  0  # atno 7974 bound_to 7965
  155.9882  140.3371  155.6728 H   0  0  0  0  0  0  0  0  0  0  0  0  # atno 8008 bound_to 7997
  155.6456  140.0700  157.2622 H   0  0  0  0  0  0  0  0  0  0  0  0  # atno 8009 bound_to 7997
  154.4211  140.1735  156.1607 H   0  0  0  0  0  0  0  0  0  0  0  0  # atno 8010 bound_to 7997
  139.6993  144.7096  151.1213 H   0  0  0  0  0  0  0  0  0  0  0  0  # atno 10167 bound_to 10162
  157.5013  131.1094  150.9422 H   0  0  0  0  0  0  0  0  0  0  0  0  # atno 10718 bound_to 10713
  154.6134  135.2867  155.0407 H   0  0  0  0  0  0  0  0  0  0  0  0  # atno 10763 bound_to 10752
  154.1628  135.6485  153.4994 H   0  0  0  0  0  0  0  0  0  0  0  0  # atno 10764 bound_to 10752
  153.0204  135.5382  154.6896 H   0  0  0  0  0  0  0  0  0  0  0  0  # atno 10765 bound_to 10752
  140.1357  134.8772  157.2264 H   0  0  0  0  0  0  0  0  0  0  0  0  # atno 11005 bound_to 11000
  146.1752  140.6584  142.9214 LP  0  0  0  0  0  0  0  0  0  0  0  0  # atno 17320 bound_to 7965
  144.7417  140.4959  143.6864 LP  0  0  0  0  0  0  0  0  0  0  0  0  # atno 17321 bound_to 7965
  140.7705  143.5446  150.9273 LP  0  0  0  0  0  0  0  0  0  0  0  0  # atno 17342 bound_to 10162
  139.9127  143.6700  152.3112 LP  0  0  0  0  0  0  0  0  0  0  0  0  # atno 17343 bound_to 10162
  157.0092  130.5630  149.5319 LP  0  0  0  0  0  0  0  0  0  0  0  0  # atno 17370 bound_to 10713
  156.0231  130.5325  150.8332 LP  0  0  0  0  0  0  0  0  0  0  0  0  # atno 17371 bound_to 10713
  140.2786  134.3377  155.7350 LP  0  0  0  0  0  0  0  0  0  0  0  0  # atno 17394 bound_to 11000
  141.2178  133.7465  156.9329 LP  0  0  0  0  0  0  0  0  0  0  0  0  # atno 17395 bound_to 11000

$$$$
