AV-unprocessed.smi:2892|AV-procd|sdf|11120|dock4
  -GOLD-   2272015593D 1   1.00000     0.00000
 Structure written by MMmdl.
 42 42  0  0  0  0  0  0  0  0  2 V2000
  144.5651  134.7246  163.3547 C   0  0  0  0  0  0  0  0  0  0  0  0
  145.9959  135.0055  162.8719 C   0  0  0  0  0  0  0  0  0  0  0  0
  146.3642  134.3250  161.5265 C   0  0  2  0  0  0  0  0  0  0  0  0
  146.6184  132.8147  161.7418 C   0  0  0  0  0  0  0  0  0  0  0  0
  147.5838  135.0044  160.8282 C   0  0  1  0  0  0  0  0  0  0  0  0
  147.3975  134.9480  159.3792 N   0  0  0  0  0  0  0  0  0  0  0  0
  148.2976  135.3038  158.4477 C   0  0  0  0  0  0  0  0  0  0  0  0
  149.4070  135.7640  158.7168 O   0  0  0  0  0  0  0  0  0  0  0  0
  147.8865  135.1137  156.9830 C   0  0  0  0  0  0  0  0  0  0  0  0
  148.9638  135.5965  156.0442 C   0  0  0  0  0  0  0  0  0  0  0  0
  149.3325  135.0525  154.7808 C   0  0  0  0  0  0  0  0  0  0  0  0
  150.3770  135.8332  154.3770 C   0  0  0  0  0  0  0  0  0  0  0  0
  150.5864  136.7810  155.3562 N   0  0  0  0  0  0  0  0  0  0  0  0
  151.6049  137.8195  155.4007 C   0  0  0  0  0  0  0  0  0  0  0  0
  150.9651  139.2099  155.5435 C   0  0  0  0  0  0  0  0  0  0  0  0
  152.5417  137.7406  154.1841 C   0  0  0  0  0  0  0  0  0  0  0  0
  149.7122  136.6390  156.3769 N   0  0  0  0  0  0  0  0  0  0  0  0
  147.6915  136.4890  161.2226 C   0  0  0  0  0  0  0  0  0  0  0  0
  148.5608  136.8068  162.0656 O   0  0  0  0  0  0  0  0  0  0  0  0
  146.8994  137.2822  160.6687 O   0  5  0  0  0  0  0  0  0  0  0  0
  144.3379  135.3164  164.2415 H   0  0  0  0  0  0  0  0  0  0  0  0
  144.4214  133.6782  163.6217 H   0  0  0  0  0  0  0  0  0  0  0  0
  143.8334  134.9839  162.5892 H   0  0  0  0  0  0  0  0  0  0  0  0
  146.0888  136.0878  162.7881 H   0  0  0  0  0  0  0  0  0  0  0  0
  146.7071  134.7071  163.6429 H   0  0  0  0  0  0  0  0  0  0  0  0
  145.5013  134.4133  160.8641 H   0  0  0  0  0  0  0  0  0  0  0  0
  147.4744  132.6483  162.3964 H   0  0  0  0  0  0  0  0  0  0  0  0
  146.8147  132.2934  160.8049 H   0  0  0  0  0  0  0  0  0  0  0  0
  145.7577  132.3170  162.1861 H   0  0  0  0  0  0  0  0  0  0  0  0
  148.4991  134.4829  161.1152 H   0  0  0  0  0  0  0  0  0  0  0  0
  146.5055  134.6000  159.0601 H   0  0  0  0  0  0  0  0  0  0  0  0
  147.6810  134.0560  156.8156 H   0  0  0  0  0  0  0  0  0  0  0  0
  146.9531  135.6460  156.7955 H   0  0  0  0  0  0  0  0  0  0  0  0
  148.9052  134.2084  154.2602 H   0  0  0  0  0  0  0  0  0  0  0  0
  150.9855  135.7891  153.4859 H   0  0  0  0  0  0  0  0  0  0  0  0
  152.2071  137.6387  156.2920 H   0  0  0  0  0  0  0  0  0  0  0  0
  151.7276  139.9827  155.6425 H   0  0  0  0  0  0  0  0  0  0  0  0
  150.3286  139.2604  156.4275 H   0  0  0  0  0  0  0  0  0  0  0  0
  150.3510  139.4597  154.6775 H   0  0  0  0  0  0  0  0  0  0  0  0
  153.3488  138.4687  154.2666 H   0  0  0  0  0  0  0  0  0  0  0  0
  152.0105  137.9418  153.2530 H   0  0  0  0  0  0  0  0  0  0  0  0
  152.9962  136.7527  154.1029 H   0  0  0  0  0  0  0  0  0  0  0  0
  1  2  1  0  0  0  0
  1 21  1  0  0  0  0
  1 22  1  0  0  0  0
  1 23  1  0  0  0  0
  2  3  1  0  0  0  0
  2 24  1  0  0  0  0
  2 25  1  0  0  0  0
  3  4  1  0  0  0  0
  3  5  1  0  0  0  0
  3 26  1  0  0  0  0
  4 27  1  0  0  0  0
  4 28  1  0  0  0  0
  4 29  1  0  0  0  0
  5  6  1  0  0  0  0
  5 18  1  0  0  0  0
  5 30  1  0  0  0  0
  6  7  1  0  0  0  0
  6 31  1  0  0  0  0
  7  8  2  0  0  0  0
  7  9  1  0  0  0  0
  9 10  1  0  0  0  0
  9 32  1  0  0  0  0
  9 33  1  0  0  0  0
 10 17  2  0  0  0  0
 10 11  1  0  0  0  0
 11 12  2  0  0  0  0
 11 34  1  0  0  0  0
 12 13  1  0  0  0  0
 12 35  1  0  0  0  0
 13 14  1  0  0  0  0
 13 17  1  0  0  0  0
 14 15  1  0  0  0  0
 14 16  1  0  0  0  0
 14 36  1  0  0  0  0
 15 37  1  0  0  0  0
 15 38  1  0  0  0  0
 15 39  1  0  0  0  0
 16 40  1  0  0  0  0
 16 41  1  0  0  0  0
 16 42  1  0  0  0  0
 18 19  2  0  0  0  0
 18 20  1  0  0  0  0
M  CHG  1  20  -1
M  END
> <s_m_source_file>
AV-unprocessed.smi

> <i_m_source_file_index>
2892

> <i_lp_mmshare_version>
43012

> <i_f3d_flags>
0

> <s_epik_input>
W0NIM11bQ0gyXVtDQEhdKFtDSDNdKVtDQEBIXShDKD1PKVtPSF0pW05IXUMoPU8pW0NIMl1jMVtjSF1bY0hdbihuMSlbQ0hdKFtDSDNdKVtDSDNd

> <s_epik_cmdline>
J2VwaWtfcHl0aG9uJywgJy1waCcsICc3LjAnLCAnLXRuJywgJzgnLCAnLW1hJywgJzIwMCcsICctbWV0YWxfYmluZGluZycsICctaW1hZScsICc8aW5maWxlLm1hZT4nLCAnLW9tYWUnLCAnPG91dGZpbGUubWFlPic=

> <r_lp_tautomer_probability>
1

> <r_epik_Ionization_Penalty>
0.000286846

> <r_epik_Ionization_Penalty_Charging>
0.000224481

> <r_epik_Ionization_Penalty_Neutral>
6.23655e-05

> <r_epik_State_Penalty>
-0

> <r_epik_Charging_Adjusted_Penalty>
0.000224481

> <i_epik_Tot_Q>
-1

> <i_epik_Tot_abs_Q>
1

> <r_epik_Metal_State_Penalty>
-0

> <b_epik_Metal_Only>
0

> <s_lp_Force_Field>
OPLS_2005

> <r_lp_Energy>
13.0415

> <b_lp_Chiralities_Consistent>
1

> <s_lp_Variant>
AV-unprocessed.smi:2892-3

> <Gold.Version>
5.8.1

> <Gold.Id.Protein>
6NUR|6NUR_protein|mol2

> <Gold.PLP.Fitness>
45.5180

> <Gold.PLP.PLP>
-31.2609

> <Gold.PLP.part.hbond>
-2.9512

> <Gold.PLP.part.metal>
0.0000

> <Gold.PLP.part.buried>
-3.9540

> <Gold.PLP.part.nonpolar>
-26.0561

> <Gold.PLP.part.repulsive>
0.0547

> <Gold.PLP.ligand.clash>
0.0000

> <Gold.PLP.ligand.torsion>
1.8635

> <Gold.PLP.Chemscore.Hbond>
5.0000

> <Gold.PLP.Chemscore.CHOScore>
0.9385

> <Gold.PLP.Chemscore.Metal>
0.0000

> <Gold.Chemscore.Hbonds>
donor molecule, donor type, donor heavy atom, donor atom, acceptor molecule, acceptor atom, score
      P1  H  6896  6909       L1     8  1.00
      P1  H  6931  6943       L1    19  1.92
      P1  H  6934  6947       L1    20  2.00
      L1  C    12    35       P1  7949  0.77

> <Gold.PLP.Chemscore.Internal.Correction>
0.1687

> <Gold.Rescore>
     Score         DG    S(hbond)    S(metal)    S(lipo)     H(rot)  DE(clash)    DE(int)     intcor
     14.20     -16.80       2.77        0.00      69.97       2.39       0.02       2.57       ----

> <Gold.Chemscore.Fitness>
14.2048

> <Gold.Chemscore.DG>
-16.8003

> <Gold.Chemscore.ZeroCoef>
-5.4800

> <Gold.Chemscore.Hbond>
2.7673

> <Gold.Chemscore.Metal>
0.0000

> <Gold.Chemscore.Lipo>
69.9735

> <Gold.Chemscore.Internal_Hbond>
0.0000

> <Gold.Chemscore.DEClash>
0.0237

> <Gold.Chemscore.DEInternal>
2.5717

> <Gold.Chemscore.Rot>
2.3865

> <Gold.Chemscore.Internal.Correction>
   9.000000E+99

> <Gold.Chemscore.Hbonds>
donor molecule, donor type, donor heavy atom, donor atom, acceptor molecule, acceptor atom, score
      P1  H  6896  6909       L1     8  0.99
      P1  H  6931  6943       L1    19  0.80
      P1  H  6934  6947       L1    20  0.94

> <Gold.Chemscore.Hbond.Weighted>
-9.2428

> <Gold.Chemscore.Metal.Weighted>
-0.0000

> <Gold.Chemscore.Lipo.Weighted>
-8.1869

> <Gold.Chemscore.Internal_Hbond.Weighted>
0.0000

> <Gold.Chemscore.DEClash.Weighted>
0.0237

> <Gold.Chemscore.DEInternal.Weighted>
2.5717

> <Gold.Chemscore.Rot.Weighted>
6.1093

> <Gold.Chemscore.Internal.Correction.Weighted>
   9.000000E+99

> <Gold.Protein.RotatedTorsions>
[ 6907 6896 6895 6894 ] final   59.44 input  -60.11 | X-H torsion
[ 7974 7965 7964 7962 ] final  160.30 input  175.53 | X-H torsion
[ 8008 7997 7996 7995 ] final  106.30 input   59.86 | X-H torsion
[ 10167 10162 10161 10158 ] final  -20.00 input  -65.29 | X-H torsion
[ 10718 10713 10712 10709 ] final   73.62 input   66.30 | X-H torsion
[ 10763 10752 10751 10750 ] final   23.31 input  -60.55 | X-H torsion
[ 11005 11000 10999 10996 ] final   30.28 input  -57.11 | X-H torsion

> <Gold.Protein.ActiveResidues>
 VAL166  LYS551  ARG553  GLY616  TRP617  ASP618  TYR619  PRO620  LYS621  CYS622 
 ASP623  PHE694  ASN695  SER759  ASP760  ASP761  ALA762  ILE779  LEU786  VAL792 
 PHE793  MET794  SER795  GLU796  ALA797  LYS798  CYS799  TRP800  GLU811  SER814 

> <Gold.Protein.RotatedAtoms>
  152.3915  134.6434  160.0105 H   0  0  0  0  0  0  0  0  0  0  0  0  # atno 6907 bound_to 6896
  151.6666  133.3309  159.3194 H   0  0  0  0  0  0  0  0  0  0  0  0  # atno 6908 bound_to 6896
  150.7830  134.6835  159.6501 H   0  0  0  0  0  0  0  0  0  0  0  0  # atno 6909 bound_to 6896
  144.7744  139.7738  143.6284 H   0  0  0  0  0  0  0  0  0  0  0  0  # atno 7974 bound_to 7965
  156.1731  140.3115  155.9010 H   0  0  0  0  0  0  0  0  0  0  0  0  # atno 8008 bound_to 7997
  155.3544  140.0473  157.3063 H   0  0  0  0  0  0  0  0  0  0  0  0  # atno 8009 bound_to 7997
  154.5262  140.2215  155.8896 H   0  0  0  0  0  0  0  0  0  0  0  0  # atno 8010 bound_to 7997
  140.7273  143.4764  151.0176 H   0  0  0  0  0  0  0  0  0  0  0  0  # atno 10167 bound_to 10162
  157.6556  130.9637  150.1095 H   0  0  0  0  0  0  0  0  0  0  0  0  # atno 10718 bound_to 10713
  153.0848  135.6629  153.9971 H   0  0  0  0  0  0  0  0  0  0  0  0  # atno 10763 bound_to 10752
  153.9584  135.2976  155.3436 H   0  0  0  0  0  0  0  0  0  0  0  0  # atno 10764 bound_to 10752
  154.7254  135.5146  153.8950 H   0  0  0  0  0  0  0  0  0  0  0  0  # atno 10765 bound_to 10752
  140.2960  134.2810  155.7764 H   0  0  0  0  0  0  0  0  0  0  0  0  # atno 11005 bound_to 11000
  146.1914  139.5156  142.9803 LP  0  0  0  0  0  0  0  0  0  0  0  0  # atno 17320 bound_to 7965
  145.6229  141.0319  143.1905 LP  0  0  0  0  0  0  0  0  0  0  0  0  # atno 17321 bound_to 7965
  139.8460  143.7501  152.3179 LP  0  0  0  0  0  0  0  0  0  0  0  0  # atno 17342 bound_to 10162
  139.7666  144.7490  151.0285 LP  0  0  0  0  0  0  0  0  0  0  0  0  # atno 17343 bound_to 10162
  156.1995  130.3659  149.8806 LP  0  0  0  0  0  0  0  0  0  0  0  0  # atno 17370 bound_to 10713
  156.6713  130.8821  151.3562 LP  0  0  0  0  0  0  0  0  0  0  0  0  # atno 17371 bound_to 10713
  141.2137  133.7616  156.9696 LP  0  0  0  0  0  0  0  0  0  0  0  0  # atno 17394 bound_to 11000
  140.1152  134.9452  157.2123 LP  0  0  0  0  0  0  0  0  0  0  0  0  # atno 17395 bound_to 11000

$$$$
