AV-unprocessed.smi:3279|AV-procd|sdf|12550|dock9
  -GOLD-   2272018463D 1   1.00000     0.00000
 Structure written by MMmdl.
 36 36  0  0  0  0  0  0  0  0  1 V2000
  146.1644  142.0593  154.2631 C   0  0  0  0  0  0  0  0  0  0  0  0
  147.2143  141.2519  155.0469 C   0  0  2  0  0  0  0  0  0  0  0  0
  148.6604  141.4661  154.5500 C   0  0  0  0  0  0  0  0  0  0  0  0
  149.5637  141.8962  155.6136 N   0  0  0  0  0  0  0  0  0  0  0  0
  150.7436  141.3310  155.9140 C   0  0  0  0  0  0  0  0  0  0  0  0
  151.2214  140.3810  155.2943 O   0  0  0  0  0  0  0  0  0  0  0  0
  151.5074  141.9438  157.0846 C   0  0  0  0  0  0  0  0  0  0  0  0
  150.7056  142.9750  157.6531 O   0  0  0  0  0  0  0  0  0  0  0  0
  151.3030  143.8367  158.6253 C   0  0  0  0  0  0  0  0  0  0  0  0
  150.2241  144.6775  159.3356 C   0  0  0  0  0  0  0  0  0  0  0  0
  152.3870  144.7357  157.9969 C   0  0  0  0  0  0  0  0  0  0  0  0
  151.9539  142.8780  159.6352 C   0  0  0  0  0  0  0  0  0  0  0  0
  146.8644  139.7956  155.0619 C   0  0  0  0  0  0  0  0  0  0  0  0
  147.4484  138.8510  155.7900 N   0  0  0  0  0  0  0  0  0  0  0  0
  146.7663  137.6968  155.4410 N   0  0  0  0  0  0  0  0  0  0  0  0
  145.8375  137.9414  154.5603 N   0  0  0  0  0  0  0  0  0  0  0  0
  145.8922  139.2695  154.3133 N   0  0  0  0  0  0  0  0  0  0  0  0
  145.2806  139.7407  153.6624 H   0  0  0  0  0  0  0  0  0  0  0  0
  145.1628  141.8807  154.6560 H   0  0  0  0  0  0  0  0  0  0  0  0
  146.1611  141.7842  153.2080 H   0  0  0  0  0  0  0  0  0  0  0  0
  146.3485  143.1312  154.3271 H   0  0  0  0  0  0  0  0  0  0  0  0
  147.1737  141.5977  156.0810 H   0  0  0  0  0  0  0  0  0  0  0  0
  149.0522  140.5252  154.1619 H   0  0  0  0  0  0  0  0  0  0  0  0
  148.6782  142.1671  153.7135 H   0  0  0  0  0  0  0  0  0  0  0  0
  149.2588  142.6721  156.1835 H   0  0  0  0  0  0  0  0  0  0  0  0
  151.7223  141.1640  157.8155 H   0  0  0  0  0  0  0  0  0  0  0  0
  152.4567  142.3274  156.7119 H   0  0  0  0  0  0  0  0  0  0  0  0
  150.6486  145.2275  160.1763 H   0  0  0  0  0  0  0  0  0  0  0  0
  149.4253  144.0460  159.7255 H   0  0  0  0  0  0  0  0  0  0  0  0
  149.7727  145.4142  158.6716 H   0  0  0  0  0  0  0  0  0  0  0  0
  151.9624  145.4776  157.3206 H   0  0  0  0  0  0  0  0  0  0  0  0
  153.1118  144.1460  157.4347 H   0  0  0  0  0  0  0  0  0  0  0  0
  152.9338  145.2836  158.7650 H   0  0  0  0  0  0  0  0  0  0  0  0
  152.4427  143.4223  160.4439 H   0  0  0  0  0  0  0  0  0  0  0  0
  152.7084  142.2532  159.1556 H   0  0  0  0  0  0  0  0  0  0  0  0
  151.2146  142.2134  160.0838 H   0  0  0  0  0  0  0  0  0  0  0  0
  1  2  1  0  0  0  0
  1 19  1  0  0  0  0
  1 20  1  0  0  0  0
  1 21  1  0  0  0  0
  2  3  1  0  0  0  0
  2 13  1  0  0  0  0
  2 22  1  0  0  0  0
  3  4  1  0  0  0  0
  3 23  1  0  0  0  0
  3 24  1  0  0  0  0
  4  5  1  0  0  0  0
  4 25  1  0  0  0  0
  5  6  2  0  0  0  0
  5  7  1  0  0  0  0
  7  8  1  0  0  0  0
  7 26  1  0  0  0  0
  7 27  1  0  0  0  0
  8  9  1  0  0  0  0
  9 10  1  0  0  0  0
  9 11  1  0  0  0  0
  9 12  1  0  0  0  0
 10 28  1  0  0  0  0
 10 29  1  0  0  0  0
 10 30  1  0  0  0  0
 11 31  1  0  0  0  0
 11 32  1  0  0  0  0
 11 33  1  0  0  0  0
 12 34  1  0  0  0  0
 12 35  1  0  0  0  0
 12 36  1  0  0  0  0
 13 17  1  0  0  0  0
 13 14  2  0  0  0  0
 14 15  1  0  0  0  0
 15 16  2  0  0  0  0
 16 17  1  0  0  0  0
 17 18  1  0  0  0  0
M  END
> <s_m_source_file>
AV-unprocessed.smi

> <i_m_source_file_index>
3279

> <i_lp_mmshare_version>
43012

> <i_f3d_flags>
0

> <s_epik_input>
W25IXTFubm5jMVtDQEhdKFtDSDNdKVtDSDJdW05IXUMoPU8pW0NIMl1PQyhbQ0gzXSkoW0NIM10pW0NIM10=

> <s_epik_cmdline>
J2VwaWtfcHl0aG9uJywgJy1waCcsICc3LjAnLCAnLXRuJywgJzgnLCAnLW1hJywgJzIwMCcsICctbWV0YWxfYmluZGluZycsICctaW1hZScsICc8aW5maWxlLm1hZT4nLCAnLW9tYWUnLCAnPG91dGZpbGUubWFlPic=

> <r_lp_tautomer_probability>
0.3

> <r_epik_Ionization_Penalty>
1.45055

> <r_epik_Ionization_Penalty_Charging>
0

> <r_epik_Ionization_Penalty_Neutral>
1.45055

> <r_epik_State_Penalty>
2.31845

> <r_epik_Charging_Adjusted_Penalty>
2.31845

> <i_epik_Tot_Q>
0

> <i_epik_Tot_abs_Q>
0

> <r_epik_Metal_State_Penalty>
2.36898

> <b_epik_Metal_Only>
0

> <s_lp_Force_Field>
OPLS_2005

> <r_lp_Energy>
6.97201

> <b_lp_Chiralities_Consistent>
1

> <s_lp_Variant>
AV-unprocessed.smi:3279-3

> <Gold.Version>
5.8.1

> <Gold.Id.Protein>
6NUR|6NUR_protein|mol2

> <Gold.PLP.Fitness>
38.3715

> <Gold.PLP.PLP>
-32.0704

> <Gold.PLP.part.hbond>
-3.0000

> <Gold.PLP.part.metal>
0.0000

> <Gold.PLP.part.buried>
-4.9577

> <Gold.PLP.part.nonpolar>
-24.5079

> <Gold.PLP.part.repulsive>
0.4701

> <Gold.PLP.ligand.clash>
0.0000

> <Gold.PLP.ligand.torsion>
0.9532

> <Gold.PLP.Chemscore.Hbond>
2.6960

> <Gold.PLP.Chemscore.CHOScore>
0.0000

> <Gold.PLP.Chemscore.Metal>
0.0000

> <Gold.Chemscore.Hbonds>
donor molecule, donor type, donor heavy atom, donor atom, acceptor molecule, acceptor atom, score
      L1  H     4    25       P1  8028  0.43
      L1  H    17    18       P1 10175  0.76
      P1  H  7989  7998       L1     6  0.99

> <Gold.PLP.Chemscore.Internal.Correction>
0.1194

> <Gold.Rescore>
     Score         DG    S(hbond)    S(metal)    S(lipo)     H(rot)  DE(clash)    DE(int)     intcor
     13.56     -14.79       2.39        0.00      70.61       2.71       0.16       1.07       ----

> <Gold.Chemscore.Fitness>
13.5572

> <Gold.Chemscore.DG>
-14.7853

> <Gold.Chemscore.ZeroCoef>
-5.4800

> <Gold.Chemscore.Hbond>
2.3890

> <Gold.Chemscore.Metal>
0.0000

> <Gold.Chemscore.Lipo>
70.6145

> <Gold.Chemscore.Internal_Hbond>
0.0000

> <Gold.Chemscore.DEClash>
0.1594

> <Gold.Chemscore.DEInternal>
1.0687

> <Gold.Chemscore.Rot>
2.7094

> <Gold.Chemscore.Internal.Correction>
   9.000000E+99

> <Gold.Chemscore.Hbonds>
donor molecule, donor type, donor heavy atom, donor atom, acceptor molecule, acceptor atom, score
      L1  H     4    25       P1  8028  0.42
      L1  H    17    18       P1 10175  0.77
      P1  H  7989  7998       L1     6  0.73

> <Gold.Chemscore.Hbond.Weighted>
-7.9794

> <Gold.Chemscore.Metal.Weighted>
-0.0000

> <Gold.Chemscore.Lipo.Weighted>
-8.2619

> <Gold.Chemscore.Internal_Hbond.Weighted>
0.0000

> <Gold.Chemscore.DEClash.Weighted>
0.1594

> <Gold.Chemscore.DEInternal.Weighted>
1.0687

> <Gold.Chemscore.Rot.Weighted>
6.9360

> <Gold.Chemscore.Internal.Correction.Weighted>
   9.000000E+99

> <Gold.Protein.RotatedTorsions>
[ 6907 6896 6895 6894 ] final  -34.66 input  -60.11 | X-H torsion
[ 7974 7965 7964 7962 ] final   31.75 input  175.53 | X-H torsion
[ 8008 7997 7996 7995 ] final  178.18 input   59.86 | X-H torsion
[ 10167 10162 10161 10158 ] final -127.59 input  -65.29 | X-H torsion
[ 10718 10713 10712 10709 ] final -161.12 input   66.30 | X-H torsion
[ 10763 10752 10751 10750 ] final   61.19 input  -60.55 | X-H torsion
[ 11005 11000 10999 10996 ] final  -47.55 input  -57.11 | X-H torsion

> <Gold.Protein.ActiveResidues>
 VAL166  LYS551  ARG553  GLY616  TRP617  ASP618  TYR619  PRO620  LYS621  CYS622 
 ASP623  PHE694  ASN695  SER759  ASP760  ASP761  ALA762  ILE779  LEU786  VAL792 
 PHE793  MET794  SER795  GLU796  ALA797  LYS798  CYS799  TRP800  GLU811  SER814 

> <Gold.Protein.RotatedAtoms>
  151.0498  134.9665  159.8205 H   0  0  0  0  0  0  0  0  0  0  0  0  # atno 6907 bound_to 6896
  152.5378  134.2552  159.8924 H   0  0  0  0  0  0  0  0  0  0  0  0  # atno 6908 bound_to 6896
  151.2567  133.4279  159.2648 H   0  0  0  0  0  0  0  0  0  0  0  0  # atno 6909 bound_to 6896
  146.1530  139.6615  142.9086 H   0  0  0  0  0  0  0  0  0  0  0  0  # atno 7974 bound_to 7965
  156.0575  140.1340  156.9979 H   0  0  0  0  0  0  0  0  0  0  0  0  # atno 8008 bound_to 7997
  154.4465  140.0998  156.6538 H   0  0  0  0  0  0  0  0  0  0  0  0  # atno 8009 bound_to 7997
  155.5428  140.3461  155.4453 H   0  0  0  0  0  0  0  0  0  0  0  0  # atno 8010 bound_to 7997
  139.9592  143.5968  152.2450 H   0  0  0  0  0  0  0  0  0  0  0  0  # atno 10167 bound_to 10162
  156.5917  130.8773  151.2891 H   0  0  0  0  0  0  0  0  0  0  0  0  # atno 10718 bound_to 10713
  152.9943  135.5509  154.5994 H   0  0  0  0  0  0  0  0  0  0  0  0  # atno 10763 bound_to 10752
  154.5338  135.2815  155.1158 H   0  0  0  0  0  0  0  0  0  0  0  0  # atno 10764 bound_to 10752
  154.2463  135.6407  153.5277 H   0  0  0  0  0  0  0  0  0  0  0  0  # atno 10765 bound_to 10752
  141.0648  133.6697  156.3314 H   0  0  0  0  0  0  0  0  0  0  0  0  # atno 11005 bound_to 11000
  145.4777  141.0437  143.2663 LP  0  0  0  0  0  0  0  0  0  0  0  0  # atno 17320 bound_to 7965
  144.7928  139.6294  143.7106 LP  0  0  0  0  0  0  0  0  0  0  0  0  # atno 17321 bound_to 7965
  139.6567  144.7662  151.2042 LP  0  0  0  0  0  0  0  0  0  0  0  0  # atno 17342 bound_to 10162
  140.7558  143.6074  150.8639 LP  0  0  0  0  0  0  0  0  0  0  0  0  # atno 17343 bound_to 10162
  157.7302  130.9682  150.1821 LP  0  0  0  0  0  0  0  0  0  0  0  0  # atno 17370 bound_to 10713
  156.2544  130.3704  149.8198 LP  0  0  0  0  0  0  0  0  0  0  0  0  # atno 17371 bound_to 10713
  140.5796  134.5759  157.5476 LP  0  0  0  0  0  0  0  0  0  0  0  0  # atno 17394 bound_to 11000
  139.9466  134.7692  156.0548 LP  0  0  0  0  0  0  0  0  0  0  0  0  # atno 17395 bound_to 11000

$$$$
