AV-unprocessed.smi:101|AV-procd|sdf|923|dock1
  -GOLD-   2262017433D 1   1.00000     0.00000
 Structure written by MMmdl.
 44 46  0  0  0  0  0  0  0  0  1 V2000
  146.6249  136.1952  156.3794 C   0  0  0  0  0  0  0  0  0  0  0  0
  146.8593  137.4480  155.5520 C   0  0  0  0  0  0  0  0  0  0  0  0
  148.0239  138.1438  155.5989 C   0  0  0  0  0  0  0  0  0  0  0  0
  148.2647  139.2933  154.8590 N   0  0  0  0  0  0  0  0  0  0  0  0
  149.5953  140.0077  154.9591 C   0  0  2  0  0  0  0  0  0  0  0  0
  150.4648  139.1933  155.6789 O   0  0  0  0  0  0  0  0  0  0  0  0
  151.3260  140.0113  156.4538 C   0  0  2  0  0  0  0  0  0  0  0  0
  151.8924  139.1992  157.6236 C   0  0  0  0  0  0  0  0  0  0  0  0
  151.7227  139.9350  158.8238 O   0  0  0  0  0  0  0  0  0  0  0  0
  152.6537  139.8651  159.7948 C   0  0  0  0  0  0  0  0  0  0  0  0
  153.5268  138.9963  159.8410 O   0  0  0  0  0  0  0  0  0  0  0  0
  152.5172  140.9501  160.8092 C   0  0  0  0  0  0  0  0  0  0  0  0
  152.0512  142.2226  160.4034 C   0  0  0  0  0  0  0  0  0  0  0  0
  151.9112  143.2668  161.3380 C   0  0  0  0  0  0  0  0  0  0  0  0
  152.2345  143.0512  162.6903 C   0  0  0  0  0  0  0  0  0  0  0  0
  152.6991  141.7900  163.1068 C   0  0  0  0  0  0  0  0  0  0  0  0
  152.8403  140.7445  162.1736 C   0  0  0  0  0  0  0  0  0  0  0  0
  150.4179  141.1637  156.8910 C   0  0  1  0  0  0  0  0  0  0  0  0
  151.1859  142.3222  157.1514 O   0  0  0  0  0  0  0  0  0  0  0  0
  149.5090  141.3719  155.6832 C   0  0  2  0  0  0  0  0  0  0  0  0
  148.2044  141.7388  156.0956 O   0  0  0  0  0  0  0  0  0  0  0  0
  147.2557  139.7972  154.0127 C   0  0  0  0  0  0  0  0  0  0  0  0
  147.3869  140.8239  153.3477 O   0  0  0  0  0  0  0  0  0  0  0  0
  146.0618  139.0801  153.9596 N   0  0  0  0  0  0  0  0  0  0  0  0
  145.7794  137.9150  154.6776 C   0  0  0  0  0  0  0  0  0  0  0  0
  144.6851  137.3699  154.5438 O   0  0  0  0  0  0  0  0  0  0  0  0
  145.3368  139.4343  153.3527 H   0  0  0  0  0  0  0  0  0  0  0  0
  147.4896  135.9510  156.9974 H   0  0  0  0  0  0  0  0  0  0  0  0
  146.4258  135.3418  155.7304 H   0  0  0  0  0  0  0  0  0  0  0  0
  145.7688  136.3302  157.0416 H   0  0  0  0  0  0  0  0  0  0  0  0
  148.8055  137.7889  156.2559 H   0  0  0  0  0  0  0  0  0  0  0  0
  149.9994  140.0986  153.9496 H   0  0  0  0  0  0  0  0  0  0  0  0
  152.1266  140.3840  155.8114 H   0  0  0  0  0  0  0  0  0  0  0  0
  151.3592  138.2517  157.7124 H   0  0  0  0  0  0  0  0  0  0  0  0
  152.9458  138.9714  157.4538 H   0  0  0  0  0  0  0  0  0  0  0  0
  151.7962  142.4119  159.3704 H   0  0  0  0  0  0  0  0  0  0  0  0
  151.5547  144.2342  161.0163 H   0  0  0  0  0  0  0  0  0  0  0  0
  152.1265  143.8521  163.4068 H   0  0  0  0  0  0  0  0  0  0  0  0
  152.9480  141.6236  164.1447 H   0  0  0  0  0  0  0  0  0  0  0  0
  153.1988  139.7887  162.5271 H   0  0  0  0  0  0  0  0  0  0  0  0
  149.8397  140.8765  157.7713 H   0  0  0  0  0  0  0  0  0  0  0  0
  150.7296  143.0724  156.8022 H   0  0  0  0  0  0  0  0  0  0  0  0
  149.9062  142.1312  155.0077 H   0  0  0  0  0  0  0  0  0  0  0  0
  148.1676  142.6805  156.1673 H   0  0  0  0  0  0  0  0  0  0  0  0
  1  2  1  0  0  0  0
  1 28  1  0  0  0  0
  1 29  1  0  0  0  0
  1 30  1  0  0  0  0
  2 25  1  0  0  0  0
  2  3  2  0  0  0  0
  3  4  1  0  0  0  0
  3 31  1  0  0  0  0
  4  5  1  0  0  0  0
  4 22  1  0  0  0  0
  5 20  1  0  0  0  0
  5  6  1  0  0  0  0
  5 32  1  0  0  0  0
  6  7  1  0  0  0  0
  7  8  1  0  0  0  0
  7 18  1  0  0  0  0
  7 33  1  0  0  0  0
  8  9  1  0  0  0  0
  8 34  1  0  0  0  0
  8 35  1  0  0  0  0
  9 10  1  0  0  0  0
 10 11  2  0  0  0  0
 10 12  1  0  0  0  0
 12 17  1  0  0  0  0
 12 13  2  0  0  0  0
 13 14  1  0  0  0  0
 13 36  1  0  0  0  0
 14 15  2  0  0  0  0
 14 37  1  0  0  0  0
 15 16  1  0  0  0  0
 15 38  1  0  0  0  0
 16 17  2  0  0  0  0
 16 39  1  0  0  0  0
 17 40  1  0  0  0  0
 18 19  1  0  0  0  0
 18 20  1  0  0  0  0
 18 41  1  0  0  0  0
 19 42  1  0  0  0  0
 20 21  1  0  0  0  0
 20 43  1  0  0  0  0
 21 44  1  0  0  0  0
 22 23  2  0  0  0  0
 22 24  1  0  0  0  0
 24 27  1  0  0  0  0
 24 25  1  0  0  0  0
 25 26  2  0  0  0  0
M  END
> <s_m_source_file>
AV-unprocessed.smi

> <i_m_source_file_index>
101

> <i_lp_mmshare_version>
43012

> <i_f3d_flags>
0

> <s_epik_input>
Tz1jMVtuSF1jKD1PKW4oW2NIXWMxW0NIM10pW0NAQEhdMk9bQ0BIXShbQ0BASF0oW09IXSlbQ0BIXTJbT0hdKVtDSDJdT0MoPU8pYzNbY0hdW2NIXVtjSF1bY0hdW2NIXTM=

> <s_epik_cmdline>
J2VwaWtfcHl0aG9uJywgJy1waCcsICc3LjAnLCAnLXRuJywgJzgnLCAnLW1hJywgJzIwMCcsICctbWV0YWxfYmluZGluZycsICctaW1hZScsICc8aW5maWxlLm1hZT4nLCAnLW9tYWUnLCAnPG91dGZpbGUubWFlPic=

> <r_lp_tautomer_probability>
0.999537

> <r_epik_Ionization_Penalty>
0.00263537

> <r_epik_Ionization_Penalty_Charging>
0.00263428

> <r_epik_Ionization_Penalty_Neutral>
1.09111e-06

> <r_epik_State_Penalty>
0.00183335

> <r_epik_Charging_Adjusted_Penalty>
0.00446763

> <i_epik_Tot_Q>
0

> <i_epik_Tot_abs_Q>
0

> <r_epik_Metal_State_Penalty>
1.00528

> <b_epik_Metal_Only>
0

> <s_epik_Chemistry_Notes>
This compound has an ester and may undergo hydrolysis at high or low pH. This compound contains an acetal/aminal-like group ( X-CH(R)-Y where X, Y are N, S, or O) that may be acid/base labile, releasing an aldehyde.

> <s_lp_Force_Field>
OPLS_2005

> <r_lp_Energy>
35.5527

> <b_lp_Chiralities_Consistent>
1

> <s_lp_Variant>
AV-unprocessed.smi:101-11

> <Gold.Version>
5.8.1

> <Gold.Id.Protein>
6NUR|6NUR_protein|mol2

> <Gold.PLP.Fitness>
53.4643

> <Gold.PLP.PLP>
-44.8585

> <Gold.PLP.part.hbond>
-4.3293

> <Gold.PLP.part.metal>
0.0000

> <Gold.PLP.part.buried>
-1.2174

> <Gold.PLP.part.nonpolar>
-37.3066

> <Gold.PLP.part.repulsive>
0.2936

> <Gold.PLP.ligand.clash>
0.0000

> <Gold.PLP.ligand.torsion>
1.7262

> <Gold.PLP.Chemscore.Hbond>
3.8640

> <Gold.PLP.Chemscore.CHOScore>
0.0000

> <Gold.PLP.Chemscore.Metal>
0.0000

> <Gold.Chemscore.Hbonds>
donor molecule, donor type, donor heavy atom, donor atom, acceptor molecule, acceptor atom, score
      L1  H    21    44       P1  8028  0.55
      L1  H    24    27       P1 10175  0.71

> <Gold.PLP.Chemscore.Internal.Correction>
0.4663

> <Gold.Rescore>
     Score         DG    S(hbond)    S(metal)    S(lipo)     H(rot)  DE(clash)    DE(int)     intcor
     15.41     -19.59       3.45        0.00      94.82       3.32       1.60       2.58       ----

> <Gold.Chemscore.Fitness>
15.4103

> <Gold.Chemscore.DG>
-19.5887

> <Gold.Chemscore.ZeroCoef>
-5.4800

> <Gold.Chemscore.Hbond>
3.4453

> <Gold.Chemscore.Metal>
0.0000

> <Gold.Chemscore.Lipo>
94.8161

> <Gold.Chemscore.Internal_Hbond>
0.0000

> <Gold.Chemscore.DEClash>
1.5990

> <Gold.Chemscore.DEInternal>
2.5794

> <Gold.Chemscore.Rot>
3.3172

> <Gold.Chemscore.Internal.Correction>
   9.000000E+99

> <Gold.Chemscore.Hbonds>
donor molecule, donor type, donor heavy atom, donor atom, acceptor molecule, acceptor atom, score
      L1  H    21    44       P1  8028  0.45
      L1  H    24    27       P1 10175  0.71

> <Gold.Chemscore.Hbond.Weighted>
-11.5073

> <Gold.Chemscore.Metal.Weighted>
-0.0000

> <Gold.Chemscore.Lipo.Weighted>
-11.0935

> <Gold.Chemscore.Internal_Hbond.Weighted>
0.0000

> <Gold.Chemscore.DEClash.Weighted>
1.5990

> <Gold.Chemscore.DEInternal.Weighted>
2.5794

> <Gold.Chemscore.Rot.Weighted>
8.4920

> <Gold.Chemscore.Internal.Correction.Weighted>
   9.000000E+99

> <Gold.Protein.RotatedTorsions>
[ 6907 6896 6895 6894 ] final   19.60 input  -60.11 | X-H torsion
[ 7974 7965 7964 7962 ] final   85.98 input  175.53 | X-H torsion
[ 8008 7997 7996 7995 ] final  132.68 input   59.86 | X-H torsion
[ 10167 10162 10161 10158 ] final  -75.48 input  -65.29 | X-H torsion
[ 10718 10713 10712 10709 ] final  169.79 input   66.30 | X-H torsion
[ 10763 10752 10751 10750 ] final  -52.48 input  -60.55 | X-H torsion
[ 11005 11000 10999 10996 ] final  -82.09 input  -57.11 | X-H torsion

> <Gold.Protein.ActiveResidues>
 VAL166  LYS551  ARG553  GLY616  TRP617  ASP618  TYR619  PRO620  LYS621  CYS622 
 ASP623  PHE694  ASN695  SER759  ASP760  ASP761  ALA762  ILE779  LEU786  VAL792 
 PHE793  MET794  SER795  GLU796  ALA797  LYS798  CYS799  TRP800  GLU811  SER814 

> <Gold.Protein.RotatedAtoms>
  151.8834  135.0445  160.0490 H   0  0  0  0  0  0  0  0  0  0  0  0  # atno 6907 bound_to 6896
  152.2494  133.5198  159.5325 H   0  0  0  0  0  0  0  0  0  0  0  0  # atno 6908 bound_to 6896
  150.7079  134.0897  159.3969 H   0  0  0  0  0  0  0  0  0  0  0  0  # atno 6909 bound_to 6896
  145.5783  139.2322  143.2367 H   0  0  0  0  0  0  0  0  0  0  0  0  # atno 7974 bound_to 7965
  156.2985  140.2540  156.3130 H   0  0  0  0  0  0  0  0  0  0  0  0  # atno 8008 bound_to 7997
  154.9308  140.0398  157.2066 H   0  0  0  0  0  0  0  0  0  0  0  0  # atno 8009 bound_to 7997
  154.8220  140.2861  155.5785 H   0  0  0  0  0  0  0  0  0  0  0  0  # atno 8010 bound_to 7997
  140.4939  143.2374  151.7862 H   0  0  0  0  0  0  0  0  0  0  0  0  # atno 10167 bound_to 10162
  157.0175  131.0222  151.2784 H   0  0  0  0  0  0  0  0  0  0  0  0  # atno 10718 bound_to 10713
  154.1435  135.6501  153.4947 H   0  0  0  0  0  0  0  0  0  0  0  0  # atno 10763 bound_to 10752
  153.0159  135.5321  154.6881 H   0  0  0  0  0  0  0  0  0  0  0  0  # atno 10764 bound_to 10752
  154.6149  135.2958  155.0362 H   0  0  0  0  0  0  0  0  0  0  0  0  # atno 10765 bound_to 10752
  141.1664  133.7227  156.8519 H   0  0  0  0  0  0  0  0  0  0  0  0  # atno 11005 bound_to 11000
  146.1734  140.6610  142.9222 LP  0  0  0  0  0  0  0  0  0  0  0  0  # atno 17320 bound_to 7965
  144.7405  140.4930  143.6872 LP  0  0  0  0  0  0  0  0  0  0  0  0  # atno 17321 bound_to 7965
  139.4857  144.4612  151.9538 LP  0  0  0  0  0  0  0  0  0  0  0  0  # atno 17342 bound_to 10162
  140.3700  144.2867  150.5921 LP  0  0  0  0  0  0  0  0  0  0  0  0  # atno 17343 bound_to 10162
  157.5274  130.8037  149.7878 LP  0  0  0  0  0  0  0  0  0  0  0  0  # atno 17370 bound_to 10713
  156.0114  130.3832  150.2253 LP  0  0  0  0  0  0  0  0  0  0  0  0  # atno 17371 bound_to 10713
  140.1909  134.8966  157.3059 LP  0  0  0  0  0  0  0  0  0  0  0  0  # atno 17394 bound_to 11000
  140.2291  134.3931  155.7530 LP  0  0  0  0  0  0  0  0  0  0  0  0  # atno 17395 bound_to 11000

$$$$
