AV-unprocessed.smi:2924|AV-procd|sdf|11218|dock4
  -GOLD-   2272016113D 1   1.00000     0.00000
 Structure written by MMmdl.
 29 31  0  0  0  0  0  0  0  0  1 V2000
  147.1065  142.4357  154.7570 N   0  0  0  0  0  0  0  0  0  0  0  0
  148.0386  141.7539  154.8276 C   0  0  0  0  0  0  0  0  0  0  0  0
  149.2129  140.8946  154.9164 C   0  0  0  0  0  0  0  0  0  0  0  0
  149.1631  139.6087  154.3383 C   0  0  0  0  0  0  0  0  0  0  0  0
  150.2922  138.7742  154.4227 C   0  0  0  0  0  0  0  0  0  0  0  0
  151.4330  139.2626  155.0850 C   0  0  0  0  0  0  0  0  0  0  0  0
  151.4944  140.4898  155.6419 N   0  0  0  0  0  0  0  0  0  0  0  0
  150.4096  141.2997  155.5669 C   0  0  0  0  0  0  0  0  0  0  0  0
  150.5050  142.5741  156.1559 N   0  0  0  0  0  0  0  0  0  0  0  0
  151.4010  142.8315  157.2786 C   0  0  2  0  0  0  0  0  0  0  0  0
  150.8067  142.4158  158.6308 C   0  0  0  0  0  0  0  0  0  0  0  0
  150.8861  143.7236  159.4279 C   0  0  1  0  0  0  0  0  0  0  0  0
  152.3322  144.1172  159.7581 C   0  0  0  0  0  0  0  0  0  0  0  0
  152.8469  144.5845  158.3970 C   0  0  0  0  0  0  0  0  0  0  0  0
  151.6293  144.3369  157.4963 C   0  0  2  0  0  0  0  0  0  0  0  0
  150.5864  144.6551  158.4038 O   0  0  0  0  0  0  0  0  0  0  0  0
  148.2721  139.2608  153.8353 H   0  0  0  0  0  0  0  0  0  0  0  0
  150.2842  137.7845  153.9907 H   0  0  0  0  0  0  0  0  0  0  0  0
  152.3200  138.6526  155.1700 H   0  0  0  0  0  0  0  0  0  0  0  0
  149.8027  143.2678  155.9416 H   0  0  0  0  0  0  0  0  0  0  0  0
  152.3570  142.3397  157.0941 H   0  0  0  0  0  0  0  0  0  0  0  0
  149.7673  142.0983  158.5340 H   0  0  0  0  0  0  0  0  0  0  0  0
  151.3635  141.6055  159.1024 H   0  0  0  0  0  0  0  0  0  0  0  0
  150.2098  143.7616  160.2820 H   0  0  0  0  0  0  0  0  0  0  0  0
  152.3599  144.9352  160.4787 H   0  0  0  0  0  0  0  0  0  0  0  0
  152.9044  143.2825  160.1645 H   0  0  0  0  0  0  0  0  0  0  0  0
  153.0944  145.6462  158.4271 H   0  0  0  0  0  0  0  0  0  0  0  0
  153.7305  144.0376  158.0666 H   0  0  0  0  0  0  0  0  0  0  0  0
  151.6359  144.9321  156.5823 H   0  0  0  0  0  0  0  0  0  0  0  0
  1  2  3  0  0  0  0
  2  3  1  0  0  0  0
  3  8  1  0  0  0  0
  3  4  2  0  0  0  0
  4  5  1  0  0  0  0
  4 17  1  0  0  0  0
  5  6  2  0  0  0  0
  5 18  1  0  0  0  0
  6  7  1  0  0  0  0
  6 19  1  0  0  0  0
  7  8  2  0  0  0  0
  8  9  1  0  0  0  0
  9 10  1  0  0  0  0
  9 20  1  0  0  0  0
 10 15  1  0  0  0  0
 10 11  1  0  0  0  0
 10 21  1  0  0  0  0
 11 12  1  0  0  0  0
 11 22  1  0  0  0  0
 11 23  1  0  0  0  0
 12 16  1  0  0  0  0
 12 13  1  0  0  0  0
 12 24  1  0  0  0  0
 13 14  1  0  0  0  0
 13 25  1  0  0  0  0
 13 26  1  0  0  0  0
 14 15  1  0  0  0  0
 14 27  1  0  0  0  0
 14 28  1  0  0  0  0
 15 16  1  0  0  0  0
 15 29  1  0  0  0  0
M  END
> <s_m_source_file>
AV-unprocessed.smi

> <i_m_source_file_index>
2924

> <i_lp_mmshare_version>
43012

> <i_f3d_flags>
0

> <s_epik_input>
TiNDYzFbY0hdW2NIXVtjSF1uYzFbTkhdW0NASF0oW0NIMl1bQ0BASF0yMylbQ0BASF0oTzMpW0NIMl1bQ0gyXTI=

> <s_epik_cmdline>
J2VwaWtfcHl0aG9uJywgJy1waCcsICc3LjAnLCAnLXRuJywgJzgnLCAnLW1hJywgJzIwMCcsICctbWV0YWxfYmluZGluZycsICctaW1hZScsICc8aW5maWxlLm1hZT4nLCAnLW9tYWUnLCAnPG91dGZpbGUubWFlPic=

> <r_lp_tautomer_probability>
1

> <r_epik_Ionization_Penalty>
2.11559e-05

> <r_epik_Ionization_Penalty_Charging>
0

> <r_epik_Ionization_Penalty_Neutral>
2.11559e-05

> <r_epik_State_Penalty>
-0

> <r_epik_Charging_Adjusted_Penalty>
0

> <i_epik_Tot_Q>
0

> <i_epik_Tot_abs_Q>
0

> <r_epik_Metal_State_Penalty>
-0

> <b_epik_Metal_Only>
0

> <s_lp_Force_Field>
OPLS_2005

> <r_lp_Energy>
42.1946

> <b_lp_Chiralities_Consistent>
1

> <s_lp_Variant>
AV-unprocessed.smi:2924-1

> <Gold.Version>
5.8.1

> <Gold.Id.Protein>
6NUR|6NUR_protein|mol2

> <Gold.PLP.Fitness>
39.7896

> <Gold.PLP.PLP>
-37.5980

> <Gold.PLP.part.hbond>
-2.0000

> <Gold.PLP.part.metal>
0.0000

> <Gold.PLP.part.buried>
-4.2244

> <Gold.PLP.part.nonpolar>
-31.8086

> <Gold.PLP.part.repulsive>
0.6753

> <Gold.PLP.ligand.clash>
0.0000

> <Gold.PLP.ligand.torsion>
0.4141

> <Gold.PLP.Chemscore.Hbond>
1.0000

> <Gold.PLP.Chemscore.CHOScore>
0.0000

> <Gold.PLP.Chemscore.Metal>
0.0000

> <Gold.Chemscore.Hbonds>
donor molecule, donor type, donor heavy atom, donor atom, acceptor molecule, acceptor atom, score
      L1  H     9    20       P1  8028  1.00

> <Gold.PLP.Chemscore.Internal.Correction>
0.0198

> <Gold.Rescore>
     Score         DG    S(hbond)    S(metal)    S(lipo)     H(rot)  DE(clash)    DE(int)     intcor
     16.55     -17.06       1.00        0.00      92.35       1.00       0.09       0.42       ----

> <Gold.Chemscore.Fitness>
16.5506

> <Gold.Chemscore.DG>
-17.0605

> <Gold.Chemscore.ZeroCoef>
-5.4800

> <Gold.Chemscore.Hbond>
0.9986

> <Gold.Chemscore.Metal>
0.0000

> <Gold.Chemscore.Lipo>
92.3524

> <Gold.Chemscore.Internal_Hbond>
0.0000

> <Gold.Chemscore.DEClash>
0.0917

> <Gold.Chemscore.DEInternal>
0.4182

> <Gold.Chemscore.Rot>
1.0000

> <Gold.Chemscore.Internal.Correction>
   9.000000E+99

> <Gold.Chemscore.Hbonds>
donor molecule, donor type, donor heavy atom, donor atom, acceptor molecule, acceptor atom, score
      L1  H     9    20       P1  8028  1.00

> <Gold.Chemscore.Hbond.Weighted>
-3.3353

> <Gold.Chemscore.Metal.Weighted>
-0.0000

> <Gold.Chemscore.Lipo.Weighted>
-10.8052

> <Gold.Chemscore.Internal_Hbond.Weighted>
0.0000

> <Gold.Chemscore.DEClash.Weighted>
0.0917

> <Gold.Chemscore.DEInternal.Weighted>
0.4182

> <Gold.Chemscore.Rot.Weighted>
2.5600

> <Gold.Chemscore.Internal.Correction.Weighted>
   9.000000E+99

> <Gold.Protein.RotatedTorsions>
[ 6907 6896 6895 6894 ] final   91.20 input  -60.11 | X-H torsion
[ 7974 7965 7964 7962 ] final -168.75 input  175.53 | X-H torsion
[ 8008 7997 7996 7995 ] final   47.57 input   59.86 | X-H torsion
[ 10167 10162 10161 10158 ] final -125.65 input  -65.29 | X-H torsion
[ 10718 10713 10712 10709 ] final  177.52 input   66.30 | X-H torsion
[ 10763 10752 10751 10750 ] final   46.67 input  -60.55 | X-H torsion
[ 11005 11000 10999 10996 ] final   67.95 input  -57.11 | X-H torsion

> <Gold.Protein.ActiveResidues>
 VAL166  LYS551  ARG553  GLY616  TRP617  ASP618  TYR619  PRO620  LYS621  CYS622 
 ASP623  PHE694  ASN695  SER759  ASP760  ASP761  ALA762  ILE779  LEU786  VAL792 
 PHE793  MET794  SER795  GLU796  ALA797  LYS798  CYS799  TRP800  GLU811  SER814 

> <Gold.Protein.RotatedAtoms>
  152.5449  134.1693  159.8590 H   0  0  0  0  0  0  0  0  0  0  0  0  # atno 6907 bound_to 6896
  151.1705  133.4780  159.2601 H   0  0  0  0  0  0  0  0  0  0  0  0  # atno 6908 bound_to 6896
  151.1280  135.0126  159.8624 H   0  0  0  0  0  0  0  0  0  0  0  0  # atno 6909 bound_to 6896
  144.7197  140.2324  143.6302 H   0  0  0  0  0  0  0  0  0  0  0  0  # atno 7974 bound_to 7965
  155.3712  140.3424  155.4243 H   0  0  0  0  0  0  0  0  0  0  0  0  # atno 8008 bound_to 7997
  156.1661  140.1616  156.8563 H   0  0  0  0  0  0  0  0  0  0  0  0  # atno 8009 bound_to 7997
  154.5187  140.0772  156.8112 H   0  0  0  0  0  0  0  0  0  0  0  0  # atno 8010 bound_to 7997
  139.9799  143.5754  152.2382 H   0  0  0  0  0  0  0  0  0  0  0  0  # atno 10167 bound_to 10162
  156.9041  130.9888  151.3031 H   0  0  0  0  0  0  0  0  0  0  0  0  # atno 10718 bound_to 10713
  152.9808  135.6001  154.3637 H   0  0  0  0  0  0  0  0  0  0  0  0  # atno 10763 bound_to 10752
  154.3316  135.2768  155.2470 H   0  0  0  0  0  0  0  0  0  0  0  0  # atno 10764 bound_to 10752
  154.4592  135.5970  153.6299 H   0  0  0  0  0  0  0  0  0  0  0  0  # atno 10765 bound_to 10752
  139.9740  134.6853  156.0390 H   0  0  0  0  0  0  0  0  0  0  0  0  # atno 11005 bound_to 11000
  145.8398  139.2124  143.1834 LP  0  0  0  0  0  0  0  0  0  0  0  0  # atno 17320 bound_to 7965
  146.0357  140.8215  142.9854 LP  0  0  0  0  0  0  0  0  0  0  0  0  # atno 17321 bound_to 7965
  139.6418  144.7655  151.2324 LP  0  0  0  0  0  0  0  0  0  0  0  0  # atno 17342 bound_to 10162
  140.7493  143.6305  150.8428 LP  0  0  0  0  0  0  0  0  0  0  0  0  # atno 17343 bound_to 10162
  157.6008  130.8511  149.8799 LP  0  0  0  0  0  0  0  0  0  0  0  0  # atno 17370 bound_to 10713
  156.0568  130.3707  150.1073 LP  0  0  0  0  0  0  0  0  0  0  0  0  # atno 17371 bound_to 10713
  141.1418  133.6563  156.3752 LP  0  0  0  0  0  0  0  0  0  0  0  0  # atno 17394 bound_to 11000
  140.5233  134.6283  157.5325 LP  0  0  0  0  0  0  0  0  0  0  0  0  # atno 17395 bound_to 11000

$$$$
