AV-unprocessed.smi:2317|AV-procd|sdf|9273|dock6
  -GOLD-   2272012493D 1   1.00000     0.00000
 Structure written by MMmdl.
 37 38  0  0  0  0  0  0  0  0  1 V2000
  144.3907  136.5772  152.2830 O   0  0  0  0  0  0  0  0  0  0  0  0
  145.6080  136.4154  152.2017 C   0  0  0  0  0  0  0  0  0  0  0  0
  146.5000  137.3376  152.5877 N   0  0  0  0  0  0  0  0  0  0  0  0
  146.1547  138.6368  153.1534 C   0  0  0  0  0  0  0  0  0  0  0  0
  147.4027  139.5191  153.3678 C   0  0  2  0  0  0  0  0  0  0  0  0
  148.4721  138.7823  154.2017 C   0  0  0  0  0  0  0  0  0  0  0  0
  149.7448  139.6272  154.3706 C   0  0  0  0  0  0  0  0  0  0  0  0
  149.4277  140.9930  154.9964 C   0  0  0  0  0  0  0  0  0  0  0  0
  148.3660  141.7468  154.1774 C   0  0  0  0  0  0  0  0  0  0  0  0
  147.0862  140.9124  153.9731 C   0  0  2  0  0  0  0  0  0  0  0  0
  146.4094  140.7885  155.2099 O   0  0  0  0  0  0  0  0  0  0  0  0
  146.2209  135.3241  151.7116 N   0  0  0  0  0  0  0  0  0  0  0  0
  145.6468  134.1343  151.1841 C   0  0  0  0  0  0  0  0  0  0  0  0
  144.3212  134.0351  150.6952 C   0  0  0  0  0  0  0  0  0  0  0  0
  143.8714  132.7898  150.2122 C   0  0  0  0  0  0  0  0  0  0  0  0
  144.6357  131.6773  150.1956 N   0  0  0  0  0  0  0  0  0  0  0  0
  145.8942  131.7721  150.6743 C   0  0  0  0  0  0  0  0  0  0  0  0
  146.4415  132.9682  151.1803 C   0  0  0  0  0  0  0  0  0  0  0  0
  147.7122  132.9927  151.6507 F   0  0  0  0  0  0  0  0  0  0  0  0
  147.4824  137.1284  152.4848 H   0  0  0  0  0  0  0  0  0  0  0  0
  145.4409  139.1495  152.5065 H   0  0  0  0  0  0  0  0  0  0  0  0
  145.6491  138.4709  154.1056 H   0  0  0  0  0  0  0  0  0  0  0  0
  147.8382  139.6930  152.3821 H   0  0  0  0  0  0  0  0  0  0  0  0
  148.0691  138.5299  155.1834 H   0  0  0  0  0  0  0  0  0  0  0  0
  148.7286  137.8358  153.7246 H   0  0  0  0  0  0  0  0  0  0  0  0
  150.4658  139.0932  154.9903 H   0  0  0  0  0  0  0  0  0  0  0  0
  150.2194  139.7720  153.3994 H   0  0  0  0  0  0  0  0  0  0  0  0
  149.0752  140.8533  156.0192 H   0  0  0  0  0  0  0  0  0  0  0  0
  150.3371  141.5905  155.0642 H   0  0  0  0  0  0  0  0  0  0  0  0
  148.1261  142.6956  154.6587 H   0  0  0  0  0  0  0  0  0  0  0  0
  148.7855  141.9995  153.2028 H   0  0  0  0  0  0  0  0  0  0  0  0
  146.4250  141.4619  153.3024 H   0  0  0  0  0  0  0  0  0  0  0  0
  145.5711  140.3807  155.0546 H   0  0  0  0  0  0  0  0  0  0  0  0
  147.2278  135.3719  151.6547 H   0  0  0  0  0  0  0  0  0  0  0  0
  143.6419  134.8730  150.6900 H   0  0  0  0  0  0  0  0  0  0  0  0
  142.8656  132.6835  149.8334 H   0  0  0  0  0  0  0  0  0  0  0  0
  146.4830  130.8672  150.6553 H   0  0  0  0  0  0  0  0  0  0  0  0
  1  2  2  0  0  0  0
  2  3  1  0  0  0  0
  2 12  1  0  0  0  0
  3  4  1  0  0  0  0
  3 20  1  0  0  0  0
  4  5  1  0  0  0  0
  4 21  1  0  0  0  0
  4 22  1  0  0  0  0
  5 10  1  0  0  0  0
  5  6  1  0  0  0  0
  5 23  1  0  0  0  0
  6  7  1  0  0  0  0
  6 24  1  0  0  0  0
  6 25  1  0  0  0  0
  7  8  1  0  0  0  0
  7 26  1  0  0  0  0
  7 27  1  0  0  0  0
  8  9  1  0  0  0  0
  8 28  1  0  0  0  0
  8 29  1  0  0  0  0
  9 10  1  0  0  0  0
  9 30  1  0  0  0  0
  9 31  1  0  0  0  0
 10 11  1  0  0  0  0
 10 32  1  0  0  0  0
 11 33  1  0  0  0  0
 12 13  1  0  0  0  0
 12 34  1  0  0  0  0
 13 18  1  0  0  0  0
 13 14  2  0  0  0  0
 14 15  1  0  0  0  0
 14 35  1  0  0  0  0
 15 16  2  0  0  0  0
 15 36  1  0  0  0  0
 16 17  1  0  0  0  0
 17 18  2  0  0  0  0
 17 37  1  0  0  0  0
 18 19  1  0  0  0  0
M  END
> <s_m_source_file>
AV-unprocessed.smi

> <i_m_source_file_index>
2317

> <i_lp_mmshare_version>
43012

> <i_f3d_flags>
0

> <s_epik_input>
RmMxW2NIXW5bY0hdW2NIXWMxW05IXUMoPU8pW05IXVtDSDJdW0NAQEhdMltDSDJdW0NIMl1bQ0gyXVtDSDJdW0NASF0yW09IXQ==

> <s_epik_cmdline>
J2VwaWtfcHl0aG9uJywgJy1waCcsICc3LjAnLCAnLXRuJywgJzgnLCAnLW1hJywgJzIwMCcsICctbWV0YWxfYmluZGluZycsICctaW1hZScsICc8aW5maWxlLm1hZT4nLCAnLW9tYWUnLCAnPG91dGZpbGUubWFlPic=

> <r_epik_Ionization_Penalty>
0.00317647

> <r_epik_Ionization_Penalty_Charging>
0

> <r_epik_Ionization_Penalty_Neutral>
0.00317647

> <r_epik_State_Penalty>
0.0022093

> <r_epik_Charging_Adjusted_Penalty>
0.0022093

> <i_epik_Tot_Q>
0

> <i_epik_Tot_abs_Q>
0

> <r_epik_Metal_State_Penalty>
-0

> <b_epik_Metal_Only>
0

> <s_lp_Force_Field>
OPLS_2005

> <r_lp_Energy>
20.2731

> <b_lp_Chiralities_Consistent>
1

> <s_lp_Variant>
AV-unprocessed.smi:2317-3

> <Gold.Version>
5.8.1

> <Gold.Id.Protein>
6NUR|6NUR_protein|mol2

> <Gold.PLP.Fitness>
43.5696

> <Gold.PLP.PLP>
-32.2455

> <Gold.PLP.part.hbond>
-2.4039

> <Gold.PLP.part.metal>
0.0000

> <Gold.PLP.part.buried>
-0.6964

> <Gold.PLP.part.nonpolar>
-29.7130

> <Gold.PLP.part.repulsive>
0.4102

> <Gold.PLP.ligand.clash>
0.0000

> <Gold.PLP.ligand.torsion>
0.1270

> <Gold.PLP.Chemscore.Hbond>
2.0000

> <Gold.PLP.Chemscore.CHOScore>
1.8557

> <Gold.PLP.Chemscore.Metal>
0.0000

> <Gold.Chemscore.Hbonds>
donor molecule, donor type, donor heavy atom, donor atom, acceptor molecule, acceptor atom, score
      L1  H     3    20       P1  7948  1.00
      L1  H    12    34       P1  7948  1.00
      L1  C    15    36       P1 10186  0.93
      L1  C    17    37       P1 10747  0.87

> <Gold.PLP.Chemscore.Internal.Correction>
0.0109

> <Gold.Rescore>
     Score         DG    S(hbond)    S(metal)    S(lipo)     H(rot)  DE(clash)    DE(int)     intcor
     16.48     -17.39       1.97        0.00      84.65       1.79       0.12       0.80       ----

> <Gold.Chemscore.Fitness>
16.4756

> <Gold.Chemscore.DG>
-17.3929

> <Gold.Chemscore.ZeroCoef>
-5.4800

> <Gold.Chemscore.Hbond>
1.9699

> <Gold.Chemscore.Metal>
0.0000

> <Gold.Chemscore.Lipo>
84.6474

> <Gold.Chemscore.Internal_Hbond>
0.0000

> <Gold.Chemscore.DEClash>
0.1220

> <Gold.Chemscore.DEInternal>
0.7953

> <Gold.Chemscore.Rot>
1.7853

> <Gold.Chemscore.Internal.Correction>
   9.000000E+99

> <Gold.Chemscore.Hbonds>
donor molecule, donor type, donor heavy atom, donor atom, acceptor molecule, acceptor atom, score
      L1  H     3    20       P1  7948  0.99
      L1  H    12    34       P1  7948  0.96

> <Gold.Chemscore.Hbond.Weighted>
-6.5796

> <Gold.Chemscore.Metal.Weighted>
-0.0000

> <Gold.Chemscore.Lipo.Weighted>
-9.9037

> <Gold.Chemscore.Internal_Hbond.Weighted>
0.0000

> <Gold.Chemscore.DEClash.Weighted>
0.1220

> <Gold.Chemscore.DEInternal.Weighted>
0.7953

> <Gold.Chemscore.Rot.Weighted>
4.5704

> <Gold.Chemscore.Internal.Correction.Weighted>
   9.000000E+99

> <Gold.Protein.RotatedTorsions>
[ 6907 6896 6895 6894 ] final -138.30 input  -60.11 | X-H torsion
[ 7974 7965 7964 7962 ] final   23.62 input  175.53 | X-H torsion
[ 8008 7997 7996 7995 ] final   87.34 input   59.86 | X-H torsion
[ 10167 10162 10161 10158 ] final    0.58 input  -65.29 | X-H torsion
[ 10718 10713 10712 10709 ] final  -64.54 input   66.30 | X-H torsion
[ 10763 10752 10751 10750 ] final -110.68 input  -60.55 | X-H torsion
[ 11005 11000 10999 10996 ] final    5.58 input  -57.11 | X-H torsion

> <Gold.Protein.ActiveResidues>
 VAL166  LYS551  ARG553  GLY616  TRP617  ASP618  TYR619  PRO620  LYS621  CYS622 
 ASP623  PHE694  ASN695  SER759  ASP760  ASP761  ALA762  ILE779  LEU786  VAL792 
 PHE793  MET794  SER795  GLU796  ALA797  LYS798  CYS799  TRP800  GLU811  SER814 

> <Gold.Protein.RotatedAtoms>
  151.0333  133.5770  159.2658 H   0  0  0  0  0  0  0  0  0  0  0  0  # atno 6907 bound_to 6896
  151.2844  135.0722  159.9191 H   0  0  0  0  0  0  0  0  0  0  0  0  # atno 6908 bound_to 6896
  152.5349  134.0042  159.7963 H   0  0  0  0  0  0  0  0  0  0  0  0  # atno 6909 bound_to 6896
  146.1976  139.7719  142.8786 H   0  0  0  0  0  0  0  0  0  0  0  0  # atno 7974 bound_to 7965
  155.9741  140.3383  155.6602 H   0  0  0  0  0  0  0  0  0  0  0  0  # atno 8008 bound_to 7997
  155.6635  140.0719  157.2563 H   0  0  0  0  0  0  0  0  0  0  0  0  # atno 8009 bound_to 7997
  154.4174  140.1704  156.1790 H   0  0  0  0  0  0  0  0  0  0  0  0  # atno 8010 bound_to 7997
  140.6722  143.7016  150.7947 H   0  0  0  0  0  0  0  0  0  0  0  0  # atno 10167 bound_to 10162
  156.0723  130.4235  150.1435 H   0  0  0  0  0  0  0  0  0  0  0  0  # atno 10718 bound_to 10713
  154.8261  135.4555  154.0922 H   0  0  0  0  0  0  0  0  0  0  0  0  # atno 10763 bound_to 10752
  153.2235  135.6897  153.7978 H   0  0  0  0  0  0  0  0  0  0  0  0  # atno 10764 bound_to 10752
  153.7387  135.3316  155.3276 H   0  0  0  0  0  0  0  0  0  0  0  0  # atno 10765 bound_to 10752
  140.5691  134.0120  155.8001 H   0  0  0  0  0  0  0  0  0  0  0  0  # atno 11005 bound_to 11000
  145.3592  141.0322  143.3294 LP  0  0  0  0  0  0  0  0  0  0  0  0  # atno 17320 bound_to 7965
  144.8613  139.5173  143.6811 LP  0  0  0  0  0  0  0  0  0  0  0  0  # atno 17321 bound_to 7965
  140.0703  143.5067  152.2583 LP  0  0  0  0  0  0  0  0  0  0  0  0  # atno 17342 bound_to 10162
  139.5996  144.7578  151.3203 LP  0  0  0  0  0  0  0  0  0  0  0  0  # atno 17343 bound_to 10162
  156.9483  130.9766  151.3503 LP  0  0  0  0  0  0  0  0  0  0  0  0  # atno 17370 bound_to 10713
  157.5800  130.8370  149.8509 LP  0  0  0  0  0  0  0  0  0  0  0  0  # atno 17371 bound_to 10713
  141.1067  133.9681  157.2983 LP  0  0  0  0  0  0  0  0  0  0  0  0  # atno 17394 bound_to 11000
  139.9371  135.0195  156.8589 LP  0  0  0  0  0  0  0  0  0  0  0  0  # atno 17395 bound_to 11000

$$$$
