#       Name:                AV-unprocessed.smi:1600
#       Creating user name   scv26
#       Creation time:       Fri Mar 27 07:07:02 2020


#       File generated by GOLD software.
#

@<TRIPOS>MOLECULE
AV-unprocessed.smi:1600
    49    50     1
SMALL
NO_CHARGES


@<TRIPOS>ATOM
      1 ****        -4.0990   3.3423  -1.1817 C.3            1 S1                 0.0000
      2 ****        -3.3935   2.0430  -1.4363 C.2            1 S1                 0.0000
      3 ****        -1.9915   1.7882  -1.4215 C.2            1 S1                 0.0000
      4 ****        -1.9243   0.4550  -1.7222 C.2            1 S1                 0.0000
      5 ****        -0.8275  -0.3394  -1.8422 N.am           1 S1                 0.0000
      6 ****         0.4661  -0.0087  -1.6887 C.2            1 S1                 0.0000
      7 ****         0.8927   1.1273  -1.4843 O.2            1 S1                 0.0000
      8 ****         1.2550  -1.0907  -1.7578 N.am           1 S1                 0.0000
      9 ****         2.7082  -1.1029  -1.5871 C.3            1 S1                 0.0000
     10 ****         3.1721  -1.3132  -0.1226 C.3            1 S1                 0.0000
     11 ****         2.5013  -2.5025   0.5820 C.3            1 S1                 0.0000
     12 ****         1.5158  -1.8958   1.5930 C.3            1 S1                 0.0000
     13 ****         1.5591  -0.4272   1.4106 N.4            1 S1                 1.0000
     14 ****         1.1956   0.3799   2.6081 C.3            1 S1                 0.0000
     15 ****        -0.2238   0.0357   3.0963 C.3            1 S1                 0.0000
     16 ****         1.2886   1.8903   2.3209 C.3            1 S1                 0.0000
     17 ****         2.8736  -0.1307   0.8055 C.3            1 S1                 0.0000
     18 ****        -3.2030  -0.0280  -1.8915 N.pl3          1 S1                 0.0000
     19 ****        -3.6493  -1.3683  -2.2183 C.3            1 S1                 0.0000
     20 ****        -4.1080   0.9587  -1.7155 N.2            1 S1                 0.0000
     21 ****        -3.3902   4.1363  -0.9466 H              1 S1                 0.0000
     22 ****        -4.7906   3.2568  -0.3432 H              1 S1                 0.0000
     23 ****        -4.6700   3.6567  -2.0558 H              1 S1                 0.0000
     24 ****        -1.1898   2.4835  -1.2233 H              1 S1                 0.0000
     25 ****        -1.0208  -1.3113  -2.0350 H              1 S1                 0.0000
     26 ****         0.8170  -1.9826  -1.9383 H              1 S1                 0.0000
     27 ****         3.0926  -1.9189  -2.1998 H              1 S1                 0.0000
     28 ****         3.1484  -0.1926  -1.9977 H              1 S1                 0.0000
     29 ****         4.2516  -1.4680  -0.1510 H              1 S1                 0.0000
     30 ****         2.0017  -3.1718  -0.1195 H              1 S1                 0.0000
     31 ****         3.2477  -3.0984   1.1090 H              1 S1                 0.0000
     32 ****         0.5023  -2.2691   1.4423 H              1 S1                 0.0000
     33 ****         1.8238  -2.1606   2.6059 H              1 S1                 0.0000
     34 ****         1.9000   0.1424   3.4068 H              1 S1                 0.0000
     35 ****        -0.5011   0.6480   3.9550 H              1 S1                 0.0000
     36 ****        -0.3072  -1.0046   3.4107 H              1 S1                 0.0000
     37 ****        -0.9644   0.2097   2.3144 H              1 S1                 0.0000
     38 ****         0.9605   2.4730   3.1823 H              1 S1                 0.0000
     39 ****         0.6627   2.1724   1.4731 H              1 S1                 0.0000
     40 ****         2.3100   2.2020   2.1032 H              1 S1                 0.0000
     41 ****         3.6261  -0.0866   1.5948 H              1 S1                 0.0000
     42 ****         2.8894   0.8247   0.2810 H              1 S1                 0.0000
     43 ****        -3.0844  -2.0991  -1.6391 H              1 S1                 0.0000
     44 ****        -3.4925  -1.5558  -3.2808 H              1 S1                 0.0000
     45 ****        -4.7096  -1.4844  -1.9893 H              1 S1                 0.0000
     46 ****         0.8794  -0.2131   0.6947 H              1 S1                 0.0000
     47 ****         0.2566   1.8962  -1.4203 LP             1 S1                 0.0000
     48 ****         1.8754   1.2815  -1.3822 LP             1 S1                 0.0000
     49 ****        -5.1033   0.8881  -1.7813 LP             1 S1                 0.0000
@<TRIPOS>BOND
    1    1    2 1     
    2    1   21 1     
    3    1   22 1     
    4    1   23 1     
    5    2   20 2     
    6    2    3 1     
    7    3    4 2     
    8    3   24 1     
    9    4    5 1     
   10    4   18 1     
   11    5    6 am    
   12    5   25 1     
   13    6    7 2     
   14    6    8 am    
   15    8    9 1     
   16    8   26 1     
   17    9   10 1     
   18    9   27 1     
   19    9   28 1     
   20   10   17 1     
   21   10   11 1     
   22   10   29 1     
   23   11   12 1     
   24   11   30 1     
   25   11   31 1     
   26   12   13 1     
   27   12   32 1     
   28   12   33 1     
   29   13   14 1     
   30   13   17 1     
   31   13   46 1     
   32   14   15 1     
   33   14   16 1     
   34   14   34 1     
   35   15   35 1     
   36   15   36 1     
   37   15   37 1     
   38   16   38 1     
   39   16   39 1     
   40   16   40 1     
   41   17   41 1     
   42   17   42 1     
   43   18   19 1     
   44   18   20 1     
   45   19   43 1     
   46   19   44 1     
   47   19   45 1     
   48    7   47 1     
   49    7   48 1     
   50   20   49 1     
@<TRIPOS>SUBSTRUCTURE
      1 S1             1
@<TRIPOS>SET
LONE_PAIRS      STATIC     ATOMS    <user>   **** ""
3 47 48 49
DONOR_HYDROGENS      STATIC     ATOMS    <user>   **** ""
3 25 26 46
ATOM$BLUE        STATIC     ATOMS    COLORGROUP SYSTEM
3 47 48 49
ATOM$RED        STATIC     ATOMS    COLORGROUP SYSTEM
3 25 26 46
