AV-unprocessed.smi:268|AV-procd|sdf|2040|dock1
  -GOLD-   2262021253D 1   1.00000     0.00000
 Structure written by MMmdl.
 50 53  0  0  0  0  0  0  0  0  1 V2000
  151.2943  145.3265  160.5317 C   0  0  0  0  0  0  0  0  0  0  0  0
  151.9363  144.7213  159.2813 C   0  0  0  0  0  0  0  0  0  0  0  0
  152.2009  143.3489  159.5193 O   0  0  0  0  0  0  0  0  0  0  0  0
  151.1954  142.4982  158.9936 C   0  0  2  0  0  0  0  0  0  0  0  0
  151.6211  141.0304  158.8563 C   0  0  0  0  0  0  0  0  0  0  0  0
  151.0427  141.0252  157.4287 C   0  0  1  0  0  0  0  0  0  0  0  0
  149.6717  140.5012  157.3721 N   0  0  0  0  0  0  0  0  0  0  0  0
  149.4706  139.1073  157.7596 C   0  0  0  0  0  0  0  0  0  0  0  0
  148.8890  140.8624  156.3221 C   0  0  0  0  0  0  0  0  0  0  0  0
  149.2551  140.5390  155.0525 N   0  0  0  0  0  0  0  0  0  0  0  0
  148.4825  140.8847  154.0186 C   0  0  0  0  0  0  0  0  0  0  0  0
  147.3221  141.5434  154.0277 N   0  0  0  0  0  0  0  0  0  0  0  0
  146.9471  141.8667  155.2985 C   0  0  0  0  0  0  0  0  0  0  0  0
  147.6625  141.5641  156.4911 C   0  0  0  0  0  0  0  0  0  0  0  0
  146.9727  142.0533  157.5937 N   0  0  0  0  0  0  0  0  0  0  0  0
  145.9099  142.6121  157.0823 C   0  0  0  0  0  0  0  0  0  0  0  0
  145.8191  142.5563  155.7096 N   0  0  0  0  0  0  0  0  0  0  0  0
  144.7525  143.0990  154.8822 C   0  0  0  0  0  0  0  0  0  0  0  0
  143.5191  143.5599  155.6811 C   0  0  0  0  0  0  0  0  0  0  0  0
  142.8259  142.3177  156.2780 C   0  0  0  0  0  0  0  0  0  0  0  0
  142.3803  141.4165  155.2839 O   0  0  0  0  0  0  0  0  0  0  0  0
  143.7742  144.7261  156.6469 C   0  0  0  0  0  0  0  0  0  0  0  0
  142.6995  145.5086  156.0809 O   0  0  0  0  0  0  0  0  0  0  0  0
  142.6004  144.5737  154.9839 C   0  0  0  0  0  0  0  0  0  0  0  0
  151.1181  142.5663  157.4654 C   0  0  0  0  0  0  0  0  0  0  0  0
  151.0786  146.3850  160.3853 H   0  0  0  0  0  0  0  0  0  0  0  0
  151.9552  145.2356  161.3940 H   0  0  0  0  0  0  0  0  0  0  0  0
  150.3572  144.8239  160.7722 H   0  0  0  0  0  0  0  0  0  0  0  0
  151.2669  144.8367  158.4277 H   0  0  0  0  0  0  0  0  0  0  0  0
  152.8633  145.2469  159.0478 H   0  0  0  0  0  0  0  0  0  0  0  0
  150.2143  142.6203  159.4569 H   0  0  0  0  0  0  0  0  0  0  0  0
  152.7050  140.9051  158.8624 H   0  0  0  0  0  0  0  0  0  0  0  0
  151.1430  140.3602  159.5712 H   0  0  0  0  0  0  0  0  0  0  0  0
  151.7166  140.5763  156.6978 H   0  0  0  0  0  0  0  0  0  0  0  0
  148.8198  139.0548  158.6328 H   0  0  0  0  0  0  0  0  0  0  0  0
  150.4166  138.6296  158.0161 H   0  0  0  0  0  0  0  0  0  0  0  0
  149.0170  138.5179  156.9605 H   0  0  0  0  0  0  0  0  0  0  0  0
  148.8468  140.5915  153.0452 H   0  0  0  0  0  0  0  0  0  0  0  0
  145.1604  143.0856  157.6992 H   0  0  0  0  0  0  0  0  0  0  0  0
  145.1564  143.9237  154.2936 H   0  0  0  0  0  0  0  0  0  0  0  0
  144.4747  142.3314  154.1587 H   0  0  0  0  0  0  0  0  0  0  0  0
  143.5014  141.7648  156.9307 H   0  0  0  0  0  0  0  0  0  0  0  0
  141.9658  142.6062  156.8830 H   0  0  0  0  0  0  0  0  0  0  0  0
  142.6399  141.7488  154.4382 H   0  0  0  0  0  0  0  0  0  0  0  0
  143.6114  144.4862  157.6982 H   0  0  0  0  0  0  0  0  0  0  0  0
  144.7413  145.2120  156.5096 H   0  0  0  0  0  0  0  0  0  0  0  0
  143.0126  144.9925  154.0653 H   0  0  0  0  0  0  0  0  0  0  0  0
  141.5814  144.2189  154.8248 H   0  0  0  0  0  0  0  0  0  0  0  0
  150.2470  143.1039  157.0901 H   0  0  0  0  0  0  0  0  0  0  0  0
  152.0370  142.9443  157.0145 H   0  0  0  0  0  0  0  0  0  0  0  0
  1  2  1  0  0  0  0
  1 26  1  0  0  0  0
  1 27  1  0  0  0  0
  1 28  1  0  0  0  0
  2  3  1  0  0  0  0
  2 29  1  0  0  0  0
  2 30  1  0  0  0  0
  3  4  1  0  0  0  0
  4 25  1  0  0  0  0
  4  5  1  0  0  0  0
  4 31  1  0  0  0  0
  5  6  1  0  0  0  0
  5 32  1  0  0  0  0
  5 33  1  0  0  0  0
  6  7  1  0  0  0  0
  6 25  1  0  0  0  0
  6 34  1  0  0  0  0
  7  8  1  0  0  0  0
  7  9  1  0  0  0  0
  8 35  1  0  0  0  0
  8 36  1  0  0  0  0
  8 37  1  0  0  0  0
  9 14  1  0  0  0  0
  9 10  2  0  0  0  0
 10 11  1  0  0  0  0
 11 12  2  0  0  0  0
 11 38  1  0  0  0  0
 12 13  1  0  0  0  0
 13 17  1  0  0  0  0
 13 14  2  0  0  0  0
 14 15  1  0  0  0  0
 15 16  2  0  0  0  0
 16 17  1  0  0  0  0
 16 39  1  0  0  0  0
 17 18  1  0  0  0  0
 18 19  1  0  0  0  0
 18 40  1  0  0  0  0
 18 41  1  0  0  0  0
 19 24  1  0  0  0  0
 19 20  1  0  0  0  0
 19 22  1  0  0  0  0
 20 21  1  0  0  0  0
 20 42  1  0  0  0  0
 20 43  1  0  0  0  0
 21 44  1  0  0  0  0
 22 23  1  0  0  0  0
 22 45  1  0  0  0  0
 22 46  1  0  0  0  0
 23 24  1  0  0  0  0
 24 47  1  0  0  0  0
 24 48  1  0  0  0  0
 25 49  1  0  0  0  0
 25 50  1  0  0  0  0
M  END
> <s_m_source_file>
AV-unprocessed.smi

> <i_m_source_file_index>
268

> <i_lp_mmshare_version>
43012

> <i_f3d_flags>
0

> <s_epik_input>
W0NIM11bQ0gyXU9bQ0BASF0xW0NIMl1bQ0BIXShbQ0gyXTEpTihbQ0gzXSljKG5bY0hdbjIpYyhjMjMpbltjSF1uM1tDSDJdQzQoW0NIMl1bT0hdKVtDSDJdT1tDSDJdNA==

> <s_epik_cmdline>
J2VwaWtfcHl0aG9uJywgJy1waCcsICc3LjAnLCAnLXRuJywgJzgnLCAnLW1hJywgJzIwMCcsICctbWV0YWxfYmluZGluZycsICctaW1hZScsICc8aW5maWxlLm1hZT4nLCAnLW9tYWUnLCAnPG91dGZpbGUubWFlPic=

> <r_lp_tautomer_probability>
1

> <r_epik_Ionization_Penalty>
0.00205824

> <r_epik_Ionization_Penalty_Charging>
0

> <r_epik_Ionization_Penalty_Neutral>
0.00205824

> <r_epik_State_Penalty>
0.00125218

> <r_epik_Charging_Adjusted_Penalty>
0.00125218

> <i_epik_Tot_Q>
0

> <i_epik_Tot_abs_Q>
0

> <r_epik_Metal_State_Penalty>
-0

> <b_epik_Metal_Only>
0

> <s_lp_Force_Field>
OPLS_2005

> <r_lp_Energy>
42.2334

> <b_lp_Chiralities_Consistent>
1

> <s_lp_Variant>
AV-unprocessed.smi:268-1

> <Gold.Version>
5.8.1

> <Gold.Id.Protein>
6NUR|6NUR_protein|mol2

> <Gold.PLP.Fitness>
44.5986

> <Gold.PLP.PLP>
-39.4161

> <Gold.PLP.part.hbond>
-1.6943

> <Gold.PLP.part.metal>
0.0000

> <Gold.PLP.part.buried>
-7.1369

> <Gold.PLP.part.nonpolar>
-31.8396

> <Gold.PLP.part.repulsive>
0.4520

> <Gold.PLP.ligand.clash>
0.0000

> <Gold.PLP.ligand.torsion>
1.1572

> <Gold.PLP.Chemscore.Hbond>
1.0000

> <Gold.PLP.Chemscore.CHOScore>
1.0000

> <Gold.PLP.Chemscore.Metal>
0.0000

> <Gold.Chemscore.Hbonds>
donor molecule, donor type, donor heavy atom, donor atom, acceptor molecule, acceptor atom, score
      L1  H    21    44       P1 10174  0.04
      L1  C    11    38       P1  7957  1.00

> <Gold.PLP.Chemscore.Internal.Correction>
1.4970

> <Gold.Rescore>
     Score         DG    S(hbond)    S(metal)    S(lipo)     H(rot)  DE(clash)    DE(int)     intcor
      8.73     -10.04       0.87        0.00      83.20       3.15       0.13       1.18       ----

> <Gold.Chemscore.Fitness>
8.7349

> <Gold.Chemscore.DG>
-10.0429

> <Gold.Chemscore.ZeroCoef>
-5.4800

> <Gold.Chemscore.Hbond>
0.8692

> <Gold.Chemscore.Metal>
0.0000

> <Gold.Chemscore.Lipo>
83.2011

> <Gold.Chemscore.Internal_Hbond>
0.0000

> <Gold.Chemscore.DEClash>
0.1283

> <Gold.Chemscore.DEInternal>
1.1797

> <Gold.Chemscore.Rot>
3.1542

> <Gold.Chemscore.Internal.Correction>
   9.000000E+99

> <Gold.Chemscore.Hbond.Weighted>
-2.9031

> <Gold.Chemscore.Metal.Weighted>
-0.0000

> <Gold.Chemscore.Lipo.Weighted>
-9.7345

> <Gold.Chemscore.Internal_Hbond.Weighted>
0.0000

> <Gold.Chemscore.DEClash.Weighted>
0.1283

> <Gold.Chemscore.DEInternal.Weighted>
1.1797

> <Gold.Chemscore.Rot.Weighted>
8.0748

> <Gold.Chemscore.Internal.Correction.Weighted>
   9.000000E+99

> <Gold.Protein.RotatedTorsions>
[ 6907 6896 6895 6894 ] final  146.09 input  -60.11 | X-H torsion
[ 7974 7965 7964 7962 ] final   84.52 input  175.53 | X-H torsion
[ 8008 7997 7996 7995 ] final -162.47 input   59.86 | X-H torsion
[ 10167 10162 10161 10158 ] final   68.78 input  -65.29 | X-H torsion
[ 10718 10713 10712 10709 ] final   97.98 input   66.30 | X-H torsion
[ 10763 10752 10751 10750 ] final -130.63 input  -60.55 | X-H torsion
[ 11005 11000 10999 10996 ] final  133.86 input  -57.11 | X-H torsion

> <Gold.Protein.ActiveResidues>
 VAL166  LYS551  ARG553  GLY616  TRP617  ASP618  TYR619  PRO620  LYS621  CYS622 
 ASP623  PHE694  ASN695  SER759  ASP760  ASP761  ALA762  ILE779  LEU786  VAL792 
 PHE793  MET794  SER795  GLU796  ALA797  LYS798  CYS799  TRP800  GLU811  SER814 

> <Gold.Protein.RotatedAtoms>
  152.1724  133.4652  159.4915 H   0  0  0  0  0  0  0  0  0  0  0  0  # atno 6907 bound_to 6896
  150.6921  134.1937  159.4304 H   0  0  0  0  0  0  0  0  0  0  0  0  # atno 6908 bound_to 6896
  151.9844  135.0011  160.0609 H   0  0  0  0  0  0  0  0  0  0  0  0  # atno 6909 bound_to 6896
  145.5976  139.2347  143.2264 H   0  0  0  0  0  0  0  0  0  0  0  0  # atno 7974 bound_to 7965
  155.8072  140.0900  157.1924 H   0  0  0  0  0  0  0  0  0  0  0  0  # atno 8008 bound_to 7997
  154.3980  140.1461  156.3404 H   0  0  0  0  0  0  0  0  0  0  0  0  # atno 8009 bound_to 7997
  155.8402  140.3439  155.5629 H   0  0  0  0  0  0  0  0  0  0  0  0  # atno 8010 bound_to 7997
  140.0749  144.5120  150.7201 H   0  0  0  0  0  0  0  0  0  0  0  0  # atno 10167 bound_to 10162
  157.6903  131.0626  150.4726 H   0  0  0  0  0  0  0  0  0  0  0  0  # atno 10718 bound_to 10713
  154.8754  135.3856  154.4115 H   0  0  0  0  0  0  0  0  0  0  0  0  # atno 10763 bound_to 10752
  153.4828  135.7030  153.5933 H   0  0  0  0  0  0  0  0  0  0  0  0  # atno 10764 bound_to 10752
  153.4341  135.3871  155.2156 H   0  0  0  0  0  0  0  0  0  0  0  0  # atno 10765 bound_to 10752
  139.9878  134.9526  156.9784 H   0  0  0  0  0  0  0  0  0  0  0  0  # atno 11005 bound_to 11000
  146.1600  140.6801  142.9282 LP  0  0  0  0  0  0  0  0  0  0  0  0  # atno 17320 bound_to 7965
  144.7324  140.4710  143.6928 LP  0  0  0  0  0  0  0  0  0  0  0  0  # atno 17321 bound_to 7965
  140.7107  143.2502  151.4590 LP  0  0  0  0  0  0  0  0  0  0  0  0  # atno 17342 bound_to 10162
  139.5814  144.1702  152.1972 LP  0  0  0  0  0  0  0  0  0  0  0  0  # atno 17343 bound_to 10162
  156.5063  130.4129  149.6325 LP  0  0  0  0  0  0  0  0  0  0  0  0  # atno 17370 bound_to 10713
  156.3282  130.7317  151.2242 LP  0  0  0  0  0  0  0  0  0  0  0  0  # atno 17371 bound_to 10713
  140.4968  134.1137  155.7243 LP  0  0  0  0  0  0  0  0  0  0  0  0  # atno 17394 bound_to 11000
  141.1540  133.8917  157.2026 LP  0  0  0  0  0  0  0  0  0  0  0  0  # atno 17395 bound_to 11000

$$$$
