#       Name:                AV-unprocessed.smi:1596
#       Creating user name   scv26
#       Creation time:       Fri Mar 27 07:05:24 2020


#       File generated by GOLD software.
#

@<TRIPOS>MOLECULE
AV-unprocessed.smi:1596
    53    54     1
SMALL
NO_CHARGES


@<TRIPOS>ATOM
      1 ****        -5.6780  -1.5932  -1.0963 C.3            1 S1                 0.0000
      2 ****        -5.7171  -0.2799  -0.3006 C.3            1 S1                 0.0000
      3 ****        -4.9444   0.7973  -0.9245 N.pl3          1 S1                 0.0000
      4 ****        -5.6126   1.7229  -1.8396 C.3            1 S1                 0.0000
      5 ****        -5.5537   1.2748  -3.3077 C.3            1 S1                 0.0000
      6 ****        -3.5351   0.8282  -0.7831 C.ar           1 S1                 0.0000
      7 ****        -2.6978   1.7480  -1.4637 C.ar           1 S1                 0.0000
      8 ****        -1.3021   1.7119  -1.2662 C.ar           1 S1                 0.0000
      9 ****        -0.7417   0.7672  -0.3824 C.ar           1 S1                 0.0000
     10 ****         0.6709   0.7570  -0.2256 N.am           1 S1                 0.0000
     11 ****         1.3965   0.2168   0.7688 C.2            1 S1                 0.0000
     12 ****         0.9335  -0.3383   1.7651 O.2            1 S1                 0.0000
     13 ****         2.7104   0.3721   0.5516 N.am           1 S1                 0.0000
     14 ****         3.7721  -0.0872   1.4426 C.3            1 S1                 0.0000
     15 ****         5.0528   0.7258   1.1796 C.3            1 S1                 0.0000
     16 ****         6.2184   0.2483   2.0635 C.3            1 S1                 0.0000
     17 ****         6.4810  -1.2624   1.9169 C.3            1 S1                 0.0000
     18 ****         7.0240  -1.5379   0.6407 O.3            1 S1                 0.0000
     19 ****         5.1958  -2.0835   2.1323 C.3            1 S1                 0.0000
     20 ****         4.0354  -1.5946   1.2481 C.3            1 S1                 0.0000
     21 ****        -1.6141  -0.1369   0.2671 C.ar           1 S1                 0.0000
     22 ****        -2.9444  -0.0675   0.0461 N.pl3          1 S1                 1.0000
     23 ****        -6.2390  -2.3703  -0.5772 H              1 S1                 0.0000
     24 ****        -4.6580  -1.9556  -1.2252 H              1 S1                 0.0000
     25 ****        -6.1211  -1.4796  -2.0846 H              1 S1                 0.0000
     26 ****        -6.7540   0.0417  -0.1999 H              1 S1                 0.0000
     27 ****        -5.3694  -0.4487   0.7190 H              1 S1                 0.0000
     28 ****        -6.6578   1.8143  -1.5427 H              1 S1                 0.0000
     29 ****        -5.1986   2.7247  -1.7282 H              1 S1                 0.0000
     30 ****        -6.0318   2.0132  -3.9513 H              1 S1                 0.0000
     31 ****        -6.0722   0.3294  -3.4603 H              1 S1                 0.0000
     32 ****        -4.5272   1.1533  -3.6536 H              1 S1                 0.0000
     33 ****        -3.0975   2.4841  -2.1440 H              1 S1                 0.0000
     34 ****        -0.6685   2.4127  -1.7902 H              1 S1                 0.0000
     35 ****         1.1909   1.2527  -0.9350 H              1 S1                 0.0000
     36 ****         3.0021   0.8435  -0.2921 H              1 S1                 0.0000
     37 ****         3.4654   0.0879   2.4758 H              1 S1                 0.0000
     38 ****         5.3359   0.6417   0.1293 H              1 S1                 0.0000
     39 ****         4.8672   1.7847   1.3630 H              1 S1                 0.0000
     40 ****         7.1218   0.8132   1.8308 H              1 S1                 0.0000
     41 ****         5.9835   0.4681   3.1057 H              1 S1                 0.0000
     42 ****         7.2267  -1.5671   2.6519 H              1 S1                 0.0000
     43 ****         7.2186  -2.4614   0.5904 H              1 S1                 0.0000
     44 ****         5.3865  -3.1416   1.9495 H              1 S1                 0.0000
     45 ****         4.8970  -2.0058   3.1785 H              1 S1                 0.0000
     46 ****         3.1379  -2.1680   1.4823 H              1 S1                 0.0000
     47 ****         4.2638  -1.7983   0.2010 H              1 S1                 0.0000
     48 ****        -1.3087  -0.9208   0.9436 H              1 S1                 0.0000
     49 ****        -3.5423  -0.7355   0.5331 H              1 S1                 0.0000
     50 ****        -0.0570  -0.4136   1.8806 LP             1 S1                 0.0000
     51 ****         1.5478  -0.7140   2.4589 LP             1 S1                 0.0000
     52 ****         7.8624  -1.0089   0.5095 LP             1 S1                 0.0000
     53 ****         6.3616  -1.2938  -0.0676 LP             1 S1                 0.0000
@<TRIPOS>BOND
    1    1    2 1     
    2    1   23 1     
    3    1   24 1     
    4    1   25 1     
    5    2    3 1     
    6    2   26 1     
    7    2   27 1     
    8    3    4 1     
    9    3    6 1     
   10    4    5 1     
   11    4   28 1     
   12    4   29 1     
   13    5   30 1     
   14    5   31 1     
   15    5   32 1     
   16    6   22 ar    
   17    6    7 ar    
   18    7    8 ar    
   19    7   33 1     
   20    8    9 ar    
   21    8   34 1     
   22    9   10 1     
   23    9   21 ar    
   24   10   11 am    
   25   10   35 1     
   26   11   12 2     
   27   11   13 am    
   28   13   14 1     
   29   13   36 1     
   30   14   20 1     
   31   14   15 1     
   32   14   37 1     
   33   15   16 1     
   34   15   38 1     
   35   15   39 1     
   36   16   17 1     
   37   16   40 1     
   38   16   41 1     
   39   17   18 1     
   40   17   19 1     
   41   17   42 1     
   42   18   43 1     
   43   19   20 1     
   44   19   44 1     
   45   19   45 1     
   46   20   46 1     
   47   20   47 1     
   48   21   22 ar    
   49   21   48 1     
   50   22   49 1     
   51   12   50 1     
   52   12   51 1     
   53   18   52 1     
   54   18   53 1     
@<TRIPOS>SUBSTRUCTURE
      1 S1             1
@<TRIPOS>SET
LONE_PAIRS      STATIC     ATOMS    <user>   **** ""
4 50 51 52 53
DONOR_HYDROGENS      STATIC     ATOMS    <user>   **** ""
4 35 36 43 49
ATOM$BLUE        STATIC     ATOMS    COLORGROUP SYSTEM
4 50 51 52 53
ATOM$RED        STATIC     ATOMS    COLORGROUP SYSTEM
4 35 36 43 49
