AV-unprocessed.smi:3117|AV-procd|sdf|11882|dock9
  -GOLD-   2272017273D 1   1.00000     0.00000
 Structure written by MMmdl.
 36 36  0  0  0  0  0  0  0  0  1 V2000
  152.7476  139.4934  159.4703 C   0  0  0  0  0  0  0  0  0  0  0  0
  152.2352  140.8975  159.1038 C   0  0  2  0  0  0  0  0  0  0  0  0
  152.2223  140.9959  157.6388 N   0  0  0  0  0  0  0  0  0  0  0  0
  151.0010  141.5518  157.0485 C   0  0  0  0  0  0  0  0  0  0  0  0
  150.4542  140.6783  155.8995 C   0  0  0  0  0  0  0  0  0  0  0  0
  149.8075  139.4076  156.4752 C   0  0  0  0  0  0  0  0  0  0  0  0
  149.4447  141.4294  155.0103 C   0  0  0  0  0  0  0  0  0  0  0  0
  151.5421  140.2498  155.1034 O   0  0  0  0  0  0  0  0  0  0  0  0
  153.0972  142.0233  159.7543 C   0  0  2  0  0  0  0  0  0  0  0  0
  153.4196  141.7687  161.2408 C   0  0  0  0  0  0  0  0  0  0  0  0
  152.4996  143.3448  159.6082 N   0  0  0  0  0  0  0  0  0  0  0  0
  152.1754  144.0074  158.4417 C   0  0  0  0  0  0  0  0  0  0  0  0
  151.6273  145.2081  158.7916 C   0  0  0  0  0  0  0  0  0  0  0  0
  151.6580  145.1916  160.2138 C   0  0  0  0  0  0  0  0  0  0  0  0
  152.1780  144.0765  160.7001 N   0  0  0  0  0  0  0  0  0  0  0  0
  152.6415  139.2891  160.5354 H   0  0  0  0  0  0  0  0  0  0  0  0
  153.7982  139.3693  159.2053 H   0  0  0  0  0  0  0  0  0  0  0  0
  152.1808  138.7221  158.9476 H   0  0  0  0  0  0  0  0  0  0  0  0
  151.2134  140.9679  159.4796 H   0  0  0  0  0  0  0  0  0  0  0  0
  152.3862  140.0778  157.2372 H   0  0  0  0  0  0  0  0  0  0  0  0
  150.2379  141.6629  157.8201 H   0  0  0  0  0  0  0  0  0  0  0  0
  151.1814  142.5506  156.6602 H   0  0  0  0  0  0  0  0  0  0  0  0
  148.9538  139.6536  157.1078 H   0  0  0  0  0  0  0  0  0  0  0  0
  150.5141  138.8409  157.0833 H   0  0  0  0  0  0  0  0  0  0  0  0
  149.4500  138.7468  155.6844 H   0  0  0  0  0  0  0  0  0  0  0  0
  148.6031  141.7968  155.5988 H   0  0  0  0  0  0  0  0  0  0  0  0
  149.0434  140.7806  154.2311 H   0  0  0  0  0  0  0  0  0  0  0  0
  149.8983  142.2875  154.5134 H   0  0  0  0  0  0  0  0  0  0  0  0
  152.0362  139.6083  155.5906 H   0  0  0  0  0  0  0  0  0  0  0  0
  154.0525  142.0540  159.2277 H   0  0  0  0  0  0  0  0  0  0  0  0
  154.0671  140.9018  161.3712 H   0  0  0  0  0  0  0  0  0  0  0  0
  152.5138  141.6014  161.8245 H   0  0  0  0  0  0  0  0  0  0  0  0
  153.9437  142.6196  161.6775 H   0  0  0  0  0  0  0  0  0  0  0  0
  152.3553  143.5714  157.4701 H   0  0  0  0  0  0  0  0  0  0  0  0
  151.2593  145.9795  158.1319 H   0  0  0  0  0  0  0  0  0  0  0  0
  151.3181  145.9508  160.9026 H   0  0  0  0  0  0  0  0  0  0  0  0
  1  2  1  0  0  0  0
  1 16  1  0  0  0  0
  1 17  1  0  0  0  0
  1 18  1  0  0  0  0
  2  3  1  0  0  0  0
  2  9  1  0  0  0  0
  2 19  1  0  0  0  0
  3  4  1  0  0  0  0
  3 20  1  0  0  0  0
  4  5  1  0  0  0  0
  4 21  1  0  0  0  0
  4 22  1  0  0  0  0
  5  6  1  0  0  0  0
  5  7  1  0  0  0  0
  5  8  1  0  0  0  0
  6 23  1  0  0  0  0
  6 24  1  0  0  0  0
  6 25  1  0  0  0  0
  7 26  1  0  0  0  0
  7 27  1  0  0  0  0
  7 28  1  0  0  0  0
  8 29  1  0  0  0  0
  9 10  1  0  0  0  0
  9 11  1  0  0  0  0
  9 30  1  0  0  0  0
 10 31  1  0  0  0  0
 10 32  1  0  0  0  0
 10 33  1  0  0  0  0
 11 15  1  0  0  0  0
 11 12  1  0  0  0  0
 12 13  2  0  0  0  0
 12 34  1  0  0  0  0
 13 14  1  0  0  0  0
 13 35  1  0  0  0  0
 14 15  2  0  0  0  0
 14 36  1  0  0  0  0
M  END
> <s_m_source_file>
AV-unprocessed.smi

> <i_m_source_file_index>
3117

> <i_lp_mmshare_version>
43012

> <i_f3d_flags>
0

> <s_epik_input>
W0NIM11DKFtDSDNdKShbT0hdKVtDSDJdW05IXVtDQEBIXShbQ0gzXSlbQ0BIXShbQ0gzXSluMVtjSF1bY0hdW2NIXW4x

> <s_epik_cmdline>
J2VwaWtfcHl0aG9uJywgJy1waCcsICc3LjAnLCAnLXRuJywgJzgnLCAnLW1hJywgJzIwMCcsICctbWV0YWxfYmluZGluZycsICctaW1hZScsICc8aW5maWxlLm1hZT4nLCAnLW9tYWUnLCAnPG91dGZpbGUubWFlPic=

> <r_lp_tautomer_probability>
1

> <r_epik_Ionization_Penalty>
2.13419

> <r_epik_Ionization_Penalty_Charging>
0

> <r_epik_Ionization_Penalty_Neutral>
2.13419

> <r_epik_State_Penalty>
2.27148

> <r_epik_Charging_Adjusted_Penalty>
2.27148

> <i_epik_Tot_Q>
0

> <i_epik_Tot_abs_Q>
0

> <r_epik_Metal_State_Penalty>
2.27029

> <b_epik_Metal_Only>
0

> <s_lp_Force_Field>
OPLS_2005

> <r_lp_Energy>
19.9089

> <b_lp_Chiralities_Consistent>
1

> <s_lp_Variant>
AV-unprocessed.smi:3117-5

> <Gold.Version>
5.8.1

> <Gold.Id.Protein>
6NUR|6NUR_protein|mol2

> <Gold.PLP.Fitness>
39.5311

> <Gold.PLP.PLP>
-39.1713

> <Gold.PLP.part.hbond>
-1.0659

> <Gold.PLP.part.metal>
0.0000

> <Gold.PLP.part.buried>
-4.1963

> <Gold.PLP.part.nonpolar>
-33.5512

> <Gold.PLP.part.repulsive>
0.0866

> <Gold.PLP.ligand.clash>
0.0000

> <Gold.PLP.ligand.torsion>
1.3656

> <Gold.PLP.Chemscore.Hbond>
1.0000

> <Gold.PLP.Chemscore.CHOScore>
0.0000

> <Gold.PLP.Chemscore.Metal>
0.0000

> <Gold.Chemscore.Hbonds>
donor molecule, donor type, donor heavy atom, donor atom, acceptor molecule, acceptor atom, score
      P1  H  7989  7998       L1     8  0.98

> <Gold.PLP.Chemscore.Internal.Correction>
0.0911

> <Gold.Rescore>
     Score         DG    S(hbond)    S(metal)    S(lipo)     H(rot)  DE(clash)    DE(int)     intcor
     13.17     -14.61       0.98        0.00      97.90       2.19       0.04       1.40       ----

> <Gold.Chemscore.Fitness>
13.1679

> <Gold.Chemscore.DG>
-14.6068

> <Gold.Chemscore.ZeroCoef>
-5.4800

> <Gold.Chemscore.Hbond>
0.9804

> <Gold.Chemscore.Metal>
0.0000

> <Gold.Chemscore.Lipo>
97.8980

> <Gold.Chemscore.Internal_Hbond>
0.0000

> <Gold.Chemscore.DEClash>
0.0403

> <Gold.Chemscore.DEInternal>
1.3987

> <Gold.Chemscore.Rot>
2.1882

> <Gold.Chemscore.Internal.Correction>
   9.000000E+99

> <Gold.Chemscore.Hbonds>
donor molecule, donor type, donor heavy atom, donor atom, acceptor molecule, acceptor atom, score
      P1  H  7989  7998       L1     8  0.89

> <Gold.Chemscore.Hbond.Weighted>
-3.2746

> <Gold.Chemscore.Metal.Weighted>
-0.0000

> <Gold.Chemscore.Lipo.Weighted>
-11.4541

> <Gold.Chemscore.Internal_Hbond.Weighted>
0.0000

> <Gold.Chemscore.DEClash.Weighted>
0.0403

> <Gold.Chemscore.DEInternal.Weighted>
1.3987

> <Gold.Chemscore.Rot.Weighted>
5.6018

> <Gold.Chemscore.Internal.Correction.Weighted>
   9.000000E+99

> <Gold.Protein.RotatedTorsions>
[ 6907 6896 6895 6894 ] final  136.28 input  -60.11 | X-H torsion
[ 7974 7965 7964 7962 ] final -165.26 input  175.53 | X-H torsion
[ 8008 7997 7996 7995 ] final  -15.23 input   59.86 | X-H torsion
[ 10167 10162 10161 10158 ] final  -14.49 input  -65.29 | X-H torsion
[ 10718 10713 10712 10709 ] final  -60.69 input   66.30 | X-H torsion
[ 10763 10752 10751 10750 ] final   38.52 input  -60.55 | X-H torsion
[ 11005 11000 10999 10996 ] final  154.72 input  -57.11 | X-H torsion

> <Gold.Protein.ActiveResidues>
 VAL166  LYS551  ARG553  GLY616  TRP617  ASP618  TYR619  PRO620  LYS621  CYS622 
 ASP623  PHE694  ASN695  SER759  ASP760  ASP761  ALA762  ILE779  LEU786  VAL792 
 PHE793  MET794  SER795  GLU796  ALA797  LYS798  CYS799  TRP800  GLU811  SER814 

> <Gold.Protein.RotatedAtoms>
  152.2911  133.5562  159.5557 H   0  0  0  0  0  0  0  0  0  0  0  0  # atno 6907 bound_to 6896
  150.7236  134.0427  159.3780 H   0  0  0  0  0  0  0  0  0  0  0  0  # atno 6908 bound_to 6896
  151.8333  135.0614  160.0490 H   0  0  0  0  0  0  0  0  0  0  0  0  # atno 6909 bound_to 6896
  144.7274  140.2839  143.6231 H   0  0  0  0  0  0  0  0  0  0  0  0  # atno 7974 bound_to 7965
  154.5147  140.2202  155.9089 H   0  0  0  0  0  0  0  0  0  0  0  0  # atno 8008 bound_to 7997
  156.1593  140.3145  155.8745 H   0  0  0  0  0  0  0  0  0  0  0  0  # atno 8009 bound_to 7997
  155.3783  140.0471  157.3035 H   0  0  0  0  0  0  0  0  0  0  0  0  # atno 8010 bound_to 7997
  140.7202  143.5316  150.9513 H   0  0  0  0  0  0  0  0  0  0  0  0  # atno 10167 bound_to 10162
  156.0973  130.4191  150.0889 H   0  0  0  0  0  0  0  0  0  0  0  0  # atno 10718 bound_to 10713
  152.9998  135.6247  154.2318 H   0  0  0  0  0  0  0  0  0  0  0  0  # atno 10763 bound_to 10752
  154.2060  135.2802  155.2976 H   0  0  0  0  0  0  0  0  0  0  0  0  # atno 10764 bound_to 10752
  154.5645  135.5695  153.7097 H   0  0  0  0  0  0  0  0  0  0  0  0  # atno 10765 bound_to 10752
  140.1515  134.8671  157.2461 H   0  0  0  0  0  0  0  0  0  0  0  0  # atno 11005 bound_to 11000
  145.7921  139.1931  143.2096 LP  0  0  0  0  0  0  0  0  0  0  0  0  # atno 17320 bound_to 7965
  146.0747  140.7831  142.9671 LP  0  0  0  0  0  0  0  0  0  0  0  0  # atno 17321 bound_to 7965
  139.9037  143.6805  152.3127 LP  0  0  0  0  0  0  0  0  0  0  0  0  # atno 17342 bound_to 10162
  139.7163  144.7611  151.1028 LP  0  0  0  0  0  0  0  0  0  0  0  0  # atno 17343 bound_to 10162
  156.8885  130.9580  151.3591 LP  0  0  0  0  0  0  0  0  0  0  0  0  # atno 17370 bound_to 10713
  157.6137  130.8602  149.8993 LP  0  0  0  0  0  0  0  0  0  0  0  0  # atno 17371 bound_to 10713
  140.2598  134.3584  155.7410 LP  0  0  0  0  0  0  0  0  0  0  0  0  # atno 17394 bound_to 11000
  141.2199  133.7363  156.9063 LP  0  0  0  0  0  0  0  0  0  0  0  0  # atno 17395 bound_to 11000

$$$$
