AV-unprocessed.smi:3139|AV-procd|sdf|11956|dock2
  -GOLD-   2272017353D 1   1.00000     0.00000
 Structure written by MMmdl.
 33 33  0  0  0  0  0  0  0  0  2 V2000
  149.0842  141.8640  156.9937 C   0  0  0  0  0  0  0  0  0  0  0  0
  150.4874  141.8888  156.3528 C   0  0  2  0  0  0  0  0  0  0  0  0
  151.0116  140.4870  155.9993 C   0  0  0  0  0  0  0  0  0  0  0  0
  151.2859  140.1906  154.8354 O   0  0  0  0  0  0  0  0  0  0  0  0
  151.1582  139.6369  157.0279 N   0  0  0  0  0  0  0  0  0  0  0  0
  151.6697  138.2685  156.9461 C   0  0  0  0  0  0  0  0  0  0  0  0
  150.6286  137.2426  156.4129 C   0  0  0  0  0  0  0  0  0  0  0  0
  149.2780  137.4776  157.1195 C   0  0  0  0  0  0  0  0  0  0  0  0
  150.4358  137.4326  154.8884 C   0  0  0  0  0  0  0  0  0  0  0  0
  151.0848  135.7927  156.7239 C   0  0  0  0  0  0  0  0  0  0  0  0
  150.3216  135.0507  157.3824 O   0  0  0  0  0  0  0  0  0  0  0  0
  152.2105  135.4467  156.3000 O   0  5  0  0  0  0  0  0  0  0  0  0
  151.4573  142.6054  157.1742 N   0  0  0  0  0  0  0  0  0  0  0  0
  151.6548  143.9692  157.2550 C   0  0  0  0  0  0  0  0  0  0  0  0
  152.6929  144.1846  158.1153 C   0  0  0  0  0  0  0  0  0  0  0  0
  153.0832  142.8742  158.5073 C   0  0  0  0  0  0  0  0  0  0  0  0
  152.3496  141.9321  157.9380 N   0  0  0  0  0  0  0  0  0  0  0  0
  148.3603  141.3850  156.3336 H   0  0  0  0  0  0  0  0  0  0  0  0
  148.7278  142.8760  157.1879 H   0  0  0  0  0  0  0  0  0  0  0  0
  149.0751  141.3233  157.9411 H   0  0  0  0  0  0  0  0  0  0  0  0
  150.3987  142.4376  155.4135 H   0  0  0  0  0  0  0  0  0  0  0  0
  150.9205  139.9686  157.9516 H   0  0  0  0  0  0  0  0  0  0  0  0
  152.5363  138.2951  156.2843 H   0  0  0  0  0  0  0  0  0  0  0  0
  152.0585  137.9403  157.9115 H   0  0  0  0  0  0  0  0  0  0  0  0
  148.8969  138.4787  156.9151 H   0  0  0  0  0  0  0  0  0  0  0  0
  149.3655  137.3793  158.2026 H   0  0  0  0  0  0  0  0  0  0  0  0
  148.5219  136.7660  156.7851 H   0  0  0  0  0  0  0  0  0  0  0  0
  150.1552  138.4601  154.6548 H   0  0  0  0  0  0  0  0  0  0  0  0
  149.6480  136.7878  154.4965 H   0  0  0  0  0  0  0  0  0  0  0  0
  151.3477  137.2131  154.3319 H   0  0  0  0  0  0  0  0  0  0  0  0
  151.0462  144.6661  156.6975 H   0  0  0  0  0  0  0  0  0  0  0  0
  153.1132  145.1334  158.4138 H   0  0  0  0  0  0  0  0  0  0  0  0
  153.8751  142.5810  159.1806 H   0  0  0  0  0  0  0  0  0  0  0  0
  1  2  1  0  0  0  0
  1 18  1  0  0  0  0
  1 19  1  0  0  0  0
  1 20  1  0  0  0  0
  2  3  1  0  0  0  0
  2 13  1  0  0  0  0
  2 21  1  0  0  0  0
  3  4  2  0  0  0  0
  3  5  1  0  0  0  0
  5  6  1  0  0  0  0
  5 22  1  0  0  0  0
  6  7  1  0  0  0  0
  6 23  1  0  0  0  0
  6 24  1  0  0  0  0
  7  8  1  0  0  0  0
  7  9  1  0  0  0  0
  7 10  1  0  0  0  0
  8 25  1  0  0  0  0
  8 26  1  0  0  0  0
  8 27  1  0  0  0  0
  9 28  1  0  0  0  0
  9 29  1  0  0  0  0
  9 30  1  0  0  0  0
 10 11  2  0  0  0  0
 10 12  1  0  0  0  0
 13 17  1  0  0  0  0
 13 14  1  0  0  0  0
 14 15  2  0  0  0  0
 14 31  1  0  0  0  0
 15 16  1  0  0  0  0
 15 32  1  0  0  0  0
 16 17  2  0  0  0  0
 16 33  1  0  0  0  0
M  CHG  1  12  -1
M  END
> <s_m_source_file>
AV-unprocessed.smi

> <i_m_source_file_index>
3139

> <i_lp_mmshare_version>
43012

> <i_f3d_flags>
0

> <s_epik_input>
bjFbY0hdW2NIXVtjSF1uMVtDQEhdKFtDSDNdKUMoPU8pW05IXVtDSDJdQyhbQ0gzXSkoW0NIM10pQyg9TylbT0hd

> <s_epik_cmdline>
J2VwaWtfcHl0aG9uJywgJy1waCcsICc3LjAnLCAnLXRuJywgJzgnLCAnLW1hJywgJzIwMCcsICctbWV0YWxfYmluZGluZycsICctaW1hZScsICc8aW5maWxlLm1hZT4nLCAnLW9tYWUnLCAnPG91dGZpbGUubWFlPic=

> <r_lp_tautomer_probability>
1

> <r_epik_Ionization_Penalty>
0.00184643

> <r_epik_Ionization_Penalty_Charging>
0.00181045

> <r_epik_Ionization_Penalty_Neutral>
3.59763e-05

> <r_epik_State_Penalty>
0.00122842

> <r_epik_Charging_Adjusted_Penalty>
0.00303887

> <i_epik_Tot_Q>
-1

> <i_epik_Tot_abs_Q>
1

> <r_epik_Metal_State_Penalty>
-0

> <b_epik_Metal_Only>
0

> <s_lp_Force_Field>
OPLS_2005

> <r_lp_Energy>
5.55707

> <b_lp_Chiralities_Consistent>
1

> <s_lp_Variant>
AV-unprocessed.smi:3139-1

> <Gold.Version>
5.8.1

> <Gold.Id.Protein>
6NUR|6NUR_protein|mol2

> <Gold.PLP.Fitness>
42.2560

> <Gold.PLP.PLP>
-27.6838

> <Gold.PLP.part.hbond>
-3.0000

> <Gold.PLP.part.metal>
0.0000

> <Gold.PLP.part.buried>
-3.9336

> <Gold.PLP.part.nonpolar>
-22.1812

> <Gold.PLP.part.repulsive>
0.0629

> <Gold.PLP.ligand.clash>
0.0000

> <Gold.PLP.ligand.torsion>
1.0144

> <Gold.PLP.Chemscore.Hbond>
4.4720

> <Gold.PLP.Chemscore.CHOScore>
1.0000

> <Gold.PLP.Chemscore.Metal>
0.0000

> <Gold.Chemscore.Hbonds>
donor molecule, donor type, donor heavy atom, donor atom, acceptor molecule, acceptor atom, score
      P1  H  6896  6908       L1    11  0.79
      P1  H  7989  7998       L1     4  1.00
      P1  H 10752 10764       L1    12  2.00
      L1  C    14    31       P1  8028  1.00

> <Gold.PLP.Chemscore.Internal.Correction>
0.1850

> <Gold.Rescore>
     Score         DG    S(hbond)    S(metal)    S(lipo)     H(rot)  DE(clash)    DE(int)     intcor
     13.68     -16.07       2.76        0.00      62.63       2.32       0.01       2.37       ----

> <Gold.Chemscore.Fitness>
13.6805

> <Gold.Chemscore.DG>
-16.0676

> <Gold.Chemscore.ZeroCoef>
-5.4800

> <Gold.Chemscore.Hbond>
2.7573

> <Gold.Chemscore.Metal>
0.0000

> <Gold.Chemscore.Lipo>
62.6314

> <Gold.Chemscore.Internal_Hbond>
0.0000

> <Gold.Chemscore.DEClash>
0.0130

> <Gold.Chemscore.DEInternal>
2.3741

> <Gold.Chemscore.Rot>
2.3241

> <Gold.Chemscore.Internal.Correction>
   9.000000E+99

> <Gold.Chemscore.Hbonds>
donor molecule, donor type, donor heavy atom, donor atom, acceptor molecule, acceptor atom, score
      P1  H  6896  6908       L1    11  0.39
      P1  H  7989  7998       L1     4  0.93
      P1  H 10752 10764       L1    12  0.94

> <Gold.Chemscore.Hbond.Weighted>
-9.2095

> <Gold.Chemscore.Metal.Weighted>
-0.0000

> <Gold.Chemscore.Lipo.Weighted>
-7.3279

> <Gold.Chemscore.Internal_Hbond.Weighted>
0.0000

> <Gold.Chemscore.DEClash.Weighted>
0.0130

> <Gold.Chemscore.DEInternal.Weighted>
2.3741

> <Gold.Chemscore.Rot.Weighted>
5.9498

> <Gold.Chemscore.Internal.Correction.Weighted>
   9.000000E+99

> <Gold.Protein.RotatedTorsions>
[ 6907 6896 6895 6894 ] final  148.51 input  -60.11 | X-H torsion
[ 7974 7965 7964 7962 ] final  153.65 input  175.53 | X-H torsion
[ 8008 7997 7996 7995 ] final   27.75 input   59.86 | X-H torsion
[ 10167 10162 10161 10158 ] final -142.90 input  -65.29 | X-H torsion
[ 10718 10713 10712 10709 ] final   69.44 input   66.30 | X-H torsion
[ 10763 10752 10751 10750 ] final  -26.82 input  -60.55 | X-H torsion
[ 11005 11000 10999 10996 ] final  109.18 input  -57.11 | X-H torsion

> <Gold.Protein.ActiveResidues>
 VAL166  LYS551  ARG553  GLY616  TRP617  ASP618  TYR619  PRO620  LYS621  CYS622 
 ASP623  PHE694  ASN695  SER759  ASP760  ASP761  ALA762  ILE779  LEU786  VAL792 
 PHE793  MET794  SER795  GLU796  ALA797  LYS798  CYS799  TRP800  GLU811  SER814 

> <Gold.Protein.RotatedAtoms>
  152.1405  133.4461  159.4764 H   0  0  0  0  0  0  0  0  0  0  0  0  # atno 6907 bound_to 6896
  150.6885  134.2311  159.4444 H   0  0  0  0  0  0  0  0  0  0  0  0  # atno 6908 bound_to 6896
  152.0201  134.9827  160.0621 H   0  0  0  0  0  0  0  0  0  0  0  0  # atno 6909 bound_to 6896
  144.8140  139.6829  143.6129 H   0  0  0  0  0  0  0  0  0  0  0  0  # atno 7974 bound_to 7965
  155.0478  140.3176  155.4702 H   0  0  0  0  0  0  0  0  0  0  0  0  # atno 8008 bound_to 7997
  156.2841  140.2151  156.5547 H   0  0  0  0  0  0  0  0  0  0  0  0  # atno 8009 bound_to 7997
  154.7235  140.0487  157.0649 H   0  0  0  0  0  0  0  0  0  0  0  0  # atno 8010 bound_to 7997
  139.8044  143.7788  152.2660 H   0  0  0  0  0  0  0  0  0  0  0  0  # atno 10167 bound_to 10162
  157.6346  130.9426  150.0514 H   0  0  0  0  0  0  0  0  0  0  0  0  # atno 10718 bound_to 10713
  153.7222  135.6944  153.5010 H   0  0  0  0  0  0  0  0  0  0  0  0  # atno 10763 bound_to 10752
  153.2196  135.4374  155.0472 H   0  0  0  0  0  0  0  0  0  0  0  0  # atno 10764 bound_to 10752
  154.8281  135.3457  154.6755 H   0  0  0  0  0  0  0  0  0  0  0  0  # atno 10765 bound_to 10752
  139.8857  134.9451  156.6086 H   0  0  0  0  0  0  0  0  0  0  0  0  # atno 11005 bound_to 11000
  146.2442  139.6063  142.9471 LP  0  0  0  0  0  0  0  0  0  0  0  0  # atno 17320 bound_to 7965
  145.5257  141.0430  143.2411 LP  0  0  0  0  0  0  0  0  0  0  0  0  # atno 17321 bound_to 7965
  139.7918  144.7407  150.9944 LP  0  0  0  0  0  0  0  0  0  0  0  0  # atno 17342 bound_to 10162
  140.7819  143.4434  151.0518 LP  0  0  0  0  0  0  0  0  0  0  0  0  # atno 17343 bound_to 10162
  156.1575  130.3643  149.9347 LP  0  0  0  0  0  0  0  0  0  0  0  0  # atno 17370 bound_to 10713
  156.7353  130.9059  151.3628 LP  0  0  0  0  0  0  0  0  0  0  0  0  # atno 17371 bound_to 10713
  140.7828  133.8645  155.8582 LP  0  0  0  0  0  0  0  0  0  0  0  0  # atno 17394 bound_to 11000
  140.9745  134.1487  157.4548 LP  0  0  0  0  0  0  0  0  0  0  0  0  # atno 17395 bound_to 11000

$$$$
