AV-unprocessed.smi:3259|AV-procd|sdf|12473|dock4
  -GOLD-   2272018373D 1   1.00000     0.00000
 Structure written by MMmdl.
 39 40  0  0  0  0  0  0  0  0  1 V2000
  147.7442  137.5152  154.9581 C   0  0  0  0  0  0  0  0  0  0  0  0
  147.3151  138.8364  155.2634 O   0  0  0  0  0  0  0  0  0  0  0  0
  147.7342  139.8857  154.3799 C   0  0  2  0  0  0  0  0  0  0  0  0
  147.1747  139.6580  152.9699 C   0  0  0  0  0  0  0  0  0  0  0  0
  149.2391  140.1639  154.5590 C   0  0  0  0  0  0  0  0  0  0  0  0
  148.8595  141.0416  155.7501 C   0  0  1  0  0  0  0  0  0  0  0  0
  149.6796  142.2425  155.8480 N   0  0  0  0  0  0  0  0  0  0  0  0
  150.8493  142.3122  156.5013 C   0  0  0  0  0  0  0  0  0  0  0  0
  151.3989  141.3374  157.0132 O   0  0  0  0  0  0  0  0  0  0  0  0
  151.4891  143.6977  156.6087 C   0  0  0  0  0  0  0  0  0  0  0  0
  151.6196  144.1096  157.9964 N   0  0  0  0  0  0  0  0  0  0  0  0
  150.9514  145.1198  158.6571 C   0  0  0  0  0  0  0  0  0  0  0  0
  151.3853  145.1161  159.9517 C   0  0  0  0  0  0  0  0  0  0  0  0
  152.3330  144.0553  159.9875 C   0  0  0  0  0  0  0  0  0  0  0  0
  152.4717  143.4555  158.8161 N   0  0  0  0  0  0  0  0  0  0  0  0
  147.4754  141.2577  155.0844 C   0  0  0  0  0  0  0  0  0  0  0  0
  147.3370  142.4790  154.1535 C   0  0  0  0  0  0  0  0  0  0  0  0
  146.2782  141.3257  156.0387 C   0  0  0  0  0  0  0  0  0  0  0  0
  147.4912  136.8589  155.7906 H   0  0  0  0  0  0  0  0  0  0  0  0
  148.8209  137.4517  154.8035 H   0  0  0  0  0  0  0  0  0  0  0  0
  147.2394  137.1224  154.0756 H   0  0  0  0  0  0  0  0  0  0  0  0
  147.3973  140.4926  152.3058 H   0  0  0  0  0  0  0  0  0  0  0  0
  146.0915  139.5351  152.9884 H   0  0  0  0  0  0  0  0  0  0  0  0
  147.6048  138.7752  152.4979 H   0  0  0  0  0  0  0  0  0  0  0  0
  149.8599  139.3063  154.8155 H   0  0  0  0  0  0  0  0  0  0  0  0
  149.6687  140.7210  153.7244 H   0  0  0  0  0  0  0  0  0  0  0  0
  148.8038  140.4646  156.6762 H   0  0  0  0  0  0  0  0  0  0  0  0
  149.3023  143.0902  155.4505 H   0  0  0  0  0  0  0  0  0  0  0  0
  152.4744  143.6970  156.1397 H   0  0  0  0  0  0  0  0  0  0  0  0
  150.8783  144.4275  156.0760 H   0  0  0  0  0  0  0  0  0  0  0  0
  150.2267  145.7460  158.1579 H   0  0  0  0  0  0  0  0  0  0  0  0
  151.0729  145.7709  160.7516 H   0  0  0  0  0  0  0  0  0  0  0  0
  152.9200  143.7056  160.8239 H   0  0  0  0  0  0  0  0  0  0  0  0
  147.3386  143.4155  154.7125 H   0  0  0  0  0  0  0  0  0  0  0  0
  146.4051  142.4459  153.5882 H   0  0  0  0  0  0  0  0  0  0  0  0
  148.1500  142.5410  153.4299 H   0  0  0  0  0  0  0  0  0  0  0  0
  146.2145  142.2951  156.5342 H   0  0  0  0  0  0  0  0  0  0  0  0
  146.3425  140.5767  156.8282 H   0  0  0  0  0  0  0  0  0  0  0  0
  145.3382  141.1616  155.5110 H   0  0  0  0  0  0  0  0  0  0  0  0
  1  2  1  0  0  0  0
  1 19  1  0  0  0  0
  1 20  1  0  0  0  0
  1 21  1  0  0  0  0
  2  3  1  0  0  0  0
  3 16  1  0  0  0  0
  3  4  1  0  0  0  0
  3  5  1  0  0  0  0
  4 22  1  0  0  0  0
  4 23  1  0  0  0  0
  4 24  1  0  0  0  0
  5  6  1  0  0  0  0
  5 25  1  0  0  0  0
  5 26  1  0  0  0  0
  6  7  1  0  0  0  0
  6 16  1  0  0  0  0
  6 27  1  0  0  0  0
  7  8  1  0  0  0  0
  7 28  1  0  0  0  0
  8  9  2  0  0  0  0
  8 10  1  0  0  0  0
 10 11  1  0  0  0  0
 10 29  1  0  0  0  0
 10 30  1  0  0  0  0
 11 15  1  0  0  0  0
 11 12  1  0  0  0  0
 12 13  2  0  0  0  0
 12 31  1  0  0  0  0
 13 14  1  0  0  0  0
 13 32  1  0  0  0  0
 14 15  2  0  0  0  0
 14 33  1  0  0  0  0
 16 17  1  0  0  0  0
 16 18  1  0  0  0  0
 17 34  1  0  0  0  0
 17 35  1  0  0  0  0
 17 36  1  0  0  0  0
 18 37  1  0  0  0  0
 18 38  1  0  0  0  0
 18 39  1  0  0  0  0
M  END
> <s_m_source_file>
AV-unprocessed.smi

> <i_m_source_file_index>
3259

> <i_lp_mmshare_version>
43012

> <i_f3d_flags>
0

> <s_epik_input>
W0NIM11PW0NAQF0xKFtDSDNdKVtDSDJdW0NASF0oQzEoW0NIM10pW0NIM10pW05IXUMoPU8pW0NIMl1uMltjSF1bY0hdW2NIXW4y

> <s_epik_cmdline>
J2VwaWtfcHl0aG9uJywgJy1waCcsICc3LjAnLCAnLXRuJywgJzgnLCAnLW1hJywgJzIwMCcsICctbWV0YWxfYmluZGluZycsICctaW1hZScsICc8aW5maWxlLm1hZT4nLCAnLW9tYWUnLCAnPG91dGZpbGUubWFlPic=

> <r_lp_tautomer_probability>
1

> <r_epik_Ionization_Penalty>
1.78399e-05

> <r_epik_Ionization_Penalty_Charging>
0

> <r_epik_Ionization_Penalty_Neutral>
1.78399e-05

> <r_epik_State_Penalty>
-0

> <r_epik_Charging_Adjusted_Penalty>
0

> <i_epik_Tot_Q>
0

> <i_epik_Tot_abs_Q>
0

> <r_epik_Metal_State_Penalty>
-0

> <b_epik_Metal_Only>
0

> <s_lp_Force_Field>
OPLS_2005

> <r_lp_Energy>
22.327

> <b_lp_Chiralities_Consistent>
1

> <s_lp_Variant>
AV-unprocessed.smi:3259-2

> <Gold.Version>
5.8.1

> <Gold.Id.Protein>
6NUR|6NUR_protein|mol2

> <Gold.PLP.Fitness>
37.5412

> <Gold.PLP.PLP>
-31.9009

> <Gold.PLP.part.hbond>
-1.0000

> <Gold.PLP.part.metal>
0.0000

> <Gold.PLP.part.buried>
-1.5691

> <Gold.PLP.part.nonpolar>
-29.2955

> <Gold.PLP.part.repulsive>
0.1913

> <Gold.PLP.ligand.clash>
0.0000

> <Gold.PLP.ligand.torsion>
0.3561

> <Gold.PLP.Chemscore.Hbond>
1.0000

> <Gold.PLP.Chemscore.CHOScore>
0.9892

> <Gold.PLP.Chemscore.Metal>
0.0000

> <Gold.Chemscore.Hbonds>
donor molecule, donor type, donor heavy atom, donor atom, acceptor molecule, acceptor atom, score
      L1  H     7    28       P1  8028  0.98
      L1  C    12    31       P1  8029  1.00

> <Gold.PLP.Chemscore.Internal.Correction>
0.3850

> <Gold.Rescore>
     Score         DG    S(hbond)    S(metal)    S(lipo)     H(rot)  DE(clash)    DE(int)     intcor
     12.47     -14.36       0.96        0.00      83.43       1.60       1.40       0.49       ----

> <Gold.Chemscore.Fitness>
12.4692

> <Gold.Chemscore.DG>
-14.3633

> <Gold.Chemscore.ZeroCoef>
-5.4800

> <Gold.Chemscore.Hbond>
0.9604

> <Gold.Chemscore.Metal>
0.0000

> <Gold.Chemscore.Lipo>
83.4339

> <Gold.Chemscore.Internal_Hbond>
0.0000

> <Gold.Chemscore.DEClash>
1.4006

> <Gold.Chemscore.DEInternal>
0.4935

> <Gold.Chemscore.Rot>
1.5962

> <Gold.Chemscore.Internal.Correction>
   9.000000E+99

> <Gold.Chemscore.Hbonds>
donor molecule, donor type, donor heavy atom, donor atom, acceptor molecule, acceptor atom, score
      L1  H     7    28       P1  8028  0.93

> <Gold.Chemscore.Hbond.Weighted>
-3.2077

> <Gold.Chemscore.Metal.Weighted>
-0.0000

> <Gold.Chemscore.Lipo.Weighted>
-9.7618

> <Gold.Chemscore.Internal_Hbond.Weighted>
0.0000

> <Gold.Chemscore.DEClash.Weighted>
1.4006

> <Gold.Chemscore.DEInternal.Weighted>
0.4935

> <Gold.Chemscore.Rot.Weighted>
4.0862

> <Gold.Chemscore.Internal.Correction.Weighted>
   9.000000E+99

> <Gold.Protein.RotatedTorsions>
[ 6907 6896 6895 6894 ] final -164.07 input  -60.11 | X-H torsion
[ 7974 7965 7964 7962 ] final -149.46 input  175.53 | X-H torsion
[ 8008 7997 7996 7995 ] final -174.78 input   59.86 | X-H torsion
[ 10167 10162 10161 10158 ] final  109.35 input  -65.29 | X-H torsion
[ 10718 10713 10712 10709 ] final  151.31 input   66.30 | X-H torsion
[ 10763 10752 10751 10750 ] final  172.44 input  -60.55 | X-H torsion
[ 11005 11000 10999 10996 ] final  103.53 input  -57.11 | X-H torsion

> <Gold.Protein.ActiveResidues>
 VAL166  LYS551  ARG553  GLY616  TRP617  ASP618  TYR619  PRO620  LYS621  CYS622 
 ASP623  PHE694  ASN695  SER759  ASP760  ASP761  ALA762  ILE779  LEU786  VAL792 
 PHE793  MET794  SER795  GLU796  ALA797  LYS798  CYS799  TRP800  GLU811  SER814 

> <Gold.Protein.RotatedAtoms>
  151.4059  133.3742  159.2737 H   0  0  0  0  0  0  0  0  0  0  0  0  # atno 6907 bound_to 6896
  150.9399  134.8810  159.7616 H   0  0  0  0  0  0  0  0  0  0  0  0  # atno 6908 bound_to 6896
  152.5066  134.4009  159.9468 H   0  0  0  0  0  0  0  0  0  0  0  0  # atno 6909 bound_to 6896
  144.7966  140.5061  143.5736 H   0  0  0  0  0  0  0  0  0  0  0  0  # atno 7974 bound_to 7965
  155.9744  140.1169  157.0783 H   0  0  0  0  0  0  0  0  0  0  0  0  # atno 8008 bound_to 7997
  154.4165  140.1157  156.5418 H   0  0  0  0  0  0  0  0  0  0  0  0  # atno 8009 bound_to 7997
  155.6554  140.3473  155.4765 H   0  0  0  0  0  0  0  0  0  0  0  0  # atno 8010 bound_to 7997
  139.6773  144.7121  151.1579 H   0  0  0  0  0  0  0  0  0  0  0  0  # atno 10167 bound_to 10162
  157.2723  131.0819  151.1591 H   0  0  0  0  0  0  0  0  0  0  0  0  # atno 10718 bound_to 10713
  154.4261  135.2759  155.1943 H   0  0  0  0  0  0  0  0  0  0  0  0  # atno 10763 bound_to 10752
  154.3869  135.6075  153.5825 H   0  0  0  0  0  0  0  0  0  0  0  0  # atno 10764 bound_to 10752
  152.9834  135.5894  154.4564 H   0  0  0  0  0  0  0  0  0  0  0  0  # atno 10765 bound_to 10752
  139.8784  134.9266  156.5224 H   0  0  0  0  0  0  0  0  0  0  0  0  # atno 11005 bound_to 11000
  145.5658  139.1481  143.3316 LP  0  0  0  0  0  0  0  0  0  0  0  0  # atno 17320 bound_to 7965
  146.2236  140.5793  142.9006 LP  0  0  0  0  0  0  0  0  0  0  0  0  # atno 17321 bound_to 7965
  140.7640  143.5752  150.8953 LP  0  0  0  0  0  0  0  0  0  0  0  0  # atno 17342 bound_to 10162
  139.9422  143.6369  152.3051 LP  0  0  0  0  0  0  0  0  0  0  0  0  # atno 17343 bound_to 10162
  157.3057  130.6865  149.6188 LP  0  0  0  0  0  0  0  0  0  0  0  0  # atno 17370 bound_to 10713
  155.9663  130.4378  150.5192 LP  0  0  0  0  0  0  0  0  0  0  0  0  # atno 17371 bound_to 10713
  140.8441  133.8182  155.9103 LP  0  0  0  0  0  0  0  0  0  0  0  0  # atno 17394 bound_to 11000
  140.9209  134.2143  157.4927 LP  0  0  0  0  0  0  0  0  0  0  0  0  # atno 17395 bound_to 11000

$$$$
