AV-unprocessed.smi:618|AV-procd|sdf|3080|dock8
  -GOLD-   22720 0 03D 1   1.00000     0.00000
 Structure written by MMmdl.
 41 43  0  0  0  0  0  0  0  0  2 V2000
  144.4923  136.6671  151.9867 O   0  0  0  0  0  0  0  0  0  0  0  0
  145.6906  136.3880  151.9538 C   0  0  0  0  0  0  0  0  0  0  0  0
  146.6595  137.2776  152.2119 N   0  0  0  0  0  0  0  0  0  0  0  0
  146.4332  138.6765  152.5598 C   0  0  0  0  0  0  0  0  0  0  0  0
  147.0184  139.0265  153.9466 C   0  0  2  0  0  0  0  0  0  0  0  0
  145.9342  139.4256  154.9773 C   0  0  0  0  0  0  0  0  0  0  0  0
  145.4681  140.7941  154.6864 N   0  3  1  0  0  0  0  0  0  0  0  0
  144.4278  141.3722  155.5549 C   0  0  0  0  0  0  0  0  0  0  0  0
  144.6092  142.8980  155.4301 C   0  0  0  0  0  0  0  0  0  0  0  0
  145.8789  143.0995  154.5840 C   0  0  0  0  0  0  0  0  0  0  0  0
  146.5787  141.7481  154.6866 C   0  0  2  0  0  0  0  0  0  0  0  0
  147.5690  141.3634  153.5818 C   0  0  0  0  0  0  0  0  0  0  0  0
  148.0344  140.0378  153.8510 O   0  0  0  0  0  0  0  0  0  0  0  0
  146.2000  135.1740  151.6846 N   0  0  0  0  0  0  0  0  0  0  0  0
  145.5038  133.9813  151.3491 C   0  0  0  0  0  0  0  0  0  0  0  0
  144.0942  133.8821  151.2567 C   0  0  0  0  0  0  0  0  0  0  0  0
  143.5218  132.6472  150.8960 C   0  0  0  0  0  0  0  0  0  0  0  0
  144.3778  131.5599  150.6344 C   0  0  0  0  0  0  0  0  0  0  0  0
  145.7231  131.6437  150.7048 N   0  0  0  0  0  0  0  0  0  0  0  0
  146.2648  132.8311  151.0498 C   0  0  0  0  0  0  0  0  0  0  0  0
  147.6187  136.9653  152.1670 H   0  0  0  0  0  0  0  0  0  0  0  0
  146.8695  139.2990  151.7793 H   0  0  0  0  0  0  0  0  0  0  0  0
  145.3621  138.8853  152.5424 H   0  0  0  0  0  0  0  0  0  0  0  0
  147.5105  138.1327  154.3313 H   0  0  0  0  0  0  0  0  0  0  0  0
  145.0954  138.7291  154.9513 H   0  0  0  0  0  0  0  0  0  0  0  0
  146.3481  139.3912  155.9863 H   0  0  0  0  0  0  0  0  0  0  0  0
  143.4354  141.0418  155.2475 H   0  0  0  0  0  0  0  0  0  0  0  0
  144.5860  141.0591  156.5882 H   0  0  0  0  0  0  0  0  0  0  0  0
  143.7467  143.3711  154.9593 H   0  0  0  0  0  0  0  0  0  0  0  0
  144.7288  143.3427  156.4187 H   0  0  0  0  0  0  0  0  0  0  0  0
  145.6047  143.3048  153.5480 H   0  0  0  0  0  0  0  0  0  0  0  0
  146.4986  143.9237  154.9386 H   0  0  0  0  0  0  0  0  0  0  0  0
  147.0849  141.6956  155.6534 H   0  0  0  0  0  0  0  0  0  0  0  0
  147.1114  141.4240  152.5941 H   0  0  0  0  0  0  0  0  0  0  0  0
  148.4202  142.0442  153.5802 H   0  0  0  0  0  0  0  0  0  0  0  0
  147.2001  135.0774  151.7837 H   0  0  0  0  0  0  0  0  0  0  0  0
  143.4457  134.7248  151.4398 H   0  0  0  0  0  0  0  0  0  0  0  0
  142.4504  132.5373  150.8177 H   0  0  0  0  0  0  0  0  0  0  0  0
  143.9711  130.5994  150.3549 H   0  0  0  0  0  0  0  0  0  0  0  0
  147.3439  132.8615  151.0932 H   0  0  0  0  0  0  0  0  0  0  0  0
  145.0909  140.7939  153.7493 H   0  0  0  0  0  0  0  0  0  0  0  0
  1  2  2  0  0  0  0
  2  3  1  0  0  0  0
  2 14  1  0  0  0  0
  3  4  1  0  0  0  0
  3 21  1  0  0  0  0
  4  5  1  0  0  0  0
  4 22  1  0  0  0  0
  4 23  1  0  0  0  0
  5 13  1  0  0  0  0
  5  6  1  0  0  0  0
  5 24  1  0  0  0  0
  6  7  1  0  0  0  0
  6 25  1  0  0  0  0
  6 26  1  0  0  0  0
  7 11  1  0  0  0  0
  7  8  1  0  0  0  0
  7 41  1  0  0  0  0
  8  9  1  0  0  0  0
  8 27  1  0  0  0  0
  8 28  1  0  0  0  0
  9 10  1  0  0  0  0
  9 29  1  0  0  0  0
  9 30  1  0  0  0  0
 10 11  1  0  0  0  0
 10 31  1  0  0  0  0
 10 32  1  0  0  0  0
 11 12  1  0  0  0  0
 11 33  1  0  0  0  0
 12 13  1  0  0  0  0
 12 34  1  0  0  0  0
 12 35  1  0  0  0  0
 14 15  1  0  0  0  0
 14 36  1  0  0  0  0
 15 20  1  0  0  0  0
 15 16  2  0  0  0  0
 16 17  1  0  0  0  0
 16 37  1  0  0  0  0
 17 18  2  0  0  0  0
 17 38  1  0  0  0  0
 18 19  1  0  0  0  0
 18 39  1  0  0  0  0
 19 20  2  0  0  0  0
 20 40  1  0  0  0  0
M  CHG  1   7   1
M  END
> <s_m_source_file>
AV-unprocessed.smi

> <i_m_source_file_index>
618

> <i_lp_mmshare_version>
43012

> <i_f3d_flags>
0

> <s_epik_input>
W2NIXTFuW2NIXVtjSF1bY0hdYzFbTkhdQyg9TylbTkhdW0NIMl1bQ0BIXShbQ0gyXTIpT1tDSDJdW0NAQEhdKE4yMylbQ0gyXVtDSDJdW0NIMl0z

> <s_epik_cmdline>
J2VwaWtfcHl0aG9uJywgJy1waCcsICc3LjAnLCAnLXRuJywgJzgnLCAnLW1hJywgJzIwMCcsICctbWV0YWxfYmluZGluZycsICctaW1hZScsICc8aW5maWxlLm1hZT4nLCAnLW9tYWUnLCAnPG91dGZpbGUubWFlPic=

> <r_epik_Ionization_Penalty>
0.111044

> <r_epik_Ionization_Penalty_Charging>
0.10673

> <r_epik_Ionization_Penalty_Neutral>
0.00431361

> <r_epik_State_Penalty>
0.0978747

> <r_epik_Charging_Adjusted_Penalty>
0.204605

> <i_epik_Tot_Q>
1

> <i_epik_Tot_abs_Q>
1

> <r_epik_Metal_State_Penalty>
0.0947591

> <b_epik_Metal_Only>
0

> <s_lp_Force_Field>
OPLS_2005

> <r_lp_Energy>
41.554

> <b_lp_Chiralities_Consistent>
1

> <s_lp_Variant>
AV-unprocessed.smi:618-7

> <Gold.Version>
5.8.1

> <Gold.Id.Protein>
6NUR|6NUR_protein|mol2

> <Gold.PLP.Fitness>
45.3372

> <Gold.PLP.PLP>
-33.6041

> <Gold.PLP.part.hbond>
-2.9291

> <Gold.PLP.part.metal>
0.0000

> <Gold.PLP.part.buried>
-7.8644

> <Gold.PLP.part.nonpolar>
-25.1671

> <Gold.PLP.part.repulsive>
1.6285

> <Gold.PLP.ligand.clash>
0.0000

> <Gold.PLP.ligand.torsion>
0.7455

> <Gold.PLP.Chemscore.Hbond>
3.8390

> <Gold.PLP.Chemscore.CHOScore>
0.5657

> <Gold.PLP.Chemscore.Metal>
0.0000

> <Gold.Chemscore.Hbonds>
donor molecule, donor type, donor heavy atom, donor atom, acceptor molecule, acceptor atom, score
      L1  H     3    21       P1  7948  1.00
      L1  H     7    41       P1 10175  2.00
      L1  H    14    36       P1  7948  0.77
      L1  C    20    40       P1 10747  0.51

> <Gold.PLP.Chemscore.Internal.Correction>
0.0101

> <Gold.Rescore>
     Score         DG    S(hbond)    S(metal)    S(lipo)     H(rot)  DE(clash)    DE(int)     intcor
     17.84     -19.97       2.84        0.00      70.31       1.27       0.14       2.00       ----

> <Gold.Chemscore.Fitness>
17.8353

> <Gold.Chemscore.DG>
-19.9692

> <Gold.Chemscore.ZeroCoef>
-5.4800

> <Gold.Chemscore.Hbond>
2.8450

> <Gold.Chemscore.Metal>
0.0000

> <Gold.Chemscore.Lipo>
70.3141

> <Gold.Chemscore.Internal_Hbond>
0.0000

> <Gold.Chemscore.DEClash>
0.1350

> <Gold.Chemscore.DEInternal>
1.9989

> <Gold.Chemscore.Rot>
1.2656

> <Gold.Chemscore.Internal.Correction>
   9.000000E+99

> <Gold.Chemscore.Hbonds>
donor molecule, donor type, donor heavy atom, donor atom, acceptor molecule, acceptor atom, score
      L1  H     3    21       P1  7948  0.94
      L1  H     7    41       P1 10175  0.89
      L1  H    14    36       P1  7948  0.70

> <Gold.Chemscore.Hbond.Weighted>
-9.5023

> <Gold.Chemscore.Metal.Weighted>
-0.0000

> <Gold.Chemscore.Lipo.Weighted>
-8.2267

> <Gold.Chemscore.Internal_Hbond.Weighted>
0.0000

> <Gold.Chemscore.DEClash.Weighted>
0.1350

> <Gold.Chemscore.DEInternal.Weighted>
1.9989

> <Gold.Chemscore.Rot.Weighted>
3.2399

> <Gold.Chemscore.Internal.Correction.Weighted>
   9.000000E+99

> <Gold.Protein.RotatedTorsions>
[ 6907 6896 6895 6894 ] final -150.97 input  -60.11 | X-H torsion
[ 7974 7965 7964 7962 ] final   23.97 input  175.53 | X-H torsion
[ 8008 7997 7996 7995 ] final   16.76 input   59.86 | X-H torsion
[ 10167 10162 10161 10158 ] final  104.27 input  -65.29 | X-H torsion
[ 10718 10713 10712 10709 ] final  121.14 input   66.30 | X-H torsion
[ 10763 10752 10751 10750 ] final   82.72 input  -60.55 | X-H torsion
[ 11005 11000 10999 10996 ] final   20.59 input  -57.11 | X-H torsion

> <Gold.Protein.ActiveResidues>
 VAL166  LYS551  ARG553  GLY616  TRP617  ASP618  TYR619  PRO620  LYS621  CYS622 
 ASP623  PHE694  ASN695  SER759  ASP760  ASP761  ALA762  ILE779  LEU786  VAL792 
 PHE793  MET794  SER795  GLU796  ALA797  LYS798  CYS799  TRP800  GLU811  SER814 

> <Gold.Protein.RotatedAtoms>
  151.2063  133.4581  159.2597 H   0  0  0  0  0  0  0  0  0  0  0  0  # atno 6907 bound_to 6896
  151.1020  134.9977  159.8463 H   0  0  0  0  0  0  0  0  0  0  0  0  # atno 6908 bound_to 6896
  152.5444  134.1989  159.8757 H   0  0  0  0  0  0  0  0  0  0  0  0  # atno 6909 bound_to 6896
  146.1959  139.7670  142.8797 H   0  0  0  0  0  0  0  0  0  0  0  0  # atno 7974 bound_to 7965
  154.8816  140.2974  155.5422 H   0  0  0  0  0  0  0  0  0  0  0  0  # atno 8008 bound_to 7997
  156.3022  140.2441  156.3753 H   0  0  0  0  0  0  0  0  0  0  0  0  # atno 8009 bound_to 7997
  154.8711  140.0401  157.1714 H   0  0  0  0  0  0  0  0  0  0  0  0  # atno 8010 bound_to 7997
  139.7191  144.7062  151.0901 H   0  0  0  0  0  0  0  0  0  0  0  0  # atno 10167 bound_to 10162
  157.5839  131.1072  150.8132 H   0  0  0  0  0  0  0  0  0  0  0  0  # atno 10718 bound_to 10713
  153.1227  135.4718  154.9222 H   0  0  0  0  0  0  0  0  0  0  0  0  # atno 10763 bound_to 10752
  154.7591  135.3126  154.8415 H   0  0  0  0  0  0  0  0  0  0  0  0  # atno 10764 bound_to 10752
  153.8976  135.6878  153.4811 H   0  0  0  0  0  0  0  0  0  0  0  0  # atno 10765 bound_to 10752
  140.4009  134.1719  155.7664 H   0  0  0  0  0  0  0  0  0  0  0  0  # atno 11005 bound_to 11000
  145.3643  141.0331  143.3267 LP  0  0  0  0  0  0  0  0  0  0  0  0  # atno 17320 bound_to 7965
  144.8580  139.5219  143.6825 LP  0  0  0  0  0  0  0  0  0  0  0  0  # atno 17321 bound_to 7965
  140.7750  143.5190  150.9560 LP  0  0  0  0  0  0  0  0  0  0  0  0  # atno 17342 bound_to 10162
  139.8876  143.6993  152.3149 LP  0  0  0  0  0  0  0  0  0  0  0  0  # atno 17343 bound_to 10162
  156.8572  130.5100  149.5307 LP  0  0  0  0  0  0  0  0  0  0  0  0  # atno 17370 bound_to 10713
  156.0887  130.5878  150.9694 LP  0  0  0  0  0  0  0  0  0  0  0  0  # atno 17371 bound_to 10713
  141.1857  133.8318  157.1095 LP  0  0  0  0  0  0  0  0  0  0  0  0  # atno 17394 bound_to 11000
  140.0337  134.9889  157.0829 LP  0  0  0  0  0  0  0  0  0  0  0  0  # atno 17395 bound_to 11000

$$$$
