AV-unprocessed.smi:3182|AV-procd|sdf|12151|dock3
  -GOLD-   2272017593D 1   1.00000     0.00000
 Structure written by MMmdl.
 38 39  0  0  0  0  0  0  0  0  2 V2000
  151.4124  139.1156  155.1779 C   0  0  0  0  0  0  0  0  0  0  0  0
  150.7248  140.1336  154.4602 O   0  0  0  0  0  0  0  0  0  0  0  0
  149.3295  140.3398  154.7157 C   0  0  0  0  0  0  0  0  0  0  0  0
  149.2904  140.6264  156.2372 C   0  0  0  0  0  0  0  0  0  0  0  0
  149.5833  142.0169  156.5554 N   0  0  0  0  0  0  0  0  0  0  0  0
  150.5367  142.3432  157.5277 C   0  0  0  0  0  0  0  0  0  0  0  0
  151.2801  141.3922  158.2678 C   0  0  0  0  0  0  0  0  0  0  0  0
  152.2157  141.8387  159.2238 C   0  0  0  0  0  0  0  0  0  0  0  0
  152.3927  143.2222  159.4260 C   0  0  0  0  0  0  0  0  0  0  0  0
  151.6282  144.1293  158.6634 C   0  0  0  0  0  0  0  0  0  0  0  0
  151.7593  145.6295  158.8183 C   0  0  0  0  0  0  0  0  0  0  0  0
  150.7426  143.6594  157.7565 N   0  3  0  0  0  0  0  0  0  0  0  0
  148.8353  141.5786  153.9331 C   0  0  0  0  0  0  0  0  0  0  0  0
  147.3158  141.7843  154.0866 C   0  0  0  0  0  0  0  0  0  0  0  0
  146.6162  140.6087  153.6928 O   0  0  0  0  0  0  0  0  0  0  0  0
  146.9413  139.4677  154.4794 C   0  0  0  0  0  0  0  0  0  0  0  0
  148.4352  139.1356  154.3187 C   0  0  0  0  0  0  0  0  0  0  0  0
  152.4212  139.0222  154.7761 H   0  0  0  0  0  0  0  0  0  0  0  0
  150.9367  138.1403  155.0891 H   0  0  0  0  0  0  0  0  0  0  0  0
  151.5126  139.3676  156.2337 H   0  0  0  0  0  0  0  0  0  0  0  0
  148.3030  140.3801  156.6303 H   0  0  0  0  0  0  0  0  0  0  0  0
  150.0037  139.9985  156.7692 H   0  0  0  0  0  0  0  0  0  0  0  0
  149.0715  142.7447  156.0776 H   0  0  0  0  0  0  0  0  0  0  0  0
  151.1472  140.3310  158.1182 H   0  0  0  0  0  0  0  0  0  0  0  0
  152.7916  141.1264  159.7964 H   0  0  0  0  0  0  0  0  0  0  0  0
  153.1053  143.5784  160.1557 H   0  0  0  0  0  0  0  0  0  0  0  0
  152.5087  145.8828  159.5688 H   0  0  0  0  0  0  0  0  0  0  0  0
  150.8083  146.0643  159.1269 H   0  0  0  0  0  0  0  0  0  0  0  0
  152.0571  146.0841  157.8731 H   0  0  0  0  0  0  0  0  0  0  0  0
  149.3700  142.4730  154.2550 H   0  0  0  0  0  0  0  0  0  0  0  0
  149.0446  141.4677  152.8700 H   0  0  0  0  0  0  0  0  0  0  0  0
  147.0481  142.0547  155.1084 H   0  0  0  0  0  0  0  0  0  0  0  0
  146.9890  142.6091  153.4532 H   0  0  0  0  0  0  0  0  0  0  0  0
  146.6765  139.6378  155.5235 H   0  0  0  0  0  0  0  0  0  0  0  0
  146.3363  138.6277  154.1376 H   0  0  0  0  0  0  0  0  0  0  0  0
  148.5883  138.8767  153.2712 H   0  0  0  0  0  0  0  0  0  0  0  0
  148.6913  138.2443  154.8914 H   0  0  0  0  0  0  0  0  0  0  0  0
  150.2019  144.3359  157.2173 H   0  0  0  0  0  0  0  0  0  0  0  0
  1  2  1  0  0  0  0
  1 18  1  0  0  0  0
  1 19  1  0  0  0  0
  1 20  1  0  0  0  0
  2  3  1  0  0  0  0
  3 17  1  0  0  0  0
  3  4  1  0  0  0  0
  3 13  1  0  0  0  0
  4  5  1  0  0  0  0
  4 21  1  0  0  0  0
  4 22  1  0  0  0  0
  5  6  1  0  0  0  0
  5 23  1  0  0  0  0
  6 12  1  0  0  0  0
  6  7  2  0  0  0  0
  7  8  1  0  0  0  0
  7 24  1  0  0  0  0
  8  9  2  0  0  0  0
  8 25  1  0  0  0  0
  9 10  1  0  0  0  0
  9 26  1  0  0  0  0
 10 11  1  0  0  0  0
 10 12  2  0  0  0  0
 11 27  1  0  0  0  0
 11 28  1  0  0  0  0
 11 29  1  0  0  0  0
 12 38  1  0  0  0  0
 13 14  1  0  0  0  0
 13 30  1  0  0  0  0
 13 31  1  0  0  0  0
 14 15  1  0  0  0  0
 14 32  1  0  0  0  0
 14 33  1  0  0  0  0
 15 16  1  0  0  0  0
 16 17  1  0  0  0  0
 16 34  1  0  0  0  0
 16 35  1  0  0  0  0
 17 36  1  0  0  0  0
 17 37  1  0  0  0  0
M  CHG  1  12   1
M  END
> <s_m_source_file>
AV-unprocessed.smi

> <i_m_source_file_index>
3182

> <i_lp_mmshare_version>
43012

> <i_f3d_flags>
0

> <s_epik_input>
W0NIMl0xW0NIMl1PW0NIMl1bQ0gyXUMxKE9bQ0gzXSlbQ0gyXVtOSF1jMltjSF1bY0hdW2NIXWMobjIpW0NIM10=

> <s_epik_cmdline>
J2VwaWtfcHl0aG9uJywgJy1waCcsICc3LjAnLCAnLXRuJywgJzgnLCAnLW1hJywgJzIwMCcsICctbWV0YWxfYmluZGluZycsICctaW1hZScsICc8aW5maWxlLm1hZT4nLCAnLW9tYWUnLCAnPG91dGZpbGUubWFlPic=

> <r_lp_tautomer_probability>
0.999994

> <r_epik_Ionization_Penalty>
0.0828477

> <r_epik_Ionization_Penalty_Charging>
0.0828471

> <r_epik_Ionization_Penalty_Neutral>
5.27923e-07

> <r_epik_State_Penalty>
0.0735379

> <r_epik_Charging_Adjusted_Penalty>
0.156385

> <i_epik_Tot_Q>
1

> <i_epik_Tot_abs_Q>
1

> <r_epik_Metal_State_Penalty>
2.89813

> <b_epik_Metal_Only>
0

> <s_lp_Force_Field>
OPLS_2005

> <r_lp_Energy>
24.7415

> <b_lp_Chiralities_Consistent>
1

> <s_lp_Variant>
AV-unprocessed.smi:3182-1

> <Gold.Version>
5.8.1

> <Gold.Id.Protein>
6NUR|6NUR_protein|mol2

> <Gold.PLP.Fitness>
46.3936

> <Gold.PLP.PLP>
-32.8236

> <Gold.PLP.part.hbond>
-2.8690

> <Gold.PLP.part.metal>
0.0000

> <Gold.PLP.part.buried>
-1.6455

> <Gold.PLP.part.nonpolar>
-29.5208

> <Gold.PLP.part.repulsive>
0.3220

> <Gold.PLP.ligand.clash>
0.0000

> <Gold.PLP.ligand.torsion>
0.4859

> <Gold.PLP.Chemscore.Hbond>
4.8450

> <Gold.PLP.Chemscore.CHOScore>
0.0000

> <Gold.PLP.Chemscore.Metal>
0.0000

> <Gold.Chemscore.Hbonds>
donor molecule, donor type, donor heavy atom, donor atom, acceptor molecule, acceptor atom, score
      L1  H     5    23       P1  8028  1.92
      L1  H    12    38       P1  8028  1.92
      P1  H  7989  7998       L1     2  0.96

> <Gold.PLP.Chemscore.Internal.Correction>
0.0069

> <Gold.Rescore>
     Score         DG    S(hbond)    S(metal)    S(lipo)     H(rot)  DE(clash)    DE(int)     intcor
     19.15     -21.39       2.36        0.00      98.85       1.38       1.71       0.53       ----

> <Gold.Chemscore.Fitness>
19.1505

> <Gold.Chemscore.DG>
-21.3872

> <Gold.Chemscore.ZeroCoef>
-5.4800

> <Gold.Chemscore.Hbond>
2.3613

> <Gold.Chemscore.Metal>
0.0000

> <Gold.Chemscore.Lipo>
98.8456

> <Gold.Chemscore.Internal_Hbond>
0.0000

> <Gold.Chemscore.DEClash>
1.7081

> <Gold.Chemscore.DEInternal>
0.5285

> <Gold.Chemscore.Rot>
1.3845

> <Gold.Chemscore.Internal.Correction>
   9.000000E+99

> <Gold.Chemscore.Hbonds>
donor molecule, donor type, donor heavy atom, donor atom, acceptor molecule, acceptor atom, score
      L1  H     5    23       P1  8028  0.86
      L1  H    12    38       P1  8028  0.60
      P1  H  7989  7998       L1     2  0.77

> <Gold.Chemscore.Hbond.Weighted>
-7.8867

> <Gold.Chemscore.Metal.Weighted>
-0.0000

> <Gold.Chemscore.Lipo.Weighted>
-11.5649

> <Gold.Chemscore.Internal_Hbond.Weighted>
0.0000

> <Gold.Chemscore.DEClash.Weighted>
1.7081

> <Gold.Chemscore.DEInternal.Weighted>
0.5285

> <Gold.Chemscore.Rot.Weighted>
3.5444

> <Gold.Chemscore.Internal.Correction.Weighted>
   9.000000E+99

> <Gold.Protein.RotatedTorsions>
[ 6907 6896 6895 6894 ] final -166.05 input  -60.11 | X-H torsion
[ 7974 7965 7964 7962 ] final  -52.88 input  175.53 | X-H torsion
[ 8008 7997 7996 7995 ] final   53.48 input   59.86 | X-H torsion
[ 10167 10162 10161 10158 ] final  -85.49 input  -65.29 | X-H torsion
[ 10718 10713 10712 10709 ] final -157.66 input   66.30 | X-H torsion
[ 10763 10752 10751 10750 ] final  -76.06 input  -60.55 | X-H torsion
[ 11005 11000 10999 10996 ] final  176.33 input  -57.11 | X-H torsion

> <Gold.Protein.ActiveResidues>
 VAL166  LYS551  ARG553  GLY616  TRP617  ASP618  TYR619  PRO620  LYS621  CYS622 
 ASP623  PHE694  ASN695  SER759  ASP760  ASP761  ALA762  ILE779  LEU786  VAL792 
 PHE793  MET794  SER795  GLU796  ALA797  LYS798  CYS799  TRP800  GLU811  SER814 

> <Gold.Protein.RotatedAtoms>
  151.4375  133.3653  159.2776 H   0  0  0  0  0  0  0  0  0  0  0  0  # atno 6907 bound_to 6896
  150.9181  134.8600  159.7481 H   0  0  0  0  0  0  0  0  0  0  0  0  # atno 6908 bound_to 6896
  152.4968  134.4310  159.9564 H   0  0  0  0  0  0  0  0  0  0  0  0  # atno 6909 bound_to 6896
  145.9030  140.7978  142.9733 H   0  0  0  0  0  0  0  0  0  0  0  0  # atno 7974 bound_to 7965
  155.4689  140.3464  155.4323 H   0  0  0  0  0  0  0  0  0  0  0  0  # atno 8008 bound_to 7997
  156.1113  140.1461  156.9363 H   0  0  0  0  0  0  0  0  0  0  0  0  # atno 8009 bound_to 7997
  154.4758  140.0885  156.7237 H   0  0  0  0  0  0  0  0  0  0  0  0  # atno 8010 bound_to 7997
  140.4032  143.2654  151.9115 H   0  0  0  0  0  0  0  0  0  0  0  0  # atno 10167 bound_to 10162
  156.5433  130.8573  151.2756 H   0  0  0  0  0  0  0  0  0  0  0  0  # atno 10718 bound_to 10713
  154.4949  135.5810  153.6487 H   0  0  0  0  0  0  0  0  0  0  0  0  # atno 10763 bound_to 10752
  152.9868  135.6121  154.3078 H   0  0  0  0  0  0  0  0  0  0  0  0  # atno 10764 bound_to 10752
  154.2980  135.2847  155.2603 H   0  0  0  0  0  0  0  0  0  0  0  0  # atno 10765 bound_to 10752
  140.3720  134.7022  157.4398 H   0  0  0  0  0  0  0  0  0  0  0  0  # atno 11005 bound_to 11000
  144.6737  140.1707  143.7414 LP  0  0  0  0  0  0  0  0  0  0  0  0  # atno 17320 bound_to 7965
  145.8767  139.2301  143.1629 LP  0  0  0  0  0  0  0  0  0  0  0  0  # atno 17321 bound_to 7965
  139.4784  144.5612  151.8235 LP  0  0  0  0  0  0  0  0  0  0  0  0  # atno 17342 bound_to 10162
  140.4718  144.1576  150.5919 LP  0  0  0  0  0  0  0  0  0  0  0  0  # atno 17343 bound_to 10162
  157.7401  130.9844  150.2357 LP  0  0  0  0  0  0  0  0  0  0  0  0  # atno 17370 bound_to 10713
  156.2951  130.3751  149.7804 LP  0  0  0  0  0  0  0  0  0  0  0  0  # atno 17371 bound_to 10713
  140.0545  134.6084  155.8822 LP  0  0  0  0  0  0  0  0  0  0  0  0  # atno 17394 bound_to 11000
  141.1951  133.6586  156.5629 LP  0  0  0  0  0  0  0  0  0  0  0  0  # atno 17395 bound_to 11000

$$$$
