AV-unprocessed.smi:2520|AV-procd|sdf|9907|dock2
  -GOLD-   2272013543D 1   1.00000     0.00000
 Structure written by MMmdl.
 41 44  0  0  0  0  0  0  0  0  1 V2000
  154.0862  140.1868  159.1362 O   0  0  0  0  0  0  0  0  0  0  0  0
  154.0314  140.3408  160.3548 C   0  0  0  0  0  0  0  0  0  0  0  0
  153.4554  141.4369  160.8923 N   0  0  0  0  0  0  0  0  0  0  0  0
  152.8364  142.5689  160.2856 C   0  0  0  0  0  0  0  0  0  0  0  0
  152.3100  143.5126  161.1937 C   0  0  0  0  0  0  0  0  0  0  0  0
  151.6757  144.6562  160.6792 C   0  0  0  0  0  0  0  0  0  0  0  0
  151.6067  144.7796  159.2812 C   0  0  0  0  0  0  0  0  0  0  0  0
  152.1197  143.8504  158.4465 N   0  0  0  0  0  0  0  0  0  0  0  0
  152.7213  142.7652  158.9448 N   0  0  0  0  0  0  0  0  0  0  0  0
  154.5288  139.4460  161.2221 N   0  0  0  0  0  0  0  0  0  0  0  0
  155.2445  138.2308  160.8545 C   0  0  2  0  0  0  0  0  0  0  0  0
  154.4702  137.3821  159.8467 C   0  0  1  0  0  0  0  0  0  0  0  0
  154.6795  137.0106  158.4221 C   0  0  0  0  0  0  0  0  0  0  0  0
  154.4000  135.4900  158.5531 C   0  0  0  0  0  0  0  0  0  0  0  0
  154.3570  135.2146  159.9740 O   0  0  0  0  0  0  0  0  0  0  0  0
  155.1621  136.2275  160.5431 C   0  0  2  0  0  0  0  0  0  0  0  0
  155.0097  137.0316  161.8505 C   0  0  0  0  0  0  0  0  0  0  0  0
  156.0811  136.8145  162.9280 C   0  0  0  0  0  0  0  0  0  0  0  0
  155.3817  136.5152  164.2555 C   0  0  0  0  0  0  0  0  0  0  0  0
  153.9922  137.1154  164.1005 C   0  0  0  0  0  0  0  0  0  0  0  0
  153.6775  136.9168  162.6212 C   0  0  0  0  0  0  0  0  0  0  0  0
  153.4234  141.4374  161.9014 H   0  0  0  0  0  0  0  0  0  0  0  0
  152.3894  143.3669  162.2611 H   0  0  0  0  0  0  0  0  0  0  0  0
  151.2580  145.4092  161.3307 H   0  0  0  0  0  0  0  0  0  0  0  0
  151.1320  145.6353  158.8245 H   0  0  0  0  0  0  0  0  0  0  0  0
  154.4394  139.6429  162.2090 H   0  0  0  0  0  0  0  0  0  0  0  0
  156.2904  138.3912  160.5760 H   0  0  0  0  0  0  0  0  0  0  0  0
  153.3976  137.4185  160.0615 H   0  0  0  0  0  0  0  0  0  0  0  0
  153.9841  137.5092  157.7467 H   0  0  0  0  0  0  0  0  0  0  0  0
  155.7006  137.2111  158.0949 H   0  0  0  0  0  0  0  0  0  0  0  0
  153.4477  135.2111  158.1010 H   0  0  0  0  0  0  0  0  0  0  0  0
  155.1868  134.9061  158.0741 H   0  0  0  0  0  0  0  0  0  0  0  0
  156.2113  136.0964  160.2546 H   0  0  0  0  0  0  0  0  0  0  0  0
  156.7676  136.0084  162.6673 H   0  0  0  0  0  0  0  0  0  0  0  0
  156.6894  137.7123  163.0381 H   0  0  0  0  0  0  0  0  0  0  0  0
  155.2981  135.4357  164.3875 H   0  0  0  0  0  0  0  0  0  0  0  0
  155.9206  136.9145  165.1152 H   0  0  0  0  0  0  0  0  0  0  0  0
  153.2547  136.6534  164.7574 H   0  0  0  0  0  0  0  0  0  0  0  0
  154.0254  138.1817  164.3278 H   0  0  0  0  0  0  0  0  0  0  0  0
  152.9178  137.6263  162.2925 H   0  0  0  0  0  0  0  0  0  0  0  0
  153.2540  135.9221  162.4773 H   0  0  0  0  0  0  0  0  0  0  0  0
  1  2  2  0  0  0  0
  2  3  1  0  0  0  0
  2 10  1  0  0  0  0
  3  4  1  0  0  0  0
  3 22  1  0  0  0  0
  4  9  1  0  0  0  0
  4  5  2  0  0  0  0
  5  6  1  0  0  0  0
  5 23  1  0  0  0  0
  6  7  2  0  0  0  0
  6 24  1  0  0  0  0
  7  8  1  0  0  0  0
  7 25  1  0  0  0  0
  8  9  2  0  0  0  0
 10 11  1  0  0  0  0
 10 26  1  0  0  0  0
 11 17  1  0  0  0  0
 11 12  1  0  0  0  0
 11 27  1  0  0  0  0
 12 16  1  0  0  0  0
 12 13  1  0  0  0  0
 12 28  1  0  0  0  0
 13 14  1  0  0  0  0
 13 29  1  0  0  0  0
 13 30  1  0  0  0  0
 14 15  1  0  0  0  0
 14 31  1  0  0  0  0
 14 32  1  0  0  0  0
 15 16  1  0  0  0  0
 16 17  1  0  0  0  0
 16 33  1  0  0  0  0
 17 21  1  0  0  0  0
 17 18  1  0  0  0  0
 18 19  1  0  0  0  0
 18 34  1  0  0  0  0
 18 35  1  0  0  0  0
 19 20  1  0  0  0  0
 19 36  1  0  0  0  0
 19 37  1  0  0  0  0
 20 21  1  0  0  0  0
 20 38  1  0  0  0  0
 20 39  1  0  0  0  0
 21 40  1  0  0  0  0
 21 41  1  0  0  0  0
M  END
> <s_m_source_file>
AV-unprocessed.smi

> <i_m_source_file_index>
2520

> <i_lp_mmshare_version>
43012

> <i_f3d_flags>
0

> <s_epik_input>
bjFuW2NIXVtjSF1bY0hdYzFbTkhdQyg9TylbTkhdW0NAQEhdMltDQEBIXShbQ0gyXVtDSDJdTzMpW0NASF0zQzI0W0NIMl1bQ0gyXVtDSDJdW0NIMl00

> <s_epik_cmdline>
J2VwaWtfcHl0aG9uJywgJy1waCcsICc3LjAnLCAnLXRuJywgJzgnLCAnLW1hJywgJzIwMCcsICctbWV0YWxfYmluZGluZycsICctaW1hZScsICc8aW5maWxlLm1hZT4nLCAnLW9tYWUnLCAnPG91dGZpbGUubWFlPic=

> <r_lp_tautomer_probability>
1

> <r_epik_Ionization_Penalty>
0.00552561

> <r_epik_Ionization_Penalty_Charging>
0

> <r_epik_Ionization_Penalty_Neutral>
0.00552561

> <r_epik_State_Penalty>
-0

> <r_epik_Charging_Adjusted_Penalty>
0

> <i_epik_Tot_Q>
0

> <i_epik_Tot_abs_Q>
0

> <r_epik_Metal_State_Penalty>
-0

> <b_epik_Metal_Only>
0

> <s_lp_Force_Field>
OPLS_2005

> <r_lp_Energy>
83.7492

> <b_lp_Chiralities_Consistent>
1

> <s_lp_Variant>
AV-unprocessed.smi:2520-1

> <Gold.Version>
5.8.1

> <Gold.Id.Protein>
6NUR|6NUR_protein|mol2

> <Gold.PLP.Fitness>
43.1858

> <Gold.PLP.PLP>
-37.4986

> <Gold.PLP.part.hbond>
-2.0000

> <Gold.PLP.part.metal>
0.0000

> <Gold.PLP.part.buried>
-6.3204

> <Gold.PLP.part.nonpolar>
-28.0499

> <Gold.PLP.part.repulsive>
0.0567

> <Gold.PLP.ligand.clash>
0.0000

> <Gold.PLP.ligand.torsion>
0.2128

> <Gold.PLP.Chemscore.Hbond>
1.9440

> <Gold.PLP.Chemscore.CHOScore>
0.0000

> <Gold.PLP.Chemscore.Metal>
0.0000

> <Gold.Chemscore.Hbonds>
donor molecule, donor type, donor heavy atom, donor atom, acceptor molecule, acceptor atom, score
      P1  H  6896  6908       L1    15  0.75
      P1  H  7997  8009       L1     1  0.89

> <Gold.PLP.Chemscore.Internal.Correction>
0.2809

> <Gold.Rescore>
     Score         DG    S(hbond)    S(metal)    S(lipo)     H(rot)  DE(clash)    DE(int)     intcor
     16.61     -19.42       1.89        0.00      87.19       1.00       0.09       2.72       ----

> <Gold.Chemscore.Fitness>
16.6119

> <Gold.Chemscore.DG>
-19.4239

> <Gold.Chemscore.ZeroCoef>
-5.4800

> <Gold.Chemscore.Hbond>
1.8871

> <Gold.Chemscore.Metal>
0.0000

> <Gold.Chemscore.Lipo>
87.1864

> <Gold.Chemscore.Internal_Hbond>
0.0000

> <Gold.Chemscore.DEClash>
0.0937

> <Gold.Chemscore.DEInternal>
2.7183

> <Gold.Chemscore.Rot>
1.0000

> <Gold.Chemscore.Internal.Correction>
   9.000000E+99

> <Gold.Chemscore.Hbonds>
donor molecule, donor type, donor heavy atom, donor atom, acceptor molecule, acceptor atom, score
      P1  H  6896  6908       L1    15  0.09
      P1  H  7997  8009       L1     1  0.83

> <Gold.Chemscore.Hbond.Weighted>
-6.3031

> <Gold.Chemscore.Metal.Weighted>
-0.0000

> <Gold.Chemscore.Lipo.Weighted>
-10.2008

> <Gold.Chemscore.Internal_Hbond.Weighted>
0.0000

> <Gold.Chemscore.DEClash.Weighted>
0.0937

> <Gold.Chemscore.DEInternal.Weighted>
2.7183

> <Gold.Chemscore.Rot.Weighted>
2.5600

> <Gold.Chemscore.Internal.Correction.Weighted>
   9.000000E+99

> <Gold.Protein.RotatedTorsions>
[ 6907 6896 6895 6894 ] final  -47.72 input  -60.11 | X-H torsion
[ 7974 7965 7964 7962 ] final  -76.84 input  175.53 | X-H torsion
[ 8008 7997 7996 7995 ] final  127.14 input   59.86 | X-H torsion
[ 10167 10162 10161 10158 ] final -115.80 input  -65.29 | X-H torsion
[ 10718 10713 10712 10709 ] final -154.81 input   66.30 | X-H torsion
[ 10763 10752 10751 10750 ] final  -79.11 input  -60.55 | X-H torsion
[ 11005 11000 10999 10996 ] final   68.01 input  -57.11 | X-H torsion

> <Gold.Protein.ActiveResidues>
 VAL166  LYS551  ARG553  GLY616  TRP617  ASP618  TYR619  PRO620  LYS621  CYS622 
 ASP623  PHE694  ASN695  SER759  ASP760  ASP761  ALA762  ILE779  LEU786  VAL792 
 PHE793  MET794  SER795  GLU796  ALA797  LYS798  CYS799  TRP800  GLU811  SER814 

> <Gold.Protein.RotatedAtoms>
  150.8979  134.8389  159.7339 H   0  0  0  0  0  0  0  0  0  0  0  0  # atno 6907 bound_to 6896
  152.4875  134.4547  159.9596 H   0  0  0  0  0  0  0  0  0  0  0  0  # atno 6908 bound_to 6896
  151.4602  133.3555  159.2843 H   0  0  0  0  0  0  0  0  0  0  0  0  # atno 6909 bound_to 6896
  145.6076  140.9394  143.1207 H   0  0  0  0  0  0  0  0  0  0  0  0  # atno 7974 bound_to 7965
  156.2883  140.2676  156.2225 H   0  0  0  0  0  0  0  0  0  0  0  0  # atno 8008 bound_to 7997
  155.0153  140.0387  157.2434 H   0  0  0  0  0  0  0  0  0  0  0  0  # atno 8009 bound_to 7997
  154.7482  140.2738  155.6320 H   0  0  0  0  0  0  0  0  0  0  0  0  # atno 8010 bound_to 7997
  140.0861  143.4742  152.1897 H   0  0  0  0  0  0  0  0  0  0  0  0  # atno 10167 bound_to 10162
  156.5044  130.8406  151.2622 H   0  0  0  0  0  0  0  0  0  0  0  0  # atno 10718 bound_to 10713
  154.5344  135.5707  153.6786 H   0  0  0  0  0  0  0  0  0  0  0  0  # atno 10763 bound_to 10752
  152.9947  135.6212  154.2585 H   0  0  0  0  0  0  0  0  0  0  0  0  # atno 10764 bound_to 10752
  154.2513  135.2859  155.2795 H   0  0  0  0  0  0  0  0  0  0  0  0  # atno 10765 bound_to 10752
  139.9736  134.6858  156.0397 H   0  0  0  0  0  0  0  0  0  0  0  0  # atno 11005 bound_to 11000
  144.7283  139.7804  143.7356 LP  0  0  0  0  0  0  0  0  0  0  0  0  # atno 17320 bound_to 7965
  146.1529  139.4618  143.0037 LP  0  0  0  0  0  0  0  0  0  0  0  0  # atno 17321 bound_to 7965
  139.5751  144.7483  151.3786 LP  0  0  0  0  0  0  0  0  0  0  0  0  # atno 17342 bound_to 10162
  140.7053  143.7530  150.7471 LP  0  0  0  0  0  0  0  0  0  0  0  0  # atno 17343 bound_to 10162
  157.7459  130.9971  150.2803 LP  0  0  0  0  0  0  0  0  0  0  0  0  # atno 17370 bound_to 10713
  156.3302  130.3799  149.7498 LP  0  0  0  0  0  0  0  0  0  0  0  0  # atno 17371 bound_to 10713
  141.1415  133.6564  156.3743 LP  0  0  0  0  0  0  0  0  0  0  0  0  # atno 17394 bound_to 11000
  140.5240  134.6276  157.5328 LP  0  0  0  0  0  0  0  0  0  0  0  0  # atno 17395 bound_to 11000

$$$$
