#       Name:                AV-unprocessed.smi:1046
#       Creating user name   scv26
#       Creation time:       Fri Mar 27 02:58:58 2020


#       File generated by GOLD software.
#

@<TRIPOS>MOLECULE
AV-unprocessed.smi:1046
    59    61     1
SMALL
NO_CHARGES


@<TRIPOS>ATOM
      1 ****        -5.3683   0.9577   3.1127 C.3            1 S1                 0.0000
      2 ****        -4.3664   1.4094   2.0648 C.ar           1 S1                 0.0000
      3 ****        -3.4910   2.4768   2.3666 C.ar           1 S1                 0.0000
      4 ****        -2.5488   2.9310   1.4183 C.ar           1 S1                 0.0000
      5 ****        -1.6101   3.9452   1.4980 N.2            1 S1                 0.0000
      6 ****        -1.0424   3.8813   0.2976 C.2            1 S1                 0.0000
      7 ****        -1.4914   2.9321  -0.5466 N.pl3          1 S1                 0.0000
      8 ****        -1.0209   2.6634  -1.8931 C.3            1 S1                 0.0000
      9 ****        -0.2308   1.3431  -1.9914 C.3            1 S1                 0.0000
     10 ****         0.2240   1.2091  -3.3223 O.3            1 S1                 0.0000
     11 ****         0.9864   1.2834  -1.0414 C.3            1 S1                 0.0000
     12 ****         1.7104  -0.0117  -1.1152 N.4            1 S1                 1.0000
     13 ****         1.0129  -1.1228  -0.4185 C.3            1 S1                 0.0000
     14 ****         1.7688  -2.4512  -0.5985 C.3            1 S1                 0.0000
     15 ****         3.1745  -2.3380  -0.1378 N.4            1 S1                 1.0000
     16 ****         3.8987  -3.6333  -0.2117 C.3            1 S1                 0.0000
     17 ****         5.1179  -3.6864   0.7253 C.3            1 S1                 0.0000
     18 ****         4.6980  -3.5929   2.0702 O.3            1 S1                 0.0000
     19 ****         3.8725  -1.2257  -0.8316 C.3            1 S1                 0.0000
     20 ****         3.1155   0.1025  -0.6532 C.3            1 S1                 0.0000
     21 ****        -2.5028   2.2802   0.1508 C.ar           1 S1                 0.0000
     22 ****        -3.3679   1.2166  -0.1613 C.ar           1 S1                 0.0000
     23 ****        -4.3050   0.7769   0.7970 C.ar           1 S1                 0.0000
     24 ****        -5.2385  -0.3692   0.4492 C.3            1 S1                 0.0000
     25 ****        -5.3091   1.5720   4.0116 H              1 S1                 0.0000
     26 ****        -5.1790  -0.0765   3.4009 H              1 S1                 0.0000
     27 ****        -6.3852   1.0300   2.7263 H              1 S1                 0.0000
     28 ****        -3.5389   2.9594   3.3318 H              1 S1                 0.0000
     29 ****        -0.2468   4.5572   0.0197 H              1 S1                 0.0000
     30 ****        -1.8863   2.6403  -2.5569 H              1 S1                 0.0000
     31 ****        -0.4012   3.5014  -2.2164 H              1 S1                 0.0000
     32 ****        -0.9138   0.5198  -1.7869 H              1 S1                 0.0000
     33 ****        -0.5203   1.2668  -3.9032 H              1 S1                 0.0000
     34 ****         1.6635   2.0982  -1.3028 H              1 S1                 0.0000
     35 ****         0.6885   1.4576  -0.0067 H              1 S1                 0.0000
     36 ****         0.9215  -0.8874   0.6431 H              1 S1                 0.0000
     37 ****         0.0002  -1.2394  -0.8025 H              1 S1                 0.0000
     38 ****         1.2583  -3.2335  -0.0353 H              1 S1                 0.0000
     39 ****         1.7524  -2.7529  -1.6472 H              1 S1                 0.0000
     40 ****         3.2248  -4.4476   0.0601 H              1 S1                 0.0000
     41 ****         4.2038  -3.8226  -1.2419 H              1 S1                 0.0000
     42 ****         5.6395  -4.6351   0.5962 H              1 S1                 0.0000
     43 ****         5.8403  -2.9002   0.5087 H              1 S1                 0.0000
     44 ****         5.4503  -3.7145   2.6310 H              1 S1                 0.0000
     45 ****         4.8841  -1.1108  -0.4439 H              1 S1                 0.0000
     46 ****         3.9662  -1.4601  -1.8934 H              1 S1                 0.0000
     47 ****         3.6264   0.8849  -1.2158 H              1 S1                 0.0000
     48 ****         3.1296   0.4046   0.3955 H              1 S1                 0.0000
     49 ****        -3.3148   0.7459  -1.1317 H              1 S1                 0.0000
     50 ****        -5.0302  -0.7646  -0.5453 H              1 S1                 0.0000
     51 ****        -6.2759  -0.0341   0.4653 H              1 S1                 0.0000
     52 ****        -5.1269  -1.1852   1.1635 H              1 S1                 0.0000
     53 ****         1.7519  -0.2516  -2.0961 H              1 S1                 0.0000
     54 ****         3.1332  -2.0990   0.8433 H              1 S1                 0.0000
     55 ****        -1.4113   4.5633   2.2585 LP             1 S1                 0.0000
     56 ****         0.6730   0.3230  -3.4372 LP             1 S1                 0.0000
     57 ****         0.8724   1.9410  -3.5319 LP             1 S1                 0.0000
     58 ****         4.0180  -4.3010   2.2607 LP             1 S1                 0.0000
     59 ****         4.2966  -2.6921   2.2358 LP             1 S1                 0.0000
@<TRIPOS>BOND
    1    1    2 1     
    2    1   25 1     
    3    1   26 1     
    4    1   27 1     
    5    2   23 ar    
    6    2    3 ar    
    7    3    4 ar    
    8    3   28 1     
    9    4   21 ar    
   10    4    5 1     
   11    5    6 2     
   12    6    7 1     
   13    6   29 1     
   14    7    8 1     
   15    7   21 1     
   16    8    9 1     
   17    8   30 1     
   18    8   31 1     
   19    9   10 1     
   20    9   11 1     
   21    9   32 1     
   22   10   33 1     
   23   11   12 1     
   24   11   34 1     
   25   11   35 1     
   26   12   20 1     
   27   12   13 1     
   28   12   53 1     
   29   13   14 1     
   30   13   36 1     
   31   13   37 1     
   32   14   15 1     
   33   14   38 1     
   34   14   39 1     
   35   15   16 1     
   36   15   19 1     
   37   15   54 1     
   38   16   17 1     
   39   16   40 1     
   40   16   41 1     
   41   17   18 1     
   42   17   42 1     
   43   17   43 1     
   44   18   44 1     
   45   19   20 1     
   46   19   45 1     
   47   19   46 1     
   48   20   47 1     
   49   20   48 1     
   50   21   22 ar    
   51   22   23 ar    
   52   22   49 1     
   53   23   24 1     
   54   24   50 1     
   55   24   51 1     
   56   24   52 1     
   57    5   55 1     
   58   10   56 1     
   59   10   57 1     
   60   18   58 1     
   61   18   59 1     
@<TRIPOS>SUBSTRUCTURE
      1 S1             1
@<TRIPOS>SET
LONE_PAIRS      STATIC     ATOMS    <user>   **** ""
5 55 56 57 58 59
DONOR_HYDROGENS      STATIC     ATOMS    <user>   **** ""
4 33 53 54 44
ATOM$BLUE        STATIC     ATOMS    COLORGROUP SYSTEM
5 55 56 57 58 59
ATOM$RED        STATIC     ATOMS    COLORGROUP SYSTEM
4 33 53 54 44
