AV-unprocessed.smi:1661|AV-procd|sdf|6654|dock5
  -GOLD-   22720 7363D 1   1.00000     0.00000
 Structure written by MMmdl.
 38 39  0  0  0  0  0  0  0  0  2 V2000
  143.6392  134.0399  152.0651 C   0  0  0  0  0  0  0  0  0  0  0  0
  144.8197  134.9223  151.6229 C   0  0  2  0  0  0  0  0  0  0  0  0
  145.8100  134.1794  150.7082 C   0  0  0  0  0  0  0  0  0  0  0  0
  146.6755  133.1699  151.4836 C   0  0  0  0  0  0  0  0  0  0  0  0
  147.3954  133.8244  152.6069 N   0  3  2  0  0  0  0  0  0  0  0  0
  148.3339  132.8948  153.2853 C   0  0  0  0  0  0  0  0  0  0  0  0
  149.1859  133.5962  154.3617 C   0  0  0  0  0  0  0  0  0  0  0  0
  149.4571  134.9857  154.0118 N   0  0  0  0  0  0  0  0  0  0  0  0
  150.3429  135.7747  154.6370 C   0  0  0  0  0  0  0  0  0  0  0  0
  151.0179  135.4027  155.5971 O   0  0  0  0  0  0  0  0  0  0  0  0
  150.3855  136.9982  154.0810 N   0  0  0  0  0  0  0  0  0  0  0  0
  151.1847  138.1093  154.4600 C   0  0  0  0  0  0  0  0  0  0  0  0
  152.4924  138.0213  154.7492 N   0  0  0  0  0  0  0  0  0  0  0  0
  153.0327  139.2545  155.0911 N   0  0  0  0  0  0  0  0  0  0  0  0
  152.1127  140.2222  155.0462 C   0  0  0  0  0  0  0  0  0  0  0  0
  150.4958  139.7219  154.5818 S   0  0  0  0  0  0  0  0  0  0  0  0
  146.4531  134.4948  153.5422 C   0  0  0  0  0  0  0  0  0  0  0  0
  145.5839  135.5338  152.8108 C   0  0  0  0  0  0  0  0  0  0  0  0
  143.9625  133.1831  152.6554 H   0  0  0  0  0  0  0  0  0  0  0  0
  143.0934  133.6576  151.2021 H   0  0  0  0  0  0  0  0  0  0  0  0
  142.9332  134.6085  152.6708 H   0  0  0  0  0  0  0  0  0  0  0  0
  144.3917  135.7443  151.0476 H   0  0  0  0  0  0  0  0  0  0  0  0
  145.2751  133.6737  149.9034 H   0  0  0  0  0  0  0  0  0  0  0  0
  146.4642  134.9066  150.2249 H   0  0  0  0  0  0  0  0  0  0  0  0
  146.0626  132.3530  151.8666 H   0  0  0  0  0  0  0  0  0  0  0  0
  147.3959  132.7243  150.7965 H   0  0  0  0  0  0  0  0  0  0  0  0
  147.7813  132.0566  153.7123 H   0  0  0  0  0  0  0  0  0  0  0  0
  149.0066  132.4696  152.5392 H   0  0  0  0  0  0  0  0  0  0  0  0
  148.6911  133.5486  155.3334 H   0  0  0  0  0  0  0  0  0  0  0  0
  150.1497  133.1029  154.4797 H   0  0  0  0  0  0  0  0  0  0  0  0
  148.9448  135.3688  153.2304 H   0  0  0  0  0  0  0  0  0  0  0  0
  149.7731  137.1560  153.2945 H   0  0  0  0  0  0  0  0  0  0  0  0
  152.3877  141.2379  155.2889 H   0  0  0  0  0  0  0  0  0  0  0  0
  145.8256  133.7475  154.0293 H   0  0  0  0  0  0  0  0  0  0  0  0
  147.0023  135.0017  154.3344 H   0  0  0  0  0  0  0  0  0  0  0  0
  146.2253  136.3376  152.4468 H   0  0  0  0  0  0  0  0  0  0  0  0
  144.8869  135.9976  153.5097 H   0  0  0  0  0  0  0  0  0  0  0  0
  147.9634  134.5484  152.1902 H   0  0  0  0  0  0  0  0  0  0  0  0
  1  2  1  0  0  0  0
  1 19  1  0  0  0  0
  1 20  1  0  0  0  0
  1 21  1  0  0  0  0
  2 18  1  0  0  0  0
  2  3  1  0  0  0  0
  2 22  1  0  0  0  0
  3  4  1  0  0  0  0
  3 23  1  0  0  0  0
  3 24  1  0  0  0  0
  4  5  1  0  0  0  0
  4 25  1  0  0  0  0
  4 26  1  0  0  0  0
  5  6  1  0  0  0  0
  5 17  1  0  0  0  0
  5 38  1  0  0  0  0
  6  7  1  0  0  0  0
  6 27  1  0  0  0  0
  6 28  1  0  0  0  0
  7  8  1  0  0  0  0
  7 29  1  0  0  0  0
  7 30  1  0  0  0  0
  8  9  1  0  0  0  0
  8 31  1  0  0  0  0
  9 10  2  0  0  0  0
  9 11  1  0  0  0  0
 11 12  1  0  0  0  0
 11 32  1  0  0  0  0
 12 16  1  0  0  0  0
 12 13  2  0  0  0  0
 13 14  1  0  0  0  0
 14 15  2  0  0  0  0
 15 16  1  0  0  0  0
 15 33  1  0  0  0  0
 17 18  1  0  0  0  0
 17 34  1  0  0  0  0
 17 35  1  0  0  0  0
 18 36  1  0  0  0  0
 18 37  1  0  0  0  0
M  CHG  1   5   1
M  END
> <s_m_source_file>
AV-unprocessed.smi

> <i_m_source_file_index>
1661

> <i_lp_mmshare_version>
43012

> <i_f3d_flags>
0

> <s_epik_input>
W0NIM11bQ0hdMVtDSDJdW0NIMl1OKFtDSDJdW0NIMl0xKVtDSDJdW0NIMl1bTkhdQyg9TylbTkhdYzJubltjSF1zMg==

> <s_epik_cmdline>
J2VwaWtfcHl0aG9uJywgJy1waCcsICc3LjAnLCAnLXRuJywgJzgnLCAnLW1hJywgJzIwMCcsICctbWV0YWxfYmluZGluZycsICctaW1hZScsICc8aW5maWxlLm1hZT4nLCAnLW9tYWUnLCAnPG91dGZpbGUubWFlPic=

> <r_lp_tautomer_probability>
1

> <r_epik_Ionization_Penalty>
0.0053917

> <r_epik_Ionization_Penalty_Charging>
0.00168873

> <r_epik_Ionization_Penalty_Neutral>
0.00370297

> <r_epik_State_Penalty>
-0

> <r_epik_Charging_Adjusted_Penalty>
0.00168873

> <i_epik_Tot_Q>
1

> <i_epik_Tot_abs_Q>
1

> <r_epik_Metal_State_Penalty>
0.36997

> <b_epik_Metal_Only>
0

> <s_lp_Force_Field>
OPLS_2005

> <r_lp_Energy>
16.5964

> <b_lp_Chiralities_Consistent>
1

> <s_lp_Variant>
AV-unprocessed.smi:1661-2

> <Gold.Version>
5.8.1

> <Gold.Id.Protein>
6NUR|6NUR_protein|mol2

> <Gold.PLP.Fitness>
47.3708

> <Gold.PLP.PLP>
-31.9872

> <Gold.PLP.part.hbond>
-7.3128

> <Gold.PLP.part.metal>
0.0000

> <Gold.PLP.part.buried>
-1.3950

> <Gold.PLP.part.nonpolar>
-23.9106

> <Gold.PLP.part.repulsive>
0.2102

> <Gold.PLP.ligand.clash>
0.0000

> <Gold.PLP.ligand.torsion>
0.6121

> <Gold.PLP.Chemscore.Hbond>
5.5293

> <Gold.PLP.Chemscore.CHOScore>
0.0000

> <Gold.PLP.Chemscore.Metal>
0.0000

> <Gold.Chemscore.Hbonds>
donor molecule, donor type, donor heavy atom, donor atom, acceptor molecule, acceptor atom, score
      L1  H     5    38       P1  7948  2.00
      L1  H     8    31       P1  7948  0.94
      L1  H    11    32       P1  7948  0.82
      P1  H  7997  8009       L1    14  1.00
      P1  H 10752 10764       L1    10  0.62

> <Gold.PLP.Chemscore.Internal.Correction>
0.0199

> <Gold.Rescore>
     Score         DG    S(hbond)    S(metal)    S(lipo)     H(rot)  DE(clash)    DE(int)     intcor
     16.82     -17.79       3.18        0.00      51.72       1.70       0.25       0.72       ----

> <Gold.Chemscore.Fitness>
16.8213

> <Gold.Chemscore.DG>
-17.7901

> <Gold.Chemscore.ZeroCoef>
-5.4800

> <Gold.Chemscore.Hbond>
3.1804

> <Gold.Chemscore.Metal>
0.0000

> <Gold.Chemscore.Lipo>
51.7215

> <Gold.Chemscore.Internal_Hbond>
0.0000

> <Gold.Chemscore.DEClash>
0.2468

> <Gold.Chemscore.DEInternal>
0.7221

> <Gold.Chemscore.Rot>
1.7046

> <Gold.Chemscore.Internal.Correction>
   9.000000E+99

> <Gold.Chemscore.Hbonds>
donor molecule, donor type, donor heavy atom, donor atom, acceptor molecule, acceptor atom, score
      L1  H     5    38       P1  7948  0.30
      L1  H     8    31       P1  7948  0.49
      L1  H    11    32       P1  7948  0.40
      P1  H  7997  8009       L1    14  0.26
      P1  H 10752 10764       L1    10  0.39

> <Gold.Chemscore.Hbond.Weighted>
-10.6226

> <Gold.Chemscore.Metal.Weighted>
-0.0000

> <Gold.Chemscore.Lipo.Weighted>
-6.0514

> <Gold.Chemscore.Internal_Hbond.Weighted>
0.0000

> <Gold.Chemscore.DEClash.Weighted>
0.2468

> <Gold.Chemscore.DEInternal.Weighted>
0.7221

> <Gold.Chemscore.Rot.Weighted>
4.3638

> <Gold.Chemscore.Internal.Correction.Weighted>
   9.000000E+99

> <Gold.Protein.RotatedTorsions>
[ 6907 6896 6895 6894 ] final -147.69 input  -60.11 | X-H torsion
[ 7974 7965 7964 7962 ] final -126.82 input  175.53 | X-H torsion
[ 8008 7997 7996 7995 ] final -138.47 input   59.86 | X-H torsion
[ 10167 10162 10161 10158 ] final -129.78 input  -65.29 | X-H torsion
[ 10718 10713 10712 10709 ] final  -69.25 input   66.30 | X-H torsion
[ 10763 10752 10751 10750 ] final  -31.25 input  -60.55 | X-H torsion
[ 11005 11000 10999 10996 ] final  148.50 input  -57.11 | X-H torsion

> <Gold.Protein.ActiveResidues>
 VAL166  LYS551  ARG553  GLY616  TRP617  ASP618  TYR619  PRO620  LYS621  CYS622 
 ASP623  PHE694  ASN695  SER759  ASP760  ASP761  ALA762  ILE779  LEU786  VAL792 
 PHE793  MET794  SER795  GLU796  ALA797  LYS798  CYS799  TRP800  GLU811  SER814 

> <Gold.Protein.RotatedAtoms>
  151.1593  133.4856  159.2594 H   0  0  0  0  0  0  0  0  0  0  0  0  # atno 6907 bound_to 6896
  151.1471  135.0208  159.8662 H   0  0  0  0  0  0  0  0  0  0  0  0  # atno 6908 bound_to 6896
  152.5463  134.1481  159.8560 H   0  0  0  0  0  0  0  0  0  0  0  0  # atno 6909 bound_to 6896
  144.9833  140.7662  143.4599 H   0  0  0  0  0  0  0  0  0  0  0  0  # atno 7974 bound_to 7965
  155.4288  140.0523  157.3020 H   0  0  0  0  0  0  0  0  0  0  0  0  # atno 8008 bound_to 7997
  154.4869  140.2104  155.9593 H   0  0  0  0  0  0  0  0  0  0  0  0  # atno 8009 bound_to 7997
  156.1287  140.3175  155.8322 H   0  0  0  0  0  0  0  0  0  0  0  0  # atno 8010 bound_to 7997
  139.9362  143.6215  152.2516 H   0  0  0  0  0  0  0  0  0  0  0  0  # atno 10167 bound_to 10162
  156.0464  130.4309  150.2120 H   0  0  0  0  0  0  0  0  0  0  0  0  # atno 10718 bound_to 10713
  153.7943  135.6895  153.4866 H   0  0  0  0  0  0  0  0  0  0  0  0  # atno 10763 bound_to 10752
  153.1729  135.4535  154.9925 H   0  0  0  0  0  0  0  0  0  0  0  0  # atno 10764 bound_to 10752
  154.8032  135.3346  154.7437 H   0  0  0  0  0  0  0  0  0  0  0  0  # atno 10765 bound_to 10752
  140.0965  134.9009  157.1731 H   0  0  0  0  0  0  0  0  0  0  0  0  # atno 11005 bound_to 11000
  145.2389  139.2081  143.5003 LP  0  0  0  0  0  0  0  0  0  0  0  0  # atno 17320 bound_to 7965
  146.3413  140.2281  142.8592 LP  0  0  0  0  0  0  0  0  0  0  0  0  # atno 17321 bound_to 7965
  139.6741  144.7659  151.1728 LP  0  0  0  0  0  0  0  0  0  0  0  0  # atno 17342 bound_to 10162
  140.7624  143.5821  150.8884 LP  0  0  0  0  0  0  0  0  0  0  0  0  # atno 17343 bound_to 10162
  157.0209  130.9979  151.3340 LP  0  0  0  0  0  0  0  0  0  0  0  0  # atno 17370 bound_to 10713
  157.5345  130.8080  149.7955 LP  0  0  0  0  0  0  0  0  0  0  0  0  # atno 17371 bound_to 10713
  140.3279  134.2843  155.7233 LP  0  0  0  0  0  0  0  0  0  0  0  0  # atno 17394 bound_to 11000
  141.2093  133.7751  157.0002 LP  0  0  0  0  0  0  0  0  0  0  0  0  # atno 17395 bound_to 11000

$$$$
