AV-unprocessed.smi:1795|AV-procd|sdf|7246|dock6
  -GOLD-   22720 8493D 1   1.00000     0.00000
 Structure written by MMmdl.
 48 49  0  0  0  0  0  0  0  0  2 V2000
  146.4146  129.2532  153.2838 C   0  0  0  0  0  0  0  0  0  0  0  0
  146.5321  130.7747  153.1445 C   0  0  1  0  0  0  0  0  0  0  0  0
  147.9529  131.2784  153.4690 C   0  0  0  0  0  0  0  0  0  0  0  0
  148.0609  132.7508  153.2795 N   0  3  2  0  0  0  0  0  0  0  0  0
  147.4500  133.6296  154.3334 C   0  0  1  0  0  0  0  0  0  0  0  0
  145.9053  133.5428  154.3890 C   0  0  0  0  0  0  0  0  0  0  0  0
  148.0496  133.2861  155.7193 C   0  0  0  0  0  0  0  0  0  0  0  0
  147.6715  134.2555  156.7407 N   0  0  0  0  0  0  0  0  0  0  0  0
  148.3920  134.5127  157.8414 C   0  0  0  0  0  0  0  0  0  0  0  0
  149.4562  133.9461  158.0934 O   0  0  0  0  0  0  0  0  0  0  0  0
  147.8261  135.5889  158.7791 C   0  0  0  0  0  0  0  0  0  0  0  0
  147.7286  135.1506  160.1812 N   0  0  0  0  0  0  0  0  0  0  0  0
  147.6348  133.7638  160.4137 C   0  0  0  0  0  0  0  0  0  0  0  0
  147.5398  133.2565  161.6528 C   0  0  0  0  0  0  0  0  0  0  0  0
  147.5381  134.1739  162.7676 C   0  0  0  0  0  0  0  0  0  0  0  0
  147.6219  135.5025  162.5562 C   0  0  0  0  0  0  0  0  0  0  0  0
  147.7191  136.0618  161.2027 C   0  0  0  0  0  0  0  0  0  0  0  0
  147.7882  137.2745  160.9993 O   0  0  0  0  0  0  0  0  0  0  0  0
  147.6408  133.0853  151.8907 C   0  0  0  0  0  0  0  0  0  0  0  0
  146.2392  132.5212  151.5648 C   0  0  1  0  0  0  0  0  0  0  0  0
  145.8501  132.7634  150.1024 C   0  0  0  0  0  0  0  0  0  0  0  0
  146.2286  131.1170  151.7967 O   0  0  0  0  0  0  0  0  0  0  0  0
  146.6310  128.9344  154.3037 H   0  0  0  0  0  0  0  0  0  0  0  0
  147.1093  128.7399  152.6180 H   0  0  0  0  0  0  0  0  0  0  0  0
  145.4076  128.9159  153.0369 H   0  0  0  0  0  0  0  0  0  0  0  0
  145.8033  131.2407  153.8095 H   0  0  0  0  0  0  0  0  0  0  0  0
  148.2786  130.9613  154.4585 H   0  0  0  0  0  0  0  0  0  0  0  0
  148.6574  130.8053  152.7832 H   0  0  0  0  0  0  0  0  0  0  0  0
  147.6949  134.6662  154.1036 H   0  0  0  0  0  0  0  0  0  0  0  0
  145.4932  134.1589  155.1879 H   0  0  0  0  0  0  0  0  0  0  0  0
  145.5698  132.5197  154.5621 H   0  0  0  0  0  0  0  0  0  0  0  0
  145.4408  133.9050  153.4721 H   0  0  0  0  0  0  0  0  0  0  0  0
  147.7172  132.2939  156.0299 H   0  0  0  0  0  0  0  0  0  0  0  0
  149.1378  133.2530  155.6877 H   0  0  0  0  0  0  0  0  0  0  0  0
  146.8087  134.7622  156.6036 H   0  0  0  0  0  0  0  0  0  0  0  0
  148.4595  136.4737  158.7020 H   0  0  0  0  0  0  0  0  0  0  0  0
  146.8475  135.9071  158.4148 H   0  0  0  0  0  0  0  0  0  0  0  0
  147.6361  133.1470  159.5265 H   0  0  0  0  0  0  0  0  0  0  0  0
  147.4627  132.1909  161.8110 H   0  0  0  0  0  0  0  0  0  0  0  0
  147.4688  133.7928  163.7758 H   0  0  0  0  0  0  0  0  0  0  0  0
  147.6187  136.1735  163.4027 H   0  0  0  0  0  0  0  0  0  0  0  0
  147.6669  134.1573  151.7050 H   0  0  0  0  0  0  0  0  0  0  0  0
  148.3706  132.6506  151.2060 H   0  0  0  0  0  0  0  0  0  0  0  0
  145.4834  132.9899  152.1959 H   0  0  0  0  0  0  0  0  0  0  0  0
  145.8233  133.8294  149.8751 H   0  0  0  0  0  0  0  0  0  0  0  0
  144.8621  132.3547  149.8887 H   0  0  0  0  0  0  0  0  0  0  0  0
  146.5594  132.2930  149.4206 H   0  0  0  0  0  0  0  0  0  0  0  0
  149.0504  132.9481  153.3314 H   0  0  0  0  0  0  0  0  0  0  0  0
  1  2  1  0  0  0  0
  1 23  1  0  0  0  0
  1 24  1  0  0  0  0
  1 25  1  0  0  0  0
  2 22  1  0  0  0  0
  2  3  1  0  0  0  0
  2 26  1  0  0  0  0
  3  4  1  0  0  0  0
  3 27  1  0  0  0  0
  3 28  1  0  0  0  0
  4  5  1  0  0  0  0
  4 19  1  0  0  0  0
  4 48  1  0  0  0  0
  5  6  1  0  0  0  0
  5  7  1  0  0  0  0
  5 29  1  0  0  0  0
  6 30  1  0  0  0  0
  6 31  1  0  0  0  0
  6 32  1  0  0  0  0
  7  8  1  0  0  0  0
  7 33  1  0  0  0  0
  7 34  1  0  0  0  0
  8  9  1  0  0  0  0
  8 35  1  0  0  0  0
  9 10  2  0  0  0  0
  9 11  1  0  0  0  0
 11 12  1  0  0  0  0
 11 36  1  0  0  0  0
 11 37  1  0  0  0  0
 12 17  1  0  0  0  0
 12 13  1  0  0  0  0
 13 14  2  0  0  0  0
 13 38  1  0  0  0  0
 14 15  1  0  0  0  0
 14 39  1  0  0  0  0
 15 16  2  0  0  0  0
 15 40  1  0  0  0  0
 16 17  1  0  0  0  0
 16 41  1  0  0  0  0
 17 18  2  0  0  0  0
 19 20  1  0  0  0  0
 19 42  1  0  0  0  0
 19 43  1  0  0  0  0
 20 21  1  0  0  0  0
 20 22  1  0  0  0  0
 20 44  1  0  0  0  0
 21 45  1  0  0  0  0
 21 46  1  0  0  0  0
 21 47  1  0  0  0  0
M  CHG  1   4   1
M  END
> <s_m_source_file>
AV-unprocessed.smi

> <i_m_source_file_index>
1795

> <i_lp_mmshare_version>
43012

> <i_f3d_flags>
0

> <s_epik_input>
W0NIM11bQ0BASF0xW0NIMl1OKFtDSDJdW0NASF0oTzEpW0NIM10pW0NASF0oW0NIM10pW0NIMl1bTkhdQyg9TylbQ0gyXW4yW2NIXVtjSF1bY0hdW2NIXWMyPU8=

> <s_epik_cmdline>
J2VwaWtfcHl0aG9uJywgJy1waCcsICc3LjAnLCAnLXRuJywgJzgnLCAnLW1hJywgJzIwMCcsICctbWV0YWxfYmluZGluZycsICctaW1hZScsICc8aW5maWxlLm1hZT4nLCAnLW9tYWUnLCAnPG91dGZpbGUubWFlPic=

> <r_lp_tautomer_probability>
1

> <r_epik_Ionization_Penalty>
0.656654

> <r_epik_Ionization_Penalty_Charging>
0.656654

> <r_epik_Ionization_Penalty_Neutral>
8.90321e-08

> <r_epik_State_Penalty>
0.675641

> <r_epik_Charging_Adjusted_Penalty>
1.33229

> <i_epik_Tot_Q>
1

> <i_epik_Tot_abs_Q>
1

> <r_epik_Metal_State_Penalty>
0.675691

> <b_epik_Metal_Only>
0

> <s_lp_Force_Field>
OPLS_2005

> <r_lp_Energy>
32.8471

> <b_lp_Chiralities_Consistent>
1

> <s_lp_Variant>
AV-unprocessed.smi:1795-10

> <Gold.Version>
5.8.1

> <Gold.Id.Protein>
6NUR|6NUR_protein|mol2

> <Gold.PLP.Fitness>
41.8265

> <Gold.PLP.PLP>
-34.5209

> <Gold.PLP.part.hbond>
-3.0000

> <Gold.PLP.part.metal>
0.0000

> <Gold.PLP.part.buried>
-3.6795

> <Gold.PLP.part.nonpolar>
-28.9064

> <Gold.PLP.part.repulsive>
0.1432

> <Gold.PLP.ligand.clash>
0.0000

> <Gold.PLP.ligand.torsion>
0.6373

> <Gold.PLP.Chemscore.Hbond>
2.8240

> <Gold.PLP.Chemscore.CHOScore>
0.0000

> <Gold.PLP.Chemscore.Metal>
0.0000

> <Gold.Chemscore.Hbonds>
donor molecule, donor type, donor heavy atom, donor atom, acceptor molecule, acceptor atom, score
      P1  H  6896  6908       L1    10  1.00
      P1  H  6931  6943       L1    18  0.86
      P1  H  6934  6947       L1    18  0.83

> <Gold.PLP.Chemscore.Internal.Correction>
0.1081

> <Gold.Rescore>
     Score         DG    S(hbond)    S(metal)    S(lipo)     H(rot)  DE(clash)    DE(int)     intcor
     16.57     -19.51       2.76        0.00      82.33       1.89       0.04       2.90       ----

> <Gold.Chemscore.Fitness>
16.5677

> <Gold.Chemscore.DG>
-19.5135

> <Gold.Chemscore.ZeroCoef>
-5.4800

> <Gold.Chemscore.Hbond>
2.7640

> <Gold.Chemscore.Metal>
0.0000

> <Gold.Chemscore.Lipo>
82.3301

> <Gold.Chemscore.Internal_Hbond>
0.0000

> <Gold.Chemscore.DEClash>
0.0414

> <Gold.Chemscore.DEInternal>
2.9043

> <Gold.Chemscore.Rot>
1.8870

> <Gold.Chemscore.Internal.Correction>
   9.000000E+99

> <Gold.Chemscore.Hbonds>
donor molecule, donor type, donor heavy atom, donor atom, acceptor molecule, acceptor atom, score
      P1  H  6896  6908       L1    10  1.00
      P1  H  6931  6943       L1    18  0.82
      P1  H  6934  6947       L1    18  0.81

> <Gold.Chemscore.Hbond.Weighted>
-9.2316

> <Gold.Chemscore.Metal.Weighted>
-0.0000

> <Gold.Chemscore.Lipo.Weighted>
-9.6326

> <Gold.Chemscore.Internal_Hbond.Weighted>
0.0000

> <Gold.Chemscore.DEClash.Weighted>
0.0414

> <Gold.Chemscore.DEInternal.Weighted>
2.9043

> <Gold.Chemscore.Rot.Weighted>
4.8308

> <Gold.Chemscore.Internal.Correction.Weighted>
   9.000000E+99

> <Gold.Protein.RotatedTorsions>
[ 6907 6896 6895 6894 ] final  133.48 input  -60.11 | X-H torsion
[ 7974 7965 7964 7962 ] final  -57.49 input  175.53 | X-H torsion
[ 8008 7997 7996 7995 ] final  -65.87 input   59.86 | X-H torsion
[ 10167 10162 10161 10158 ] final -164.00 input  -65.29 | X-H torsion
[ 10718 10713 10712 10709 ] final  -15.88 input   66.30 | X-H torsion
[ 10763 10752 10751 10750 ] final  161.21 input  -60.55 | X-H torsion
[ 11005 11000 10999 10996 ] final  150.26 input  -57.11 | X-H torsion

> <Gold.Protein.ActiveResidues>
 VAL166  LYS551  ARG553  GLY616  TRP617  ASP618  TYR619  PRO620  LYS621  CYS622 
 ASP623  PHE694  ASN695  SER759  ASP760  ASP761  ALA762  ILE779  LEU786  VAL792 
 PHE793  MET794  SER795  GLU796  ALA797  LYS798  CYS799  TRP800  GLU811  SER814 

> <Gold.Protein.RotatedAtoms>
  152.3215  133.5858  159.5747 H   0  0  0  0  0  0  0  0  0  0  0  0  # atno 6907 bound_to 6896
  150.7374  134.0004  159.3645 H   0  0  0  0  0  0  0  0  0  0  0  0  # atno 6908 bound_to 6896
  151.7888  135.0742  160.0435 H   0  0  0  0  0  0  0  0  0  0  0  0  # atno 6909 bound_to 6896
  145.8504  140.8356  142.9988 H   0  0  0  0  0  0  0  0  0  0  0  0  # atno 7974 bound_to 7965
  154.4698  140.0924  156.7116 H   0  0  0  0  0  0  0  0  0  0  0  0  # atno 8008 bound_to 7997
  155.4755  140.3466  155.4313 H   0  0  0  0  0  0  0  0  0  0  0  0  # atno 8009 bound_to 7997
  156.1020  140.1424  156.9443 H   0  0  0  0  0  0  0  0  0  0  0  0  # atno 8010 bound_to 7997
  139.6281  144.0493  152.1992 H   0  0  0  0  0  0  0  0  0  0  0  0  # atno 10167 bound_to 10162
  156.5955  130.4810  149.6261 H   0  0  0  0  0  0  0  0  0  0  0  0  # atno 10718 bound_to 10713
  154.2594  135.2769  155.2784 H   0  0  0  0  0  0  0  0  0  0  0  0  # atno 10763 bound_to 10752
  154.5397  135.5706  153.6832 H   0  0  0  0  0  0  0  0  0  0  0  0  # atno 10764 bound_to 10752
  152.9965  135.6248  154.2744 H   0  0  0  0  0  0  0  0  0  0  0  0  # atno 10765 bound_to 10752
  140.1116  134.8920  157.1944 H   0  0  0  0  0  0  0  0  0  0  0  0  # atno 11005 bound_to 11000
  144.6729  140.0944  143.7463 LP  0  0  0  0  0  0  0  0  0  0  0  0  # atno 17320 bound_to 7965
  145.9364  139.2640  143.1295 LP  0  0  0  0  0  0  0  0  0  0  0  0  # atno 17321 bound_to 7965
  140.0151  144.6194  150.7614 LP  0  0  0  0  0  0  0  0  0  0  0  0  # atno 17342 bound_to 10162
  140.7423  143.2830  151.3544 LP  0  0  0  0  0  0  0  0  0  0  0  0  # atno 17343 bound_to 10162
  156.2513  130.6909  151.1647 LP  0  0  0  0  0  0  0  0  0  0  0  0  # atno 17370 bound_to 10713
  157.7293  131.0625  150.5781 LP  0  0  0  0  0  0  0  0  0  0  0  0  # atno 17371 bound_to 10713
  140.3084  134.3052  155.7273 LP  0  0  0  0  0  0  0  0  0  0  0  0  # atno 17394 bound_to 11000
  141.2131  133.7635  156.9741 LP  0  0  0  0  0  0  0  0  0  0  0  0  # atno 17395 bound_to 11000

$$$$
