AV-unprocessed.smi:1794|AV-procd|sdf|7234|dock4
  -GOLD-   22720 8483D 1   1.00000     0.00000
 Structure written by MMmdl.
 55 57  0  0  0  0  0  0  0  0  2 V2000
  152.1399  137.9930  154.2734 C   0  0  0  0  0  0  0  0  0  0  0  0
  150.9091  138.1033  155.2048 C   0  0  0  0  0  0  0  0  0  0  0  0
  149.6973  138.4889  154.3171 C   0  0  0  0  0  0  0  0  0  0  0  0
  150.6122  136.6764  155.7546 C   0  0  0  0  0  0  0  0  0  0  0  0
  150.0581  135.7934  154.7287 N   0  0  0  0  0  0  0  0  0  0  0  0
  149.8764  134.4709  154.8448 C   0  0  0  0  0  0  0  0  0  0  0  0
  150.2442  133.8077  155.8141 O   0  0  0  0  0  0  0  0  0  0  0  0
  149.2176  133.9806  153.7827 N   0  0  0  0  0  0  0  0  0  0  0  0
  148.7313  132.6563  153.5993 C   0  0  0  0  0  0  0  0  0  0  0  0
  149.4665  131.5225  154.0288 C   0  0  0  0  0  0  0  0  0  0  0  0
  148.9451  130.2313  153.8195 C   0  0  0  0  0  0  0  0  0  0  0  0
  147.7022  130.0933  153.1759 C   0  0  0  0  0  0  0  0  0  0  0  0
  147.0350  131.1920  152.7652 N   0  3  0  0  0  0  0  0  0  0  0  0
  147.4868  132.4583  152.9423 C   0  0  0  0  0  0  0  0  0  0  0  0
  146.7170  133.5340  152.4529 N   0  0  0  0  0  0  0  0  0  0  0  0
  146.6078  133.5718  150.9969 C   0  0  0  0  0  0  0  0  0  0  0  0
  145.1897  134.0524  150.6807 C   0  0  0  0  0  0  0  0  0  0  0  0
  144.3953  133.6148  151.9053 C   0  0  0  0  0  0  0  0  0  0  0  0
  145.4042  133.8062  153.0358 C   0  0  0  0  0  0  0  0  0  0  0  0
  151.1029  139.0852  156.3087 N   0  0  0  0  0  0  0  0  0  0  0  0
  150.0547  139.0862  157.3352 C   0  0  0  0  0  0  0  0  0  0  0  0
  150.3915  140.0319  158.5018 C   0  0  0  0  0  0  0  0  0  0  0  0
  150.6186  141.3475  158.0100 O   0  0  0  0  0  0  0  0  0  0  0  0
  151.6640  141.3963  157.0468 C   0  0  0  0  0  0  0  0  0  0  0  0
  151.3203  140.4689  155.8703 C   0  0  0  0  0  0  0  0  0  0  0  0
  151.9531  137.2906  153.4602 H   0  0  0  0  0  0  0  0  0  0  0  0
  153.0232  137.6327  154.8004 H   0  0  0  0  0  0  0  0  0  0  0  0
  152.3949  138.9473  153.8129 H   0  0  0  0  0  0  0  0  0  0  0  0
  149.4409  137.6903  153.6201 H   0  0  0  0  0  0  0  0  0  0  0  0
  149.8988  139.3688  153.7058 H   0  0  0  0  0  0  0  0  0  0  0  0
  148.8083  138.6995  154.9128 H   0  0  0  0  0  0  0  0  0  0  0  0
  151.5350  136.2145  156.1078 H   0  0  0  0  0  0  0  0  0  0  0  0
  149.9727  136.7140  156.6371 H   0  0  0  0  0  0  0  0  0  0  0  0
  149.7237  136.2434  153.8893 H   0  0  0  0  0  0  0  0  0  0  0  0
  148.9037  134.6592  153.1047 H   0  0  0  0  0  0  0  0  0  0  0  0
  150.4289  131.6242  154.5073 H   0  0  0  0  0  0  0  0  0  0  0  0
  149.4943  129.3599  154.1448 H   0  0  0  0  0  0  0  0  0  0  0  0
  147.2281  129.1445  152.9710 H   0  0  0  0  0  0  0  0  0  0  0  0
  147.3556  134.2361  150.5625 H   0  0  0  0  0  0  0  0  0  0  0  0
  146.7641  132.5745  150.5815 H   0  0  0  0  0  0  0  0  0  0  0  0
  145.1763  135.1404  150.6034 H   0  0  0  0  0  0  0  0  0  0  0  0
  144.8003  133.6422  149.7485 H   0  0  0  0  0  0  0  0  0  0  0  0
  143.4800  134.1891  152.0502 H   0  0  0  0  0  0  0  0  0  0  0  0
  144.1270  132.5609  151.8184 H   0  0  0  0  0  0  0  0  0  0  0  0
  145.1581  133.1993  153.9070 H   0  0  0  0  0  0  0  0  0  0  0  0
  145.3988  134.8463  153.3642 H   0  0  0  0  0  0  0  0  0  0  0  0
  149.1006  139.3852  156.9009 H   0  0  0  0  0  0  0  0  0  0  0  0
  149.9159  138.0900  157.7512 H   0  0  0  0  0  0  0  0  0  0  0  0
  149.5700  140.0569  159.2178 H   0  0  0  0  0  0  0  0  0  0  0  0
  151.2739  139.6813  159.0395 H   0  0  0  0  0  0  0  0  0  0  0  0
  151.7799  142.4227  156.6992 H   0  0  0  0  0  0  0  0  0  0  0  0
  152.6098  141.1037  157.5056 H   0  0  0  0  0  0  0  0  0  0  0  0
  152.1289  140.5318  155.1465 H   0  0  0  0  0  0  0  0  0  0  0  0
  150.4277  140.8511  155.3746 H   0  0  0  0  0  0  0  0  0  0  0  0
  146.1410  131.0617  152.2913 H   0  0  0  0  0  0  0  0  0  0  0  0
  1  2  1  0  0  0  0
  1 26  1  0  0  0  0
  1 27  1  0  0  0  0
  1 28  1  0  0  0  0
  2  3  1  0  0  0  0
  2  4  1  0  0  0  0
  2 20  1  0  0  0  0
  3 29  1  0  0  0  0
  3 30  1  0  0  0  0
  3 31  1  0  0  0  0
  4  5  1  0  0  0  0
  4 32  1  0  0  0  0
  4 33  1  0  0  0  0
  5  6  1  0  0  0  0
  5 34  1  0  0  0  0
  6  7  2  0  0  0  0
  6  8  1  0  0  0  0
  8  9  1  0  0  0  0
  8 35  1  0  0  0  0
  9 14  1  0  0  0  0
  9 10  2  0  0  0  0
 10 11  1  0  0  0  0
 10 36  1  0  0  0  0
 11 12  2  0  0  0  0
 11 37  1  0  0  0  0
 12 13  1  0  0  0  0
 12 38  1  0  0  0  0
 13 14  2  0  0  0  0
 13 55  1  0  0  0  0
 14 15  1  0  0  0  0
 15 19  1  0  0  0  0
 15 16  1  0  0  0  0
 16 17  1  0  0  0  0
 16 39  1  0  0  0  0
 16 40  1  0  0  0  0
 17 18  1  0  0  0  0
 17 41  1  0  0  0  0
 17 42  1  0  0  0  0
 18 19  1  0  0  0  0
 18 43  1  0  0  0  0
 18 44  1  0  0  0  0
 19 45  1  0  0  0  0
 19 46  1  0  0  0  0
 20 25  1  0  0  0  0
 20 21  1  0  0  0  0
 21 22  1  0  0  0  0
 21 47  1  0  0  0  0
 21 48  1  0  0  0  0
 22 23  1  0  0  0  0
 22 49  1  0  0  0  0
 22 50  1  0  0  0  0
 23 24  1  0  0  0  0
 24 25  1  0  0  0  0
 24 51  1  0  0  0  0
 24 52  1  0  0  0  0
 25 53  1  0  0  0  0
 25 54  1  0  0  0  0
M  CHG  1  13   1
M  END
> <s_m_source_file>
AV-unprocessed.smi

> <i_m_source_file_index>
1794

> <i_lp_mmshare_version>
43012

> <i_f3d_flags>
0

> <s_epik_input>
W0NIMl0xW0NIMl1PW0NIMl1bQ0gyXU4xQyhbQ0gzXSkoW0NIM10pW0NIMl1bTkhdQyg9TylbTkhdYzJbY0hdW2NIXVtjSF1uYzJOM1tDSDJdW0NIMl1bQ0gyXVtDSDJdMw==

> <s_epik_cmdline>
J2VwaWtfcHl0aG9uJywgJy1waCcsICc3LjAnLCAnLXRuJywgJzgnLCAnLW1hJywgJzIwMCcsICctbWV0YWxfYmluZGluZycsICctaW1hZScsICc8aW5maWxlLm1hZT4nLCAnLW9tYWUnLCAnPG91dGZpbGUubWFlPic=

> <r_epik_Ionization_Penalty>
1.36967

> <r_epik_Ionization_Penalty_Charging>
1.10366

> <r_epik_Ionization_Penalty_Neutral>
0.266011

> <r_epik_State_Penalty>
1.45237

> <r_epik_Charging_Adjusted_Penalty>
2.55603

> <i_epik_Tot_Q>
1

> <i_epik_Tot_abs_Q>
1

> <r_epik_Metal_State_Penalty>
1.53539

> <b_epik_Metal_Only>
0

> <s_lp_Force_Field>
OPLS_2005

> <r_lp_Energy>
75.8074

> <b_lp_Chiralities_Consistent>
1

> <s_lp_Variant>
AV-unprocessed.smi:1794-3

> <Gold.Version>
5.8.1

> <Gold.Id.Protein>
6NUR|6NUR_protein|mol2

> <Gold.PLP.Fitness>
43.4316

> <Gold.PLP.PLP>
-38.5589

> <Gold.PLP.part.hbond>
-2.5525

> <Gold.PLP.part.metal>
0.0000

> <Gold.PLP.part.buried>
-4.3042

> <Gold.PLP.part.nonpolar>
-30.5883

> <Gold.PLP.part.repulsive>
0.2652

> <Gold.PLP.ligand.clash>
0.0000

> <Gold.PLP.ligand.torsion>
0.6291

> <Gold.PLP.Chemscore.Hbond>
1.9760

> <Gold.PLP.Chemscore.CHOScore>
0.0000

> <Gold.PLP.Chemscore.Metal>
0.0000

> <Gold.Chemscore.Hbonds>
donor molecule, donor type, donor heavy atom, donor atom, acceptor molecule, acceptor atom, score
      L1  H     5    34       P1  7948  0.75
      L1  H     8    35       P1  7948  0.75

> <Gold.PLP.Chemscore.Internal.Correction>
0.2028

> <Gold.Rescore>
     Score         DG    S(hbond)    S(metal)    S(lipo)     H(rot)  DE(clash)    DE(int)     intcor
     13.92     -16.84       1.59        0.00      86.19       1.58       1.18       1.75       ----

> <Gold.Chemscore.Fitness>
13.9154

> <Gold.Chemscore.DG>
-16.8427

> <Gold.Chemscore.ZeroCoef>
-5.4800

> <Gold.Chemscore.Hbond>
1.5938

> <Gold.Chemscore.Metal>
0.0000

> <Gold.Chemscore.Lipo>
86.1919

> <Gold.Chemscore.Internal_Hbond>
0.0000

> <Gold.Chemscore.DEClash>
1.1801

> <Gold.Chemscore.DEInternal>
1.7473

> <Gold.Chemscore.Rot>
1.5800

> <Gold.Chemscore.Internal.Correction>
   9.000000E+99

> <Gold.Chemscore.Hbonds>
donor molecule, donor type, donor heavy atom, donor atom, acceptor molecule, acceptor atom, score
      L1  H     5    34       P1  7948  0.32
      L1  H     8    35       P1  7948  0.09

> <Gold.Chemscore.Hbond.Weighted>
-5.3232

> <Gold.Chemscore.Metal.Weighted>
-0.0000

> <Gold.Chemscore.Lipo.Weighted>
-10.0844

> <Gold.Chemscore.Internal_Hbond.Weighted>
0.0000

> <Gold.Chemscore.DEClash.Weighted>
1.1801

> <Gold.Chemscore.DEInternal.Weighted>
1.7473

> <Gold.Chemscore.Rot.Weighted>
4.0449

> <Gold.Chemscore.Internal.Correction.Weighted>
   9.000000E+99

> <Gold.Protein.RotatedTorsions>
[ 6907 6896 6895 6894 ] final  110.12 input  -60.11 | X-H torsion
[ 7974 7965 7964 7962 ] final -163.69 input  175.53 | X-H torsion
[ 8008 7997 7996 7995 ] final   31.18 input   59.86 | X-H torsion
[ 10167 10162 10161 10158 ] final  108.95 input  -65.29 | X-H torsion
[ 10718 10713 10712 10709 ] final   71.91 input   66.30 | X-H torsion
[ 10763 10752 10751 10750 ] final  -54.98 input  -60.55 | X-H torsion
[ 11005 11000 10999 10996 ] final  149.57 input  -57.11 | X-H torsion

> <Gold.Protein.ActiveResidues>
 VAL166  LYS551  ARG553  GLY616  TRP617  ASP618  TYR619  PRO620  LYS621  CYS622 
 ASP623  PHE694  ASN695  SER759  ASP760  ASP761  ALA762  ILE779  LEU786  VAL792 
 PHE793  MET794  SER795  GLU796  ALA797  LYS798  CYS799  TRP800  GLU811  SER814 

> <Gold.Protein.RotatedAtoms>
  152.5035  133.8845  159.7362 H   0  0  0  0  0  0  0  0  0  0  0  0  # atno 6907 bound_to 6896
  150.9299  133.6770  159.2820 H   0  0  0  0  0  0  0  0  0  0  0  0  # atno 6908 bound_to 6896
  151.4118  135.0990  159.9640 H   0  0  0  0  0  0  0  0  0  0  0  0  # atno 6909 bound_to 6896
  144.7318  140.3069  143.6194 H   0  0  0  0  0  0  0  0  0  0  0  0  # atno 7974 bound_to 7965
  155.1023  140.3231  155.4544 H   0  0  0  0  0  0  0  0  0  0  0  0  # atno 8008 bound_to 7997
  156.2713  140.2059  156.6096 H   0  0  0  0  0  0  0  0  0  0  0  0  # atno 8009 bound_to 7997
  154.6819  140.0525  157.0262 H   0  0  0  0  0  0  0  0  0  0  0  0  # atno 8010 bound_to 7997
  139.6805  144.7118  151.1524 H   0  0  0  0  0  0  0  0  0  0  0  0  # atno 10167 bound_to 10162
  157.6475  130.9552  150.0855 H   0  0  0  0  0  0  0  0  0  0  0  0  # atno 10718 bound_to 10713
  154.1835  135.6439  153.5040 H   0  0  0  0  0  0  0  0  0  0  0  0  # atno 10763 bound_to 10752
  153.0053  135.5412  154.6489 H   0  0  0  0  0  0  0  0  0  0  0  0  # atno 10764 bound_to 10752
  154.5859  135.2929  155.0657 H   0  0  0  0  0  0  0  0  0  0  0  0  # atno 10765 bound_to 10752
  140.1056  134.8956  157.1861 H   0  0  0  0  0  0  0  0  0  0  0  0  # atno 11005 bound_to 11000
  145.7703  139.1855  143.2216 LP  0  0  0  0  0  0  0  0  0  0  0  0  # atno 17320 bound_to 7965
  146.0916  140.7649  142.9592 LP  0  0  0  0  0  0  0  0  0  0  0  0  # atno 17321 bound_to 7965
  140.7650  143.5706  150.9000 LP  0  0  0  0  0  0  0  0  0  0  0  0  # atno 17342 bound_to 10162
  139.9378  143.6418  152.3061 LP  0  0  0  0  0  0  0  0  0  0  0  0  # atno 17343 bound_to 10162
  156.1819  130.3650  149.9024 LP  0  0  0  0  0  0  0  0  0  0  0  0  # atno 17370 bound_to 10713
  156.6974  130.8919  151.3595 LP  0  0  0  0  0  0  0  0  0  0  0  0  # atno 17371 bound_to 10713
  140.3160  134.2970  155.7256 LP  0  0  0  0  0  0  0  0  0  0  0  0  # atno 17394 bound_to 11000
  141.2117  133.7680  156.9844 LP  0  0  0  0  0  0  0  0  0  0  0  0  # atno 17395 bound_to 11000

$$$$
