AV-unprocessed.smi:3228|AV-procd|sdf|12321|dock5
  -GOLD-   2272018173D 1   1.00000     0.00000
 Structure written by MMmdl.
 31 32  0  0  0  0  0  0  0  0  1 V2000
  150.8561  140.5789  156.0555 O   0  0  0  0  0  0  0  0  0  0  0  0
  150.2985  141.6724  155.9575 C   0  0  0  0  0  0  0  0  0  0  0  0
  150.7218  142.7761  156.5903 N   0  0  0  0  0  0  0  0  0  0  0  0
  151.8804  142.8392  157.4757 C   0  0  0  0  0  0  0  0  0  0  0  0
  151.5341  143.4553  158.8482 C   0  0  2  0  0  0  0  0  0  0  0  0
  151.7115  144.9764  158.9180 C   0  0  0  0  0  0  0  0  0  0  0  0
  151.8688  145.3103  160.4096 C   0  0  0  0  0  0  0  0  0  0  0  0
  152.0589  143.9722  161.1416 C   0  0  0  0  0  0  0  0  0  0  0  0
  152.3315  142.9294  160.0525 C   0  0  2  0  0  0  0  0  0  0  0  0
  153.7209  142.9003  159.7817 O   0  0  0  0  0  0  0  0  0  0  0  0
  149.2054  141.9240  155.2157 N   0  0  0  0  0  0  0  0  0  0  0  0
  148.4578  141.0165  154.4199 C   0  0  0  0  0  0  0  0  0  0  0  0
  148.7387  139.7142  154.2939 N   0  0  0  0  0  0  0  0  0  0  0  0
  147.8346  139.0613  153.4524 C   0  0  0  0  0  0  0  0  0  0  0  0
  146.8646  139.8879  152.9423 C   0  0  0  0  0  0  0  0  0  0  0  0
  147.0494  141.5288  153.5016 S   0  0  0  0  0  0  0  0  0  0  0  0
  150.2033  143.6318  156.4559 H   0  0  0  0  0  0  0  0  0  0  0  0
  152.2699  141.8283  157.5980 H   0  0  0  0  0  0  0  0  0  0  0  0
  152.6771  143.4128  156.9991 H   0  0  0  0  0  0  0  0  0  0  0  0
  150.4807  143.2531  159.0512 H   0  0  0  0  0  0  0  0  0  0  0  0
  152.6153  145.2722  158.3836 H   0  0  0  0  0  0  0  0  0  0  0  0
  150.8749  145.5067  158.4619 H   0  0  0  0  0  0  0  0  0  0  0  0
  152.7290  145.9629  160.5613 H   0  0  0  0  0  0  0  0  0  0  0  0
  150.9922  145.8335  160.7923 H   0  0  0  0  0  0  0  0  0  0  0  0
  152.8428  144.0138  161.8991 H   0  0  0  0  0  0  0  0  0  0  0  0
  151.1312  143.7156  161.6546 H   0  0  0  0  0  0  0  0  0  0  0  0
  152.0094  141.9327  160.3555 H   0  0  0  0  0  0  0  0  0  0  0  0
  154.1819  143.2145  160.5441 H   0  0  0  0  0  0  0  0  0  0  0  0
  148.8634  142.8735  155.2265 H   0  0  0  0  0  0  0  0  0  0  0  0
  147.9563  138.0036  153.2708 H   0  0  0  0  0  0  0  0  0  0  0  0
  146.0560  139.6317  152.2743 H   0  0  0  0  0  0  0  0  0  0  0  0
  1  2  2  0  0  0  0
  2  3  1  0  0  0  0
  2 11  1  0  0  0  0
  3  4  1  0  0  0  0
  3 17  1  0  0  0  0
  4  5  1  0  0  0  0
  4 18  1  0  0  0  0
  4 19  1  0  0  0  0
  5  9  1  0  0  0  0
  5  6  1  0  0  0  0
  5 20  1  0  0  0  0
  6  7  1  0  0  0  0
  6 21  1  0  0  0  0
  6 22  1  0  0  0  0
  7  8  1  0  0  0  0
  7 23  1  0  0  0  0
  7 24  1  0  0  0  0
  8  9  1  0  0  0  0
  8 25  1  0  0  0  0
  8 26  1  0  0  0  0
  9 10  1  0  0  0  0
  9 27  1  0  0  0  0
 10 28  1  0  0  0  0
 11 12  1  0  0  0  0
 11 29  1  0  0  0  0
 12 16  1  0  0  0  0
 12 13  2  0  0  0  0
 13 14  1  0  0  0  0
 14 15  2  0  0  0  0
 14 30  1  0  0  0  0
 15 16  1  0  0  0  0
 15 31  1  0  0  0  0
M  END
> <s_m_source_file>
AV-unprocessed.smi

> <i_m_source_file_index>
3228

> <i_lp_mmshare_version>
43012

> <i_f3d_flags>
0

> <s_epik_input>
czFbY0hdW2NIXW5jMVtOSF1DKD1PKVtOSF1bQ0gyXVtDQEBIXTJbQ0gyXVtDSDJdW0NIMl1bQ0BIXTJbT0hd

> <s_epik_cmdline>
J2VwaWtfcHl0aG9uJywgJy1waCcsICc3LjAnLCAnLXRuJywgJzgnLCAnLW1hJywgJzIwMCcsICctbWV0YWxfYmluZGluZycsICctaW1hZScsICc8aW5maWxlLm1hZT4nLCAnLW9tYWUnLCAnPG91dGZpbGUubWFlPic=

> <r_lp_tautomer_probability>
0.999

> <r_epik_Ionization_Penalty>
0.000399498

> <r_epik_Ionization_Penalty_Charging>
0

> <r_epik_Ionization_Penalty_Neutral>
0.000399498

> <r_epik_State_Penalty>
0.000177984

> <r_epik_Charging_Adjusted_Penalty>
0.000177984

> <i_epik_Tot_Q>
0

> <i_epik_Tot_abs_Q>
0

> <r_epik_Metal_State_Penalty>
0.0060793

> <b_epik_Metal_Only>
0

> <s_lp_Force_Field>
OPLS_2005

> <r_lp_Energy>
23.3722

> <b_lp_Chiralities_Consistent>
1

> <s_lp_Variant>
AV-unprocessed.smi:3228-3

> <Gold.Version>
5.8.1

> <Gold.Id.Protein>
6NUR|6NUR_protein|mol2

> <Gold.PLP.Fitness>
46.1621

> <Gold.PLP.PLP>
-35.2243

> <Gold.PLP.part.hbond>
-2.0000

> <Gold.PLP.part.metal>
0.0000

> <Gold.PLP.part.buried>
-5.3737

> <Gold.PLP.part.nonpolar>
-27.8014

> <Gold.PLP.part.repulsive>
0.3841

> <Gold.PLP.ligand.clash>
0.0000

> <Gold.PLP.ligand.torsion>
0.4253

> <Gold.PLP.Chemscore.Hbond>
2.0000

> <Gold.PLP.Chemscore.CHOScore>
1.9291

> <Gold.PLP.Chemscore.Metal>
0.0000

> <Gold.Chemscore.Hbonds>
donor molecule, donor type, donor heavy atom, donor atom, acceptor molecule, acceptor atom, score
      L1  H     3    17       P1  8028  1.00
      L1  H    11    29       P1  8028  1.00
      L1  C    14    30       P1  7948  1.00
      L1  C    15    31       P1 10175  0.91

> <Gold.PLP.Chemscore.Internal.Correction>
0.0011

> <Gold.Rescore>
     Score         DG    S(hbond)    S(metal)    S(lipo)     H(rot)  DE(clash)    DE(int)     intcor
     15.21     -17.77       1.97        0.00      89.78       1.88       0.94       1.62       ----

> <Gold.Chemscore.Fitness>
15.2053

> <Gold.Chemscore.DG>
-17.7657

> <Gold.Chemscore.ZeroCoef>
-5.4800

> <Gold.Chemscore.Hbond>
1.9731

> <Gold.Chemscore.Metal>
0.0000

> <Gold.Chemscore.Lipo>
89.7841

> <Gold.Chemscore.Internal_Hbond>
0.0000

> <Gold.Chemscore.DEClash>
0.9362

> <Gold.Chemscore.DEInternal>
1.6242

> <Gold.Chemscore.Rot>
1.8786

> <Gold.Chemscore.Internal.Correction>
   9.000000E+99

> <Gold.Chemscore.Hbonds>
donor molecule, donor type, donor heavy atom, donor atom, acceptor molecule, acceptor atom, score
      L1  H     3    17       P1  8028  0.98
      L1  H    11    29       P1  8028  0.99

> <Gold.Chemscore.Hbond.Weighted>
-6.5901

> <Gold.Chemscore.Metal.Weighted>
-0.0000

> <Gold.Chemscore.Lipo.Weighted>
-10.5047

> <Gold.Chemscore.Internal_Hbond.Weighted>
0.0000

> <Gold.Chemscore.DEClash.Weighted>
0.9362

> <Gold.Chemscore.DEInternal.Weighted>
1.6242

> <Gold.Chemscore.Rot.Weighted>
4.8091

> <Gold.Chemscore.Internal.Correction.Weighted>
   9.000000E+99

> <Gold.Protein.RotatedTorsions>
[ 6907 6896 6895 6894 ] final  114.82 input  -60.11 | X-H torsion
[ 7974 7965 7964 7962 ] final   60.32 input  175.53 | X-H torsion
[ 8008 7997 7996 7995 ] final -119.99 input   59.86 | X-H torsion
[ 10167 10162 10161 10158 ] final   91.48 input  -65.29 | X-H torsion
[ 10718 10713 10712 10709 ] final  -32.95 input   66.30 | X-H torsion
[ 10763 10752 10751 10750 ] final -125.59 input  -60.55 | X-H torsion
[ 11005 11000 10999 10996 ] final -156.89 input  -57.11 | X-H torsion

> <Gold.Protein.ActiveResidues>
 VAL166  LYS551  ARG553  GLY616  TRP617  ASP618  TYR619  PRO620  LYS621  CYS622 
 ASP623  PHE694  ASN695  SER759  ASP760  ASP761  ALA762  ILE779  LEU786  VAL792 
 PHE793  MET794  SER795  GLU796  ALA797  LYS798  CYS799  TRP800  GLU811  SER814 

> <Gold.Protein.RotatedAtoms>
  152.4779  133.8183  159.7039 H   0  0  0  0  0  0  0  0  0  0  0  0  # atno 6907 bound_to 6896
  150.8809  133.7364  159.2939 H   0  0  0  0  0  0  0  0  0  0  0  0  # atno 6908 bound_to 6896
  151.4869  135.1059  159.9845 H   0  0  0  0  0  0  0  0  0  0  0  0  # atno 6909 bound_to 6896
  145.8973  139.3555  143.0613 H   0  0  0  0  0  0  0  0  0  0  0  0  # atno 7974 bound_to 7965
  155.1247  140.0399  157.2759 H   0  0  0  0  0  0  0  0  0  0  0  0  # atno 8008 bound_to 7997
  154.6587  140.2586  155.7106 H   0  0  0  0  0  0  0  0  0  0  0  0  # atno 8009 bound_to 7997
  156.2610  140.2821  156.1051 H   0  0  0  0  0  0  0  0  0  0  0  0  # atno 8010 bound_to 7997
  139.8371  144.6659  150.9329 H   0  0  0  0  0  0  0  0  0  0  0  0  # atno 10167 bound_to 10162
  156.3686  130.4336  149.7564 H   0  0  0  0  0  0  0  0  0  0  0  0  # atno 10718 bound_to 10713
  154.8737  135.4024  154.3292 H   0  0  0  0  0  0  0  0  0  0  0  0  # atno 10763 bound_to 10752
  153.4108  135.7020  153.6366 H   0  0  0  0  0  0  0  0  0  0  0  0  # atno 10764 bound_to 10752
  153.5069  135.3715  155.2538 H   0  0  0  0  0  0  0  0  0  0  0  0  # atno 10765 bound_to 10752
  140.6706  134.4251  157.5231 H   0  0  0  0  0  0  0  0  0  0  0  0  # atno 11005 bound_to 11000
  145.8834  140.9349  143.0589 LP  0  0  0  0  0  0  0  0  0  0  0  0  # atno 17320 bound_to 7965
  144.6733  140.0810  143.7469 LP  0  0  0  0  0  0  0  0  0  0  0  0  # atno 17321 bound_to 7965
  140.7801  143.3947  151.1250 LP  0  0  0  0  0  0  0  0  0  0  0  0  # atno 17342 bound_to 10162
  139.7596  143.8655  152.3097 LP  0  0  0  0  0  0  0  0  0  0  0  0  # atno 17343 bound_to 10162
  156.4700  130.7992  151.3010 LP  0  0  0  0  0  0  0  0  0  0  0  0  # atno 17370 bound_to 10713
  157.7481  131.0039  150.3055 LP  0  0  0  0  0  0  0  0  0  0  0  0  # atno 17371 bound_to 10713
  139.8983  134.8617  156.2008 LP  0  0  0  0  0  0  0  0  0  0  0  0  # atno 17394 bound_to 11000
  141.0395  133.6945  156.1572 LP  0  0  0  0  0  0  0  0  0  0  0  0  # atno 17395 bound_to 11000

$$$$
