#       Name:                AV-unprocessed.smi:44
#       Creating user name   scv26
#       Creation time:       Thu Mar 26 16:25:15 2020


#       File generated by GOLD software.
#

@<TRIPOS>MOLECULE
AV-unprocessed.smi:44
    37    39     1
SMALL
NO_CHARGES


@<TRIPOS>ATOM
      1 ****        -3.9743   2.7631  -2.2475 O.2            1 S1                 0.0000
      2 ****        -3.0476   1.9832  -2.0382 C.2            1 S1                 0.0000
      3 ****        -2.5112   1.1804  -2.9893 N.am           1 S1                 0.0000
      4 ****        -1.4455   0.2762  -2.7535 C.2            1 S1                 0.0000
      5 ****        -0.8477   0.1051  -1.6029 N.2            1 S1                 0.0000
      6 ****        -1.3710   0.9154  -0.6151 C.2            1 S1                 0.0000
      7 ****        -2.3938   1.8201  -0.7184 C.2            1 S1                 0.0000
      8 ****        -2.6368   2.4522   0.4944 N.2            1 S1                 0.0000
      9 ****        -1.7291   1.8920   1.2912 C.2            1 S1                 0.0000
     10 ****        -0.9401   0.9681   0.7093 N.pl3          1 S1                 0.0000
     11 ****         0.1592   0.2015   1.3703 C.3            1 S1                 0.0000
     12 ****        -0.2071  -1.2788   1.5150 C.3            1 S1                 0.0000
     13 ****         1.1538  -1.9251   1.3844 C.3            1 S1                 0.0000
     14 ****         1.7862  -1.0358   0.3113 C.3            1 S1                 0.0000
     15 ****         3.3201  -1.0585   0.1985 C.3            1 S1                 0.0000
     16 ****         3.9448  -0.9267   1.4584 O.3            1 S1                 0.0000
     17 ****         1.3044   0.2795   0.5729 O.3            1 S1                 0.0000
     18 ****        -2.8992   1.2359  -3.9196 H              1 S1                 0.0000
     19 ****         0.3354   0.6989   2.3253 H              1 S1                 0.0000
     20 ****         1.3744  -1.3250  -0.6567 H              1 S1                 0.0000
     21 ****        -1.1581  -0.2834  -3.6447 H              1 S1                 0.0000
     22 ****        -1.6343   2.1632   2.3324 H              1 S1                 0.0000
     23 ****        -0.7010  -1.4733   2.4672 H              1 S1                 0.0000
     24 ****        -0.8603  -1.5927   0.6995 H              1 S1                 0.0000
     25 ****         1.6858  -1.8542   2.3336 H              1 S1                 0.0000
     26 ****         1.1037  -2.9747   1.0940 H              1 S1                 0.0000
     27 ****         3.6423  -2.0052  -0.2356 H              1 S1                 0.0000
     28 ****         3.6667  -0.2675  -0.4670 H              1 S1                 0.0000
     29 ****         4.8810  -0.9342   1.3310 H              1 S1                 0.0000
     30 ****        -4.3269   3.3316  -1.5042 LP             1 S1                 0.0000
     31 ****        -4.3757   2.8291  -3.1611 LP             1 S1                 0.0000
     32 ****        -0.0972  -0.5391  -1.4554 LP             1 S1                 0.0000
     33 ****        -3.3192   3.1498   0.7131 LP             1 S1                 0.0000
     34 ****         3.6785  -1.6889   2.0484 LP             1 S1                 0.0000
     35 ****         3.6690  -0.0644   1.8831 LP             1 S1                 0.0000
     36 ****         2.0089   0.8046   1.0504 LP             1 S1                 0.0000
     37 ****         1.0801   0.7311  -0.2907 LP             1 S1                 0.0000
@<TRIPOS>BOND
    1    1    2 2     
    2    2    7 1     
    3    2    3 am    
    4    3   18 1     
    5    3    4 1     
    6    4    5 2     
    7    4   21 1     
    8    5    6 1     
    9    6   10 1     
   10    6    7 2     
   11    7    8 1     
   12    8    9 2     
   13    9   10 1     
   14    9   22 1     
   15   10   11 1     
   16   11   19 1     
   17   11   17 1     
   18   11   12 1     
   19   12   13 1     
   20   12   23 1     
   21   12   24 1     
   22   13   14 1     
   23   13   25 1     
   24   13   26 1     
   25   14   20 1     
   26   14   15 1     
   27   14   17 1     
   28   15   16 1     
   29   15   27 1     
   30   15   28 1     
   31   16   29 1     
   32    1   30 1     
   33    1   31 1     
   34    5   32 1     
   35    8   33 1     
   36   16   34 1     
   37   16   35 1     
   38   17   36 1     
   39   17   37 1     
@<TRIPOS>SUBSTRUCTURE
      1 S1             1
@<TRIPOS>SET
LONE_PAIRS      STATIC     ATOMS    <user>   **** ""
8 30 31 32 33 34 35 36 37
DONOR_HYDROGENS      STATIC     ATOMS    <user>   **** ""
2 18 29
ATOM$BLUE        STATIC     ATOMS    COLORGROUP SYSTEM
8 30 31 32 33 34 35 36 37
ATOM$RED        STATIC     ATOMS    COLORGROUP SYSTEM
2 18 29
