#       Name:                AV-unprocessed.smi:1244
#       Creating user name   scv26
#       Creation time:       Fri Mar 27 04:34:04 2020


#       File generated by GOLD software.
#

@<TRIPOS>MOLECULE
AV-unprocessed.smi:1244
    61    63     1
SMALL
NO_CHARGES


@<TRIPOS>ATOM
      1 ****        -3.1423   5.5128   0.5736 C.3            1 S1                 0.0000
      2 ****        -3.8680   4.5409  -0.3736 C.3            1 S1                 0.0000
      3 ****        -3.4158   3.0759  -0.2158 C.3            1 S1                 0.0000
      4 ****        -2.0704   2.8644  -0.8022 N.4            1 S1                 1.0000
      5 ****        -1.5616   1.4822  -0.5964 C.3            1 S1                 0.0000
      6 ****        -0.0474   1.4573  -0.3041 C.3            1 S1                 0.0000
      7 ****         0.3985   0.0797  -0.0983 N.pl3          1 S1                -1.0000
      8 ****         0.4888  -0.5376   1.1102 C.2            1 S1                 0.0000
      9 ****         0.2334  -0.0621   2.2223 O.2            1 S1                 0.0000
     10 ****         0.9270  -1.8032   0.9943 N.am           1 S1                 0.0000
     11 ****         1.1873  -2.7647   2.0115 C.ar           1 S1                 0.0000
     12 ****         0.4025  -2.8218   3.1916 C.ar           1 S1                 0.0000
     13 ****         0.6972  -3.7721   4.1870 C.ar           1 S1                 0.0000
     14 ****         1.7690  -4.6577   3.9849 C.ar           1 S1                 0.0000
     15 ****         2.4813  -4.5951   2.8410 N.pl3          1 S1                 1.0000
     16 ****         2.2377  -3.7131   1.8391 C.ar           1 S1                 0.0000
     17 ****         3.0596  -3.7804   0.6902 N.3            1 S1                 0.0000
     18 ****         4.2319  -4.6476   0.6685 C.3            1 S1                 0.0000
     19 ****         4.6447  -4.7196  -0.7992 C.3            1 S1                 0.0000
     20 ****         3.3014  -4.6704  -1.5209 C.3            1 S1                 0.0000
     21 ****         2.4464  -3.7590  -0.6342 C.3            1 S1                 0.0000
     22 ****        -2.0577   3.3072  -2.2201 C.3            1 S1                 0.0000
     23 ****        -2.4823   4.7822  -2.3238 C.3            1 S1                 0.0000
     24 ****        -2.5609   5.2564  -3.7791 C.3            1 S1                 0.0000
     25 ****        -3.7722   4.9452  -1.7396 O.3            1 S1                 0.0000
     26 ****        -3.3439   5.2595   1.6146 H              1 S1                 0.0000
     27 ****        -3.4806   6.5366   0.4130 H              1 S1                 0.0000
     28 ****        -2.0609   5.4922   0.4402 H              1 S1                 0.0000
     29 ****        -4.9274   4.5887  -0.1199 H              1 S1                 0.0000
     30 ****        -3.4142   2.8020   0.8402 H              1 S1                 0.0000
     31 ****        -4.1268   2.4140  -0.7131 H              1 S1                 0.0000
     32 ****        -2.0748   1.0297   0.2539 H              1 S1                 0.0000
     33 ****        -1.8058   0.8609  -1.4596 H              1 S1                 0.0000
     34 ****         0.4813   1.9151  -1.1400 H              1 S1                 0.0000
     35 ****         0.1620   2.0983   0.5535 H              1 S1                 0.0000
     36 ****         1.2067  -2.0717   0.0626 H              1 S1                 0.0000
     37 ****        -0.4293  -2.1517   3.3470 H              1 S1                 0.0000
     38 ****         0.1091  -3.8186   5.0918 H              1 S1                 0.0000
     39 ****         2.0705  -5.4162   4.6926 H              1 S1                 0.0000
     40 ****         5.0319  -4.2521   1.2953 H              1 S1                 0.0000
     41 ****         3.9743  -5.6455   1.0259 H              1 S1                 0.0000
     42 ****         5.2410  -3.8448  -1.0629 H              1 S1                 0.0000
     43 ****         5.2257  -5.6116  -1.0349 H              1 S1                 0.0000
     44 ****         3.3807  -4.3094  -2.5467 H              1 S1                 0.0000
     45 ****         2.8648  -5.6697  -1.5493 H              1 S1                 0.0000
     46 ****         1.4068  -4.0893  -0.6130 H              1 S1                 0.0000
     47 ****         2.4715  -2.7375  -1.0157 H              1 S1                 0.0000
     48 ****        -1.0611   3.1853  -2.6455 H              1 S1                 0.0000
     49 ****        -2.7311   2.6776  -2.8043 H              1 S1                 0.0000
     50 ****        -1.7587   5.4099  -1.8035 H              1 S1                 0.0000
     51 ****        -1.5949   5.1622  -4.2756 H              1 S1                 0.0000
     52 ****        -2.8600   6.3035  -3.8320 H              1 S1                 0.0000
     53 ****        -3.2871   4.6735  -4.3464 H              1 S1                 0.0000
     54 ****        -1.4422   3.4702  -0.2933 H              1 S1                 0.0000
     55 ****         3.2455  -5.2591   2.7181 H              1 S1                 0.0000
     56 ****         0.6565  -0.4483  -0.9074 LP             1 S1                 0.0000
     57 ****        -0.0807   0.8840   2.3014 LP             1 S1                 0.0000
     58 ****         0.3409  -0.6236   3.0428 LP             1 S1                 0.0000
     59 ****         3.4009  -2.8599   0.8801 LP             1 S1                 0.0000
     60 ****        -4.0186   5.9127  -1.7954 LP             1 S1                 0.0000
     61 ****        -4.4244   4.4040  -2.2704 LP             1 S1                 0.0000
@<TRIPOS>BOND
    1    1    2 1     
    2    1   26 1     
    3    1   27 1     
    4    1   28 1     
    5    2   25 1     
    6    2    3 1     
    7    2   29 1     
    8    3    4 1     
    9    3   30 1     
   10    3   31 1     
   11    4    5 1     
   12    4   22 1     
   13    4   54 1     
   14    5    6 1     
   15    5   32 1     
   16    5   33 1     
   17    6    7 1     
   18    6   34 1     
   19    6   35 1     
   20    7    8 1     
   21    8    9 2     
   22    8   10 am    
   23   10   11 1     
   24   10   36 1     
   25   11   16 ar    
   26   11   12 ar    
   27   12   13 ar    
   28   12   37 1     
   29   13   14 ar    
   30   13   38 1     
   31   14   15 ar    
   32   14   39 1     
   33   15   16 ar    
   34   15   55 1     
   35   16   17 1     
   36   17   21 1     
   37   17   18 1     
   38   18   19 1     
   39   18   40 1     
   40   18   41 1     
   41   19   20 1     
   42   19   42 1     
   43   19   43 1     
   44   20   21 1     
   45   20   44 1     
   46   20   45 1     
   47   21   46 1     
   48   21   47 1     
   49   22   23 1     
   50   22   48 1     
   51   22   49 1     
   52   23   24 1     
   53   23   25 1     
   54   23   50 1     
   55   24   51 1     
   56   24   52 1     
   57   24   53 1     
   58    7   56 1     
   59    9   57 1     
   60    9   58 1     
   61   17   59 1     
   62   25   60 1     
   63   25   61 1     
@<TRIPOS>SUBSTRUCTURE
      1 S1             1
@<TRIPOS>SET
LONE_PAIRS      STATIC     ATOMS    <user>   **** ""
6 56 57 58 59 60 61
DONOR_HYDROGENS      STATIC     ATOMS    <user>   **** ""
3 54 36 55
ATOM$BLUE        STATIC     ATOMS    COLORGROUP SYSTEM
6 56 57 58 59 60 61
ATOM$RED        STATIC     ATOMS    COLORGROUP SYSTEM
3 54 36 55
