AV-unprocessed.smi:2824|AV-procd|sdf|10886|dock6
  -GOLD-   2272015323D 1   1.00000     0.00000
 Structure written by MMmdl.
 38 39  0  0  0  0  0  0  0  0  1 V2000
  150.1779  141.7412  156.4244 C   0  0  0  0  0  0  0  0  0  0  0  0
  151.1626  142.1881  157.4887 C   0  0  0  0  0  0  0  0  0  0  0  0
  151.3496  143.5654  157.7305 C   0  0  0  0  0  0  0  0  0  0  0  0
  152.2578  143.9957  158.7146 C   0  0  0  0  0  0  0  0  0  0  0  0
  152.9828  143.0487  159.4592 C   0  0  0  0  0  0  0  0  0  0  0  0
  152.7996  141.6731  159.2223 C   0  0  0  0  0  0  0  0  0  0  0  0
  151.8853  141.2267  158.2337 C   0  0  0  0  0  0  0  0  0  0  0  0
  151.6544  139.8964  157.9485 O   0  0  0  0  0  0  0  0  0  0  0  0
  152.4930  138.9179  158.5484 C   0  0  0  0  0  0  0  0  0  0  0  0
  151.6126  137.8723  159.2532 C   0  0  2  0  0  0  0  0  0  0  0  0
  151.9578  136.6066  158.7241 O   0  0  0  0  0  0  0  0  0  0  0  0
  150.1113  138.1095  158.9749 C   0  0  0  0  0  0  0  0  0  0  0  0
  149.2973  136.9246  159.2714 N   0  0  0  0  0  0  0  0  0  0  0  0
  148.8930  136.8365  160.5920 N   0  0  0  0  0  0  0  0  0  0  0  0
  148.1642  135.8515  161.0084 C   0  0  0  0  0  0  0  0  0  0  0  0
  147.7712  135.8450  162.4653 C   0  0  0  0  0  0  0  0  0  0  0  0
  148.1323  134.7050  163.0551 F   0  0  0  0  0  0  0  0  0  0  0  0
  148.3608  136.8567  163.1034 F   0  0  0  0  0  0  0  0  0  0  0  0
  146.4504  135.9835  162.5841 F   0  0  0  0  0  0  0  0  0  0  0  0
  147.7692  134.8181  160.0657 C   0  0  0  0  0  0  0  0  0  0  0  0
  148.1669  134.9051  158.7783 C   0  0  0  0  0  0  0  0  0  0  0  0
  148.9875  136.0155  158.3012 C   0  0  0  0  0  0  0  0  0  0  0  0
  149.3636  136.1247  157.1344 O   0  0  0  0  0  0  0  0  0  0  0  0
  149.6923  142.5920  155.9456 H   0  0  0  0  0  0  0  0  0  0  0  0
  149.4032  141.1137  156.8655 H   0  0  0  0  0  0  0  0  0  0  0  0
  150.6899  141.1649  155.6532 H   0  0  0  0  0  0  0  0  0  0  0  0
  150.7961  144.2983  157.1619 H   0  0  0  0  0  0  0  0  0  0  0  0
  152.3986  145.0507  158.8974 H   0  0  0  0  0  0  0  0  0  0  0  0
  153.6817  143.3775  160.2141 H   0  0  0  0  0  0  0  0  0  0  0  0
  153.3763  140.9791  159.8143 H   0  0  0  0  0  0  0  0  0  0  0  0
  153.0673  138.4328  157.7575 H   0  0  0  0  0  0  0  0  0  0  0  0
  153.2000  139.3663  159.2488 H   0  0  0  0  0  0  0  0  0  0  0  0
  151.8115  137.8944  160.3255 H   0  0  0  0  0  0  0  0  0  0  0  0
  152.4669  136.7369  157.9389 H   0  0  0  0  0  0  0  0  0  0  0  0
  149.7465  138.9374  159.5860 H   0  0  0  0  0  0  0  0  0  0  0  0
  149.9616  138.4380  157.9443 H   0  0  0  0  0  0  0  0  0  0  0  0
  147.1619  133.9883  160.3954 H   0  0  0  0  0  0  0  0  0  0  0  0
  147.8707  134.1351  158.0811 H   0  0  0  0  0  0  0  0  0  0  0  0
  1  2  1  0  0  0  0
  1 24  1  0  0  0  0
  1 25  1  0  0  0  0
  1 26  1  0  0  0  0
  2  7  1  0  0  0  0
  2  3  2  0  0  0  0
  3  4  1  0  0  0  0
  3 27  1  0  0  0  0
  4  5  2  0  0  0  0
  4 28  1  0  0  0  0
  5  6  1  0  0  0  0
  5 29  1  0  0  0  0
  6  7  2  0  0  0  0
  6 30  1  0  0  0  0
  7  8  1  0  0  0  0
  8  9  1  0  0  0  0
  9 10  1  0  0  0  0
  9 31  1  0  0  0  0
  9 32  1  0  0  0  0
 10 11  1  0  0  0  0
 10 12  1  0  0  0  0
 10 33  1  0  0  0  0
 11 34  1  0  0  0  0
 12 13  1  0  0  0  0
 12 35  1  0  0  0  0
 12 36  1  0  0  0  0
 13 22  1  0  0  0  0
 13 14  1  0  0  0  0
 14 15  2  0  0  0  0
 15 16  1  0  0  0  0
 15 20  1  0  0  0  0
 16 17  1  0  0  0  0
 16 18  1  0  0  0  0
 16 19  1  0  0  0  0
 20 21  2  0  0  0  0
 20 37  1  0  0  0  0
 21 22  1  0  0  0  0
 21 38  1  0  0  0  0
 22 23  2  0  0  0  0
M  END
> <s_m_source_file>
AV-unprocessed.smi

> <i_m_source_file_index>
2824

> <i_lp_mmshare_version>
43012

> <i_f3d_flags>
0

> <s_epik_input>
W0NIM11jMVtjSF1bY0hdW2NIXVtjSF1jMU9bQ0gyXVtDQEhdKFtPSF0pW0NIMl1uMm5jKEMoRikoRilGKVtjSF1bY0hdYzI9Tw==

> <s_epik_cmdline>
J2VwaWtfcHl0aG9uJywgJy1waCcsICc3LjAnLCAnLXRuJywgJzgnLCAnLW1hJywgJzIwMCcsICctbWV0YWxfYmluZGluZycsICctaW1hZScsICc8aW5maWxlLm1hZT4nLCAnLW9tYWUnLCAnPG91dGZpbGUubWFlPic=

> <r_lp_tautomer_probability>
1

> <r_epik_Ionization_Penalty>
1.2156e-07

> <r_epik_Ionization_Penalty_Charging>
4.38548e-09

> <r_epik_Ionization_Penalty_Neutral>
1.17174e-07

> <r_epik_State_Penalty>
-0

> <r_epik_Charging_Adjusted_Penalty>
4.38548e-09

> <i_epik_Tot_Q>
0

> <i_epik_Tot_abs_Q>
0

> <r_epik_Metal_State_Penalty>
-0

> <b_epik_Metal_Only>
0

> <s_lp_Force_Field>
OPLS_2005

> <r_lp_Energy>
34.0835

> <b_lp_Chiralities_Consistent>
1

> <s_lp_Variant>
AV-unprocessed.smi:2824-1

> <Gold.Version>
5.8.1

> <Gold.Id.Protein>
6NUR|6NUR_protein|mol2

> <Gold.PLP.Fitness>
48.5662

> <Gold.PLP.PLP>
-47.0044

> <Gold.PLP.part.hbond>
-2.7208

> <Gold.PLP.part.metal>
0.0000

> <Gold.PLP.part.buried>
-2.8885

> <Gold.PLP.part.nonpolar>
-41.6826

> <Gold.PLP.part.repulsive>
0.0000

> <Gold.PLP.ligand.clash>
0.0000

> <Gold.PLP.ligand.torsion>
1.7390

> <Gold.PLP.Chemscore.Hbond>
1.6335

> <Gold.PLP.Chemscore.CHOScore>
0.0000

> <Gold.PLP.Chemscore.Metal>
0.0000

> <Gold.Chemscore.Hbonds>
donor molecule, donor type, donor heavy atom, donor atom, acceptor molecule, acceptor atom, score
      P1  H  6896  6909       L1    11  0.69
      P1  H  6931  6943       L1    14  0.82

> <Gold.PLP.Chemscore.Internal.Correction>
0.1392

> <Gold.Rescore>
     Score         DG    S(hbond)    S(metal)    S(lipo)     H(rot)  DE(clash)    DE(int)     intcor
     14.88     -17.11       1.70        0.00     107.82       2.60       0.68       1.56       ----

> <Gold.Chemscore.Fitness>
14.8758

> <Gold.Chemscore.DG>
-17.1071

> <Gold.Chemscore.ZeroCoef>
-5.4800

> <Gold.Chemscore.Hbond>
1.6954

> <Gold.Chemscore.Metal>
0.0000

> <Gold.Chemscore.Lipo>
107.8177

> <Gold.Chemscore.Internal_Hbond>
0.0000

> <Gold.Chemscore.DEClash>
0.6757

> <Gold.Chemscore.DEInternal>
1.5556

> <Gold.Chemscore.Rot>
2.5978

> <Gold.Chemscore.Internal.Correction>
   9.000000E+99

> <Gold.Chemscore.Hbonds>
donor molecule, donor type, donor heavy atom, donor atom, acceptor molecule, acceptor atom, score
      P1  H  6896  6909       L1    11  0.55
      P1  H  6931  6943       L1    14  0.69

> <Gold.Chemscore.Hbond.Weighted>
-5.6628

> <Gold.Chemscore.Metal.Weighted>
-0.0000

> <Gold.Chemscore.Lipo.Weighted>
-12.6147

> <Gold.Chemscore.Internal_Hbond.Weighted>
0.0000

> <Gold.Chemscore.DEClash.Weighted>
0.6757

> <Gold.Chemscore.DEInternal.Weighted>
1.5556

> <Gold.Chemscore.Rot.Weighted>
6.6504

> <Gold.Chemscore.Internal.Correction.Weighted>
   9.000000E+99

> <Gold.Protein.RotatedTorsions>
[ 6907 6896 6895 6894 ] final  109.40 input  -60.11 | X-H torsion
[ 7974 7965 7964 7962 ] final   65.24 input  175.53 | X-H torsion
[ 8008 7997 7996 7995 ] final   82.72 input   59.86 | X-H torsion
[ 10167 10162 10161 10158 ] final    0.34 input  -65.29 | X-H torsion
[ 10718 10713 10712 10709 ] final  116.32 input   66.30 | X-H torsion
[ 10763 10752 10751 10750 ] final -139.98 input  -60.55 | X-H torsion
[ 11005 11000 10999 10996 ] final  155.42 input  -57.11 | X-H torsion

> <Gold.Protein.ActiveResidues>
 VAL166  LYS551  ARG553  GLY616  TRP617  ASP618  TYR619  PRO620  LYS621  CYS622 
 ASP623  PHE694  ASN695  SER759  ASP760  ASP761  ALA762  ILE779  LEU786  VAL792 
 PHE793  MET794  SER795  GLU796  ALA797  LYS798  CYS799  TRP800  GLU811  SER814 

> <Gold.Protein.RotatedAtoms>
  152.5069  133.8949  159.7412 H   0  0  0  0  0  0  0  0  0  0  0  0  # atno 6907 bound_to 6896
  150.9379  133.6682  159.2803 H   0  0  0  0  0  0  0  0  0  0  0  0  # atno 6908 bound_to 6896
  151.4003  135.0975  159.9606 H   0  0  0  0  0  0  0  0  0  0  0  0  # atno 6909 bound_to 6896
  145.8408  139.3194  143.0932 H   0  0  0  0  0  0  0  0  0  0  0  0  # atno 7974 bound_to 7965
  155.9143  140.3425  155.6123 H   0  0  0  0  0  0  0  0  0  0  0  0  # atno 8008 bound_to 7997
  155.7350  140.0800  157.2290 H   0  0  0  0  0  0  0  0  0  0  0  0  # atno 8009 bound_to 7997
  154.4060  140.1581  156.2539 H   0  0  0  0  0  0  0  0  0  0  0  0  # atno 8010 bound_to 7997
  140.6733  143.6988  150.7969 H   0  0  0  0  0  0  0  0  0  0  0  0  # atno 10167 bound_to 10162
  157.6167  131.1024  150.7456 H   0  0  0  0  0  0  0  0  0  0  0  0  # atno 10718 bound_to 10713
  154.8593  135.3566  154.5633 H   0  0  0  0  0  0  0  0  0  0  0  0  # atno 10763 bound_to 10752
  153.6248  135.7004  153.5302 H   0  0  0  0  0  0  0  0  0  0  0  0  # atno 10764 bound_to 10752
  153.3099  135.4182  155.1286 H   0  0  0  0  0  0  0  0  0  0  0  0  # atno 10765 bound_to 10752
  140.1580  134.8629  157.2538 H   0  0  0  0  0  0  0  0  0  0  0  0  # atno 11005 bound_to 11000
  145.9467  140.8939  143.0280 LP  0  0  0  0  0  0  0  0  0  0  0  0  # atno 17320 bound_to 7965
  144.6733  140.1623  143.7421 LP  0  0  0  0  0  0  0  0  0  0  0  0  # atno 17321 bound_to 7965
  140.0677  143.5092  152.2596 LP  0  0  0  0  0  0  0  0  0  0  0  0  # atno 17342 bound_to 10162
  139.6012  144.7583  151.3168 LP  0  0  0  0  0  0  0  0  0  0  0  0  # atno 17343 bound_to 10162
  156.7822  130.4863  149.5399 LP  0  0  0  0  0  0  0  0  0  0  0  0  # atno 17370 bound_to 10713
  156.1293  130.6166  151.0310 LP  0  0  0  0  0  0  0  0  0  0  0  0  # atno 17371 bound_to 10713
  140.2524  134.3667  155.7437 LP  0  0  0  0  0  0  0  0  0  0  0  0  # atno 17394 bound_to 11000
  141.2206  133.7324  156.8956 LP  0  0  0  0  0  0  0  0  0  0  0  0  # atno 17395 bound_to 11000

$$$$
