AV-unprocessed.smi:2044|AV-procd|sdf|8299|dock6
  -GOLD-   2272010563D 1   1.00000     0.00000
 Structure written by MMmdl.
 39 40  0  0  0  0  0  0  0  0  1 V2000
  144.0300  132.4345  149.7397 C   0  0  0  0  0  0  0  0  0  0  0  0
  145.0594  132.6914  150.7867 C   0  0  0  0  0  0  0  0  0  0  0  0
  145.8256  133.7817  151.0902 C   0  0  0  0  0  0  0  0  0  0  0  0
  146.5890  133.3367  152.2024 C   0  0  0  0  0  0  0  0  0  0  0  0
  147.5304  134.1926  152.8298 N   0  0  0  0  0  0  0  0  0  0  0  0
  147.8616  134.2311  154.1320 C   0  0  0  0  0  0  0  0  0  0  0  0
  147.3872  133.5061  155.0072 O   0  0  0  0  0  0  0  0  0  0  0  0
  148.7892  135.1695  154.3718 N   0  0  0  0  0  0  0  0  0  0  0  0
  149.3657  135.4630  155.6814 C   0  0  0  0  0  0  0  0  0  0  0  0
  149.2235  136.9551  156.1018 C   0  0  1  0  0  0  0  0  0  0  0  0
  148.6711  137.0159  157.5487 C   0  0  0  0  0  0  0  0  0  0  0  0
  150.4727  137.7345  155.9328 N   0  0  0  0  0  0  0  0  0  0  0  0
  150.2767  139.1680  156.1796 C   0  0  0  0  0  0  0  0  0  0  0  0
  151.5588  139.9938  155.9745 C   0  0  0  0  0  0  0  0  0  0  0  0
  152.0552  139.7891  154.6594 O   0  0  0  0  0  0  0  0  0  0  0  0
  152.3351  138.4203  154.4030 C   0  0  0  0  0  0  0  0  0  0  0  0
  151.0585  137.5835  154.5955 C   0  0  0  0  0  0  0  0  0  0  0  0
  146.3127  132.0884  152.5471 N   0  0  0  0  0  0  0  0  0  0  0  0
  145.3307  131.6688  151.6421 O   0  0  0  0  0  0  0  0  0  0  0  0
  144.1142  133.1549  148.9258 H   0  0  0  0  0  0  0  0  0  0  0  0
  143.0264  132.5126  150.1581 H   0  0  0  0  0  0  0  0  0  0  0  0
  144.1446  131.4354  149.3187 H   0  0  0  0  0  0  0  0  0  0  0  0
  145.8359  134.7408  150.5939 H   0  0  0  0  0  0  0  0  0  0  0  0
  148.0006  134.8464  152.2219 H   0  0  0  0  0  0  0  0  0  0  0  0
  149.1253  135.7186  153.5943 H   0  0  0  0  0  0  0  0  0  0  0  0
  148.8783  134.8231  156.4173 H   0  0  0  0  0  0  0  0  0  0  0  0
  150.4067  135.1457  155.6413 H   0  0  0  0  0  0  0  0  0  0  0  0
  148.4653  137.3995  155.4549 H   0  0  0  0  0  0  0  0  0  0  0  0
  147.7835  136.3986  157.6818 H   0  0  0  0  0  0  0  0  0  0  0  0
  148.3600  138.0211  157.8300 H   0  0  0  0  0  0  0  0  0  0  0  0
  149.4163  136.6784  158.2700 H   0  0  0  0  0  0  0  0  0  0  0  0
  149.4919  139.5512  155.5255 H   0  0  0  0  0  0  0  0  0  0  0  0
  149.9483  139.3400  157.2031 H   0  0  0  0  0  0  0  0  0  0  0  0
  151.3513  141.0548  156.1134 H   0  0  0  0  0  0  0  0  0  0  0  0
  152.3187  139.7172  156.7071 H   0  0  0  0  0  0  0  0  0  0  0  0
  152.7030  138.3183  153.3820 H   0  0  0  0  0  0  0  0  0  0  0  0
  153.1292  138.0719  155.0655 H   0  0  0  0  0  0  0  0  0  0  0  0
  151.3321  136.5474  154.4080 H   0  0  0  0  0  0  0  0  0  0  0  0
  150.3254  137.8617  153.8368 H   0  0  0  0  0  0  0  0  0  0  0  0
  1  2  1  0  0  0  0
  1 20  1  0  0  0  0
  1 21  1  0  0  0  0
  1 22  1  0  0  0  0
  2 19  1  0  0  0  0
  2  3  2  0  0  0  0
  3  4  1  0  0  0  0
  3 23  1  0  0  0  0
  4  5  1  0  0  0  0
  4 18  2  0  0  0  0
  5  6  1  0  0  0  0
  5 24  1  0  0  0  0
  6  7  2  0  0  0  0
  6  8  1  0  0  0  0
  8  9  1  0  0  0  0
  8 25  1  0  0  0  0
  9 10  1  0  0  0  0
  9 26  1  0  0  0  0
  9 27  1  0  0  0  0
 10 11  1  0  0  0  0
 10 12  1  0  0  0  0
 10 28  1  0  0  0  0
 11 29  1  0  0  0  0
 11 30  1  0  0  0  0
 11 31  1  0  0  0  0
 12 17  1  0  0  0  0
 12 13  1  0  0  0  0
 13 14  1  0  0  0  0
 13 32  1  0  0  0  0
 13 33  1  0  0  0  0
 14 15  1  0  0  0  0
 14 34  1  0  0  0  0
 14 35  1  0  0  0  0
 15 16  1  0  0  0  0
 16 17  1  0  0  0  0
 16 36  1  0  0  0  0
 16 37  1  0  0  0  0
 17 38  1  0  0  0  0
 17 39  1  0  0  0  0
 18 19  1  0  0  0  0
M  END
> <s_m_source_file>
AV-unprocessed.smi

> <i_m_source_file_index>
2044

> <i_lp_mmshare_version>
43012

> <i_f3d_flags>
0

> <s_epik_input>
W0NIM11jMVtjSF1jKG5vMSlbTkhdQyg9TylbTkhdW0NIMl1bQ0BIXShbQ0gzXSlOMltDSDJdW0NIMl1PW0NIMl1bQ0gyXTI=

> <s_epik_cmdline>
J2VwaWtfcHl0aG9uJywgJy1waCcsICc3LjAnLCAnLXRuJywgJzgnLCAnLW1hJywgJzIwMCcsICctbWV0YWxfYmluZGluZycsICctaW1hZScsICc8aW5maWxlLm1hZT4nLCAnLW9tYWUnLCAnPG91dGZpbGUubWFlPic=

> <r_epik_Ionization_Penalty>
0.214073

> <r_epik_Ionization_Penalty_Charging>
0

> <r_epik_Ionization_Penalty_Neutral>
0.214073

> <r_epik_State_Penalty>
0.204211

> <r_epik_Charging_Adjusted_Penalty>
0.204211

> <i_epik_Tot_Q>
0

> <i_epik_Tot_abs_Q>
0

> <r_epik_Metal_State_Penalty>
0.217151

> <b_epik_Metal_Only>
0

> <s_lp_Force_Field>
OPLS_2005

> <r_lp_Energy>
26.3951

> <b_lp_Chiralities_Consistent>
1

> <s_lp_Variant>
AV-unprocessed.smi:2044-2

> <Gold.Version>
5.8.1

> <Gold.Id.Protein>
6NUR|6NUR_protein|mol2

> <Gold.PLP.Fitness>
33.9940

> <Gold.PLP.PLP>
-27.1782

> <Gold.PLP.part.hbond>
-3.0000

> <Gold.PLP.part.metal>
0.0000

> <Gold.PLP.part.buried>
-4.5683

> <Gold.PLP.part.nonpolar>
-19.0674

> <Gold.PLP.part.repulsive>
0.3766

> <Gold.PLP.ligand.clash>
0.0000

> <Gold.PLP.ligand.torsion>
0.9191

> <Gold.PLP.Chemscore.Hbond>
2.8720

> <Gold.PLP.Chemscore.CHOScore>
0.0000

> <Gold.PLP.Chemscore.Metal>
0.0000

> <Gold.Chemscore.Hbonds>
donor molecule, donor type, donor heavy atom, donor atom, acceptor molecule, acceptor atom, score
      L1  H     5    24       P1  7948  1.00
      L1  H     8    25       P1  7948  0.99
      P1  H  7989  7998       L1    15  0.85

> <Gold.PLP.Chemscore.Internal.Correction>
0.0380

> <Gold.Rescore>
     Score         DG    S(hbond)    S(metal)    S(lipo)     H(rot)  DE(clash)    DE(int)     intcor
     16.12     -17.25       2.76        0.00      56.25       1.58       0.05       1.08       ----

> <Gold.Chemscore.Fitness>
16.1170

> <Gold.Chemscore.DG>
-17.2500

> <Gold.Chemscore.ZeroCoef>
-5.4800

> <Gold.Chemscore.Hbond>
2.7608

> <Gold.Chemscore.Metal>
0.0000

> <Gold.Chemscore.Lipo>
56.2532

> <Gold.Chemscore.Internal_Hbond>
0.0000

> <Gold.Chemscore.DEClash>
0.0515

> <Gold.Chemscore.DEInternal>
1.0815

> <Gold.Chemscore.Rot>
1.5753

> <Gold.Chemscore.Internal.Correction>
   9.000000E+99

> <Gold.Chemscore.Hbonds>
donor molecule, donor type, donor heavy atom, donor atom, acceptor molecule, acceptor atom, score
      L1  H     5    24       P1  7948  0.55
      L1  H     8    25       P1  7948  0.70
      P1  H  7989  7998       L1    15  0.79

> <Gold.Chemscore.Hbond.Weighted>
-9.2212

> <Gold.Chemscore.Metal.Weighted>
-0.0000

> <Gold.Chemscore.Lipo.Weighted>
-6.5816

> <Gold.Chemscore.Internal_Hbond.Weighted>
0.0000

> <Gold.Chemscore.DEClash.Weighted>
0.0515

> <Gold.Chemscore.DEInternal.Weighted>
1.0815

> <Gold.Chemscore.Rot.Weighted>
4.0329

> <Gold.Chemscore.Internal.Correction.Weighted>
   9.000000E+99

> <Gold.Protein.RotatedTorsions>
[ 6907 6896 6895 6894 ] final -133.64 input  -60.11 | X-H torsion
[ 7974 7965 7964 7962 ] final   -0.70 input  175.53 | X-H torsion
[ 8008 7997 7996 7995 ] final  -58.03 input   59.86 | X-H torsion
[ 10167 10162 10161 10158 ] final  -16.79 input  -65.29 | X-H torsion
[ 10718 10713 10712 10709 ] final  158.32 input   66.30 | X-H torsion
[ 10763 10752 10751 10750 ] final   96.07 input  -60.55 | X-H torsion
[ 11005 11000 10999 10996 ] final -134.41 input  -57.11 | X-H torsion

> <Gold.Protein.ActiveResidues>
 VAL166  LYS551  ARG553  GLY616  TRP617  ASP618  TYR619  PRO620  LYS621  CYS622 
 ASP623  PHE694  ASN695  SER759  ASP760  ASP761  ALA762  ILE779  LEU786  VAL792 
 PHE793  MET794  SER795  GLU796  ALA797  LYS798  CYS799  TRP800  GLU811  SER814 

> <Gold.Protein.RotatedAtoms>
  150.9764  133.6290  159.2729 H   0  0  0  0  0  0  0  0  0  0  0  0  # atno 6907 bound_to 6896
  151.3560  135.0893  159.9428 H   0  0  0  0  0  0  0  0  0  0  0  0  # atno 6908 bound_to 6896
  152.5201  133.9347  159.7652 H   0  0  0  0  0  0  0  0  0  0  0  0  # atno 6909 bound_to 6896
  146.2425  140.1309  142.8338 H   0  0  0  0  0  0  0  0  0  0  0  0  # atno 7974 bound_to 7965
  154.4292  140.1093  156.5891 H   0  0  0  0  0  0  0  0  0  0  0  0  # atno 8008 bound_to 7997
  155.6031  140.3493  155.4581 H   0  0  0  0  0  0  0  0  0  0  0  0  # atno 8009 bound_to 7997
  156.0158  140.1229  157.0397 H   0  0  0  0  0  0  0  0  0  0  0  0  # atno 8010 bound_to 7997
  140.7238  143.5081  150.9785 H   0  0  0  0  0  0  0  0  0  0  0  0  # atno 10167 bound_to 10162
  157.1795  131.0629  151.2139 H   0  0  0  0  0  0  0  0  0  0  0  0  # atno 10718 bound_to 10713
  153.2606  135.4231  155.0890 H   0  0  0  0  0  0  0  0  0  0  0  0  # atno 10763 bound_to 10752
  154.8418  135.3448  154.6383 H   0  0  0  0  0  0  0  0  0  0  0  0  # atno 10764 bound_to 10752
  153.6803  135.7039  153.5177 H   0  0  0  0  0  0  0  0  0  0  0  0  # atno 10765 bound_to 10752
  140.8993  134.1711  157.4472 H   0  0  0  0  0  0  0  0  0  0  0  0  # atno 11005 bound_to 11000
  145.0327  140.8883  143.5100 LP  0  0  0  0  0  0  0  0  0  0  0  0  # atno 17320 bound_to 7965
  145.1376  139.2592  143.5507 LP  0  0  0  0  0  0  0  0  0  0  0  0  # atno 17321 bound_to 7965
  139.8793  143.7092  152.3158 LP  0  0  0  0  0  0  0  0  0  0  0  0  # atno 17342 bound_to 10162
  139.7369  144.7569  151.0714 LP  0  0  0  0  0  0  0  0  0  0  0  0  # atno 17343 bound_to 10162
  157.3966  130.7311  149.6736 LP  0  0  0  0  0  0  0  0  0  0  0  0  # atno 17370 bound_to 10713
  155.9726  130.4132  150.4070 LP  0  0  0  0  0  0  0  0  0  0  0  0  # atno 17371 bound_to 10713
  139.8740  134.9891  156.5443 LP  0  0  0  0  0  0  0  0  0  0  0  0  # atno 17394 bound_to 11000
  140.8250  133.8324  155.8931 LP  0  0  0  0  0  0  0  0  0  0  0  0  # atno 17395 bound_to 11000

$$$$
