#       Name:                AV-unprocessed.smi:3058
#       Creating user name   scv26
#       Creation time:       Fri Mar 27 17:08:10 2020


#       File generated by GOLD software.
#

@<TRIPOS>MOLECULE
AV-unprocessed.smi:3058
    41    43     1
SMALL
NO_CHARGES


@<TRIPOS>ATOM
      1 ****         1.0677   0.8810  -0.8701 O.2            1 S1                 0.0000
      2 ****         0.5602  -0.2344  -0.9918 C.2            1 S1                 0.0000
      3 ****         1.2764  -1.3701  -0.9608 N.am           1 S1                 0.0000
      4 ****         2.7170  -1.4593  -0.7300 C.3            1 S1                 0.0000
      5 ****         3.0576  -1.7380   0.7480 C.3            1 S1                 0.0000
      6 ****         2.4754  -0.7174   1.7116 C.ar           1 S1                 0.0000
      7 ****         1.3346  -1.0256   2.4863 C.ar           1 S1                 0.0000
      8 ****         0.7934  -0.0441   3.3419 C.ar           1 S1                 0.0000
      9 ****         1.4067   1.2237   3.4063 C.ar           1 S1                 0.0000
     10 ****         2.4992   1.4811   2.6542 N.pl3          1 S1                 1.0000
     11 ****         3.0482   0.5681   1.8232 C.ar           1 S1                 0.0000
     12 ****        -0.9610  -0.3954  -1.1536 C.3            1 S1                 0.0000
     13 ****        -1.7583   0.1590   0.0536 C.3            1 S1                 0.0000
     14 ****        -2.7376   1.1555  -0.5975 C.3            1 S1                 0.0000
     15 ****        -3.7800   0.3819  -1.4276 C.3            1 S1                 0.0000
     16 ****        -2.9606  -0.0955  -2.6427 C.3            1 S1                 0.0000
     17 ****        -1.5484   0.4330  -2.3247 C.3            1 S1                 0.0000
     18 ****        -1.8767   1.7824  -1.6853 C.3            1 S1                 0.0000
     19 ****         0.7809  -2.2426  -1.0767 H              1 S1                 0.0000
     20 ****         3.1132  -2.2618  -1.3524 H              1 S1                 0.0000
     21 ****         3.2146  -0.5470  -1.0635 H              1 S1                 0.0000
     22 ****         2.7015  -2.7316   1.0235 H              1 S1                 0.0000
     23 ****         4.1405  -1.7603   0.8749 H              1 S1                 0.0000
     24 ****         0.8694  -1.9981   2.4168 H              1 S1                 0.0000
     25 ****        -0.0827  -0.2592   3.9361 H              1 S1                 0.0000
     26 ****         1.0582   2.0337   4.0305 H              1 S1                 0.0000
     27 ****         3.9126   0.8968   1.2648 H              1 S1                 0.0000
     28 ****        -1.1852  -1.4539  -1.2982 H              1 S1                 0.0000
     29 ****        -2.2806  -0.6302   0.5957 H              1 S1                 0.0000
     30 ****        -1.1178   0.6743   0.7718 H              1 S1                 0.0000
     31 ****        -3.1767   1.8622   0.1074 H              1 S1                 0.0000
     32 ****        -4.2197  -0.4459  -0.8696 H              1 S1                 0.0000
     33 ****        -4.5902   1.0387  -1.7466 H              1 S1                 0.0000
     34 ****        -2.9866  -1.1788  -2.7661 H              1 S1                 0.0000
     35 ****        -3.3429   0.3525  -3.5608 H              1 S1                 0.0000
     36 ****        -0.9006   0.4905  -3.2005 H              1 S1                 0.0000
     37 ****        -2.4343   2.4489  -2.3461 H              1 S1                 0.0000
     38 ****        -1.0118   2.3197  -1.2961 H              1 S1                 0.0000
     39 ****         2.9251   2.4065   2.7123 H              1 S1                 0.0000
     40 ****         2.0554   0.9696  -0.7413 LP             1 S1                 0.0000
     41 ****         0.4921   1.6982  -0.8999 LP             1 S1                 0.0000
@<TRIPOS>BOND
    1    1    2 2     
    2    2    3 am    
    3    2   12 1     
    4    3    4 1     
    5    3   19 1     
    6    4    5 1     
    7    4   20 1     
    8    4   21 1     
    9    5    6 1     
   10    5   22 1     
   11    5   23 1     
   12    6   11 ar    
   13    6    7 ar    
   14    7    8 ar    
   15    7   24 1     
   16    8    9 ar    
   17    8   25 1     
   18    9   10 ar    
   19    9   26 1     
   20   10   11 ar    
   21   10   39 1     
   22   11   27 1     
   23   12   17 1     
   24   12   13 1     
   25   12   28 1     
   26   13   14 1     
   27   13   29 1     
   28   13   30 1     
   29   14   18 1     
   30   14   15 1     
   31   14   31 1     
   32   15   16 1     
   33   15   32 1     
   34   15   33 1     
   35   16   17 1     
   36   16   34 1     
   37   16   35 1     
   38   17   18 1     
   39   17   36 1     
   40   18   37 1     
   41   18   38 1     
   42    1   40 1     
   43    1   41 1     
@<TRIPOS>SUBSTRUCTURE
      1 S1             1
@<TRIPOS>SET
LONE_PAIRS      STATIC     ATOMS    <user>   **** ""
2 40 41
DONOR_HYDROGENS      STATIC     ATOMS    <user>   **** ""
2 19 39
ATOM$BLUE        STATIC     ATOMS    COLORGROUP SYSTEM
2 40 41
ATOM$RED        STATIC     ATOMS    COLORGROUP SYSTEM
2 19 39
