#       Name:                AV-unprocessed.smi:880
#       Creating user name   scv26
#       Creation time:       Fri Mar 27 01:52:50 2020


#       File generated by GOLD software.
#

@<TRIPOS>MOLECULE
AV-unprocessed.smi:880
    35    36     1
SMALL
NO_CHARGES


@<TRIPOS>ATOM
      1 ****        -3.7288  -1.6733   1.2789 C.3            1 S1                 0.0000
      2 ****        -2.7029  -0.5662   0.9897 C.3            1 S1                 0.0000
      3 ****        -2.9834   0.1162  -0.3572 C.3            1 S1                 0.0000
      4 ****        -1.2853  -1.0803   1.0420 C.2            1 S1                 0.0000
      5 ****        -0.7968  -2.3936   0.7768 C.2            1 S1                 0.0000
      6 ****         0.5532  -2.2884   0.9495 C.2            1 S1                 0.0000
      7 ****         0.8203  -0.9811   1.2938 N.pl3          1 S1                 0.0000
      8 ****         2.1066  -0.3627   1.5633 C.3            1 S1                 0.0000
      9 ****         2.7914   0.0840   0.2699 C.2            1 S1                 0.0000
     10 ****         3.8489  -0.4409  -0.0780 O.2            1 S1                 0.0000
     11 ****         2.1793   1.0546  -0.4252 N.am           1 S1                 0.0000
     12 ****         2.6325   1.6071  -1.6596 C.3            1 S1                 0.0000
     13 ****         2.3764   3.0781  -1.9057 C.3            1 S1                 0.0000
     14 ****         1.5820   2.0459  -2.6571 C.3            1 S1                 0.0000
     15 ****        -0.3076  -0.2406   1.3514 N.2            1 S1                 0.0000
     16 ****        -3.5478  -2.1318   2.2515 H              1 S1                 0.0000
     17 ****        -3.6936  -2.4604   0.5250 H              1 S1                 0.0000
     18 ****        -4.7427  -1.2727   1.2890 H              1 S1                 0.0000
     19 ****        -2.8253   0.1893   1.7674 H              1 S1                 0.0000
     20 ****        -2.2966   0.9456  -0.5294 H              1 S1                 0.0000
     21 ****        -3.9971   0.5164  -0.3920 H              1 S1                 0.0000
     22 ****        -2.8731  -0.5838  -1.1860 H              1 S1                 0.0000
     23 ****        -1.3508  -3.2773   0.4967 H              1 S1                 0.0000
     24 ****         1.3378  -3.0242   0.8513 H              1 S1                 0.0000
     25 ****         1.9692   0.4935   2.2258 H              1 S1                 0.0000
     26 ****         2.7355  -1.0805   2.0916 H              1 S1                 0.0000
     27 ****         1.3127   1.4189  -0.0559 H              1 S1                 0.0000
     28 ****         3.5523   1.2038  -2.0809 H              1 S1                 0.0000
     29 ****         1.8608   3.6421  -1.1306 H              1 S1                 0.0000
     30 ****         3.1311   3.6324  -2.4597 H              1 S1                 0.0000
     31 ****         1.8057   1.9117  -3.7137 H              1 S1                 0.0000
     32 ****         0.5362   1.9191  -2.3836 H              1 S1                 0.0000
     33 ****         4.2597  -1.1585   0.4844 LP             1 S1                 0.0000
     34 ****         4.2973  -0.1498  -0.9230 LP             1 S1                 0.0000
     35 ****        -0.3877   0.7300   1.5782 LP             1 S1                 0.0000
@<TRIPOS>BOND
    1    1    2 1     
    2    1   16 1     
    3    1   17 1     
    4    1   18 1     
    5    2    3 1     
    6    2    4 1     
    7    2   19 1     
    8    3   20 1     
    9    3   21 1     
   10    3   22 1     
   11    4   15 2     
   12    4    5 1     
   13    5    6 2     
   14    5   23 1     
   15    6    7 1     
   16    6   24 1     
   17    7    8 1     
   18    7   15 1     
   19    8    9 1     
   20    8   25 1     
   21    8   26 1     
   22    9   10 2     
   23    9   11 am    
   24   11   12 1     
   25   11   27 1     
   26   12   14 1     
   27   12   13 1     
   28   12   28 1     
   29   13   14 1     
   30   13   29 1     
   31   13   30 1     
   32   14   31 1     
   33   14   32 1     
   34   10   33 1     
   35   10   34 1     
   36   15   35 1     
@<TRIPOS>SUBSTRUCTURE
      1 S1             1
@<TRIPOS>SET
LONE_PAIRS      STATIC     ATOMS    <user>   **** ""
3 33 34 35
DONOR_HYDROGENS      STATIC     ATOMS    <user>   **** ""
1 27
ATOM$BLUE        STATIC     ATOMS    COLORGROUP SYSTEM
3 33 34 35
ATOM$RED        STATIC     ATOMS    COLORGROUP SYSTEM
1 27
