AV-unprocessed.smi:1223|AV-procd|sdf|5126|dock3
  -GOLD-   22720 4183D 1   1.00000     0.00000
 Structure written by MMmdl.
 33 34  0  0  0  0  0  0  0  0  1 V2000
  150.1969  140.0725  157.1710 O   0  0  0  0  0  0  0  0  0  0  0  0
  150.3876  140.8228  156.2144 C   0  0  0  0  0  0  0  0  0  0  0  0
  150.0641  140.3496  154.7950 C   0  0  0  0  0  0  0  0  0  0  0  0
  148.7445  140.7841  154.3685 N   0  0  0  0  0  0  0  0  0  0  0  0
  148.2680  142.0719  154.2339 C   0  0  0  0  0  0  0  0  0  0  0  0
  146.9704  141.9846  153.8184 C   0  0  0  0  0  0  0  0  0  0  0  0
  146.7402  140.5837  153.7223 C   0  0  0  0  0  0  0  0  0  0  0  0
  147.8033  139.8679  154.0513 N   0  0  0  0  0  0  0  0  0  0  0  0
  150.8880  142.0638  156.3378 N   0  0  0  0  0  0  0  0  0  0  0  0
  151.2744  142.7058  157.5942 C   0  0  2  0  0  0  0  0  0  0  0  0
  152.0021  144.0289  157.2488 C   0  0  0  0  0  0  0  0  0  0  0  0
  152.8197  144.6781  158.3877 C   0  0  0  0  0  0  0  0  0  0  0  0
  152.1254  144.6887  159.7649 C   0  0  0  0  0  0  0  0  0  0  0  0
  151.7991  143.3075  160.3918 C   0  0  0  0  0  0  0  0  0  0  0  0
  152.4104  142.1611  159.7182 N   0  0  0  0  0  0  0  0  0  0  0  0
  152.2037  141.8066  158.4387 C   0  0  0  0  0  0  0  0  0  0  0  0
  152.7551  140.8217  157.9486 O   0  0  0  0  0  0  0  0  0  0  0  0
  150.8085  140.7433  154.1019 H   0  0  0  0  0  0  0  0  0  0  0  0
  150.1169  139.2611  154.7390 H   0  0  0  0  0  0  0  0  0  0  0  0
  148.8845  142.9331  154.4458 H   0  0  0  0  0  0  0  0  0  0  0  0
  146.2894  142.7972  153.6143 H   0  0  0  0  0  0  0  0  0  0  0  0
  145.8383  140.0691  153.4255 H   0  0  0  0  0  0  0  0  0  0  0  0
  151.0181  142.6047  155.4957 H   0  0  0  0  0  0  0  0  0  0  0  0
  150.3683  142.9274  158.1604 H   0  0  0  0  0  0  0  0  0  0  0  0
  152.6724  143.8760  156.4014 H   0  0  0  0  0  0  0  0  0  0  0  0
  151.2548  144.7449  156.9043 H   0  0  0  0  0  0  0  0  0  0  0  0
  153.7857  144.1791  158.4769 H   0  0  0  0  0  0  0  0  0  0  0  0
  153.0582  145.7031  158.1020 H   0  0  0  0  0  0  0  0  0  0  0  0
  152.7700  145.2321  160.4564 H   0  0  0  0  0  0  0  0  0  0  0  0
  151.2095  145.2773  159.7030 H   0  0  0  0  0  0  0  0  0  0  0  0
  152.1209  143.2969  161.4333 H   0  0  0  0  0  0  0  0  0  0  0  0
  150.7191  143.1583  160.4224 H   0  0  0  0  0  0  0  0  0  0  0  0
  153.0281  141.5842  160.2708 H   0  0  0  0  0  0  0  0  0  0  0  0
  1  2  2  0  0  0  0
  2  3  1  0  0  0  0
  2  9  1  0  0  0  0
  3  4  1  0  0  0  0
  3 18  1  0  0  0  0
  3 19  1  0  0  0  0
  4  8  1  0  0  0  0
  4  5  1  0  0  0  0
  5  6  2  0  0  0  0
  5 20  1  0  0  0  0
  6  7  1  0  0  0  0
  6 21  1  0  0  0  0
  7  8  2  0  0  0  0
  7 22  1  0  0  0  0
  9 10  1  0  0  0  0
  9 23  1  0  0  0  0
 10 16  1  0  0  0  0
 10 11  1  0  0  0  0
 10 24  1  0  0  0  0
 11 12  1  0  0  0  0
 11 25  1  0  0  0  0
 11 26  1  0  0  0  0
 12 13  1  0  0  0  0
 12 27  1  0  0  0  0
 12 28  1  0  0  0  0
 13 14  1  0  0  0  0
 13 29  1  0  0  0  0
 13 30  1  0  0  0  0
 14 15  1  0  0  0  0
 14 31  1  0  0  0  0
 14 32  1  0  0  0  0
 15 16  1  0  0  0  0
 15 33  1  0  0  0  0
 16 17  2  0  0  0  0
M  END
> <s_m_source_file>
AV-unprocessed.smi

> <i_m_source_file_index>
1223

> <i_lp_mmshare_version>
43012

> <i_f3d_flags>
0

> <s_epik_input>
bjFbY0hdW2NIXVtjSF1uMVtDSDJdQyg9TylbTkhdW0NAQEhdMltDSDJdW0NIMl1bQ0gyXVtDSDJdW05IXUMyPU8=

> <s_epik_cmdline>
J2VwaWtfcHl0aG9uJywgJy1waCcsICc3LjAnLCAnLXRuJywgJzgnLCAnLW1hJywgJzIwMCcsICctbWV0YWxfYmluZGluZycsICctaW1hZScsICc8aW5maWxlLm1hZT4nLCAnLW9tYWUnLCAnPG91dGZpbGUubWFlPic=

> <r_lp_tautomer_probability>
1

> <r_epik_Ionization_Penalty>
1.16214e-05

> <r_epik_Ionization_Penalty_Charging>
0

> <r_epik_Ionization_Penalty_Neutral>
1.16214e-05

> <r_epik_State_Penalty>
-0

> <r_epik_Charging_Adjusted_Penalty>
0

> <i_epik_Tot_Q>
0

> <i_epik_Tot_abs_Q>
0

> <r_epik_Metal_State_Penalty>
-0

> <b_epik_Metal_Only>
0

> <s_lp_Force_Field>
OPLS_2005

> <r_lp_Energy>
15.4059

> <b_lp_Chiralities_Consistent>
1

> <s_lp_Variant>
AV-unprocessed.smi:1223-1

> <Gold.Version>
5.8.1

> <Gold.Id.Protein>
6NUR|6NUR_protein|mol2

> <Gold.PLP.Fitness>
40.2609

> <Gold.PLP.PLP>
-33.6318

> <Gold.PLP.part.hbond>
-1.0000

> <Gold.PLP.part.metal>
0.0000

> <Gold.PLP.part.buried>
0.1374

> <Gold.PLP.part.nonpolar>
-31.2843

> <Gold.PLP.part.repulsive>
0.3311

> <Gold.PLP.ligand.clash>
0.0000

> <Gold.PLP.ligand.torsion>
0.4245

> <Gold.PLP.Chemscore.Hbond>
0.4919

> <Gold.PLP.Chemscore.CHOScore>
2.0000

> <Gold.PLP.Chemscore.Metal>
0.0000

> <Gold.Chemscore.Hbonds>
donor molecule, donor type, donor heavy atom, donor atom, acceptor molecule, acceptor atom, score
      P1  H  7997  8009       L1    17  0.47
      L1  C     5    20       P1  8028  1.00
      L1  C     7    22       P1 10175  1.00

> <Gold.PLP.Chemscore.Internal.Correction>
0.0024

> <Gold.Rescore>
     Score         DG    S(hbond)    S(metal)    S(lipo)     H(rot)  DE(clash)    DE(int)     intcor
     12.01     -12.94       0.32        0.00      89.22       1.58       0.54       0.39       ----

> <Gold.Chemscore.Fitness>
12.0065

> <Gold.Chemscore.DG>
-12.9419

> <Gold.Chemscore.ZeroCoef>
-5.4800

> <Gold.Chemscore.Hbond>
0.3192

> <Gold.Chemscore.Metal>
0.0000

> <Gold.Chemscore.Lipo>
89.2193

> <Gold.Chemscore.Internal_Hbond>
0.0000

> <Gold.Chemscore.DEClash>
0.5426

> <Gold.Chemscore.DEInternal>
0.3927

> <Gold.Chemscore.Rot>
1.5792

> <Gold.Chemscore.Internal.Correction>
   9.000000E+99

> <Gold.Chemscore.Hbonds>
donor molecule, donor type, donor heavy atom, donor atom, acceptor molecule, acceptor atom, score
      P1  H  7997  8009       L1    17  0.47

> <Gold.Chemscore.Hbond.Weighted>
-1.0660

> <Gold.Chemscore.Metal.Weighted>
-0.0000

> <Gold.Chemscore.Lipo.Weighted>
-10.4387

> <Gold.Chemscore.Internal_Hbond.Weighted>
0.0000

> <Gold.Chemscore.DEClash.Weighted>
0.5426

> <Gold.Chemscore.DEInternal.Weighted>
0.3927

> <Gold.Chemscore.Rot.Weighted>
4.0428

> <Gold.Chemscore.Internal.Correction.Weighted>
   9.000000E+99

> <Gold.Protein.RotatedTorsions>
[ 6907 6896 6895 6894 ] final    5.18 input  -60.11 | X-H torsion
[ 7974 7965 7964 7962 ] final  111.45 input  175.53 | X-H torsion
[ 8008 7997 7996 7995 ] final  166.95 input   59.86 | X-H torsion
[ 10167 10162 10161 10158 ] final   45.15 input  -65.29 | X-H torsion
[ 10718 10713 10712 10709 ] final  -57.77 input   66.30 | X-H torsion
[ 10763 10752 10751 10750 ] final  -79.79 input  -60.55 | X-H torsion
[ 11005 11000 10999 10996 ] final   56.64 input  -57.11 | X-H torsion

> <Gold.Protein.ActiveResidues>
 VAL166  LYS551  ARG553  GLY616  TRP617  ASP618  TYR619  PRO620  LYS621  CYS622 
 ASP623  PHE694  ASN695  SER759  ASP760  ASP761  ALA762  ILE779  LEU786  VAL792 
 PHE793  MET794  SER795  GLU796  ALA797  LYS798  CYS799  TRP800  GLU811  SER814 

> <Gold.Protein.RotatedAtoms>
  151.6533  135.0999  160.0164 H   0  0  0  0  0  0  0  0  0  0  0  0  # atno 6907 bound_to 6896
  152.3988  133.6783  159.6307 H   0  0  0  0  0  0  0  0  0  0  0  0  # atno 6908 bound_to 6896
  150.7891  133.8744  159.3309 H   0  0  0  0  0  0  0  0  0  0  0  0  # atno 6909 bound_to 6896
  145.2420  139.2774  143.4112 H   0  0  0  0  0  0  0  0  0  0  0  0  # atno 7974 bound_to 7965
  156.1675  140.1629  156.8506 H   0  0  0  0  0  0  0  0  0  0  0  0  # atno 8008 bound_to 7997
  154.5222  140.0775  156.8228 H   0  0  0  0  0  0  0  0  0  0  0  0  # atno 8009 bound_to 7997
  155.3582  140.3394  155.4242 H   0  0  0  0  0  0  0  0  0  0  0  0  # atno 8010 bound_to 7997
  140.3271  144.2634  150.6173 H   0  0  0  0  0  0  0  0  0  0  0  0  # atno 10167 bound_to 10162
  156.1185  130.4168  150.0486 H   0  0  0  0  0  0  0  0  0  0  0  0  # atno 10718 bound_to 10713
  154.5431  135.5683  153.6857 H   0  0  0  0  0  0  0  0  0  0  0  0  # atno 10763 bound_to 10752
  152.9969  135.6232  154.2475 H   0  0  0  0  0  0  0  0  0  0  0  0  # atno 10764 bound_to 10752
  154.2407  135.2862  155.2835 H   0  0  0  0  0  0  0  0  0  0  0  0  # atno 10765 bound_to 10752
  140.0513  134.5733  155.9260 H   0  0  0  0  0  0  0  0  0  0  0  0  # atno 11005 bound_to 11000
  146.3326  140.2787  142.8609 LP  0  0  0  0  0  0  0  0  0  0  0  0  # atno 17320 bound_to 7965
  144.9580  140.8246  143.5531 LP  0  0  0  0  0  0  0  0  0  0  0  0  # atno 17321 bound_to 7965
  140.5431  143.2220  151.8052 LP  0  0  0  0  0  0  0  0  0  0  0  0  # atno 17342 bound_to 10162
  139.4863  144.4575  151.9581 LP  0  0  0  0  0  0  0  0  0  0  0  0  # atno 17343 bound_to 10162
  156.8431  130.9432  151.3630 LP  0  0  0  0  0  0  0  0  0  0  0  0  # atno 17370 bound_to 10713
  157.6369  130.8773  149.9375 LP  0  0  0  0  0  0  0  0  0  0  0  0  # atno 17371 bound_to 10713
  141.1931  133.6578  156.5535 LP  0  0  0  0  0  0  0  0  0  0  0  0  # atno 17394 bound_to 11000
  140.3913  134.7438  157.4723 LP  0  0  0  0  0  0  0  0  0  0  0  0  # atno 17395 bound_to 11000

$$$$
