AV-unprocessed.smi:2229|AV-procd|sdf|9030|dock2
  -GOLD-   2272012233D 1   1.00000     0.00000
 Structure written by MMmdl.
 44 45  0  0  0  0  0  0  0  0  1 V2000
  155.0751  140.2006  161.9397 C   0  0  0  0  0  0  0  0  0  0  0  0
  154.0500  139.8477  160.8486 C   0  0  0  0  0  0  0  0  0  0  0  0
  154.6230  138.7777  159.9064 C   0  0  0  0  0  0  0  0  0  0  0  0
  153.5839  141.0833  160.0509 C   0  0  0  0  0  0  0  0  0  0  0  0
  153.0385  142.2290  160.9240 C   0  0  0  0  0  0  0  0  0  0  0  0
  152.0394  143.1388  160.1846 C   0  0  1  0  0  0  0  0  0  0  0  0
  152.2151  144.6349  160.4709 C   0  0  0  0  0  0  0  0  0  0  0  0
  151.5558  145.3229  159.2810 C   0  0  0  0  0  0  0  0  0  0  0  0
  151.9191  144.4406  158.0869 C   0  0  0  0  0  0  0  0  0  0  0  0
  152.1212  143.0161  158.6469 C   0  0  2  0  0  0  0  0  0  0  0  0
  151.1090  142.0889  158.1466 N   0  0  0  0  0  0  0  0  0  0  0  0
  151.3661  140.9228  157.5353 C   0  0  0  0  0  0  0  0  0  0  0  0
  152.5066  140.5001  157.3401 O   0  0  0  0  0  0  0  0  0  0  0  0
  150.1456  140.1021  157.1001 C   0  0  0  0  0  0  0  0  0  0  0  0
  149.8466  140.2502  155.6747 N   0  0  0  0  0  0  0  0  0  0  0  0
  149.4789  141.4453  155.0934 C   0  0  0  0  0  0  0  0  0  0  0  0
  149.2598  141.3176  153.8291 N   0  0  0  0  0  0  0  0  0  0  0  0
  149.4971  140.0002  153.6206 N   0  0  0  0  0  0  0  0  0  0  0  0
  149.8517  139.3277  154.7167 C   0  0  0  0  0  0  0  0  0  0  0  0
  150.1217  138.1319  154.8129 O   0  0  0  0  0  0  0  0  0  0  0  0
  149.3945  139.6212  152.6901 H   0  0  0  0  0  0  0  0  0  0  0  0
  155.9602  140.6737  161.5134 H   0  0  0  0  0  0  0  0  0  0  0  0
  155.4016  139.3067  162.4715 H   0  0  0  0  0  0  0  0  0  0  0  0
  154.6583  140.8786  162.6836 H   0  0  0  0  0  0  0  0  0  0  0  0
  153.1773  139.4125  161.3373 H   0  0  0  0  0  0  0  0  0  0  0  0
  155.5006  139.1467  159.3746 H   0  0  0  0  0  0  0  0  0  0  0  0
  153.8872  138.4714  159.1623 H   0  0  0  0  0  0  0  0  0  0  0  0
  154.9193  137.8848  160.4577 H   0  0  0  0  0  0  0  0  0  0  0  0
  154.4026  141.4504  159.4306 H   0  0  0  0  0  0  0  0  0  0  0  0
  152.7996  140.7723  159.3602 H   0  0  0  0  0  0  0  0  0  0  0  0
  152.5686  141.8187  161.8187 H   0  0  0  0  0  0  0  0  0  0  0  0
  153.8675  142.8454  161.2712 H   0  0  0  0  0  0  0  0  0  0  0  0
  151.0292  142.8705  160.5008 H   0  0  0  0  0  0  0  0  0  0  0  0
  151.7714  144.9368  161.4201 H   0  0  0  0  0  0  0  0  0  0  0  0
  153.2749  144.8919  160.5012 H   0  0  0  0  0  0  0  0  0  0  0  0
  150.4735  145.3311  159.4160 H   0  0  0  0  0  0  0  0  0  0  0  0
  151.8845  146.3550  159.1560 H   0  0  0  0  0  0  0  0  0  0  0  0
  151.1629  144.4979  157.3024 H   0  0  0  0  0  0  0  0  0  0  0  0
  152.8559  144.7888  157.6503 H   0  0  0  0  0  0  0  0  0  0  0  0
  153.1116  142.6607  158.3552 H   0  0  0  0  0  0  0  0  0  0  0  0
  150.1437  142.3574  158.2719 H   0  0  0  0  0  0  0  0  0  0  0  0
  150.3241  139.0544  157.3478 H   0  0  0  0  0  0  0  0  0  0  0  0
  149.2705  140.4096  157.6753 H   0  0  0  0  0  0  0  0  0  0  0  0
  149.4044  142.3448  155.7067 H   0  0  0  0  0  0  0  0  0  0  0  0
  1  2  1  0  0  0  0
  1 22  1  0  0  0  0
  1 23  1  0  0  0  0
  1 24  1  0  0  0  0
  2  3  1  0  0  0  0
  2  4  1  0  0  0  0
  2 25  1  0  0  0  0
  3 26  1  0  0  0  0
  3 27  1  0  0  0  0
  3 28  1  0  0  0  0
  4  5  1  0  0  0  0
  4 29  1  0  0  0  0
  4 30  1  0  0  0  0
  5  6  1  0  0  0  0
  5 31  1  0  0  0  0
  5 32  1  0  0  0  0
  6 10  1  0  0  0  0
  6  7  1  0  0  0  0
  6 33  1  0  0  0  0
  7  8  1  0  0  0  0
  7 34  1  0  0  0  0
  7 35  1  0  0  0  0
  8  9  1  0  0  0  0
  8 36  1  0  0  0  0
  8 37  1  0  0  0  0
  9 10  1  0  0  0  0
  9 38  1  0  0  0  0
  9 39  1  0  0  0  0
 10 11  1  0  0  0  0
 10 40  1  0  0  0  0
 11 12  1  0  0  0  0
 11 41  1  0  0  0  0
 12 13  2  0  0  0  0
 12 14  1  0  0  0  0
 14 15  1  0  0  0  0
 14 42  1  0  0  0  0
 14 43  1  0  0  0  0
 15 19  1  0  0  0  0
 15 16  1  0  0  0  0
 16 17  2  0  0  0  0
 16 44  1  0  0  0  0
 17 18  1  0  0  0  0
 18 21  1  0  0  0  0
 18 19  1  0  0  0  0
 19 20  2  0  0  0  0
M  END
> <s_m_source_file>
AV-unprocessed.smi

> <i_m_source_file_index>
2229

> <i_lp_mmshare_version>
43012

> <i_f3d_flags>
0

> <s_epik_input>
W0NIM11bQ0hdKFtDSDNdKVtDSDJdW0NIMl1bQ0BASF0xW0NIMl1bQ0gyXVtDSDJdW0NASF0xW05IXUMoPU8pW0NIMl1uMltjSF1uW25IXWMyPU8=

> <s_epik_cmdline>
J2VwaWtfcHl0aG9uJywgJy1waCcsICc3LjAnLCAnLXRuJywgJzgnLCAnLW1hJywgJzIwMCcsICctbWV0YWxfYmluZGluZycsICctaW1hZScsICc8aW5maWxlLm1hZT4nLCAnLW9tYWUnLCAnPG91dGZpbGUubWFlPic=

> <r_lp_tautomer_probability>
1

> <r_epik_Ionization_Penalty>
4.14174e-05

> <r_epik_Ionization_Penalty_Charging>
4.13165e-05

> <r_epik_Ionization_Penalty_Neutral>
1.00911e-07

> <r_epik_State_Penalty>
-0

> <r_epik_Charging_Adjusted_Penalty>
4.13165e-05

> <i_epik_Tot_Q>
0

> <i_epik_Tot_abs_Q>
0

> <r_epik_Metal_State_Penalty>
0.0399369

> <b_epik_Metal_Only>
0

> <s_lp_Force_Field>
OPLS_2005

> <r_lp_Energy>
37.2399

> <b_lp_Chiralities_Consistent>
1

> <s_lp_Variant>
AV-unprocessed.smi:2229-4

> <Gold.Version>
5.8.1

> <Gold.Id.Protein>
6NUR|6NUR_protein|mol2

> <Gold.PLP.Fitness>
53.1352

> <Gold.PLP.PLP>
-44.5660

> <Gold.PLP.part.hbond>
-3.7165

> <Gold.PLP.part.metal>
0.0000

> <Gold.PLP.part.buried>
-4.9956

> <Gold.PLP.part.nonpolar>
-37.4504

> <Gold.PLP.part.repulsive>
2.2175

> <Gold.PLP.ligand.clash>
0.0000

> <Gold.PLP.ligand.torsion>
1.0709

> <Gold.PLP.Chemscore.Hbond>
2.5440

> <Gold.PLP.Chemscore.CHOScore>
1.0000

> <Gold.PLP.Chemscore.Metal>
0.0000

> <Gold.Chemscore.Hbonds>
donor molecule, donor type, donor heavy atom, donor atom, acceptor molecule, acceptor atom, score
      L1  H    18    21       P1  7957  0.82
      P1  H  7997  8008       L1    13  0.88
      P1  H  8011  8017       L1    17  0.83
      L1  C    16    44       P1  8028  1.00

> <Gold.PLP.Chemscore.Internal.Correction>
0.0790

> <Gold.Rescore>
     Score         DG    S(hbond)    S(metal)    S(lipo)     H(rot)  DE(clash)    DE(int)     intcor
     16.46     -18.89       2.34        0.00     105.58       2.64       0.41       2.03       ----

> <Gold.Chemscore.Fitness>
16.4550

> <Gold.Chemscore.DG>
-18.8879

> <Gold.Chemscore.ZeroCoef>
-5.4800

> <Gold.Chemscore.Hbond>
2.3369

> <Gold.Chemscore.Metal>
0.0000

> <Gold.Chemscore.Lipo>
105.5796

> <Gold.Chemscore.Internal_Hbond>
0.0000

> <Gold.Chemscore.DEClash>
0.4060

> <Gold.Chemscore.DEInternal>
2.0269

> <Gold.Chemscore.Rot>
2.6368

> <Gold.Chemscore.Internal.Correction>
   9.000000E+99

> <Gold.Chemscore.Hbonds>
donor molecule, donor type, donor heavy atom, donor atom, acceptor molecule, acceptor atom, score
      L1  H    18    21       P1  7957  0.80
      P1  H  7997  8008       L1    13  0.81
      P1  H  8011  8017       L1    17  0.69

> <Gold.Chemscore.Hbond.Weighted>
-7.8052

> <Gold.Chemscore.Metal.Weighted>
-0.0000

> <Gold.Chemscore.Lipo.Weighted>
-12.3528

> <Gold.Chemscore.Internal_Hbond.Weighted>
0.0000

> <Gold.Chemscore.DEClash.Weighted>
0.4060

> <Gold.Chemscore.DEInternal.Weighted>
2.0269

> <Gold.Chemscore.Rot.Weighted>
6.7501

> <Gold.Chemscore.Internal.Correction.Weighted>
   9.000000E+99

> <Gold.Protein.RotatedTorsions>
[ 6907 6896 6895 6894 ] final   20.09 input  -60.11 | X-H torsion
[ 7974 7965 7964 7962 ] final  133.84 input  175.53 | X-H torsion
[ 8008 7997 7996 7995 ] final  -63.29 input   59.86 | X-H torsion
[ 10167 10162 10161 10158 ] final   43.75 input  -65.29 | X-H torsion
[ 10718 10713 10712 10709 ] final  143.21 input   66.30 | X-H torsion
[ 10763 10752 10751 10750 ] final  -68.55 input  -60.55 | X-H torsion
[ 11005 11000 10999 10996 ] final  128.94 input  -57.11 | X-H torsion

> <Gold.Protein.ActiveResidues>
 VAL166  LYS551  ARG553  GLY616  TRP617  ASP618  TYR619  PRO620  LYS621  CYS622 
 ASP623  PHE694  ASN695  SER759  ASP760  ASP761  ALA762  ILE779  LEU786  VAL792 
 PHE793  MET794  SER795  GLU796  ALA797  LYS798  CYS799  TRP800  GLU811  SER814 

> <Gold.Protein.RotatedAtoms>
  151.8910  135.0416  160.0497 H   0  0  0  0  0  0  0  0  0  0  0  0  # atno 6907 bound_to 6896
  152.2436  133.5151  159.5292 H   0  0  0  0  0  0  0  0  0  0  0  0  # atno 6908 bound_to 6896
  150.7061  134.0972  159.3995 H   0  0  0  0  0  0  0  0  0  0  0  0  # atno 6909 bound_to 6896
  144.9824  139.4490  143.5379 H   0  0  0  0  0  0  0  0  0  0  0  0  # atno 7974 bound_to 7965
  154.4546  140.0978  156.6719 H   0  0  0  0  0  0  0  0  0  0  0  0  # atno 8008 bound_to 7997
  155.5179  140.3478  155.4382 H   0  0  0  0  0  0  0  0  0  0  0  0  # atno 8009 bound_to 7997
  156.0751  140.1359  156.9770 H   0  0  0  0  0  0  0  0  0  0  0  0  # atno 8010 bound_to 7997
  140.3412  144.2467  150.6155 H   0  0  0  0  0  0  0  0  0  0  0  0  # atno 10167 bound_to 10162
  157.3716  131.0980  151.0822 H   0  0  0  0  0  0  0  0  0  0  0  0  # atno 10718 bound_to 10713
  154.3906  135.6053  153.5841 H   0  0  0  0  0  0  0  0  0  0  0  0  # atno 10763 bound_to 10752
  152.9787  135.5883  154.4301 H   0  0  0  0  0  0  0  0  0  0  0  0  # atno 10764 bound_to 10752
  154.4085  135.2844  155.2030 H   0  0  0  0  0  0  0  0  0  0  0  0  # atno 10765 bound_to 10752
  139.9588  134.9607  156.9076 H   0  0  0  0  0  0  0  0  0  0  0  0  # atno 11005 bound_to 11000
  146.3411  139.9105  142.8781 LP  0  0  0  0  0  0  0  0  0  0  0  0  # atno 17320 bound_to 7965
  145.2402  141.0006  143.3940 LP  0  0  0  0  0  0  0  0  0  0  0  0  # atno 17321 bound_to 7965
  140.5307  143.2244  151.8243 LP  0  0  0  0  0  0  0  0  0  0  0  0  # atno 17342 bound_to 10162
  139.4840  144.4724  151.9409 LP  0  0  0  0  0  0  0  0  0  0  0  0  # atno 17343 bound_to 10162
  157.1924  130.6358  149.5709 LP  0  0  0  0  0  0  0  0  0  0  0  0  # atno 17370 bound_to 10713
  155.9757  130.4717  150.6476 LP  0  0  0  0  0  0  0  0  0  0  0  0  # atno 17371 bound_to 10713
  140.5547  134.0593  155.7380 LP  0  0  0  0  0  0  0  0  0  0  0  0  # atno 17394 bound_to 11000
  141.1263  133.9377  157.2628 LP  0  0  0  0  0  0  0  0  0  0  0  0  # atno 17395 bound_to 11000

$$$$
