#       Name:                AV-unprocessed.smi:2011
#       Creating user name   scv26
#       Creation time:       Fri Mar 27 10:39:36 2020


#       File generated by GOLD software.
#

@<TRIPOS>MOLECULE
AV-unprocessed.smi:2011
    30    31     1
SMALL
NO_CHARGES


@<TRIPOS>ATOM
      1 ****        -0.3055   1.8344   0.6990 O.2            1 S1                 0.0000
      2 ****        -0.7864   0.7149   0.8767 C.2            1 S1                 0.0000
      3 ****        -0.0458  -0.3954   1.0057 N.am           1 S1                 0.0000
      4 ****         1.4105  -0.4416   0.9451 C.3            1 S1                 0.0000
      5 ****         1.9058  -0.4832  -0.4982 C.3            1 S1                 0.0000
      6 ****         1.6180  -1.7144  -1.3714 C.3            1 S1                 0.0000
      7 ****         2.9804  -1.5021  -2.0368 C.3            1 S1                 0.0000
      8 ****         3.3952  -0.7260  -0.7836 C.3            1 S1                 0.0000
      9 ****        -2.0993   0.4368   0.9631 N.am           1 S1                 0.0000
     10 ****        -3.1964   1.3359   0.8944 C.2            1 S1                 0.0000
     11 ****        -3.0639   2.6628   0.7403 N.2            1 S1                 0.0000
     12 ****        -4.2938   3.3075   0.7069 N.2            1 S1                 0.0000
     13 ****        -5.3039   2.4430   0.8381 C.2            1 S1                 0.0000
     14 ****        -4.8516   0.7563   1.0146 S.3            1 S1                 0.0000
     15 ****        -0.5222  -1.2736   1.1497 H              1 S1                 0.0000
     16 ****         1.8361   0.4124   1.4745 H              1 S1                 0.0000
     17 ****         1.7412  -1.3284   1.4863 H              1 S1                 0.0000
     18 ****         1.5946   0.4118  -1.0416 H              1 S1                 0.0000
     19 ****         1.5700  -2.6408  -0.7964 H              1 S1                 0.0000
     20 ****         0.7613  -1.6101  -2.0377 H              1 S1                 0.0000
     21 ****         3.5485  -2.4145  -2.2198 H              1 S1                 0.0000
     22 ****         2.9238  -0.8718  -2.9259 H              1 S1                 0.0000
     23 ****         3.9760   0.1766  -0.9763 H              1 S1                 0.0000
     24 ****         3.8738  -1.3599  -0.0355 H              1 S1                 0.0000
     25 ****        -2.3436  -0.5330   1.0978 H              1 S1                 0.0000
     26 ****        -6.3227   2.8013   0.8315 H              1 S1                 0.0000
     27 ****         0.6863   1.9496   0.6441 LP             1 S1                 0.0000
     28 ****        -0.9068   2.6285   0.6095 LP             1 S1                 0.0000
     29 ****        -2.1843   3.1315   0.6592 LP             1 S1                 0.0000
     30 ****        -4.4088   4.2950   0.5983 LP             1 S1                 0.0000
@<TRIPOS>BOND
    1    1    2 2     
    2    2    3 am    
    3    2    9 am    
    4    3    4 1     
    5    3   15 1     
    6    4    5 1     
    7    4   16 1     
    8    4   17 1     
    9    5    8 1     
   10    5    6 1     
   11    5   18 1     
   12    6    7 1     
   13    6   19 1     
   14    6   20 1     
   15    7    8 1     
   16    7   21 1     
   17    7   22 1     
   18    8   23 1     
   19    8   24 1     
   20    9   10 1     
   21    9   25 1     
   22   10   14 1     
   23   10   11 2     
   24   11   12 1     
   25   12   13 2     
   26   13   14 1     
   27   13   26 1     
   28    1   27 1     
   29    1   28 1     
   30   11   29 1     
   31   12   30 1     
@<TRIPOS>SUBSTRUCTURE
      1 S1             1
@<TRIPOS>SET
LONE_PAIRS      STATIC     ATOMS    <user>   **** ""
4 27 28 29 30
DONOR_HYDROGENS      STATIC     ATOMS    <user>   **** ""
2 15 25
ATOM$BLUE        STATIC     ATOMS    COLORGROUP SYSTEM
4 27 28 29 30
ATOM$RED        STATIC     ATOMS    COLORGROUP SYSTEM
2 15 25
