AV-unprocessed.smi:35|AV-procd|sdf|261|dock7
  -GOLD-   2262016 23D 1   1.00000     0.00000
 Structure written by MMmdl.
 29 30  0  0  0  0  0  0  0  0  1 V2000
  151.4953  137.2071  159.9304 O   0  0  0  0  0  0  0  0  0  0  0  0
  151.1943  137.7513  158.8702 C   0  0  0  0  0  0  0  0  0  0  0  0
  152.1901  138.2484  158.0244 N   0  0  0  0  0  0  0  0  0  0  0  0
  151.9728  138.8811  156.7986 C   0  0  0  0  0  0  0  0  0  0  0  0
  152.9301  139.2641  156.1275 O   0  0  0  0  0  0  0  0  0  0  0  0
  150.6312  139.0383  156.3832 N   0  0  0  0  0  0  0  0  0  0  0  0
  150.3318  139.7063  155.0576 C   0  0  2  0  0  0  0  0  0  0  0  0
  149.4945  140.7984  155.2909 O   0  0  0  0  0  0  0  0  0  0  0  0
  148.5001  140.8631  154.2742 C   0  0  2  0  0  0  0  0  0  0  0  0
  147.2804  141.6788  154.7380 C   0  0  0  0  0  0  0  0  0  0  0  0
  146.2749  141.6556  153.7474 O   0  0  0  0  0  0  0  0  0  0  0  0
  148.2257  139.3875  153.9527 C   0  0  2  0  0  0  0  0  0  0  0  0
  147.3063  138.8273  154.8764 O   0  0  0  0  0  0  0  0  0  0  0  0
  149.6160  138.7690  154.0605 C   0  0  2  0  0  0  0  0  0  0  0  0
  149.5904  137.3954  154.4115 O   0  0  0  0  0  0  0  0  0  0  0  0
  149.6082  138.5546  157.1877 C   0  0  0  0  0  0  0  0  0  0  0  0
  149.8363  137.9406  158.3722 C   0  0  0  0  0  0  0  0  0  0  0  0
  148.2408  137.3197  159.3684 Br  0  0  0  0  0  0  0  0  0  0  0  0
  153.1479  138.1363  158.3236 H   0  0  0  0  0  0  0  0  0  0  0  0
  151.2780  140.0888  154.6708 H   0  0  0  0  0  0  0  0  0  0  0  0
  148.9447  141.3230  153.3890 H   0  0  0  0  0  0  0  0  0  0  0  0
  146.8566  141.2398  155.6416 H   0  0  0  0  0  0  0  0  0  0  0  0
  147.5556  142.7072  154.9739 H   0  0  0  0  0  0  0  0  0  0  0  0
  145.4919  142.0456  154.1052 H   0  0  0  0  0  0  0  0  0  0  0  0
  147.8115  139.2665  152.9513 H   0  0  0  0  0  0  0  0  0  0  0  0
  147.0304  137.9850  154.5482 H   0  0  0  0  0  0  0  0  0  0  0  0
  150.1248  138.8705  153.1011 H   0  0  0  0  0  0  0  0  0  0  0  0
  149.2859  136.9057  153.6624 H   0  0  0  0  0  0  0  0  0  0  0  0
  148.5837  138.6643  156.8643 H   0  0  0  0  0  0  0  0  0  0  0  0
  1  2  2  0  0  0  0
  2 17  1  0  0  0  0
  2  3  1  0  0  0  0
  3 19  1  0  0  0  0
  3  4  1  0  0  0  0
  4  5  2  0  0  0  0
  4  6  1  0  0  0  0
  6  7  1  0  0  0  0
  6 16  1  0  0  0  0
  7 14  1  0  0  0  0
  7  8  1  0  0  0  0
  7 20  1  0  0  0  0
  8  9  1  0  0  0  0
  9 10  1  0  0  0  0
  9 12  1  0  0  0  0
  9 21  1  0  0  0  0
 10 11  1  0  0  0  0
 10 22  1  0  0  0  0
 10 23  1  0  0  0  0
 11 24  1  0  0  0  0
 12 13  1  0  0  0  0
 12 14  1  0  0  0  0
 12 25  1  0  0  0  0
 13 26  1  0  0  0  0
 14 15  1  0  0  0  0
 14 27  1  0  0  0  0
 15 28  1  0  0  0  0
 16 17  2  0  0  0  0
 16 29  1  0  0  0  0
 17 18  1  0  0  0  0
M  END
> <s_m_source_file>
AV-unprocessed.smi

> <i_m_source_file_index>
35

> <i_lp_mmshare_version>
43012

> <i_f3d_flags>
0

> <s_epik_input>
Tz1jMVtuSF1jKD1PKW4oW2NIXWMxQnIpW0NAQEhdMk9bQ0BASF0oW0NIMl1bT0hdKVtDQEBIXShbT0hdKVtDQEhdMltPSF0=

> <s_epik_cmdline>
J2VwaWtfcHl0aG9uJywgJy1waCcsICc3LjAnLCAnLXRuJywgJzgnLCAnLW1hJywgJzIwMCcsICctbWV0YWxfYmluZGluZycsICctaW1hZScsICc8aW5maWxlLm1hZT4nLCAnLW9tYWUnLCAnPG91dGZpbGUubWFlPic=

> <r_lp_tautomer_probability>
0.999537

> <r_epik_Ionization_Penalty>
0.10812

> <r_epik_Ionization_Penalty_Charging>
0.108119

> <r_epik_Ionization_Penalty_Neutral>
4.93006e-07

> <r_epik_State_Penalty>
0.0979238

> <r_epik_Charging_Adjusted_Penalty>
0.206043

> <i_epik_Tot_Q>
0

> <i_epik_Tot_abs_Q>
0

> <r_epik_Metal_State_Penalty>
3.07911

> <b_epik_Metal_Only>
0

> <s_epik_Chemistry_Notes>
This compound contains an acetal/aminal-like group ( X-CH(R)-Y where X, Y are N, S, or O) that may be acid/base labile, releasing an aldehyde.

> <s_lp_Force_Field>
OPLS_2005

> <r_lp_Energy>
38.5572

> <b_lp_Chiralities_Consistent>
1

> <s_lp_Variant>
AV-unprocessed.smi:35-15

> <Gold.Version>
5.8.1

> <Gold.Id.Protein>
6NUR|6NUR_protein|mol2

> <Gold.PLP.Fitness>
32.3072

> <Gold.PLP.PLP>
-23.3226

> <Gold.PLP.part.hbond>
-3.5194

> <Gold.PLP.part.metal>
0.0000

> <Gold.PLP.part.buried>
-4.1663

> <Gold.PLP.part.nonpolar>
-16.7924

> <Gold.PLP.part.repulsive>
0.1681

> <Gold.PLP.ligand.clash>
0.0000

> <Gold.PLP.ligand.torsion>
0.0146

> <Gold.PLP.Chemscore.Hbond>
3.0000

> <Gold.PLP.Chemscore.CHOScore>
0.0000

> <Gold.PLP.Chemscore.Metal>
0.0000

> <Gold.Chemscore.Hbonds>
donor molecule, donor type, donor heavy atom, donor atom, acceptor molecule, acceptor atom, score
      L1  H    15    28       P1  7948  1.00
      P1  H  6896  6908       L1     1  0.96
      P1  H  7997  8010       L1     5  1.00

> <Gold.PLP.Chemscore.Internal.Correction>
0.0138

> <Gold.Rescore>
     Score         DG    S(hbond)    S(metal)    S(lipo)     H(rot)  DE(clash)    DE(int)     intcor
      9.82     -10.02       2.95        0.00      34.89       3.67       0.04       0.16       ----

> <Gold.Chemscore.Fitness>
9.8161

> <Gold.Chemscore.DG>
-10.0156

> <Gold.Chemscore.ZeroCoef>
-5.4800

> <Gold.Chemscore.Hbond>
2.9487

> <Gold.Chemscore.Metal>
0.0000

> <Gold.Chemscore.Lipo>
34.8914

> <Gold.Chemscore.Internal_Hbond>
0.0000

> <Gold.Chemscore.DEClash>
0.0440

> <Gold.Chemscore.DEInternal>
0.1554

> <Gold.Chemscore.Rot>
3.6701

> <Gold.Chemscore.Internal.Correction>
   9.000000E+99

> <Gold.Chemscore.Hbonds>
donor molecule, donor type, donor heavy atom, donor atom, acceptor molecule, acceptor atom, score
      L1  H    15    28       P1  7948  0.97
      P1  H  6896  6908       L1     1  0.89
      P1  H  7997  8010       L1     5  1.00

> <Gold.Chemscore.Hbond.Weighted>
-9.8487

> <Gold.Chemscore.Metal.Weighted>
-0.0000

> <Gold.Chemscore.Lipo.Weighted>
-4.0823

> <Gold.Chemscore.Internal_Hbond.Weighted>
0.0000

> <Gold.Chemscore.DEClash.Weighted>
0.0440

> <Gold.Chemscore.DEInternal.Weighted>
0.1554

> <Gold.Chemscore.Rot.Weighted>
9.3955

> <Gold.Chemscore.Internal.Correction.Weighted>
   9.000000E+99

> <Gold.Protein.RotatedTorsions>
[ 6907 6896 6895 6894 ] final -114.40 input  -60.11 | X-H torsion
[ 7974 7965 7964 7962 ] final -164.21 input  175.53 | X-H torsion
[ 8008 7997 7996 7995 ] final   74.36 input   59.86 | X-H torsion
[ 10167 10162 10161 10158 ] final  -45.78 input  -65.29 | X-H torsion
[ 10718 10713 10712 10709 ] final  -85.78 input   66.30 | X-H torsion
[ 10763 10752 10751 10750 ] final  149.79 input  -60.55 | X-H torsion
[ 11005 11000 10999 10996 ] final   99.14 input  -57.11 | X-H torsion

> <Gold.Protein.ActiveResidues>
 VAL166  LYS551  ARG553  GLY616  TRP617  ASP618  TYR619  PRO620  LYS621  CYS622 
 ASP623  PHE694  ASN695  SER759  ASP760  ASP761  ALA762  ILE779  LEU786  VAL792 
 PHE793  MET794  SER795  GLU796  ALA797  LYS798  CYS799  TRP800  GLU811  SER814 

> <Gold.Protein.RotatedAtoms>
  150.7899  133.8807  159.3284 H   0  0  0  0  0  0  0  0  0  0  0  0  # atno 6907 bound_to 6896
  151.6647  135.0982  160.0196 H   0  0  0  0  0  0  0  0  0  0  0  0  # atno 6908 bound_to 6896
  152.3971  133.6724  159.6321 H   0  0  0  0  0  0  0  0  0  0  0  0  # atno 6909 bound_to 6896
  144.7303  140.2995  143.6207 H   0  0  0  0  0  0  0  0  0  0  0  0  # atno 7974 bound_to 7965
  155.7973  140.3477  155.5382 H   0  0  0  0  0  0  0  0  0  0  0  0  # atno 8008 bound_to 7997
  155.8574  140.0966  157.1656 H   0  0  0  0  0  0  0  0  0  0  0  0  # atno 8009 bound_to 7997
  154.4010  140.1365  156.3906 H   0  0  0  0  0  0  0  0  0  0  0  0  # atno 8010 bound_to 7997
  140.6844  143.2862  151.3689 H   0  0  0  0  0  0  0  0  0  0  0  0  # atno 10167 bound_to 10162
  155.9994  130.4742  150.4614 H   0  0  0  0  0  0  0  0  0  0  0  0  # atno 10718 bound_to 10713
  154.0769  135.2862  155.3298 H   0  0  0  0  0  0  0  0  0  0  0  0  # atno 10763 bound_to 10752
  154.6710  135.5299  153.8141 H   0  0  0  0  0  0  0  0  0  0  0  0  # atno 10764 bound_to 10752
  153.0464  135.6557  154.0947 H   0  0  0  0  0  0  0  0  0  0  0  0  # atno 10765 bound_to 10752
  139.8771  134.9082  156.4561 H   0  0  0  0  0  0  0  0  0  0  0  0  # atno 11005 bound_to 11000
  145.7775  139.1879  143.2177 LP  0  0  0  0  0  0  0  0  0  0  0  0  # atno 17320 bound_to 7965
  146.0861  140.7709  142.9618 LP  0  0  0  0  0  0  0  0  0  0  0  0  # atno 17321 bound_to 7965
  139.6191  144.0944  152.2374 LP  0  0  0  0  0  0  0  0  0  0  0  0  # atno 17342 bound_to 10162
  140.0382  144.6028  150.7432 LP  0  0  0  0  0  0  0  0  0  0  0  0  # atno 17343 bound_to 10162
  157.2638  131.0572  151.2303 LP  0  0  0  0  0  0  0  0  0  0  0  0  # atno 17370 bound_to 10713
  157.3408  130.7032  149.6380 LP  0  0  0  0  0  0  0  0  0  0  0  0  # atno 17371 bound_to 10713
  140.8897  133.7857  155.9558 LP  0  0  0  0  0  0  0  0  0  0  0  0  # atno 17394 bound_to 11000
  140.8767  134.2661  157.5164 LP  0  0  0  0  0  0  0  0  0  0  0  0  # atno 17395 bound_to 11000

$$$$
