AV-unprocessed.smi:571|AV-procd|sdf|2964|dock1
  -GOLD-   2262023463D 1   1.00000     0.00000
 Structure written by MMmdl.
 44 45  0  0  0  0  0  0  0  0  2 V2000
  150.4046  141.0443  155.4987 C   0  0  0  0  0  0  0  0  0  0  0  0
  150.1686  141.1795  157.0091 C   0  0  1  0  0  0  0  0  0  0  0  0
  151.4496  141.6420  157.7398 C   0  0  0  0  0  0  0  0  0  0  0  0
  151.2089  142.7565  158.6923 N   0  3  0  0  0  0  0  0  0  0  0  0
  151.2020  144.0866  158.0309 C   0  0  0  0  0  0  0  0  0  0  0  0
  150.7938  145.1921  159.0193 C   0  0  0  0  0  0  0  0  0  0  0  0
  151.7099  145.1973  160.2501 C   0  0  0  0  0  0  0  0  0  0  0  0
  151.7335  143.8044  160.8930 C   0  0  0  0  0  0  0  0  0  0  0  0
  152.1237  142.7301  159.8644 C   0  0  0  0  0  0  0  0  0  0  0  0
  149.0649  142.1121  157.2350 N   0  0  0  0  0  0  0  0  0  0  0  0
  147.8838  141.8247  157.8108 C   0  0  0  0  0  0  0  0  0  0  0  0
  147.6130  140.7082  158.2505 O   0  0  0  0  0  0  0  0  0  0  0  0
  146.8404  142.9479  157.9380 C   0  0  0  0  0  0  0  0  0  0  0  0
  146.2887  143.1364  159.2919 N   0  0  0  0  0  0  0  0  0  0  0  0
  146.6903  144.2931  159.9895 C   0  0  0  0  0  0  0  0  0  0  0  0
  146.2493  144.5642  161.2279 C   0  0  0  0  0  0  0  0  0  0  0  0
  145.3385  143.6308  161.8476 C   0  0  0  0  0  0  0  0  0  0  0  0
  144.9439  142.5241  161.1873 C   0  0  0  0  0  0  0  0  0  0  0  0
  145.4178  142.2275  159.8305 C   0  0  0  0  0  0  0  0  0  0  0  0
  145.0487  141.2291  159.2120 O   0  0  0  0  0  0  0  0  0  0  0  0
  151.2011  140.3299  155.2887 H   0  0  0  0  0  0  0  0  0  0  0  0
  150.6867  141.9980  155.0509 H   0  0  0  0  0  0  0  0  0  0  0  0
  149.5062  140.6917  154.9906 H   0  0  0  0  0  0  0  0  0  0  0  0
  149.8849  140.1908  157.3720 H   0  0  0  0  0  0  0  0  0  0  0  0
  151.9195  140.8077  158.2629 H   0  0  0  0  0  0  0  0  0  0  0  0
  152.1666  141.9660  156.9837 H   0  0  0  0  0  0  0  0  0  0  0  0
  152.1893  144.2941  157.6150 H   0  0  0  0  0  0  0  0  0  0  0  0
  150.4995  144.0804  157.1966 H   0  0  0  0  0  0  0  0  0  0  0  0
  150.8263  146.1642  158.5265 H   0  0  0  0  0  0  0  0  0  0  0  0
  149.7603  145.0383  159.3330 H   0  0  0  0  0  0  0  0  0  0  0  0
  152.7202  145.4855  159.9569 H   0  0  0  0  0  0  0  0  0  0  0  0
  151.3689  145.9406  160.9714 H   0  0  0  0  0  0  0  0  0  0  0  0
  152.4337  143.7925  161.7289 H   0  0  0  0  0  0  0  0  0  0  0  0
  150.7514  143.5741  161.3081 H   0  0  0  0  0  0  0  0  0  0  0  0
  152.0940  141.7526  160.3445 H   0  0  0  0  0  0  0  0  0  0  0  0
  153.1507  142.8861  159.5305 H   0  0  0  0  0  0  0  0  0  0  0  0
  149.2004  143.0559  156.9010 H   0  0  0  0  0  0  0  0  0  0  0  0
  147.2884  143.8760  157.5785 H   0  0  0  0  0  0  0  0  0  0  0  0
  146.0336  142.7383  157.2343 H   0  0  0  0  0  0  0  0  0  0  0  0
  147.3701  144.9404  159.4544 H   0  0  0  0  0  0  0  0  0  0  0  0
  146.5666  145.4565  161.7475 H   0  0  0  0  0  0  0  0  0  0  0  0
  144.9721  143.8202  162.8458 H   0  0  0  0  0  0  0  0  0  0  0  0
  144.2626  141.8370  161.6674 H   0  0  0  0  0  0  0  0  0  0  0  0
  150.2742  142.6198  159.0503 H   0  0  0  0  0  0  0  0  0  0  0  0
  1  2  1  0  0  0  0
  1 21  1  0  0  0  0
  1 22  1  0  0  0  0
  1 23  1  0  0  0  0
  2  3  1  0  0  0  0
  2 10  1  0  0  0  0
  2 24  1  0  0  0  0
  3  4  1  0  0  0  0
  3 25  1  0  0  0  0
  3 26  1  0  0  0  0
  4  9  1  0  0  0  0
  4  5  1  0  0  0  0
  4 44  1  0  0  0  0
  5  6  1  0  0  0  0
  5 27  1  0  0  0  0
  5 28  1  0  0  0  0
  6  7  1  0  0  0  0
  6 29  1  0  0  0  0
  6 30  1  0  0  0  0
  7  8  1  0  0  0  0
  7 31  1  0  0  0  0
  7 32  1  0  0  0  0
  8  9  1  0  0  0  0
  8 33  1  0  0  0  0
  8 34  1  0  0  0  0
  9 35  1  0  0  0  0
  9 36  1  0  0  0  0
 10 11  1  0  0  0  0
 10 37  1  0  0  0  0
 11 12  2  0  0  0  0
 11 13  1  0  0  0  0
 13 14  1  0  0  0  0
 13 38  1  0  0  0  0
 13 39  1  0  0  0  0
 14 19  1  0  0  0  0
 14 15  1  0  0  0  0
 15 16  2  0  0  0  0
 15 40  1  0  0  0  0
 16 17  1  0  0  0  0
 16 41  1  0  0  0  0
 17 18  2  0  0  0  0
 17 42  1  0  0  0  0
 18 19  1  0  0  0  0
 18 43  1  0  0  0  0
 19 20  2  0  0  0  0
M  CHG  1   4   1
M  END
> <s_m_source_file>
AV-unprocessed.smi

> <i_m_source_file_index>
571

> <i_lp_mmshare_version>
43012

> <i_f3d_flags>
0

> <s_epik_input>
W0NIMl0xW0NIMl1bQ0gyXVtDSDJdW0NIMl1OMVtDSDJdW0NAQEhdKFtDSDNdKVtOSF1DKD1PKVtDSDJdbjJbY0hdW2NIXVtjSF1bY0hdYzI9Tw==

> <s_epik_cmdline>
J2VwaWtfcHl0aG9uJywgJy1waCcsICc3LjAnLCAnLXRuJywgJzgnLCAnLW1hJywgJzIwMCcsICctbWV0YWxfYmluZGluZycsICctaW1hZScsICc8aW5maWxlLm1hZT4nLCAnLW9tYWUnLCAnPG91dGZpbGUubWFlPic=

> <r_lp_tautomer_probability>
1

> <r_epik_Ionization_Penalty>
0.00237248

> <r_epik_Ionization_Penalty_Charging>
0.0023724

> <r_epik_Ionization_Penalty_Neutral>
8.2065e-08

> <r_epik_State_Penalty>
0.00163922

> <r_epik_Charging_Adjusted_Penalty>
0.00401161

> <i_epik_Tot_Q>
1

> <i_epik_Tot_abs_Q>
1

> <r_epik_Metal_State_Penalty>
-0

> <b_epik_Metal_Only>
0

> <s_lp_Force_Field>
OPLS_2005

> <r_lp_Energy>
32.4052

> <b_lp_Chiralities_Consistent>
1

> <s_lp_Variant>
AV-unprocessed.smi:571-2

> <Gold.Version>
5.8.1

> <Gold.Id.Protein>
6NUR|6NUR_protein|mol2

> <Gold.PLP.Fitness>
45.5499

> <Gold.PLP.PLP>
-41.8477

> <Gold.PLP.part.hbond>
-2.6290

> <Gold.PLP.part.metal>
0.0000

> <Gold.PLP.part.buried>
-3.5512

> <Gold.PLP.part.nonpolar>
-34.4678

> <Gold.PLP.part.repulsive>
0.0957

> <Gold.PLP.ligand.clash>
0.0000

> <Gold.PLP.ligand.torsion>
1.2122

> <Gold.PLP.Chemscore.Hbond>
1.0000

> <Gold.PLP.Chemscore.CHOScore>
1.0000

> <Gold.PLP.Chemscore.Metal>
0.0000

> <Gold.Chemscore.Hbonds>
donor molecule, donor type, donor heavy atom, donor atom, acceptor molecule, acceptor atom, score
      L1  H    10    37       P1  8028  0.84
      L1  C    15    40       P1  8029  1.00

> <Gold.PLP.Chemscore.Internal.Correction>
0.1266

> <Gold.Rescore>
     Score         DG    S(hbond)    S(metal)    S(lipo)     H(rot)  DE(clash)    DE(int)     intcor
     14.38     -16.13       0.98        0.00     103.21       1.84       0.06       1.68       ----

> <Gold.Chemscore.Fitness>
14.3819

> <Gold.Chemscore.DG>
-16.1251

> <Gold.Chemscore.ZeroCoef>
-5.4800

> <Gold.Chemscore.Hbond>
0.9831

> <Gold.Chemscore.Metal>
0.0000

> <Gold.Chemscore.Lipo>
103.2069

> <Gold.Chemscore.Internal_Hbond>
0.0000

> <Gold.Chemscore.DEClash>
0.0585

> <Gold.Chemscore.DEInternal>
1.6847

> <Gold.Chemscore.Rot>
1.8413

> <Gold.Chemscore.Internal.Correction>
   9.000000E+99

> <Gold.Chemscore.Hbonds>
donor molecule, donor type, donor heavy atom, donor atom, acceptor molecule, acceptor atom, score
      L1  H    10    37       P1  8028  0.79

> <Gold.Chemscore.Hbond.Weighted>
-3.2835

> <Gold.Chemscore.Metal.Weighted>
-0.0000

> <Gold.Chemscore.Lipo.Weighted>
-12.0752

> <Gold.Chemscore.Internal_Hbond.Weighted>
0.0000

> <Gold.Chemscore.DEClash.Weighted>
0.0585

> <Gold.Chemscore.DEInternal.Weighted>
1.6847

> <Gold.Chemscore.Rot.Weighted>
4.7137

> <Gold.Chemscore.Internal.Correction.Weighted>
   9.000000E+99

> <Gold.Protein.RotatedTorsions>
[ 6907 6896 6895 6894 ] final   -6.55 input  -60.11 | X-H torsion
[ 7974 7965 7964 7962 ] final  -80.86 input  175.53 | X-H torsion
[ 8008 7997 7996 7995 ] final   26.23 input   59.86 | X-H torsion
[ 10167 10162 10161 10158 ] final -108.45 input  -65.29 | X-H torsion
[ 10718 10713 10712 10709 ] final   -3.26 input   66.30 | X-H torsion
[ 10763 10752 10751 10750 ] final    1.34 input  -60.55 | X-H torsion
[ 11005 11000 10999 10996 ] final -113.25 input  -57.11 | X-H torsion

> <Gold.Protein.ActiveResidues>
 VAL166  LYS551  ARG553  GLY616  TRP617  ASP618  TYR619  PRO620  LYS621  CYS622 
 ASP623  PHE694  ASN695  SER759  ASP760  ASP761  ALA762  ILE779  LEU786  VAL792 
 PHE793  MET794  SER795  GLU796  ALA797  LYS798  CYS799  TRP800  GLU811  SER814 

> <Gold.Protein.RotatedAtoms>
  151.4638  135.1040  159.9731 H   0  0  0  0  0  0  0  0  0  0  0  0  # atno 6907 bound_to 6896
  152.4843  133.8328  159.7123 H   0  0  0  0  0  0  0  0  0  0  0  0  # atno 6908 bound_to 6896
  150.8939  133.7146  159.2924 H   0  0  0  0  0  0  0  0  0  0  0  0  # atno 6909 bound_to 6896
  145.5544  140.9492  143.1482 H   0  0  0  0  0  0  0  0  0  0  0  0  # atno 7974 bound_to 7965
  155.0240  140.3151  155.4783 H   0  0  0  0  0  0  0  0  0  0  0  0  # atno 8008 bound_to 7997
  156.2887  140.2192  156.5301 H   0  0  0  0  0  0  0  0  0  0  0  0  # atno 8009 bound_to 7997
  154.7427  140.0472  157.0813 H   0  0  0  0  0  0  0  0  0  0  0  0  # atno 8010 bound_to 7997
  140.1660  143.4081  152.1390 H   0  0  0  0  0  0  0  0  0  0  0  0  # atno 10167 bound_to 10162
  156.7786  130.5323  149.5755 H   0  0  0  0  0  0  0  0  0  0  0  0  # atno 10718 bound_to 10713
  153.3092  135.6961  153.7131 H   0  0  0  0  0  0  0  0  0  0  0  0  # atno 10763 bound_to 10752
  153.6015  135.3461  155.2948 H   0  0  0  0  0  0  0  0  0  0  0  0  # atno 10764 bound_to 10752
  154.8571  135.4342  154.2225 H   0  0  0  0  0  0  0  0  0  0  0  0  # atno 10765 bound_to 10752
  141.0626  133.9511  157.2639 H   0  0  0  0  0  0  0  0  0  0  0  0  # atno 11005 bound_to 11000
  144.7514  139.7185  143.7272 LP  0  0  0  0  0  0  0  0  0  0  0  0  # atno 17320 bound_to 7965
  146.1895  139.5127  142.9814 LP  0  0  0  0  0  0  0  0  0  0  0  0  # atno 17321 bound_to 7965
  139.5359  144.7209  151.4894 LP  0  0  0  0  0  0  0  0  0  0  0  0  # atno 17342 bound_to 10162
  140.6613  143.8493  150.6891 LP  0  0  0  0  0  0  0  0  0  0  0  0  # atno 17343 bound_to 10162
  156.1232  130.6125  151.0225 LP  0  0  0  0  0  0  0  0  0  0  0  0  # atno 17370 bound_to 10713
  157.6657  131.0872  150.7734 LP  0  0  0  0  0  0  0  0  0  0  0  0  # atno 17371 bound_to 10713
  139.9446  135.0186  156.8814 LP  0  0  0  0  0  0  0  0  0  0  0  0  # atno 17394 bound_to 11000
  140.5838  134.0327  155.7474 LP  0  0  0  0  0  0  0  0  0  0  0  0  # atno 17395 bound_to 11000

$$$$
