AV-unprocessed.smi:1128|AV-procd|sdf|4842|dock5
  -GOLD-   22720 3413D 1   1.00000     0.00000
 Structure written by MMmdl.
 38 39  0  0  0  0  0  0  0  0  1 V2000
  150.8321  140.0270  158.6005 O   0  0  0  0  0  0  0  0  0  0  0  0
  151.9360  139.8958  158.0734 C   0  0  0  0  0  0  0  0  0  0  0  0
  153.0910  140.0735  158.7311 N   0  0  0  0  0  0  0  0  0  0  0  0
  153.2230  140.4482  160.1364 C   0  0  0  0  0  0  0  0  0  0  0  0
  153.1909  141.9768  160.3383 C   0  0  2  0  0  0  0  0  0  0  0  0
  152.7775  142.3818  161.7736 C   0  0  0  0  0  0  0  0  0  0  0  0
  152.4699  143.8632  161.8999 C   0  0  0  0  0  0  0  0  0  0  0  0
  152.2681  144.6702  160.8451 C   0  0  0  0  0  0  0  0  0  0  0  0
  152.3164  144.1891  159.4071 C   0  0  0  0  0  0  0  0  0  0  0  0
  152.2701  142.6531  159.3044 C   0  0  0  0  0  0  0  0  0  0  0  0
  152.1670  139.5693  156.7880 N   0  0  0  0  0  0  0  0  0  0  0  0
  151.2612  139.3031  155.7459 C   0  0  0  0  0  0  0  0  0  0  0  0
  150.1701  140.0543  155.4408 C   0  0  0  0  0  0  0  0  0  0  0  0
  149.2818  139.7142  154.3417 C   0  0  0  0  0  0  0  0  0  0  0  0
  148.0343  140.5326  154.0465 C   0  0  0  0  0  0  0  0  0  0  0  0
  147.3760  140.0518  152.9909 F   0  0  0  0  0  0  0  0  0  0  0  0
  147.2064  140.5329  155.0914 F   0  0  0  0  0  0  0  0  0  0  0  0
  148.3722  141.7945  153.7859 F   0  0  0  0  0  0  0  0  0  0  0  0
  149.5788  138.5974  153.6524 C   0  0  0  0  0  0  0  0  0  0  0  0
  150.6995  137.8219  153.9562 N   0  0  0  0  0  0  0  0  0  0  0  0
  151.5647  138.0964  154.9577 C   0  0  0  0  0  0  0  0  0  0  0  0
  152.5289  137.3597  155.1625 O   0  0  0  0  0  0  0  0  0  0  0  0
  150.8606  137.0047  153.3853 H   0  0  0  0  0  0  0  0  0  0  0  0
  153.9503  139.9457  158.2171 H   0  0  0  0  0  0  0  0  0  0  0  0
  152.3899  139.9911  160.6710 H   0  0  0  0  0  0  0  0  0  0  0  0
  154.1287  140.0258  160.5753 H   0  0  0  0  0  0  0  0  0  0  0  0
  154.2003  142.3537  160.1638 H   0  0  0  0  0  0  0  0  0  0  0  0
  151.8917  141.8282  162.0868 H   0  0  0  0  0  0  0  0  0  0  0  0
  153.5721  142.1325  162.4774 H   0  0  0  0  0  0  0  0  0  0  0  0
  152.4066  144.2633  162.9012 H   0  0  0  0  0  0  0  0  0  0  0  0
  152.0695  145.7203  161.0017 H   0  0  0  0  0  0  0  0  0  0  0  0
  151.4833  144.6228  158.8535 H   0  0  0  0  0  0  0  0  0  0  0  0
  153.2319  144.5703  158.9540 H   0  0  0  0  0  0  0  0  0  0  0  0
  152.5439  142.3506  158.2931 H   0  0  0  0  0  0  0  0  0  0  0  0
  151.2461  142.3104  159.4594 H   0  0  0  0  0  0  0  0  0  0  0  0
  153.1372  139.5243  156.5120 H   0  0  0  0  0  0  0  0  0  0  0  0
  149.9197  140.9356  156.0063 H   0  0  0  0  0  0  0  0  0  0  0  0
  148.9917  138.2145  152.8306 H   0  0  0  0  0  0  0  0  0  0  0  0
  1  2  2  0  0  0  0
  2  3  1  0  0  0  0
  2 11  1  0  0  0  0
  3  4  1  0  0  0  0
  3 24  1  0  0  0  0
  4  5  1  0  0  0  0
  4 25  1  0  0  0  0
  4 26  1  0  0  0  0
  5 10  1  0  0  0  0
  5  6  1  0  0  0  0
  5 27  1  0  0  0  0
  6  7  1  0  0  0  0
  6 28  1  0  0  0  0
  6 29  1  0  0  0  0
  7  8  2  0  0  0  0
  7 30  1  0  0  0  0
  8  9  1  0  0  0  0
  8 31  1  0  0  0  0
  9 10  1  0  0  0  0
  9 32  1  0  0  0  0
  9 33  1  0  0  0  0
 10 34  1  0  0  0  0
 10 35  1  0  0  0  0
 11 12  1  0  0  0  0
 11 36  1  0  0  0  0
 12 21  1  0  0  0  0
 12 13  2  0  0  0  0
 13 14  1  0  0  0  0
 13 37  1  0  0  0  0
 14 15  1  0  0  0  0
 14 19  2  0  0  0  0
 15 16  1  0  0  0  0
 15 17  1  0  0  0  0
 15 18  1  0  0  0  0
 19 20  1  0  0  0  0
 19 38  1  0  0  0  0
 20 23  1  0  0  0  0
 20 21  1  0  0  0  0
 21 22  2  0  0  0  0
M  END
> <s_m_source_file>
AV-unprocessed.smi

> <i_m_source_file_index>
1128

> <i_lp_mmshare_version>
43012

> <i_f3d_flags>
0

> <s_epik_input>
Tz1jMVtuSF1bY0hdYyhDKEYpKEYpRilbY0hdYzFbTkhdQyg9TylbTkhdW0NIMl1bQ0BASF0yW0NIMl1bQ0hdPVtDSF1bQ0gyXVtDSDJdMg==

> <s_epik_cmdline>
J2VwaWtfcHl0aG9uJywgJy1waCcsICc3LjAnLCAnLXRuJywgJzgnLCAnLW1hJywgJzIwMCcsICctbWV0YWxfYmluZGluZycsICctaW1hZScsICc8aW5maWxlLm1hZT4nLCAnLW9tYWUnLCAnPG91dGZpbGUubWFlPic=

> <r_lp_tautomer_probability>
1

> <r_epik_Ionization_Penalty>
0.00381734

> <r_epik_Ionization_Penalty_Charging>
0.00379608

> <r_epik_Ionization_Penalty_Neutral>
2.12611e-05

> <r_epik_State_Penalty>
-0

> <r_epik_Charging_Adjusted_Penalty>
0.00379608

> <i_epik_Tot_Q>
0

> <i_epik_Tot_abs_Q>
0

> <r_epik_Metal_State_Penalty>
0.371155

> <b_epik_Metal_Only>
0

> <s_lp_Force_Field>
OPLS_2005

> <r_lp_Energy>
20.2087

> <b_lp_Chiralities_Consistent>
1

> <s_lp_Variant>
AV-unprocessed.smi:1128-1

> <Gold.Version>
5.8.1

> <Gold.Id.Protein>
6NUR|6NUR_protein|mol2

> <Gold.PLP.Fitness>
51.7097

> <Gold.PLP.PLP>
-46.6541

> <Gold.PLP.part.hbond>
-2.6259

> <Gold.PLP.part.metal>
0.0000

> <Gold.PLP.part.buried>
-1.0260

> <Gold.PLP.part.nonpolar>
-43.4669

> <Gold.PLP.part.repulsive>
1.6738

> <Gold.PLP.ligand.clash>
1.0406

> <Gold.PLP.ligand.torsion>
0.8805

> <Gold.PLP.Chemscore.Hbond>
1.3053

> <Gold.PLP.Chemscore.CHOScore>
1.3020

> <Gold.PLP.Chemscore.Metal>
0.0000

> <Gold.Chemscore.Hbonds>
donor molecule, donor type, donor heavy atom, donor atom, acceptor molecule, acceptor atom, score
      L1  H    20    23       P1  7949  0.55
      P1  H 10752 10764       L1    22  0.51
      L1  C    19    38       P1  7948  1.00
      L1  C    19    38       P1  7957  0.35

> <Gold.PLP.Chemscore.Internal.Correction>
0.0354

> <Gold.Rescore>
     Score         DG    S(hbond)    S(metal)    S(lipo)     H(rot)  DE(clash)    DE(int)     intcor
     15.57     -17.36       0.82        0.00     106.66       1.30       0.99       0.81       ----

> <Gold.Chemscore.Fitness>
15.5666

> <Gold.Chemscore.DG>
-17.3636

> <Gold.Chemscore.ZeroCoef>
-5.4800

> <Gold.Chemscore.Hbond>
0.8211

> <Gold.Chemscore.Metal>
0.0000

> <Gold.Chemscore.Lipo>
106.6572

> <Gold.Chemscore.Internal_Hbond>
0.0000

> <Gold.Chemscore.DEClash>
0.9873

> <Gold.Chemscore.DEInternal>
0.8097

> <Gold.Chemscore.Rot>
1.3038

> <Gold.Chemscore.Internal.Correction>
   9.000000E+99

> <Gold.Chemscore.Hbonds>
donor molecule, donor type, donor heavy atom, donor atom, acceptor molecule, acceptor atom, score
      L1  H    20    23       P1  7949  0.09
      P1  H 10752 10764       L1    22  0.50

> <Gold.Chemscore.Hbond.Weighted>
-2.7424

> <Gold.Chemscore.Metal.Weighted>
-0.0000

> <Gold.Chemscore.Lipo.Weighted>
-12.4789

> <Gold.Chemscore.Internal_Hbond.Weighted>
0.0000

> <Gold.Chemscore.DEClash.Weighted>
0.9873

> <Gold.Chemscore.DEInternal.Weighted>
0.8097

> <Gold.Chemscore.Rot.Weighted>
3.3377

> <Gold.Chemscore.Internal.Correction.Weighted>
   9.000000E+99

> <Gold.Protein.RotatedTorsions>
[ 6907 6896 6895 6894 ] final  140.50 input  -60.11 | X-H torsion
[ 7974 7965 7964 7962 ] final  -50.32 input  175.53 | X-H torsion
[ 8008 7997 7996 7995 ] final  139.83 input   59.86 | X-H torsion
[ 10167 10162 10161 10158 ] final   94.76 input  -65.29 | X-H torsion
[ 10718 10713 10712 10709 ] final    0.23 input   66.30 | X-H torsion
[ 10763 10752 10751 10750 ] final  -75.94 input  -60.55 | X-H torsion
[ 11005 11000 10999 10996 ] final -101.36 input  -57.11 | X-H torsion

> <Gold.Protein.ActiveResidues>
 VAL166  LYS551  ARG553  GLY616  TRP617  ASP618  TYR619  PRO620  LYS621  CYS622 
 ASP623  PHE694  ASN695  SER759  ASP760  ASP761  ALA762  ILE779  LEU786  VAL792 
 PHE793  MET794  SER795  GLU796  ALA797  LYS798  CYS799  TRP800  GLU811  SER814 

> <Gold.Protein.RotatedAtoms>
  152.2423  133.5146  159.5277 H   0  0  0  0  0  0  0  0  0  0  0  0  # atno 6907 bound_to 6896
  150.7068  134.1072  159.3996 H   0  0  0  0  0  0  0  0  0  0  0  0  # atno 6908 bound_to 6896
  151.8993  135.0385  160.0555 H   0  0  0  0  0  0  0  0  0  0  0  0  # atno 6909 bound_to 6896
  145.9311  140.7748  142.9599 H   0  0  0  0  0  0  0  0  0  0  0  0  # atno 7974 bound_to 7965
  156.2986  140.2357  156.4301 H   0  0  0  0  0  0  0  0  0  0  0  0  # atno 8008 bound_to 7997
  154.8277  140.0434  157.1476 H   0  0  0  0  0  0  0  0  0  0  0  0  # atno 8009 bound_to 7997
  154.9243  140.3008  155.5204 H   0  0  0  0  0  0  0  0  0  0  0  0  # atno 8010 bound_to 7997
  139.8053  144.6797  150.9711 H   0  0  0  0  0  0  0  0  0  0  0  0  # atno 10167 bound_to 10162
  156.8303  130.5486  149.5687 H   0  0  0  0  0  0  0  0  0  0  0  0  # atno 10718 bound_to 10713
  154.4933  135.5814  153.6475 H   0  0  0  0  0  0  0  0  0  0  0  0  # atno 10763 bound_to 10752
  152.9866  135.6118  154.3097 H   0  0  0  0  0  0  0  0  0  0  0  0  # atno 10764 bound_to 10752
  154.2999  135.2847  155.2595 H   0  0  0  0  0  0  0  0  0  0  0  0  # atno 10765 bound_to 10752
  141.1234  133.8471  157.1221 H   0  0  0  0  0  0  0  0  0  0  0  0  # atno 11005 bound_to 11000
  144.6765  140.2128  143.7375 LP  0  0  0  0  0  0  0  0  0  0  0  0  # atno 17320 bound_to 7965
  145.8425  139.2136  143.1819 LP  0  0  0  0  0  0  0  0  0  0  0  0  # atno 17321 bound_to 7965
  140.7819  143.4240  151.0797 LP  0  0  0  0  0  0  0  0  0  0  0  0  # atno 17342 bound_to 10162
  139.7910  143.8219  152.3151 LP  0  0  0  0  0  0  0  0  0  0  0  0  # atno 17343 bound_to 10162
  156.0938  130.5916  150.9778 LP  0  0  0  0  0  0  0  0  0  0  0  0  # atno 17370 bound_to 10713
  157.6410  131.0910  150.8251 LP  0  0  0  0  0  0  0  0  0  0  0  0  # atno 17371 bound_to 10713
  140.0210  134.9945  157.0592 LP  0  0  0  0  0  0  0  0  0  0  0  0  # atno 17394 bound_to 11000
  140.4439  134.1652  155.7176 LP  0  0  0  0  0  0  0  0  0  0  0  0  # atno 17395 bound_to 11000

$$$$
