AV-unprocessed.smi:798|AV-procd|sdf|3783|dock10
  -GOLD-   22720 1213D 1   1.00000     0.00000
 Structure written by MMmdl.
 33 35  0  0  0  0  0  0  0  0  2 V2000
  152.4634  137.4928  156.7684 O   0  0  0  0  0  0  0  0  0  0  0  0
  151.6666  137.5446  155.8287 C   0  0  0  0  0  0  0  0  0  0  0  0
  151.2044  136.4957  155.1108 N   0  5  0  0  0  0  0  0  0  0  0  0
  150.6037  135.4687  155.7340 C   0  0  0  0  0  0  0  0  0  0  0  0
  150.5041  135.3994  157.0713 N   0  0  0  0  0  0  0  0  0  0  0  0
  149.8512  134.2560  157.5118 N   0  0  0  0  0  0  0  0  0  0  0  0
  149.4823  133.4834  156.4903 C   0  0  0  0  0  0  0  0  0  0  0  0
  149.8999  134.0814  154.8984 S   0  0  0  0  0  0  0  0  0  0  0  0
  151.1820  138.7279  155.4252 N   0  0  0  0  0  0  0  0  0  0  0  0
  151.4980  140.0356  156.0035 C   0  0  2  0  0  0  0  0  0  0  0  0
  151.4016  139.9734  157.5433 C   0  0  1  0  0  0  0  0  0  0  0  0
  152.1029  141.2062  158.1421 C   0  0  0  0  0  0  0  0  0  0  0  0
  151.1296  142.3472  157.7892 C   0  0  0  0  0  0  0  0  0  0  0  0
  149.9983  141.6152  157.0396 C   0  0  2  0  0  0  0  0  0  0  0  0
  149.9349  140.2971  157.8005 C   0  0  0  0  0  0  0  0  0  0  0  0
  150.5034  141.1810  155.6414 C   0  0  2  0  0  0  0  0  0  0  0  0
  149.3618  140.8112  154.6665 C   0  0  0  0  0  0  0  0  0  0  0  0
  149.7917  140.9403  153.3273 O   0  0  0  0  0  0  0  0  0  0  0  0
  148.9640  132.5546  156.6756 H   0  0  0  0  0  0  0  0  0  0  0  0
  150.5342  138.7196  154.6511 H   0  0  0  0  0  0  0  0  0  0  0  0
  152.5148  140.3104  155.7159 H   0  0  0  0  0  0  0  0  0  0  0  0
  151.7485  139.0323  157.9723 H   0  0  0  0  0  0  0  0  0  0  0  0
  152.2023  141.1087  159.2238 H   0  0  0  0  0  0  0  0  0  0  0  0
  153.0995  141.3625  157.7278 H   0  0  0  0  0  0  0  0  0  0  0  0
  150.7505  142.8192  158.6965 H   0  0  0  0  0  0  0  0  0  0  0  0
  151.5979  143.1226  157.1819 H   0  0  0  0  0  0  0  0  0  0  0  0
  149.0648  142.1783  157.0228 H   0  0  0  0  0  0  0  0  0  0  0  0
  149.2466  139.5718  157.3643 H   0  0  0  0  0  0  0  0  0  0  0  0
  149.6980  140.4190  158.8589 H   0  0  0  0  0  0  0  0  0  0  0  0
  151.0629  141.9998  155.1857 H   0  0  0  0  0  0  0  0  0  0  0  0
  149.0545  139.7758  154.8128 H   0  0  0  0  0  0  0  0  0  0  0  0
  148.4824  141.4366  154.8214 H   0  0  0  0  0  0  0  0  0  0  0  0
  149.2128  140.4331  152.7791 H   0  0  0  0  0  0  0  0  0  0  0  0
  1  2  2  0  0  0  0
  2  3  1  0  0  0  0
  2  9  1  0  0  0  0
  3  4  1  0  0  0  0
  4  8  1  0  0  0  0
  4  5  2  0  0  0  0
  5  6  1  0  0  0  0
  6  7  2  0  0  0  0
  7  8  1  0  0  0  0
  7 19  1  0  0  0  0
  9 10  1  0  0  0  0
  9 20  1  0  0  0  0
 10 16  1  0  0  0  0
 10 11  1  0  0  0  0
 10 21  1  0  0  0  0
 11 15  1  0  0  0  0
 11 12  1  0  0  0  0
 11 22  1  0  0  0  0
 12 13  1  0  0  0  0
 12 23  1  0  0  0  0
 12 24  1  0  0  0  0
 13 14  1  0  0  0  0
 13 25  1  0  0  0  0
 13 26  1  0  0  0  0
 14 15  1  0  0  0  0
 14 16  1  0  0  0  0
 14 27  1  0  0  0  0
 15 28  1  0  0  0  0
 15 29  1  0  0  0  0
 16 17  1  0  0  0  0
 16 30  1  0  0  0  0
 17 18  1  0  0  0  0
 17 31  1  0  0  0  0
 17 32  1  0  0  0  0
 18 33  1  0  0  0  0
M  CHG  1   3  -1
M  END
> <s_m_source_file>
AV-unprocessed.smi

> <i_m_source_file_index>
798

> <i_lp_mmshare_version>
43012

> <i_f3d_flags>
0

> <s_epik_input>
W0NIMl0xW0NIMl1bQ0BASF0oW0NIMl0yKVtDQEBIXShbQ0gyXVtPSF0pW0NAQEhdKFtDQEhdMTIpW05IXUMoPU8pW05IXWMzbm5bY0hdczM=

> <s_epik_cmdline>
J2VwaWtfcHl0aG9uJywgJy1waCcsICc3LjAnLCAnLXRuJywgJzgnLCAnLW1hJywgJzIwMCcsICctbWV0YWxfYmluZGluZycsICctaW1hZScsICc8aW5maWxlLm1hZT4nLCAnLW9tYWUnLCAnPG91dGZpbGUubWFlPic=

> <r_lp_tautomer_probability>
1

> <r_epik_Ionization_Penalty>
4.53732

> <r_epik_Ionization_Penalty_Charging>
4.48632

> <r_epik_Ionization_Penalty_Neutral>
0.0510007

> <r_epik_State_Penalty>
4.48602

> <r_epik_Charging_Adjusted_Penalty>
8.97234

> <i_epik_Tot_Q>
-1

> <i_epik_Tot_abs_Q>
1

> <r_epik_Metal_State_Penalty>
0.812492

> <b_epik_Metal_Only>
1

> <s_lp_Force_Field>
OPLS_2005

> <r_lp_Energy>
47.4456

> <b_lp_Chiralities_Consistent>
1

> <s_lp_Variant>
AV-unprocessed.smi:798-15

> <Gold.Version>
5.8.1

> <Gold.Id.Protein>
6NUR|6NUR_protein|mol2

> <Gold.PLP.Fitness>
40.6901

> <Gold.PLP.PLP>
-28.9560

> <Gold.PLP.part.hbond>
-5.2034

> <Gold.PLP.part.metal>
0.0000

> <Gold.PLP.part.buried>
-4.8924

> <Gold.PLP.part.nonpolar>
-19.5770

> <Gold.PLP.part.repulsive>
0.2209

> <Gold.PLP.ligand.clash>
0.0000

> <Gold.PLP.ligand.torsion>
0.9714

> <Gold.PLP.Chemscore.Hbond>
4.5520

> <Gold.PLP.Chemscore.CHOScore>
0.0000

> <Gold.PLP.Chemscore.Metal>
0.0000

> <Gold.Chemscore.Hbonds>
donor molecule, donor type, donor heavy atom, donor atom, acceptor molecule, acceptor atom, score
      L1  H    18    33       P1  7957  0.43
      P1  H  6896  6909       L1     6  0.96
      P1  H  7989  7998       L1    18  0.21
      P1  H  8011  8017       L1    18  0.85
      P1  H 10752 10764       L1     3  1.98

> <Gold.PLP.Chemscore.Internal.Correction>
0.0210

> <Gold.Rescore>
     Score         DG    S(hbond)    S(metal)    S(lipo)     H(rot)  DE(clash)    DE(int)     intcor
     11.16     -14.66       2.17        0.00      58.64       1.92       0.00       3.49       ----

> <Gold.Chemscore.Fitness>
11.1606

> <Gold.Chemscore.DG>
-14.6582

> <Gold.Chemscore.ZeroCoef>
-5.4800

> <Gold.Chemscore.Hbond>
2.1661

> <Gold.Chemscore.Metal>
0.0000

> <Gold.Chemscore.Lipo>
58.6359

> <Gold.Chemscore.Internal_Hbond>
0.0000

> <Gold.Chemscore.DEClash>
0.0038

> <Gold.Chemscore.DEInternal>
3.4938

> <Gold.Chemscore.Rot>
1.9207

> <Gold.Chemscore.Internal.Correction>
   9.000000E+99

> <Gold.Chemscore.Hbonds>
donor molecule, donor type, donor heavy atom, donor atom, acceptor molecule, acceptor atom, score
      L1  H    18    33       P1  7957  0.44
      P1  H  6896  6909       L1     6  0.30
      P1  H  7989  7998       L1    18  0.10
      P1  H  8011  8017       L1    18  0.14
      P1  H 10752 10764       L1     3  0.11

> <Gold.Chemscore.Hbond.Weighted>
-7.2347

> <Gold.Chemscore.Metal.Weighted>
-0.0000

> <Gold.Chemscore.Lipo.Weighted>
-6.8604

> <Gold.Chemscore.Internal_Hbond.Weighted>
0.0000

> <Gold.Chemscore.DEClash.Weighted>
0.0038

> <Gold.Chemscore.DEInternal.Weighted>
3.4938

> <Gold.Chemscore.Rot.Weighted>
4.9169

> <Gold.Chemscore.Internal.Correction.Weighted>
   9.000000E+99

> <Gold.Protein.RotatedTorsions>
[ 6907 6896 6895 6894 ] final    6.07 input  -60.11 | X-H torsion
[ 7974 7965 7964 7962 ] final -149.79 input  175.53 | X-H torsion
[ 8008 7997 7996 7995 ] final   -4.94 input   59.86 | X-H torsion
[ 10167 10162 10161 10158 ] final   29.82 input  -65.29 | X-H torsion
[ 10718 10713 10712 10709 ] final  -83.78 input   66.30 | X-H torsion
[ 10763 10752 10751 10750 ] final  -68.42 input  -60.55 | X-H torsion
[ 11005 11000 10999 10996 ] final  148.05 input  -57.11 | X-H torsion

> <Gold.Protein.ActiveResidues>
 VAL166  LYS551  ARG553  GLY616  TRP617  ASP618  TYR619  PRO620  LYS621  CYS622 
 ASP623  PHE694  ASN695  SER759  ASP760  ASP761  ALA762  ILE779  LEU786  VAL792 
 PHE793  MET794  SER795  GLU796  ALA797  LYS798  CYS799  TRP800  GLU811  SER814 

> <Gold.Protein.RotatedAtoms>
  151.6677  135.0980  160.0191 H   0  0  0  0  0  0  0  0  0  0  0  0  # atno 6907 bound_to 6896
  152.3909  133.6674  159.6246 H   0  0  0  0  0  0  0  0  0  0  0  0  # atno 6908 bound_to 6896
  150.7825  133.8872  159.3344 H   0  0  0  0  0  0  0  0  0  0  0  0  # atno 6909 bound_to 6896
  144.7946  140.5018  143.5749 H   0  0  0  0  0  0  0  0  0  0  0  0  # atno 7974 bound_to 7965
  154.6091  140.2471  155.7693 H   0  0  0  0  0  0  0  0  0  0  0  0  # atno 8008 bound_to 7997
  156.2359  140.2950  156.0262 H   0  0  0  0  0  0  0  0  0  0  0  0  # atno 8009 bound_to 7997
  155.2083  140.0396  157.2919 H   0  0  0  0  0  0  0  0  0  0  0  0  # atno 8010 bound_to 7997
  140.4732  144.0730  150.6243 H   0  0  0  0  0  0  0  0  0  0  0  0  # atno 10167 bound_to 10162
  156.0014  130.4677  150.4310 H   0  0  0  0  0  0  0  0  0  0  0  0  # atno 10718 bound_to 10713
  154.3888  135.6057  153.5831 H   0  0  0  0  0  0  0  0  0  0  0  0  # atno 10763 bound_to 10752
  152.9787  135.5878  154.4322 H   0  0  0  0  0  0  0  0  0  0  0  0  # atno 10764 bound_to 10752
  154.4103  135.2844  155.2019 H   0  0  0  0  0  0  0  0  0  0  0  0  # atno 10765 bound_to 10752
  140.0927  134.9031  157.1675 H   0  0  0  0  0  0  0  0  0  0  0  0  # atno 11005 bound_to 11000
  145.5706  139.1483  143.3290 LP  0  0  0  0  0  0  0  0  0  0  0  0  # atno 17320 bound_to 7965
  146.2210  140.5840  142.9017 LP  0  0  0  0  0  0  0  0  0  0  0  0  # atno 17321 bound_to 7965
  140.3951  143.2732  152.0014 LP  0  0  0  0  0  0  0  0  0  0  0  0  # atno 17342 bound_to 10162
  139.4821  144.6045  151.7546 LP  0  0  0  0  0  0  0  0  0  0  0  0  # atno 17343 bound_to 10162
  157.2359  131.0514  151.2465 LP  0  0  0  0  0  0  0  0  0  0  0  0  # atno 17370 bound_to 10713
  157.3667  130.7159  149.6537 LP  0  0  0  0  0  0  0  0  0  0  0  0  # atno 17371 bound_to 10713
  140.3330  134.2789  155.7225 LP  0  0  0  0  0  0  0  0  0  0  0  0  # atno 17394 bound_to 11000
  141.2083  133.7782  157.0069 LP  0  0  0  0  0  0  0  0  0  0  0  0  # atno 17395 bound_to 11000

$$$$
