AV-unprocessed.smi:735|AV-procd|sdf|3533|dock10
  -GOLD-   22720 0523D 1   1.00000     0.00000
 Structure written by MMmdl.
 17 17  0  0  0  0  0  0  0  0  2 V2000
  151.4115  140.4669  155.2446 O   0  0  0  0  0  0  0  0  0  0  0  0
  152.1289  139.9331  156.1199 C   0  0  0  0  0  0  0  0  0  0  0  0
  153.1395  139.2328  155.8831 O   0  5  0  0  0  0  0  0  0  0  0  0
  151.7195  140.1572  157.5863 C   0  0  0  0  0  0  0  0  0  0  0  0
  150.4956  139.6456  157.7402 F   0  0  0  0  0  0  0  0  0  0  0  0
  152.5367  139.4327  158.3544 F   0  0  0  0  0  0  0  0  0  0  0  0
  151.7102  141.6389  157.9904 C   0  0  0  0  0  0  0  0  0  0  0  0
  150.8966  142.5307  157.3622 C   0  0  0  0  0  0  0  0  0  0  0  0
  150.8243  143.8639  157.7060 N   0  0  0  0  0  0  0  0  0  0  0  0
  151.5923  144.3793  158.7481 C   0  0  0  0  0  0  0  0  0  0  0  0
  151.5370  145.5643  159.0675 O   0  0  0  0  0  0  0  0  0  0  0  0
  152.4255  143.4789  159.4084 N   0  0  0  0  0  0  0  0  0  0  0  0
  152.5499  142.1166  159.1063 C   0  0  0  0  0  0  0  0  0  0  0  0
  153.3388  141.4389  159.7629 O   0  0  0  0  0  0  0  0  0  0  0  0
  150.2111  144.4935  157.2089 H   0  0  0  0  0  0  0  0  0  0  0  0
  152.9918  143.8381  160.1629 H   0  0  0  0  0  0  0  0  0  0  0  0
  150.2685  142.1988  156.5483 H   0  0  0  0  0  0  0  0  0  0  0  0
  1  2  2  0  0  0  0
  2  3  1  0  0  0  0
  2  4  1  0  0  0  0
  4  5  1  0  0  0  0
  4  6  1  0  0  0  0
  4  7  1  0  0  0  0
  7 13  1  0  0  0  0
  7  8  2  0  0  0  0
  8  9  1  0  0  0  0
  8 17  1  0  0  0  0
  9 15  1  0  0  0  0
  9 10  1  0  0  0  0
 10 11  2  0  0  0  0
 10 12  1  0  0  0  0
 12 16  1  0  0  0  0
 12 13  1  0  0  0  0
 13 14  2  0  0  0  0
M  CHG  1   3  -1
M  END
> <s_m_source_file>
AV-unprocessed.smi

> <i_m_source_file_index>
735

> <i_lp_mmshare_version>
43012

> <i_f3d_flags>
0

> <s_epik_input>
Tz1DKFtPSF0pQyhGKShGKWMxW2NIXVtuSF1jKD1PKVtuSF1jMT1P

> <s_epik_cmdline>
J2VwaWtfcHl0aG9uJywgJy1waCcsICc3LjAnLCAnLXRuJywgJzgnLCAnLW1hJywgJzIwMCcsICctbWV0YWxfYmluZGluZycsICctaW1hZScsICc8aW5maWxlLm1hZT4nLCAnLW9tYWUnLCAnPG91dGZpbGUubWFlPic=

> <r_lp_tautomer_probability>
0.999514

> <r_epik_Ionization_Penalty>
0.138461

> <r_epik_Ionization_Penalty_Charging>
0.138461

> <r_epik_Ionization_Penalty_Neutral>
0

> <r_epik_State_Penalty>
0.812948

> <r_epik_Charging_Adjusted_Penalty>
0.951409

> <i_epik_Tot_Q>
-1

> <i_epik_Tot_abs_Q>
1

> <r_epik_Metal_State_Penalty>
4.31017

> <b_epik_Metal_Only>
0

> <s_lp_Force_Field>
OPLS_2005

> <r_lp_Energy>
7.04955

> <b_lp_Chiralities_Consistent>
1

> <s_lp_Variant>
AV-unprocessed.smi:735-2

> <Gold.Version>
5.8.1

> <Gold.Id.Protein>
6NUR|6NUR_protein|mol2

> <Gold.PLP.Fitness>
38.1316

> <Gold.PLP.PLP>
-26.2831

> <Gold.PLP.part.hbond>
-4.0000

> <Gold.PLP.part.metal>
0.0000

> <Gold.PLP.part.buried>
-5.9494

> <Gold.PLP.part.nonpolar>
-16.9638

> <Gold.PLP.part.repulsive>
0.1785

> <Gold.PLP.ligand.clash>
0.0000

> <Gold.PLP.ligand.torsion>
0.0282

> <Gold.PLP.Chemscore.Hbond>
3.9520

> <Gold.PLP.Chemscore.CHOScore>
0.0000

> <Gold.PLP.Chemscore.Metal>
0.0000

> <Gold.Chemscore.Hbonds>
donor molecule, donor type, donor heavy atom, donor atom, acceptor molecule, acceptor atom, score
      L1  H     9    15       P1  8028  0.96
      P1  H  7989  7998       L1     1  0.90
      P1  H  7997  8008       L1     3  2.00

> <Gold.PLP.Chemscore.Internal.Correction>
0.0489

> <Gold.Rescore>
     Score         DG    S(hbond)    S(metal)    S(lipo)     H(rot)  DE(clash)    DE(int)     intcor
     10.30     -12.32       2.84        0.00      17.32       1.82       0.00       2.02       ----

> <Gold.Chemscore.Fitness>
10.3039

> <Gold.Chemscore.DG>
-12.3245

> <Gold.Chemscore.ZeroCoef>
-5.4800

> <Gold.Chemscore.Hbond>
2.8367

> <Gold.Chemscore.Metal>
0.0000

> <Gold.Chemscore.Lipo>
17.3155

> <Gold.Chemscore.Internal_Hbond>
0.0000

> <Gold.Chemscore.DEClash>
0.0000

> <Gold.Chemscore.DEInternal>
2.0207

> <Gold.Chemscore.Rot>
1.8187

> <Gold.Chemscore.Internal.Correction>
   9.000000E+99

> <Gold.Chemscore.Hbonds>
donor molecule, donor type, donor heavy atom, donor atom, acceptor molecule, acceptor atom, score
      L1  H     9    15       P1  8028  0.48
      P1  H  7989  7998       L1     1  0.88
      P1  H  7997  8008       L1     3  0.57

> <Gold.Chemscore.Hbond.Weighted>
-9.4746

> <Gold.Chemscore.Metal.Weighted>
-0.0000

> <Gold.Chemscore.Lipo.Weighted>
-2.0259

> <Gold.Chemscore.Internal_Hbond.Weighted>
0.0000

> <Gold.Chemscore.DEClash.Weighted>
0.0000

> <Gold.Chemscore.DEInternal.Weighted>
2.0207

> <Gold.Chemscore.Rot.Weighted>
4.6559

> <Gold.Chemscore.Internal.Correction.Weighted>
   9.000000E+99

> <Gold.Protein.RotatedTorsions>
[ 6907 6896 6895 6894 ] final -145.63 input  -60.11 | X-H torsion
[ 7974 7965 7964 7962 ] final  172.85 input  175.53 | X-H torsion
[ 8008 7997 7996 7995 ] final  -29.51 input   59.86 | X-H torsion
[ 10167 10162 10161 10158 ] final   92.88 input  -65.29 | X-H torsion
[ 10718 10713 10712 10709 ] final -142.86 input   66.30 | X-H torsion
[ 10763 10752 10751 10750 ] final   59.53 input  -60.55 | X-H torsion
[ 11005 11000 10999 10996 ] final  -11.14 input  -57.11 | X-H torsion

> <Gold.Protein.ActiveResidues>
 VAL166  LYS551  ARG553  GLY616  TRP617  ASP618  TYR619  PRO620  LYS621  CYS622 
 ASP623  PHE694  ASN695  SER759  ASP760  ASP761  ALA762  ILE779  LEU786  VAL792 
 PHE793  MET794  SER795  GLU796  ALA797  LYS798  CYS799  TRP800  GLU811  SER814 

> <Gold.Protein.RotatedAtoms>
  151.1304  133.5041  159.2599 H   0  0  0  0  0  0  0  0  0  0  0  0  # atno 6907 bound_to 6896
  151.1763  135.0340  159.8783 H   0  0  0  0  0  0  0  0  0  0  0  0  # atno 6908 bound_to 6896
  152.5459  134.1162  159.8433 H   0  0  0  0  0  0  0  0  0  0  0  0  # atno 6909 bound_to 6896
  144.7258  139.9560  143.6433 H   0  0  0  0  0  0  0  0  0  0  0  0  # atno 7974 bound_to 7965
  154.4287  140.1816  156.1259 H   0  0  0  0  0  0  0  0  0  0  0  0  # atno 8008 bound_to 7997
  156.0106  140.3351  155.6912 H   0  0  0  0  0  0  0  0  0  0  0  0  # atno 8009 bound_to 7997
  155.6115  140.0650  157.2695 H   0  0  0  0  0  0  0  0  0  0  0  0  # atno 8010 bound_to 7997
  139.8234  144.6721  150.9490 H   0  0  0  0  0  0  0  0  0  0  0  0  # atno 10167 bound_to 10162
  156.3510  130.7688  151.1840 H   0  0  0  0  0  0  0  0  0  0  0  0  # atno 10718 bound_to 10713
  152.9897  135.5568  154.5729 H   0  0  0  0  0  0  0  0  0  0  0  0  # atno 10763 bound_to 10752
  154.5125  135.2803  155.1332 H   0  0  0  0  0  0  0  0  0  0  0  0  # atno 10764 bound_to 10752
  154.2718  135.6361  153.5366 H   0  0  0  0  0  0  0  0  0  0  0  0  # atno 10765 bound_to 10752
  140.7521  133.8584  155.9053 H   0  0  0  0  0  0  0  0  0  0  0  0  # atno 11005 bound_to 11000
  146.0674  139.3665  143.0544 LP  0  0  0  0  0  0  0  0  0  0  0  0  # atno 17320 bound_to 7965
  145.8013  140.9770  143.0997 LP  0  0  0  0  0  0  0  0  0  0  0  0  # atno 17321 bound_to 7965
  140.7812  143.4070  151.1055 LP  0  0  0  0  0  0  0  0  0  0  0  0  # atno 17342 bound_to 10162
  139.7728  143.8468  152.3124 LP  0  0  0  0  0  0  0  0  0  0  0  0  # atno 17343 bound_to 10162
  157.7461  131.0427  150.4710 LP  0  0  0  0  0  0  0  0  0  0  0  0  # atno 17370 bound_to 10713
  156.4905  130.4094  149.6409 LP  0  0  0  0  0  0  0  0  0  0  0  0  # atno 17371 bound_to 10713
  140.9741  134.1492  157.4551 LP  0  0  0  0  0  0  0  0  0  0  0  0  # atno 17394 bound_to 11000
  139.8786  134.9988  156.5923 LP  0  0  0  0  0  0  0  0  0  0  0  0  # atno 17395 bound_to 11000

$$$$
