AV-unprocessed.smi:1626|AV-procd|sdf|6510|dock9
  -GOLD-   22720 7183D 1   1.00000     0.00000
 Structure written by MMmdl.
 49 51  0  0  0  0  0  0  0  0  3 V2000
  152.5561  143.7732  160.4662 C   0  0  0  0  0  0  0  0  0  0  0  0
  152.1294  142.8091  159.3723 C   0  0  0  0  0  0  0  0  0  0  0  0
  151.2671  143.2806  158.3565 C   0  0  0  0  0  0  0  0  0  0  0  0
  150.8977  142.3764  157.3679 C   0  0  0  0  0  0  0  0  0  0  0  0
  150.0800  142.5293  156.2459 N   0  3  0  0  0  0  0  0  0  0  0  0
  150.0196  141.3522  155.5633 C   0  0  0  0  0  0  0  0  0  0  0  0
  150.7770  140.4463  156.2407 N   0  0  0  0  0  0  0  0  0  0  0  0
  151.0613  139.0370  155.9402 C   0  0  0  0  0  0  0  0  0  0  0  0
  150.2128  138.4744  154.7810 C   0  0  2  0  0  0  0  0  0  0  0  0
  150.6112  139.1506  153.6059 O   0  0  0  0  0  0  0  0  0  0  0  0
  148.6931  138.6653  154.9846 C   0  0  0  0  0  0  0  0  0  0  0  0
  147.8842  138.0177  153.9197 N   0  3  2  0  0  0  0  0  0  0  0  0
  147.2070  139.0109  153.0458 C   0  0  0  0  0  0  0  0  0  0  0  0
  146.4965  138.3224  151.8684 C   0  0  0  0  0  0  0  0  0  0  0  0
  145.4968  137.2706  152.3710 C   0  0  1  0  0  0  0  0  0  0  0  0
  144.9365  136.5859  151.2712 O   0  0  0  0  0  0  0  0  0  0  0  0
  146.2102  136.2735  153.2958 C   0  0  0  0  0  0  0  0  0  0  0  0
  146.9251  137.0072  154.4433 C   0  0  0  0  0  0  0  0  0  0  0  0
  151.3529  141.0437  157.3668 C   0  0  0  0  0  0  0  0  0  0  0  0
  152.2044  140.5631  158.3585 C   0  0  0  0  0  0  0  0  0  0  0  0
  152.5906  141.4671  159.3738 C   0  0  0  0  0  0  0  0  0  0  0  0
  153.5168  140.9707  160.4711 C   0  0  0  0  0  0  0  0  0  0  0  0
  152.1542  144.7725  160.2965 H   0  0  0  0  0  0  0  0  0  0  0  0
  153.6426  143.8549  160.5037 H   0  0  0  0  0  0  0  0  0  0  0  0
  152.2002  143.4306  161.4380 H   0  0  0  0  0  0  0  0  0  0  0  0
  150.9139  144.3014  158.3480 H   0  0  0  0  0  0  0  0  0  0  0  0
  149.4695  141.1713  154.6508 H   0  0  0  0  0  0  0  0  0  0  0  0
  152.1234  138.9651  155.7004 H   0  0  0  0  0  0  0  0  0  0  0  0
  150.9103  138.4586  156.8531 H   0  0  0  0  0  0  0  0  0  0  0  0
  150.4526  137.4198  154.6543 H   0  0  0  0  0  0  0  0  0  0  0  0
  149.8574  139.2778  153.0506 H   0  0  0  0  0  0  0  0  0  0  0  0
  148.3729  138.2706  155.9496 H   0  0  0  0  0  0  0  0  0  0  0  0
  148.4831  139.7357  155.0137 H   0  0  0  0  0  0  0  0  0  0  0  0
  146.4913  139.5883  153.6335 H   0  0  0  0  0  0  0  0  0  0  0  0
  147.9398  139.7176  152.6539 H   0  0  0  0  0  0  0  0  0  0  0  0
  145.9838  139.0671  151.2582 H   0  0  0  0  0  0  0  0  0  0  0  0
  147.2400  137.8514  151.2232 H   0  0  0  0  0  0  0  0  0  0  0  0
  144.6892  137.7629  152.9146 H   0  0  0  0  0  0  0  0  0  0  0  0
  144.4643  137.2055  150.7356 H   0  0  0  0  0  0  0  0  0  0  0  0
  145.4933  135.5588  153.7021 H   0  0  0  0  0  0  0  0  0  0  0  0
  146.9391  135.6934  152.7275 H   0  0  0  0  0  0  0  0  0  0  0  0
  147.4413  136.2741  155.0619 H   0  0  0  0  0  0  0  0  0  0  0  0
  146.1924  137.4985  155.0855 H   0  0  0  0  0  0  0  0  0  0  0  0
  152.5610  139.5436  158.3560 H   0  0  0  0  0  0  0  0  0  0  0  0
  153.7457  139.9115  160.3511 H   0  0  0  0  0  0  0  0  0  0  0  0
  153.0570  141.1018  161.4509 H   0  0  0  0  0  0  0  0  0  0  0  0
  154.4587  141.5193  160.4532 H   0  0  0  0  0  0  0  0  0  0  0  0
  148.5370  137.5272  153.3255 H   0  0  0  0  0  0  0  0  0  0  0  0
  149.6053  143.3764  155.9600 H   0  0  0  0  0  0  0  0  0  0  0  0
  1  2  1  0  0  0  0
  1 23  1  0  0  0  0
  1 24  1  0  0  0  0
  1 25  1  0  0  0  0
  2 21  1  0  0  0  0
  2  3  2  0  0  0  0
  3  4  1  0  0  0  0
  3 26  1  0  0  0  0
  4 19  2  0  0  0  0
  4  5  1  0  0  0  0
  5  6  2  0  0  0  0
  5 49  1  0  0  0  0
  6  7  1  0  0  0  0
  6 27  1  0  0  0  0
  7  8  1  0  0  0  0
  7 19  1  0  0  0  0
  8  9  1  0  0  0  0
  8 28  1  0  0  0  0
  8 29  1  0  0  0  0
  9 10  1  0  0  0  0
  9 11  1  0  0  0  0
  9 30  1  0  0  0  0
 10 31  1  0  0  0  0
 11 12  1  0  0  0  0
 11 32  1  0  0  0  0
 11 33  1  0  0  0  0
 12 18  1  0  0  0  0
 12 13  1  0  0  0  0
 12 48  1  0  0  0  0
 13 14  1  0  0  0  0
 13 34  1  0  0  0  0
 13 35  1  0  0  0  0
 14 15  1  0  0  0  0
 14 36  1  0  0  0  0
 14 37  1  0  0  0  0
 15 16  1  0  0  0  0
 15 17  1  0  0  0  0
 15 38  1  0  0  0  0
 16 39  1  0  0  0  0
 17 18  1  0  0  0  0
 17 40  1  0  0  0  0
 17 41  1  0  0  0  0
 18 42  1  0  0  0  0
 18 43  1  0  0  0  0
 19 20  1  0  0  0  0
 20 21  2  0  0  0  0
 20 44  1  0  0  0  0
 21 22  1  0  0  0  0
 22 45  1  0  0  0  0
 22 46  1  0  0  0  0
 22 47  1  0  0  0  0
M  CHG  1   5   1
M  CHG  1  12   1
M  END
> <s_m_source_file>
AV-unprocessed.smi

> <i_m_source_file_index>
1626

> <i_lp_mmshare_version>
43012

> <i_f3d_flags>
0

> <s_epik_input>
W0NIM11jKFtjSF0xKWMoW0NIM10pW2NIXWMoYzEyKW4oW2NIXW4yKVtDSDJdW0NASF0oW09IXSlbQ0gyXU4zW0NIMl1bQ0gyXVtDSF0oW09IXSlbQ0gyXVtDSDJdMw==

> <s_epik_cmdline>
J2VwaWtfcHl0aG9uJywgJy1waCcsICc3LjAnLCAnLXRuJywgJzgnLCAnLW1hJywgJzIwMCcsICctbWV0YWxfYmluZGluZycsICctaW1hZScsICc8aW5maWxlLm1hZT4nLCAnLW9tYWUnLCAnPG91dGZpbGUubWFlPic=

> <r_epik_Ionization_Penalty>
1.19369

> <r_epik_Ionization_Penalty_Charging>
1.19369

> <r_epik_Ionization_Penalty_Neutral>
1.68219e-06

> <r_epik_State_Penalty>
1.27429

> <r_epik_Charging_Adjusted_Penalty>
2.46798

> <i_epik_Tot_Q>
2

> <i_epik_Tot_abs_Q>
2

> <r_epik_Metal_State_Penalty>
5.29157

> <b_epik_Metal_Only>
0

> <s_lp_Force_Field>
OPLS_2005

> <r_lp_Energy>
33.2617

> <b_lp_Chiralities_Consistent>
1

> <s_lp_Variant>
AV-unprocessed.smi:1626-5

> <Gold.Version>
5.8.1

> <Gold.Id.Protein>
6NUR|6NUR_protein|mol2

> <Gold.PLP.Fitness>
60.1418

> <Gold.PLP.PLP>
-42.0200

> <Gold.PLP.part.hbond>
-5.0000

> <Gold.PLP.part.metal>
0.0000

> <Gold.PLP.part.buried>
-0.3968

> <Gold.PLP.part.nonpolar>
-37.0631

> <Gold.PLP.part.repulsive>
0.1146

> <Gold.PLP.ligand.clash>
0.0000

> <Gold.PLP.ligand.torsion>
0.8278

> <Gold.PLP.Chemscore.Hbond>
6.5840

> <Gold.PLP.Chemscore.CHOScore>
0.0000

> <Gold.PLP.Chemscore.Metal>
0.0000

> <Gold.Chemscore.Hbonds>
donor molecule, donor type, donor heavy atom, donor atom, acceptor molecule, acceptor atom, score
      L1  H     5    49       P1  8028  2.00
      L1  H    10    31       P1  7957  0.63
      L1  H    12    48       P1  7948  2.00
      L1  H    16    39       P1 10171  1.00
      P1  H  7989  7998       L1    10  0.90

> <Gold.PLP.Chemscore.Internal.Correction>
0.0253

> <Gold.Rescore>
     Score         DG    S(hbond)    S(metal)    S(lipo)     H(rot)  DE(clash)    DE(int)     intcor
     22.79     -26.27       4.22        0.00     117.04       2.74       1.48       2.01       ----

> <Gold.Chemscore.Fitness>
22.7894

> <Gold.Chemscore.DG>
-26.2713

> <Gold.Chemscore.ZeroCoef>
-5.4800

> <Gold.Chemscore.Hbond>
4.2238

> <Gold.Chemscore.Metal>
0.0000

> <Gold.Chemscore.Lipo>
117.0437

> <Gold.Chemscore.Internal_Hbond>
0.0000

> <Gold.Chemscore.DEClash>
1.4768

> <Gold.Chemscore.DEInternal>
2.0051

> <Gold.Chemscore.Rot>
2.7384

> <Gold.Chemscore.Internal.Correction>
   9.000000E+99

> <Gold.Chemscore.Hbonds>
donor molecule, donor type, donor heavy atom, donor atom, acceptor molecule, acceptor atom, score
      L1  H     5    49       P1  8028  0.95
      L1  H    10    31       P1  7957  0.59
      L1  H    12    48       P1  7948  0.94
      L1  H    16    39       P1 10171  1.00
      P1  H  7989  7998       L1    10  0.38

> <Gold.Chemscore.Hbond.Weighted>
-14.1075

> <Gold.Chemscore.Metal.Weighted>
-0.0000

> <Gold.Chemscore.Lipo.Weighted>
-13.6941

> <Gold.Chemscore.Internal_Hbond.Weighted>
0.0000

> <Gold.Chemscore.DEClash.Weighted>
1.4768

> <Gold.Chemscore.DEInternal.Weighted>
2.0051

> <Gold.Chemscore.Rot.Weighted>
7.0103

> <Gold.Chemscore.Internal.Correction.Weighted>
   9.000000E+99

> <Gold.Protein.RotatedTorsions>
[ 6907 6896 6895 6894 ] final  118.34 input  -60.11 | X-H torsion
[ 7974 7965 7964 7962 ] final -119.82 input  175.53 | X-H torsion
[ 8008 7997 7996 7995 ] final    2.35 input   59.86 | X-H torsion
[ 10167 10162 10161 10158 ] final -131.51 input  -65.29 | X-H torsion
[ 10718 10713 10712 10709 ] final -167.29 input   66.30 | X-H torsion
[ 10763 10752 10751 10750 ] final -136.39 input  -60.55 | X-H torsion
[ 11005 11000 10999 10996 ] final -163.86 input  -57.11 | X-H torsion

> <Gold.Protein.ActiveResidues>
 VAL166  LYS551  ARG553  GLY616  TRP617  ASP618  TYR619  PRO620  LYS621  CYS622 
 ASP623  PHE694  ASN695  SER759  ASP760  ASP761  ALA762  ILE779  LEU786  VAL792 
 PHE793  MET794  SER795  GLU796  ALA797  LYS798  CYS799  TRP800  GLU811  SER814 

> <Gold.Protein.RotatedAtoms>
  152.4549  133.7704  159.6795 H   0  0  0  0  0  0  0  0  0  0  0  0  # atno 6907 bound_to 6896
  150.8473  133.7832  159.3045 H   0  0  0  0  0  0  0  0  0  0  0  0  # atno 6908 bound_to 6896
  151.5438  135.1071  159.9985 H   0  0  0  0  0  0  0  0  0  0  0  0  # atno 6909 bound_to 6896
  145.0583  140.8271  143.4168 H   0  0  0  0  0  0  0  0  0  0  0  0  # atno 7974 bound_to 7965
  154.6906  140.2652  155.6816 H   0  0  0  0  0  0  0  0  0  0  0  0  # atno 8008 bound_to 7997
  156.2730  140.2792  156.1406 H   0  0  0  0  0  0  0  0  0  0  0  0  # atno 8009 bound_to 7997
  155.0902  140.0373  157.2656 H   0  0  0  0  0  0  0  0  0  0  0  0  # atno 8010 bound_to 7997
  139.9181  143.6414  152.2560 H   0  0  0  0  0  0  0  0  0  0  0  0  # atno 10167 bound_to 10162
  156.6802  130.9118  151.3056 H   0  0  0  0  0  0  0  0  0  0  0  0  # atno 10718 bound_to 10713
  154.8685  135.3674  154.5052 H   0  0  0  0  0  0  0  0  0  0  0  0  # atno 10763 bound_to 10752
  153.5691  135.7021  153.5518 H   0  0  0  0  0  0  0  0  0  0  0  0  # atno 10764 bound_to 10752
  153.3558  135.4059  155.1644 H   0  0  0  0  0  0  0  0  0  0  0  0  # atno 10765 bound_to 10752
  140.5934  134.5021  157.5196 H   0  0  0  0  0  0  0  0  0  0  0  0  # atno 11005 bound_to 11000
  145.1441  139.2554  143.5475 LP  0  0  0  0  0  0  0  0  0  0  0  0  # atno 17320 bound_to 7965
  146.3523  140.1126  142.8603 LP  0  0  0  0  0  0  0  0  0  0  0  0  # atno 17321 bound_to 7965
  139.6884  144.7649  151.1482 LP  0  0  0  0  0  0  0  0  0  0  0  0  # atno 17342 bound_to 10162
  140.7669  143.5623  150.9085 LP  0  0  0  0  0  0  0  0  0  0  0  0  # atno 17343 bound_to 10162
  157.7046  130.9371  150.0891 LP  0  0  0  0  0  0  0  0  0  0  0  0  # atno 17370 bound_to 10713
  156.1873  130.3653  149.8955 LP  0  0  0  0  0  0  0  0  0  0  0  0  # atno 17371 bound_to 10713
  139.9264  134.8048  156.1057 LP  0  0  0  0  0  0  0  0  0  0  0  0  # atno 17394 bound_to 11000
  141.0920  133.6710  156.2561 LP  0  0  0  0  0  0  0  0  0  0  0  0  # atno 17395 bound_to 11000

$$$$
