AV-unprocessed.smi:1603|AV-procd|sdf|6446|dock6
  -GOLD-   22720 7 93D 1   1.00000     0.00000
 Structure written by MMmdl.
 44 46  0  0  0  0  0  0  0  0  1 V2000
  147.2172  136.2370  154.6338 O   0  0  0  0  0  0  0  0  0  0  0  0
  146.5899  135.5843  153.7988 C   0  0  0  0  0  0  0  0  0  0  0  0
  146.6358  134.1166  153.7135 C   0  0  0  0  0  0  0  0  0  0  0  0
  147.4982  133.3672  154.7256 C   0  0  0  0  0  0  0  0  0  0  0  0
  148.7501  133.8273  154.7444 F   0  0  0  0  0  0  0  0  0  0  0  0
  146.9968  133.4974  155.9545 F   0  0  0  0  0  0  0  0  0  0  0  0
  147.5460  132.0676  154.4302 F   0  0  0  0  0  0  0  0  0  0  0  0
  145.9234  133.4692  152.7593 C   0  0  0  0  0  0  0  0  0  0  0  0
  145.1126  134.2158  151.8186 C   0  0  0  0  0  0  0  0  0  0  0  0
  144.3078  133.5624  150.7319 C   0  0  0  0  0  0  0  0  0  0  0  0
  143.1440  132.6464  151.0354 C   0  0  0  0  0  0  0  0  0  0  0  0
  144.4152  132.0832  150.4434 C   0  0  0  0  0  0  0  0  0  0  0  0
  145.0674  135.5028  151.9007 N   0  0  0  0  0  0  0  0  0  0  0  0
  145.7900  136.1780  152.8641 N   0  0  0  0  0  0  0  0  0  0  0  0
  145.6432  137.6378  152.8007 C   0  0  0  0  0  0  0  0  0  0  0  0
  146.9953  138.3489  152.5641 C   0  0  1  0  0  0  0  0  0  0  0  0
  147.1094  138.5924  151.1746 O   0  0  0  0  0  0  0  0  0  0  0  0
  147.0673  139.7100  153.2921 C   0  0  0  0  0  0  0  0  0  0  0  0
  148.1503  139.8402  154.2680 N   0  0  0  0  0  0  0  0  0  0  0  0
  149.2671  138.9372  153.9976 C   0  0  0  0  0  0  0  0  0  0  0  0
  150.4071  139.1099  155.0168 C   0  0  0  0  0  0  0  0  0  0  0  0
  150.8391  140.4668  155.0297 O   0  0  0  0  0  0  0  0  0  0  0  0
  149.7864  141.3738  155.3396 C   0  0  0  0  0  0  0  0  0  0  0  0
  148.6498  141.2105  154.3160 C   0  0  0  0  0  0  0  0  0  0  0  0
  145.9429  132.3924  152.6813 H   0  0  0  0  0  0  0  0  0  0  0  0
  144.2013  134.2282  149.8776 H   0  0  0  0  0  0  0  0  0  0  0  0
  142.9326  132.4065  152.0759 H   0  0  0  0  0  0  0  0  0  0  0  0
  142.2728  132.7107  150.3868 H   0  0  0  0  0  0  0  0  0  0  0  0
  144.3900  131.7726  149.4007 H   0  0  0  0  0  0  0  0  0  0  0  0
  145.0459  131.4802  151.0943 H   0  0  0  0  0  0  0  0  0  0  0  0
  144.9207  137.9249  152.0337 H   0  0  0  0  0  0  0  0  0  0  0  0
  145.2009  137.9780  153.7388 H   0  0  0  0  0  0  0  0  0  0  0  0
  147.8177  137.7128  152.8951 H   0  0  0  0  0  0  0  0  0  0  0  0
  147.4556  139.4628  151.0492 H   0  0  0  0  0  0  0  0  0  0  0  0
  147.0983  140.5302  152.5728 H   0  0  0  0  0  0  0  0  0  0  0  0
  146.1301  139.8421  153.8341 H   0  0  0  0  0  0  0  0  0  0  0  0
  148.9301  137.9013  154.0268 H   0  0  0  0  0  0  0  0  0  0  0  0
  149.6512  139.1145  152.9917 H   0  0  0  0  0  0  0  0  0  0  0  0
  150.0795  138.8161  156.0154 H   0  0  0  0  0  0  0  0  0  0  0  0
  151.2498  138.4700  154.7550 H   0  0  0  0  0  0  0  0  0  0  0  0
  149.4244  141.1906  156.3525 H   0  0  0  0  0  0  0  0  0  0  0  0
  150.1748  142.3922  155.3167 H   0  0  0  0  0  0  0  0  0  0  0  0
  149.0086  141.5080  153.3293 H   0  0  0  0  0  0  0  0  0  0  0  0
  147.8377  141.8926  154.5710 H   0  0  0  0  0  0  0  0  0  0  0  0
  1  2  2  0  0  0  0
  2 14  1  0  0  0  0
  2  3  1  0  0  0  0
  3  4  1  0  0  0  0
  3  8  2  0  0  0  0
  4  5  1  0  0  0  0
  4  6  1  0  0  0  0
  4  7  1  0  0  0  0
  8  9  1  0  0  0  0
  8 25  1  0  0  0  0
  9 10  1  0  0  0  0
  9 13  2  0  0  0  0
 10 12  1  0  0  0  0
 10 11  1  0  0  0  0
 10 26  1  0  0  0  0
 11 12  1  0  0  0  0
 11 27  1  0  0  0  0
 11 28  1  0  0  0  0
 12 29  1  0  0  0  0
 12 30  1  0  0  0  0
 13 14  1  0  0  0  0
 14 15  1  0  0  0  0
 15 16  1  0  0  0  0
 15 31  1  0  0  0  0
 15 32  1  0  0  0  0
 16 17  1  0  0  0  0
 16 18  1  0  0  0  0
 16 33  1  0  0  0  0
 17 34  1  0  0  0  0
 18 19  1  0  0  0  0
 18 35  1  0  0  0  0
 18 36  1  0  0  0  0
 19 24  1  0  0  0  0
 19 20  1  0  0  0  0
 20 21  1  0  0  0  0
 20 37  1  0  0  0  0
 20 38  1  0  0  0  0
 21 22  1  0  0  0  0
 21 39  1  0  0  0  0
 21 40  1  0  0  0  0
 22 23  1  0  0  0  0
 23 24  1  0  0  0  0
 23 41  1  0  0  0  0
 23 42  1  0  0  0  0
 24 43  1  0  0  0  0
 24 44  1  0  0  0  0
M  END
> <s_m_source_file>
AV-unprocessed.smi

> <i_m_source_file_index>
1603

> <i_lp_mmshare_version>
43012

> <i_f3d_flags>
0

> <s_epik_input>
Tz1jMWMoQyhGKShGKUYpW2NIXWMoW0NIXTJbQ0gyXVtDSDJdMilubjFbQ0gyXVtDQEhdKFtPSF0pW0NIMl1OM1tDSDJdW0NIMl1PW0NIMl1bQ0gyXTM=

> <s_epik_cmdline>
J2VwaWtfcHl0aG9uJywgJy1waCcsICc3LjAnLCAnLXRuJywgJzgnLCAnLW1hJywgJzIwMCcsICctbWV0YWxfYmluZGluZycsICctaW1hZScsICc8aW5maWxlLm1hZT4nLCAnLW9tYWUnLCAnPG91dGZpbGUubWFlPic=

> <r_lp_tautomer_probability>
1

> <r_epik_Ionization_Penalty>
0.450313

> <r_epik_Ionization_Penalty_Charging>
7.22079e-10

> <r_epik_Ionization_Penalty_Neutral>
0.450313

> <r_epik_State_Penalty>
0.45306

> <r_epik_Charging_Adjusted_Penalty>
0.45306

> <i_epik_Tot_Q>
0

> <i_epik_Tot_abs_Q>
0

> <r_epik_Metal_State_Penalty>
0.45306

> <b_epik_Metal_Only>
0

> <s_lp_Force_Field>
OPLS_2005

> <r_lp_Energy>
51.835

> <b_lp_Chiralities_Consistent>
1

> <s_lp_Variant>
AV-unprocessed.smi:1603-4

> <Gold.Version>
5.8.1

> <Gold.Id.Protein>
6NUR|6NUR_protein|mol2

> <Gold.PLP.Fitness>
40.3011

> <Gold.PLP.PLP>
-37.9766

> <Gold.PLP.part.hbond>
-3.6702

> <Gold.PLP.part.metal>
0.0000

> <Gold.PLP.part.buried>
1.8263

> <Gold.PLP.part.nonpolar>
-35.2998

> <Gold.PLP.part.repulsive>
1.2234

> <Gold.PLP.ligand.clash>
1.1459

> <Gold.PLP.ligand.torsion>
1.8932

> <Gold.PLP.Chemscore.Hbond>
2.2100

> <Gold.PLP.Chemscore.CHOScore>
0.0000

> <Gold.PLP.Chemscore.Metal>
0.0000

> <Gold.Chemscore.Hbonds>
donor molecule, donor type, donor heavy atom, donor atom, acceptor molecule, acceptor atom, score
      L1  H    17    34       P1  7957  0.33
      P1  H  7954  7966       L1    17  0.65
      P1  H  7989  7998       L1    22  1.00

> <Gold.PLP.Chemscore.Internal.Correction>
0.6268

> <Gold.Rescore>
     Score         DG    S(hbond)    S(metal)    S(lipo)     H(rot)  DE(clash)    DE(int)     intcor
      8.84     -13.79       1.21        0.00      89.59       2.43       0.61       4.35       ----

> <Gold.Chemscore.Fitness>
8.8352

> <Gold.Chemscore.DG>
-13.7915

> <Gold.Chemscore.ZeroCoef>
-5.4800

> <Gold.Chemscore.Hbond>
1.2106

> <Gold.Chemscore.Metal>
0.0000

> <Gold.Chemscore.Lipo>
89.5879

> <Gold.Chemscore.Internal_Hbond>
0.0000

> <Gold.Chemscore.DEClash>
0.6079

> <Gold.Chemscore.DEInternal>
4.3485

> <Gold.Chemscore.Rot>
2.4272

> <Gold.Chemscore.Internal.Correction>
   9.000000E+99

> <Gold.Chemscore.Hbonds>
donor molecule, donor type, donor heavy atom, donor atom, acceptor molecule, acceptor atom, score
      L1  H    17    34       P1  7957  0.26
      P1  H  7954  7966       L1    17  0.05
      P1  H  7989  7998       L1    22  0.62

> <Gold.Chemscore.Hbond.Weighted>
-4.0433

> <Gold.Chemscore.Metal.Weighted>
-0.0000

> <Gold.Chemscore.Lipo.Weighted>
-10.4818

> <Gold.Chemscore.Internal_Hbond.Weighted>
0.0000

> <Gold.Chemscore.DEClash.Weighted>
0.6079

> <Gold.Chemscore.DEInternal.Weighted>
4.3485

> <Gold.Chemscore.Rot.Weighted>
6.2135

> <Gold.Chemscore.Internal.Correction.Weighted>
   9.000000E+99

> <Gold.Protein.RotatedTorsions>
[ 6907 6896 6895 6894 ] final  172.47 input  -60.11 | X-H torsion
[ 7974 7965 7964 7962 ] final   56.02 input  175.53 | X-H torsion
[ 8008 7997 7996 7995 ] final  138.87 input   59.86 | X-H torsion
[ 10167 10162 10161 10158 ] final  -72.69 input  -65.29 | X-H torsion
[ 10718 10713 10712 10709 ] final  -75.84 input   66.30 | X-H torsion
[ 10763 10752 10751 10750 ] final  -99.19 input  -60.55 | X-H torsion
[ 11005 11000 10999 10996 ] final  -85.93 input  -57.11 | X-H torsion

> <Gold.Protein.ActiveResidues>
 VAL166  LYS551  ARG553  GLY616  TRP617  ASP618  TYR619  PRO620  LYS621  CYS622 
 ASP623  PHE694  ASN695  SER759  ASP760  ASP761  ALA762  ILE779  LEU786  VAL792 
 PHE793  MET794  SER795  GLU796  ALA797  LYS798  CYS799  TRP800  GLU811  SER814 

> <Gold.Protein.RotatedAtoms>
  151.7838  133.3352  159.3478 H   0  0  0  0  0  0  0  0  0  0  0  0  # atno 6907 bound_to 6896
  150.7416  134.5906  159.5995 H   0  0  0  0  0  0  0  0  0  0  0  0  # atno 6908 bound_to 6896
  152.3257  134.7325  160.0354 H   0  0  0  0  0  0  0  0  0  0  0  0  # atno 6909 bound_to 6896
  145.9442  139.3915  143.0345 H   0  0  0  0  0  0  0  0  0  0  0  0  # atno 7974 bound_to 7965
  156.2994  140.2382  156.4145 H   0  0  0  0  0  0  0  0  0  0  0  0  # atno 8008 bound_to 7997
  154.8411  140.0428  157.1562 H   0  0  0  0  0  0  0  0  0  0  0  0  # atno 8009 bound_to 7997
  154.9101  140.2989  155.5274 H   0  0  0  0  0  0  0  0  0  0  0  0  # atno 8010 bound_to 7997
  140.5172  143.2336  151.7493 H   0  0  0  0  0  0  0  0  0  0  0  0  # atno 10167 bound_to 10162
  156.0194  130.4450  150.3103 H   0  0  0  0  0  0  0  0  0  0  0  0  # atno 10718 bound_to 10713
  154.7478  135.4981  153.9234 H   0  0  0  0  0  0  0  0  0  0  0  0  # atno 10763 bound_to 10752
  153.1110  135.6709  153.9508 H   0  0  0  0  0  0  0  0  0  0  0  0  # atno 10764 bound_to 10752
  153.9268  135.3082  155.3425 H   0  0  0  0  0  0  0  0  0  0  0  0  # atno 10765 bound_to 10752
  141.1636  133.7426  156.9088 H   0  0  0  0  0  0  0  0  0  0  0  0  # atno 11005 bound_to 11000
  145.8258  140.9656  143.0875 LP  0  0  0  0  0  0  0  0  0  0  0  0  # atno 17320 bound_to 7965
  144.6784  140.0100  143.7484 LP  0  0  0  0  0  0  0  0  0  0  0  0  # atno 17321 bound_to 7965
  139.4912  144.4307  151.9875 LP  0  0  0  0  0  0  0  0  0  0  0  0  # atno 17342 bound_to 10162
  140.3402  144.3212  150.5969 LP  0  0  0  0  0  0  0  0  0  0  0  0  # atno 17343 bound_to 10162
  157.1205  131.0245  151.3011 LP  0  0  0  0  0  0  0  0  0  0  0  0  # atno 17370 bound_to 10713
  157.4632  130.7665  149.7255 LP  0  0  0  0  0  0  0  0  0  0  0  0  # atno 17371 bound_to 10713
  140.1531  134.9216  157.2619 LP  0  0  0  0  0  0  0  0  0  0  0  0  # atno 17394 bound_to 11000
  140.2699  134.3473  155.7377 LP  0  0  0  0  0  0  0  0  0  0  0  0  # atno 17395 bound_to 11000

$$$$
