AV-unprocessed.smi:2379|AV-procd|sdf|9453|dock5
  -GOLD-   2272013 83D 1   1.00000     0.00000
 Structure written by MMmdl.
 53 55  0  0  0  0  0  0  0  0  2 V2000
  151.8329  145.8707  160.1443 C   0  0  0  0  0  0  0  0  0  0  0  0
  151.7147  144.4673  159.5882 C   0  0  0  0  0  0  0  0  0  0  0  0
  152.3356  143.3816  160.2348 C   0  0  0  0  0  0  0  0  0  0  0  0
  152.1884  142.0993  159.6712 C   0  0  0  0  0  0  0  0  0  0  0  0
  152.8305  140.8887  160.3154 C   0  0  0  0  0  0  0  0  0  0  0  0
  151.4844  141.8673  158.5425 N   0  0  0  0  0  0  0  0  0  0  0  0
  150.8816  142.9051  157.9114 C   0  0  0  0  0  0  0  0  0  0  0  0
  150.1116  142.7642  156.7262 N   0  0  0  0  0  0  0  0  0  0  0  0
  149.3305  141.7313  156.3636 C   0  0  0  0  0  0  0  0  0  0  0  0
  149.1939  140.6841  156.9964 O   0  0  0  0  0  0  0  0  0  0  0  0
  148.7063  141.9770  155.2019 N   0  0  0  0  0  0  0  0  0  0  0  0
  147.8010  141.0538  154.5171 C   0  0  2  0  0  0  0  0  0  0  0  0
  147.3160  141.6618  153.1895 C   0  0  0  0  0  0  0  0  0  0  0  0
  146.3175  142.8144  153.4079 C   0  0  0  0  0  0  0  0  0  0  0  0
  145.1661  142.3838  154.2440 N   0  3  2  0  0  0  0  0  0  0  0  0
  144.1170  143.4310  154.3567 C   0  0  0  0  0  0  0  0  0  0  0  0
  144.6960  144.8578  154.2735 C   0  0  2  0  0  0  0  0  0  0  0  0
  143.8618  145.8856  155.0133 C   0  0  0  0  0  0  0  0  0  0  0  0
  144.3635  147.1935  154.4127 C   0  0  0  0  0  0  0  0  0  0  0  0
  144.6766  146.8903  153.0584 O   0  0  0  0  0  0  0  0  0  0  0  0
  144.7367  145.4794  152.8743 C   0  0  0  0  0  0  0  0  0  0  0  0
  145.6195  141.8655  155.5613 C   0  0  0  0  0  0  0  0  0  0  0  0
  146.5834  140.6804  155.3863 C   0  0  0  0  0  0  0  0  0  0  0  0
  150.9753  144.2228  158.4132 C   0  0  0  0  0  0  0  0  0  0  0  0
  152.6806  145.9534  160.8251 H   0  0  0  0  0  0  0  0  0  0  0  0
  150.9274  146.1370  160.6898 H   0  0  0  0  0  0  0  0  0  0  0  0
  151.9747  146.5917  159.3388 H   0  0  0  0  0  0  0  0  0  0  0  0
  152.9091  143.5274  161.1388 H   0  0  0  0  0  0  0  0  0  0  0  0
  153.0809  141.0863  161.3581 H   0  0  0  0  0  0  0  0  0  0  0  0
  153.7459  140.6223  159.7870 H   0  0  0  0  0  0  0  0  0  0  0  0
  152.1552  140.0328  160.2870 H   0  0  0  0  0  0  0  0  0  0  0  0
  150.1552  143.5438  156.0870 H   0  0  0  0  0  0  0  0  0  0  0  0
  148.8847  142.8612  154.7486 H   0  0  0  0  0  0  0  0  0  0  0  0
  148.3637  140.1465  154.2900 H   0  0  0  0  0  0  0  0  0  0  0  0
  148.1651  142.0073  152.5983 H   0  0  0  0  0  0  0  0  0  0  0  0
  146.8337  140.8833  152.5968 H   0  0  0  0  0  0  0  0  0  0  0  0
  146.8132  143.6645  153.8794 H   0  0  0  0  0  0  0  0  0  0  0  0
  145.9591  143.1567  152.4363 H   0  0  0  0  0  0  0  0  0  0  0  0
  143.3301  143.2740  153.6172 H   0  0  0  0  0  0  0  0  0  0  0  0
  143.6283  143.3404  155.3280 H   0  0  0  0  0  0  0  0  0  0  0  0
  145.7013  144.8708  154.6984 H   0  0  0  0  0  0  0  0  0  0  0  0
  142.8024  145.7538  154.7878 H   0  0  0  0  0  0  0  0  0  0  0  0
  143.9880  145.8430  156.0955 H   0  0  0  0  0  0  0  0  0  0  0  0
  143.6299  147.9968  154.4840 H   0  0  0  0  0  0  0  0  0  0  0  0
  145.2745  147.5193  154.9163 H   0  0  0  0  0  0  0  0  0  0  0  0
  145.6345  145.2000  152.3227 H   0  0  0  0  0  0  0  0  0  0  0  0
  143.8681  145.1769  152.2878 H   0  0  0  0  0  0  0  0  0  0  0  0
  146.1030  142.6655  156.1243 H   0  0  0  0  0  0  0  0  0  0  0  0
  144.7689  141.5395  156.1562 H   0  0  0  0  0  0  0  0  0  0  0  0
  146.0484  139.8550  154.9148 H   0  0  0  0  0  0  0  0  0  0  0  0
  146.9004  140.3102  156.3617 H   0  0  0  0  0  0  0  0  0  0  0  0
  150.4879  145.0408  157.9025 H   0  0  0  0  0  0  0  0  0  0  0  0
  144.7417  141.6103  153.7522 H   0  0  0  0  0  0  0  0  0  0  0  0
  1  2  1  0  0  0  0
  1 25  1  0  0  0  0
  1 26  1  0  0  0  0
  1 27  1  0  0  0  0
  2 24  1  0  0  0  0
  2  3  2  0  0  0  0
  3  4  1  0  0  0  0
  3 28  1  0  0  0  0
  4  5  1  0  0  0  0
  4  6  2  0  0  0  0
  5 29  1  0  0  0  0
  5 30  1  0  0  0  0
  5 31  1  0  0  0  0
  6  7  1  0  0  0  0
  7  8  1  0  0  0  0
  7 24  2  0  0  0  0
  8  9  1  0  0  0  0
  8 32  1  0  0  0  0
  9 10  2  0  0  0  0
  9 11  1  0  0  0  0
 11 12  1  0  0  0  0
 11 33  1  0  0  0  0
 12 23  1  0  0  0  0
 12 13  1  0  0  0  0
 12 34  1  0  0  0  0
 13 14  1  0  0  0  0
 13 35  1  0  0  0  0
 13 36  1  0  0  0  0
 14 15  1  0  0  0  0
 14 37  1  0  0  0  0
 14 38  1  0  0  0  0
 15 16  1  0  0  0  0
 15 22  1  0  0  0  0
 15 53  1  0  0  0  0
 16 17  1  0  0  0  0
 16 39  1  0  0  0  0
 16 40  1  0  0  0  0
 17 21  1  0  0  0  0
 17 18  1  0  0  0  0
 17 41  1  0  0  0  0
 18 19  1  0  0  0  0
 18 42  1  0  0  0  0
 18 43  1  0  0  0  0
 19 20  1  0  0  0  0
 19 44  1  0  0  0  0
 19 45  1  0  0  0  0
 20 21  1  0  0  0  0
 21 46  1  0  0  0  0
 21 47  1  0  0  0  0
 22 23  1  0  0  0  0
 22 48  1  0  0  0  0
 22 49  1  0  0  0  0
 23 50  1  0  0  0  0
 23 51  1  0  0  0  0
 24 52  1  0  0  0  0
M  CHG  1  15   1
M  END
> <s_m_source_file>
AV-unprocessed.smi

> <i_m_source_file_index>
2379

> <i_lp_mmshare_version>
43012

> <i_f3d_flags>
0

> <s_epik_input>
W0NIM11jMVtjSF1jKFtDSDNdKW5jKFtjSF0xKVtOSF1DKD1PKVtOSF1bQ0hdMltDSDJdW0NIMl1OKFtDSDJdW0NIMl0yKVtDSDJdW0NAQEhdM1tDSDJdW0NIMl1PW0NIMl0z

> <s_epik_cmdline>
J2VwaWtfcHl0aG9uJywgJy1waCcsICc3LjAnLCAnLXRuJywgJzgnLCAnLW1hJywgJzIwMCcsICctbWV0YWxfYmluZGluZycsICctaW1hZScsICc8aW5maWxlLm1hZT4nLCAnLW9tYWUnLCAnPG91dGZpbGUubWFlPic=

> <r_epik_Ionization_Penalty>
0.00766556

> <r_epik_Ionization_Penalty_Charging>
0.00747775

> <r_epik_Ionization_Penalty_Neutral>
0.00018781

> <r_epik_State_Penalty>
0.00558817

> <r_epik_Charging_Adjusted_Penalty>
0.0130659

> <i_epik_Tot_Q>
1

> <i_epik_Tot_abs_Q>
1

> <r_epik_Metal_State_Penalty>
-0

> <b_epik_Metal_Only>
0

> <s_lp_Force_Field>
OPLS_2005

> <r_lp_Energy>
34.3762

> <b_lp_Chiralities_Consistent>
1

> <s_lp_Variant>
AV-unprocessed.smi:2379-3

> <Gold.Version>
5.8.1

> <Gold.Id.Protein>
6NUR|6NUR_protein|mol2

> <Gold.PLP.Fitness>
56.2568

> <Gold.PLP.PLP>
-47.9143

> <Gold.PLP.part.hbond>
-4.0000

> <Gold.PLP.part.metal>
0.0000

> <Gold.PLP.part.buried>
-7.6140

> <Gold.PLP.part.nonpolar>
-38.6507

> <Gold.PLP.part.repulsive>
0.2528

> <Gold.PLP.ligand.clash>
0.0529

> <Gold.PLP.ligand.torsion>
1.0506

> <Gold.PLP.Chemscore.Hbond>
3.4845

> <Gold.PLP.Chemscore.CHOScore>
0.0000

> <Gold.PLP.Chemscore.Metal>
0.0000

> <Gold.Chemscore.Hbonds>
donor molecule, donor type, donor heavy atom, donor atom, acceptor molecule, acceptor atom, score
      L1  H     8    32       P1  8028  0.59
      L1  H    11    33       P1  8028  0.51
      L1  H    15    53       P1 10175  1.50

> <Gold.PLP.Chemscore.Internal.Correction>
0.0430

> <Gold.Rescore>
     Score         DG    S(hbond)    S(metal)    S(lipo)     H(rot)  DE(clash)    DE(int)     intcor
     20.22     -23.49       2.38        0.00     116.11       1.37       0.75       2.52       ----

> <Gold.Chemscore.Fitness>
20.2180

> <Gold.Chemscore.DG>
-23.4893

> <Gold.Chemscore.ZeroCoef>
-5.4800

> <Gold.Chemscore.Hbond>
2.3765

> <Gold.Chemscore.Metal>
0.0000

> <Gold.Chemscore.Lipo>
116.1142

> <Gold.Chemscore.Internal_Hbond>
0.0000

> <Gold.Chemscore.DEClash>
0.7498

> <Gold.Chemscore.DEInternal>
2.5216

> <Gold.Chemscore.Rot>
1.3725

> <Gold.Chemscore.Internal.Correction>
   9.000000E+99

> <Gold.Chemscore.Hbonds>
donor molecule, donor type, donor heavy atom, donor atom, acceptor molecule, acceptor atom, score
      L1  H     8    32       P1  8028  0.60
      L1  H    11    33       P1  8028  0.49
      L1  H    15    53       P1 10175  0.09

> <Gold.Chemscore.Hbond.Weighted>
-7.9375

> <Gold.Chemscore.Metal.Weighted>
-0.0000

> <Gold.Chemscore.Lipo.Weighted>
-13.5854

> <Gold.Chemscore.Internal_Hbond.Weighted>
0.0000

> <Gold.Chemscore.DEClash.Weighted>
0.7498

> <Gold.Chemscore.DEInternal.Weighted>
2.5216

> <Gold.Chemscore.Rot.Weighted>
3.5136

> <Gold.Chemscore.Internal.Correction.Weighted>
   9.000000E+99

> <Gold.Protein.RotatedTorsions>
[ 6907 6896 6895 6894 ] final -179.25 input  -60.11 | X-H torsion
[ 7974 7965 7964 7962 ] final   65.75 input  175.53 | X-H torsion
[ 8008 7997 7996 7995 ] final    2.15 input   59.86 | X-H torsion
[ 10167 10162 10161 10158 ] final  153.71 input  -65.29 | X-H torsion
[ 10718 10713 10712 10709 ] final   47.03 input   66.30 | X-H torsion
[ 10763 10752 10751 10750 ] final   27.03 input  -60.55 | X-H torsion
[ 11005 11000 10999 10996 ] final -140.92 input  -57.11 | X-H torsion

> <Gold.Protein.ActiveResidues>
 VAL166  LYS551  ARG553  GLY616  TRP617  ASP618  TYR619  PRO620  LYS621  CYS622 
 ASP623  PHE694  ASN695  SER759  ASP760  ASP761  ALA762  ILE779  LEU786  VAL792 
 PHE793  MET794  SER795  GLU796  ALA797  LYS798  CYS799  TRP800  GLU811  SER814 

> <Gold.Protein.RotatedAtoms>
  151.6504  133.3321  159.3150 H   0  0  0  0  0  0  0  0  0  0  0  0  # atno 6907 bound_to 6896
  150.7963  134.7028  159.6569 H   0  0  0  0  0  0  0  0  0  0  0  0  # atno 6908 bound_to 6896
  152.4050  134.6226  160.0106 H   0  0  0  0  0  0  0  0  0  0  0  0  # atno 6909 bound_to 6896
  145.8348  139.3160  143.0966 H   0  0  0  0  0  0  0  0  0  0  0  0  # atno 7974 bound_to 7965
  154.6882  140.2647  155.6839 H   0  0  0  0  0  0  0  0  0  0  0  0  # atno 8008 bound_to 7997
  156.2722  140.2796  156.1374 H   0  0  0  0  0  0  0  0  0  0  0  0  # atno 8009 bound_to 7997
  155.0934  140.0373  157.2665 H   0  0  0  0  0  0  0  0  0  0  0  0  # atno 8010 bound_to 7997
  139.4826  144.5249  151.7816 H   0  0  0  0  0  0  0  0  0  0  0  0  # atno 10167 bound_to 10162
  157.4543  130.8157  149.7820 H   0  0  0  0  0  0  0  0  0  0  0  0  # atno 10718 bound_to 10713
  153.0582  135.6546  154.0525 H   0  0  0  0  0  0  0  0  0  0  0  0  # atno 10763 bound_to 10752
  154.0198  135.2921  155.3384 H   0  0  0  0  0  0  0  0  0  0  0  0  # atno 10764 bound_to 10752
  154.6908  135.5283  153.8458 H   0  0  0  0  0  0  0  0  0  0  0  0  # atno 10765 bound_to 10752
  140.8375  134.2442  157.4826 H   0  0  0  0  0  0  0  0  0  0  0  0  # atno 11005 bound_to 11000
  145.9531  140.8894  143.0249 LP  0  0  0  0  0  0  0  0  0  0  0  0  # atno 17320 bound_to 7965
  144.6737  140.1707  143.7414 LP  0  0  0  0  0  0  0  0  0  0  0  0  # atno 17321 bound_to 7965
  140.4768  144.1507  150.5926 LP  0  0  0  0  0  0  0  0  0  0  0  0  # atno 17342 bound_to 10162
  140.4322  143.2563  151.9581 LP  0  0  0  0  0  0  0  0  0  0  0  0  # atno 17343 bound_to 10162
  156.0000  130.3885  150.2642 LP  0  0  0  0  0  0  0  0  0  0  0  0  # atno 17370 bound_to 10713
  157.0816  131.0145  151.3154 LP  0  0  0  0  0  0  0  0  0  0  0  0  # atno 17371 bound_to 10713
  139.8704  134.9618  156.4409 LP  0  0  0  0  0  0  0  0  0  0  0  0  # atno 17394 bound_to 11000
  140.8931  133.7834  155.9594 LP  0  0  0  0  0  0  0  0  0  0  0  0  # atno 17395 bound_to 11000

$$$$
