AV-unprocessed.smi:2546|AV-procd|sdf|9999|dock4
  -GOLD-   2272014 43D 1   1.00000     0.00000
 Structure written by MMmdl.
 17 17  0  0  0  0  0  0  0  0  2 V2000
  147.7169  138.9152  152.3660 N   0  3  0  0  0  0  0  0  0  0  0  0
  147.5409  139.2609  153.7866 C   0  0  0  0  0  0  0  0  0  0  0  0
  148.7412  140.0523  154.3241 C   0  0  0  0  0  0  0  0  0  0  0  0
  149.9840  139.2263  154.3921 C   0  0  0  0  0  0  0  0  0  0  0  0
  151.1472  139.6454  154.9043 N   0  0  0  0  0  0  0  0  0  0  0  0
  152.0163  138.5730  154.7811 N   0  0  0  0  0  0  0  0  0  0  0  0
  151.2922  137.6104  154.2079 C   0  0  0  0  0  0  0  0  0  0  0  0
  150.0269  137.9608  153.9481 N   0  0  0  0  0  0  0  0  0  0  0  0
  149.2953  137.4107  153.5216 H   0  0  0  0  0  0  0  0  0  0  0  0
  146.8401  139.0366  151.8794 H   0  0  0  0  0  0  0  0  0  0  0  0
  148.0151  137.9536  152.2852 H   0  0  0  0  0  0  0  0  0  0  0  0
  146.6241  139.8422  153.8925 H   0  0  0  0  0  0  0  0  0  0  0  0
  147.4073  138.3413  154.3572 H   0  0  0  0  0  0  0  0  0  0  0  0
  148.9294  140.9240  153.6957 H   0  0  0  0  0  0  0  0  0  0  0  0
  148.5247  140.4306  155.3241 H   0  0  0  0  0  0  0  0  0  0  0  0
  151.6922  136.6344  153.9753 H   0  0  0  0  0  0  0  0  0  0  0  0
  148.4145  139.5196  151.9553 H   0  0  0  0  0  0  0  0  0  0  0  0
  1  2  1  0  0  0  0
  1 10  1  0  0  0  0
  1 11  1  0  0  0  0
  1 17  1  0  0  0  0
  2  3  1  0  0  0  0
  2 12  1  0  0  0  0
  2 13  1  0  0  0  0
  3  4  1  0  0  0  0
  3 14  1  0  0  0  0
  3 15  1  0  0  0  0
  4  8  1  0  0  0  0
  4  5  2  0  0  0  0
  5  6  1  0  0  0  0
  6  7  2  0  0  0  0
  7  8  1  0  0  0  0
  7 16  1  0  0  0  0
  8  9  1  0  0  0  0
M  CHG  1   1   1
M  END
> <s_m_source_file>
AV-unprocessed.smi

> <i_m_source_file_index>
2546

> <i_lp_mmshare_version>
43012

> <i_f3d_flags>
0

> <s_epik_input>
W05IMl1bQ0gyXVtDSDJdYzFubltjSF1bbkhdMQ==

> <s_epik_cmdline>
J2VwaWtfcHl0aG9uJywgJy1waCcsICc3LjAnLCAnLXRuJywgJzgnLCAnLW1hJywgJzIwMCcsICctbWV0YWxfYmluZGluZycsICctaW1hZScsICc8aW5maWxlLm1hZT4nLCAnLW9tYWUnLCAnPG91dGZpbGUubWFlPic=

> <r_lp_tautomer_probability>
0.0517155

> <r_epik_Ionization_Penalty>
0.045181

> <r_epik_Ionization_Penalty_Charging>
0.00465044

> <r_epik_Ionization_Penalty_Neutral>
0.0405306

> <r_epik_State_Penalty>
2.26292

> <r_epik_Charging_Adjusted_Penalty>
2.26757

> <i_epik_Tot_Q>
1

> <i_epik_Tot_abs_Q>
1

> <r_epik_Metal_State_Penalty>
2.49167

> <b_epik_Metal_Only>
0

> <s_lp_Force_Field>
OPLS_2005

> <r_lp_Energy>
3.59513

> <b_lp_Chiralities_Consistent>
1

> <s_lp_Variant>
AV-unprocessed.smi:2546-3

> <Gold.Version>
5.8.1

> <Gold.Id.Protein>
6NUR|6NUR_protein|mol2

> <Gold.PLP.Fitness>
31.8369

> <Gold.PLP.PLP>
-15.3773

> <Gold.PLP.part.hbond>
-4.0742

> <Gold.PLP.part.metal>
0.0000

> <Gold.PLP.part.buried>
-3.1945

> <Gold.PLP.part.nonpolar>
-8.8386

> <Gold.PLP.part.repulsive>
0.2555

> <Gold.PLP.ligand.clash>
0.0000

> <Gold.PLP.ligand.torsion>
0.0320

> <Gold.PLP.Chemscore.Hbond>
4.8460

> <Gold.PLP.Chemscore.CHOScore>
0.6617

> <Gold.PLP.Chemscore.Metal>
0.0000

> <Gold.Chemscore.Hbonds>
donor molecule, donor type, donor heavy atom, donor atom, acceptor molecule, acceptor atom, score
      L1  H     1    11       P1  7948  2.00
      L1  H     1    17       P1  7957  0.94
      L1  H     8     9       P1  7948  0.76
      P1  H  7989  7998       L1     5  0.90
      L1  C     7    16       P1  7949  0.49

> <Gold.PLP.Chemscore.Internal.Correction>
0.0005

> <Gold.Rescore>
     Score         DG    S(hbond)    S(metal)    S(lipo)     H(rot)  DE(clash)    DE(int)     intcor
     13.16     -13.30       3.19        0.00      12.35       1.67       0.07       0.07       ----

> <Gold.Chemscore.Fitness>
13.1587

> <Gold.Chemscore.DG>
-13.2952

> <Gold.Chemscore.ZeroCoef>
-5.4800

> <Gold.Chemscore.Hbond>
3.1857

> <Gold.Chemscore.Metal>
0.0000

> <Gold.Chemscore.Lipo>
12.3465

> <Gold.Chemscore.Internal_Hbond>
0.0000

> <Gold.Chemscore.DEClash>
0.0663

> <Gold.Chemscore.DEInternal>
0.0701

> <Gold.Chemscore.Rot>
1.6679

> <Gold.Chemscore.Internal.Correction>
   9.000000E+99

> <Gold.Chemscore.Hbonds>
donor molecule, donor type, donor heavy atom, donor atom, acceptor molecule, acceptor atom, score
      L1  H     1    11       P1  7948  0.97
      L1  H     1    17       P1  7957  0.90
      L1  H     8     9       P1  7948  0.70
      P1  H  7989  7998       L1     5  0.09

> <Gold.Chemscore.Hbond.Weighted>
-10.6403

> <Gold.Chemscore.Metal.Weighted>
-0.0000

> <Gold.Chemscore.Lipo.Weighted>
-1.4445

> <Gold.Chemscore.Internal_Hbond.Weighted>
0.0000

> <Gold.Chemscore.DEClash.Weighted>
0.0663

> <Gold.Chemscore.DEInternal.Weighted>
0.0701

> <Gold.Chemscore.Rot.Weighted>
4.2697

> <Gold.Chemscore.Internal.Correction.Weighted>
   9.000000E+99

> <Gold.Protein.RotatedTorsions>
[ 6907 6896 6895 6894 ] final  177.42 input  -60.11 | X-H torsion
[ 7974 7965 7964 7962 ] final   54.47 input  175.53 | X-H torsion
[ 8008 7997 7996 7995 ] final  133.06 input   59.86 | X-H torsion
[ 10167 10162 10161 10158 ] final   72.58 input  -65.29 | X-H torsion
[ 10718 10713 10712 10709 ] final  167.86 input   66.30 | X-H torsion
[ 10763 10752 10751 10750 ] final  -23.14 input  -60.55 | X-H torsion
[ 11005 11000 10999 10996 ] final  -20.47 input  -57.11 | X-H torsion

> <Gold.Protein.ActiveResidues>
 VAL166  LYS551  ARG553  GLY616  TRP617  ASP618  TYR619  PRO620  LYS621  CYS622 
 ASP623  PHE694  ASN695  SER759  ASP760  ASP761  ALA762  ILE779  LEU786  VAL792 
 PHE793  MET794  SER795  GLU796  ALA797  LYS798  CYS799  TRP800  GLU811  SER814 

> <Gold.Protein.RotatedAtoms>
  151.7043  133.3311  159.3274 H   0  0  0  0  0  0  0  0  0  0  0  0  # atno 6907 bound_to 6896
  150.7722  134.6588  159.6337 H   0  0  0  0  0  0  0  0  0  0  0  0  # atno 6908 bound_to 6896
  152.3750  134.6680  160.0215 H   0  0  0  0  0  0  0  0  0  0  0  0  # atno 6909 bound_to 6896
  145.9605  139.4055  143.0251 H   0  0  0  0  0  0  0  0  0  0  0  0  # atno 7974 bound_to 7965
  156.2989  140.2531  156.3191 H   0  0  0  0  0  0  0  0  0  0  0  0  # atno 8008 bound_to 7997
  154.9252  140.0399  157.2038 H   0  0  0  0  0  0  0  0  0  0  0  0  # atno 8009 bound_to 7997
  154.8271  140.2869  155.5751 H   0  0  0  0  0  0  0  0  0  0  0  0  # atno 8010 bound_to 7997
  140.0337  144.5445  150.7487 H   0  0  0  0  0  0  0  0  0  0  0  0  # atno 10167 bound_to 10162
  157.0454  131.0298  151.2699 H   0  0  0  0  0  0  0  0  0  0  0  0  # atno 10718 bound_to 10713
  153.6630  135.6975  153.5171 H   0  0  0  0  0  0  0  0  0  0  0  0  # atno 10763 bound_to 10752
  153.2617  135.4242  155.0899 H   0  0  0  0  0  0  0  0  0  0  0  0  # atno 10764 bound_to 10752
  154.8447  135.3556  154.6175 H   0  0  0  0  0  0  0  0  0  0  0  0  # atno 10765 bound_to 10752
  140.8467  133.7886  155.9920 H   0  0  0  0  0  0  0  0  0  0  0  0  # atno 11005 bound_to 11000
  145.8046  140.9755  143.0980 LP  0  0  0  0  0  0  0  0  0  0  0  0  # atno 17320 bound_to 7965
  144.6814  139.9845  143.7484 LP  0  0  0  0  0  0  0  0  0  0  0  0  # atno 17321 bound_to 7965
  140.7291  143.2668  151.4017 LP  0  0  0  0  0  0  0  0  0  0  0  0  # atno 17342 bound_to 10162
  139.6059  144.1198  152.2248 LP  0  0  0  0  0  0  0  0  0  0  0  0  # atno 17343 bound_to 10162
  157.5071  130.7916  149.7666 LP  0  0  0  0  0  0  0  0  0  0  0  0  # atno 17370 bound_to 10713
  156.0024  130.3873  150.2554 LP  0  0  0  0  0  0  0  0  0  0  0  0  # atno 17371 bound_to 10713
  140.8835  134.2582  157.5131 LP  0  0  0  0  0  0  0  0  0  0  0  0  # atno 17394 bound_to 11000
  139.8703  134.9627  156.4437 LP  0  0  0  0  0  0  0  0  0  0  0  0  # atno 17395 bound_to 11000

$$$$
