#       Name:                AV-unprocessed.smi:367
#       Creating user name   scv26
#       Creation time:       Thu Mar 26 22:37:16 2020


#       File generated by GOLD software.
#

@<TRIPOS>MOLECULE
AV-unprocessed.smi:367
    29    29     1
SMALL
NO_CHARGES


@<TRIPOS>ATOM
      1 ****        -3.4753  -0.4609  -0.2726 C.3            1 S1                 0.0000
      2 ****        -1.9692  -0.3091  -0.2303 C.2            1 S1                 0.0000
      3 ****        -1.3539   0.8167  -0.3850 N.2            1 S1                 0.0000
      4 ****         0.0468   0.8326  -0.3219 C.2            1 S1                 0.0000
      5 ****         0.6963   2.1931  -0.5063 C.3            1 S1                 0.0000
      6 ****         0.7672  -0.3075  -0.1074 C.2            1 S1                 0.0000
      7 ****         2.2951  -0.3227  -0.0297 C.3            1 S1                 0.0000
      8 ****         2.8721   0.0649   1.3372 C.2            1 S1                 0.0000
      9 ****         4.0963   0.3155   1.3738 O.co2          1 S1                 0.0000
     10 ****         2.0985   0.1024   2.3203 O.co2          1 S1                -1.0000
     11 ****         0.0537  -1.5882   0.0623 C.2            1 S1                 0.0000
     12 ****         0.5999  -2.6732   0.2568 O.2            1 S1                 0.0000
     13 ****        -1.2940  -1.5079  -0.0085 N.am           1 S1                 0.0000
     14 ****        -1.8273  -2.3570   0.1059 H              1 S1                 0.0000
     15 ****        -3.9354   0.1463   0.5072 H              1 S1                 0.0000
     16 ****        -3.7808  -1.4973  -0.1231 H              1 S1                 0.0000
     17 ****        -3.8584  -0.1281  -1.2374 H              1 S1                 0.0000
     18 ****         1.3030   2.2073  -1.4117 H              1 S1                 0.0000
     19 ****         1.3352   2.4330   0.3439 H              1 S1                 0.0000
     20 ****        -0.0524   2.9814  -0.5922 H              1 S1                 0.0000
     21 ****         2.6858  -1.3029  -0.3049 H              1 S1                 0.0000
     22 ****         2.6965   0.3625  -0.7765 H              1 S1                 0.0000
     23 ****        -1.8666   1.6599  -0.5465 LP             1 S1                 0.0000
     24 ****         4.5290   0.5699   2.2387 LP             1 S1                 0.0000
     25 ****         4.6429   0.2615   0.5382 LP             1 S1                 0.0000
     26 ****         2.4497   0.3481   3.2238 LP             1 S1                 0.0000
     27 ****         1.1292  -0.1134   2.2023 LP             1 S1                 0.0000
     28 ****         1.5970  -2.7288   0.3095 LP             1 S1                 0.0000
     29 ****         0.0468  -3.4997   0.3622 LP             1 S1                 0.0000
@<TRIPOS>BOND
    1    1    2 1     
    2    1   15 1     
    3    1   16 1     
    4    1   17 1     
    5    2   13 1     
    6    2    3 2     
    7    3    4 1     
    8    4    5 1     
    9    4    6 2     
   10    5   18 1     
   11    5   19 1     
   12    5   20 1     
   13    6    7 1     
   14    6   11 1     
   15    7    8 1     
   16    7   21 1     
   17    7   22 1     
   18    8    9 ar    
   19    8   10 ar    
   20   11   12 2     
   21   11   13 am    
   22   13   14 1     
   23    3   23 1     
   24    9   24 1     
   25    9   25 1     
   26   10   26 1     
   27   10   27 1     
   28   12   28 1     
   29   12   29 1     
@<TRIPOS>SUBSTRUCTURE
      1 S1             1
@<TRIPOS>SET
LONE_PAIRS      STATIC     ATOMS    <user>   **** ""
7 23 24 25 26 27 28 29
DONOR_HYDROGENS      STATIC     ATOMS    <user>   **** ""
1 14
ATOM$BLUE        STATIC     ATOMS    COLORGROUP SYSTEM
7 23 24 25 26 27 28 29
ATOM$RED        STATIC     ATOMS    COLORGROUP SYSTEM
1 14
