#       Name:                AV-unprocessed.smi:1212
#       Creating user name   scv26
#       Creation time:       Fri Mar 27 04:13:31 2020


#       File generated by GOLD software.
#

@<TRIPOS>MOLECULE
AV-unprocessed.smi:1212
    45    46     1
SMALL
NO_CHARGES


@<TRIPOS>ATOM
      1 ****        -7.2709   2.3044  -1.4388 C.3            1 S1                 0.0000
      2 ****        -5.9914   1.7825  -1.9964 C.2            1 S1                 0.0000
      3 ****        -5.4632   2.2372  -3.1353 N.2            1 S1                 0.0000
      4 ****        -4.2710   1.6009  -3.4492 N.2            1 S1                 0.0000
      5 ****        -3.9104   0.6823  -2.5418 C.2            1 S1                 0.0000
      6 ****        -2.7888  -0.0473  -2.6617 N.pl3          1 S1                -1.0000
      7 ****        -1.6718   0.3158  -1.9907 C.2            1 S1                 0.0000
      8 ****        -1.5541   1.2880  -1.2407 O.2            1 S1                 0.0000
      9 ****        -0.6271  -0.4991  -2.1976 N.am           1 S1                 0.0000
     10 ****         0.6980  -0.3528  -1.6060 C.3            1 S1                 0.0000
     11 ****         0.7375  -0.8978  -0.1665 C.3            1 S1                 0.0000
     12 ****         2.0455  -0.6668   0.4567 N.am           1 S1                 0.0000
     13 ****         2.1426   0.5159   1.3265 C.3            1 S1                 0.0000
     14 ****         2.2648   0.1733   2.8289 C.3            1 S1                 0.0000
     15 ****         2.9855  -1.1466   3.1688 C.3            1 S1                 0.0000
     16 ****         4.3672  -1.3273   2.5052 C.3            1 S1                 0.0000
     17 ****         4.4199  -1.1912   0.9640 C.3            1 S1                 0.0000
     18 ****         3.0940  -1.5003   0.2488 C.2            1 S1                 0.0000
     19 ****         3.0323  -2.4881  -0.4838 O.2            1 S1                 0.0000
     20 ****        -5.0574   0.5197  -1.2120 S.3            1 S1                 0.0000
     21 ****        -7.1874   3.3749  -1.2500 H              1 S1                 0.0000
     22 ****        -7.5099   1.8022  -0.5012 H              1 S1                 0.0000
     23 ****        -8.0842   2.1333  -2.1443 H              1 S1                 0.0000
     24 ****        -0.7661  -1.2831  -2.8184 H              1 S1                 0.0000
     25 ****         1.4089  -0.8915  -2.2328 H              1 S1                 0.0000
     26 ****         1.0001   0.6959  -1.6277 H              1 S1                 0.0000
     27 ****        -0.0453  -0.4334   0.4348 H              1 S1                 0.0000
     28 ****         0.5009  -1.9632  -0.1646 H              1 S1                 0.0000
     29 ****         2.9954   1.1194   1.0154 H              1 S1                 0.0000
     30 ****         1.2881   1.1781   1.1790 H              1 S1                 0.0000
     31 ****         2.7569   1.0017   3.3394 H              1 S1                 0.0000
     32 ****         1.2618   0.1217   3.2540 H              1 S1                 0.0000
     33 ****         3.1027  -1.2135   4.2508 H              1 S1                 0.0000
     34 ****         2.3434  -1.9877   2.9032 H              1 S1                 0.0000
     35 ****         5.0643  -0.6104   2.9402 H              1 S1                 0.0000
     36 ****         4.7503  -2.3101   2.7819 H              1 S1                 0.0000
     37 ****         4.7428  -0.1876   0.6876 H              1 S1                 0.0000
     38 ****         5.1969  -1.8502   0.5741 H              1 S1                 0.0000
     39 ****        -5.8786   2.9530  -3.6966 LP             1 S1                 0.0000
     40 ****        -3.7355   1.8064  -4.2684 LP             1 S1                 0.0000
     41 ****        -2.7797  -0.8583  -3.2466 LP             1 S1                 0.0000
     42 ****        -2.3330   1.8950  -1.0829 LP             1 S1                 0.0000
     43 ****        -0.6798   1.4692  -0.7904 LP             1 S1                 0.0000
     44 ****         2.1795  -2.7061  -0.9583 LP             1 S1                 0.0000
     45 ****         3.8350  -3.0722  -0.6042 LP             1 S1                 0.0000
@<TRIPOS>BOND
    1    1    2 1     
    2    1   21 1     
    3    1   22 1     
    4    1   23 1     
    5    2   20 1     
    6    2    3 2     
    7    3    4 1     
    8    4    5 2     
    9    5    6 1     
   10    5   20 1     
   11    6    7 1     
   12    7    8 2     
   13    7    9 am    
   14    9   10 1     
   15    9   24 1     
   16   10   11 1     
   17   10   25 1     
   18   10   26 1     
   19   11   12 1     
   20   11   27 1     
   21   11   28 1     
   22   12   18 am    
   23   12   13 1     
   24   13   14 1     
   25   13   29 1     
   26   13   30 1     
   27   14   15 1     
   28   14   31 1     
   29   14   32 1     
   30   15   16 1     
   31   15   33 1     
   32   15   34 1     
   33   16   17 1     
   34   16   35 1     
   35   16   36 1     
   36   17   18 1     
   37   17   37 1     
   38   17   38 1     
   39   18   19 2     
   40    3   39 1     
   41    4   40 1     
   42    6   41 1     
   43    8   42 1     
   44    8   43 1     
   45   19   44 1     
   46   19   45 1     
@<TRIPOS>SUBSTRUCTURE
      1 S1             1
@<TRIPOS>SET
LONE_PAIRS      STATIC     ATOMS    <user>   **** ""
7 39 40 41 42 43 44 45
DONOR_HYDROGENS      STATIC     ATOMS    <user>   **** ""
1 24
ATOM$BLUE        STATIC     ATOMS    COLORGROUP SYSTEM
7 39 40 41 42 43 44 45
ATOM$RED        STATIC     ATOMS    COLORGROUP SYSTEM
1 24
