AV-unprocessed.smi:2245|AV-procd|sdf|9080|dock1
  -GOLD-   2272012283D 1   1.00000     0.00000
 Structure written by MMmdl.
 45 46  0  0  0  0  0  0  0  0  2 V2000
  151.8921  145.8250  160.2728 C   0  0  0  0  0  0  0  0  0  0  0  0
  151.9425  144.4810  159.5772 C   0  0  0  0  0  0  0  0  0  0  0  0
  152.7946  143.4615  160.0425 C   0  0  0  0  0  0  0  0  0  0  0  0
  152.8011  142.2338  159.3518 C   0  0  0  0  0  0  0  0  0  0  0  0
  153.6901  141.0928  159.7993 C   0  0  0  0  0  0  0  0  0  0  0  0
  152.0312  141.9935  158.2688 N   0  0  0  0  0  0  0  0  0  0  0  0
  151.2077  142.9689  157.8110 C   0  0  0  0  0  0  0  0  0  0  0  0
  150.3619  142.8186  156.6801 N   0  0  0  0  0  0  0  0  0  0  0  0
  150.2180  141.7417  155.8880 C   0  0  0  0  0  0  0  0  0  0  0  0
  150.8068  140.6690  156.0267 O   0  0  0  0  0  0  0  0  0  0  0  0
  149.3434  141.9786  154.8995 N   0  0  0  0  0  0  0  0  0  0  0  0
  148.9789  141.0228  153.8588 C   0  0  0  0  0  0  0  0  0  0  0  0
  148.2405  139.7966  154.4297 C   0  0  2  0  0  0  0  0  0  0  0  0
  149.1468  138.7011  154.9850 C   0  0  0  0  0  0  0  0  0  0  0  0
  148.2211  137.4888  155.0041 C   0  0  0  0  0  0  0  0  0  0  0  0
  147.3648  137.6242  153.8040 N   0  3  1  0  0  0  0  0  0  0  0  0
  146.0062  137.0400  153.9283 C   0  0  0  0  0  0  0  0  0  0  0  0
  145.4925  136.4287  152.6122 C   0  0  0  0  0  0  0  0  0  0  0  0
  144.1608  136.4130  152.6328 F   0  0  0  0  0  0  0  0  0  0  0  0
  145.8950  137.1658  151.5769 F   0  0  0  0  0  0  0  0  0  0  0  0
  145.9249  135.1777  152.4569 F   0  0  0  0  0  0  0  0  0  0  0  0
  147.3783  139.0521  153.4015 C   0  0  0  0  0  0  0  0  0  0  0  0
  151.1400  144.2293  158.4462 C   0  0  0  0  0  0  0  0  0  0  0  0
  152.2314  145.7439  161.3059 H   0  0  0  0  0  0  0  0  0  0  0  0
  150.8745  146.2166  160.2809 H   0  0  0  0  0  0  0  0  0  0  0  0
  152.5323  146.5401  159.7557 H   0  0  0  0  0  0  0  0  0  0  0  0
  153.4256  143.6165  160.9054 H   0  0  0  0  0  0  0  0  0  0  0  0
  154.3582  141.4032  160.6033 H   0  0  0  0  0  0  0  0  0  0  0  0
  154.3009  140.7373  158.9688 H   0  0  0  0  0  0  0  0  0  0  0  0
  153.0839  140.2619  160.1609 H   0  0  0  0  0  0  0  0  0  0  0  0
  149.8103  143.6292  156.4415 H   0  0  0  0  0  0  0  0  0  0  0  0
  148.9002  142.8851  154.8625 H   0  0  0  0  0  0  0  0  0  0  0  0
  148.3651  141.5164  153.1034 H   0  0  0  0  0  0  0  0  0  0  0  0
  149.8936  140.7091  153.3552 H   0  0  0  0  0  0  0  0  0  0  0  0
  147.5806  140.1215  155.2361 H   0  0  0  0  0  0  0  0  0  0  0  0
  149.9858  138.5214  154.3109 H   0  0  0  0  0  0  0  0  0  0  0  0
  149.5478  138.9398  155.9707 H   0  0  0  0  0  0  0  0  0  0  0  0
  148.7716  136.5477  155.0014 H   0  0  0  0  0  0  0  0  0  0  0  0
  147.6076  137.5192  155.9062 H   0  0  0  0  0  0  0  0  0  0  0  0
  145.9854  136.3024  154.7320 H   0  0  0  0  0  0  0  0  0  0  0  0
  145.3213  137.8373  154.2212 H   0  0  0  0  0  0  0  0  0  0  0  0
  146.3787  139.4859  153.3439 H   0  0  0  0  0  0  0  0  0  0  0  0
  147.8182  139.1137  152.4054 H   0  0  0  0  0  0  0  0  0  0  0  0
  150.4804  144.9982  158.0703 H   0  0  0  0  0  0  0  0  0  0  0  0
  147.8303  137.1260  153.0586 H   0  0  0  0  0  0  0  0  0  0  0  0
  1  2  1  0  0  0  0
  1 24  1  0  0  0  0
  1 25  1  0  0  0  0
  1 26  1  0  0  0  0
  2 23  1  0  0  0  0
  2  3  2  0  0  0  0
  3  4  1  0  0  0  0
  3 27  1  0  0  0  0
  4  5  1  0  0  0  0
  4  6  2  0  0  0  0
  5 28  1  0  0  0  0
  5 29  1  0  0  0  0
  5 30  1  0  0  0  0
  6  7  1  0  0  0  0
  7  8  1  0  0  0  0
  7 23  2  0  0  0  0
  8  9  1  0  0  0  0
  8 31  1  0  0  0  0
  9 10  2  0  0  0  0
  9 11  1  0  0  0  0
 11 12  1  0  0  0  0
 11 32  1  0  0  0  0
 12 13  1  0  0  0  0
 12 33  1  0  0  0  0
 12 34  1  0  0  0  0
 13 22  1  0  0  0  0
 13 14  1  0  0  0  0
 13 35  1  0  0  0  0
 14 15  1  0  0  0  0
 14 36  1  0  0  0  0
 14 37  1  0  0  0  0
 15 16  1  0  0  0  0
 15 38  1  0  0  0  0
 15 39  1  0  0  0  0
 16 17  1  0  0  0  0
 16 22  1  0  0  0  0
 16 45  1  0  0  0  0
 17 18  1  0  0  0  0
 17 40  1  0  0  0  0
 17 41  1  0  0  0  0
 18 19  1  0  0  0  0
 18 20  1  0  0  0  0
 18 21  1  0  0  0  0
 22 42  1  0  0  0  0
 22 43  1  0  0  0  0
 23 44  1  0  0  0  0
M  CHG  1  16   1
M  END
> <s_m_source_file>
AV-unprocessed.smi

> <i_m_source_file_index>
2245

> <i_lp_mmshare_version>
43012

> <i_f3d_flags>
0

> <s_epik_input>
W0NIM11jMVtjSF1jKFtDSDNdKW5jKFtjSF0xKVtOSF1DKD1PKVtOSF1bQ0gyXVtDQEBIXTJbQ0gyXVtDSDJdTihbQ0gyXTIpW0NIMl1DKEYpKEYpRg==

> <s_epik_cmdline>
J2VwaWtfcHl0aG9uJywgJy1waCcsICc3LjAnLCAnLXRuJywgJzgnLCAnLW1hJywgJzIwMCcsICctbWV0YWxfYmluZGluZycsICctaW1hZScsICc8aW5maWxlLm1hZT4nLCAnLW9tYWUnLCAnPG91dGZpbGUubWFlPic=

> <r_epik_Ionization_Penalty>
0.628315

> <r_epik_Ionization_Penalty_Charging>
0.628113

> <r_epik_Ionization_Penalty_Neutral>
0.000202271

> <r_epik_State_Penalty>
0.644725

> <r_epik_Charging_Adjusted_Penalty>
1.27284

> <i_epik_Tot_Q>
1

> <i_epik_Tot_abs_Q>
1

> <r_epik_Metal_State_Penalty>
0.644752

> <b_epik_Metal_Only>
0

> <s_lp_Force_Field>
OPLS_2005

> <r_lp_Energy>
28.8046

> <b_lp_Chiralities_Consistent>
1

> <s_lp_Variant>
AV-unprocessed.smi:2245-5

> <Gold.Version>
5.8.1

> <Gold.Id.Protein>
6NUR|6NUR_protein|mol2

> <Gold.PLP.Fitness>
53.4108

> <Gold.PLP.PLP>
-43.2481

> <Gold.PLP.part.hbond>
-3.0000

> <Gold.PLP.part.metal>
0.0000

> <Gold.PLP.part.buried>
-1.3457

> <Gold.PLP.part.nonpolar>
-40.0674

> <Gold.PLP.part.repulsive>
0.3012

> <Gold.PLP.ligand.clash>
0.0000

> <Gold.PLP.ligand.torsion>
1.0571

> <Gold.PLP.Chemscore.Hbond>
3.9120

> <Gold.PLP.Chemscore.CHOScore>
0.0000

> <Gold.PLP.Chemscore.Metal>
0.0000

> <Gold.Chemscore.Hbonds>
donor molecule, donor type, donor heavy atom, donor atom, acceptor molecule, acceptor atom, score
      L1  H     8    31       P1  8028  1.00
      L1  H    11    32       P1  8028  0.91
      L1  H    16    45       P1  7948  2.00

> <Gold.PLP.Chemscore.Internal.Correction>
0.5409

> <Gold.Rescore>
     Score         DG    S(hbond)    S(metal)    S(lipo)     H(rot)  DE(clash)    DE(int)     intcor
     18.37     -22.49       2.87        0.00      98.66       1.61       0.37       3.75       ----

> <Gold.Chemscore.Fitness>
18.3721

> <Gold.Chemscore.DG>
-22.4921

> <Gold.Chemscore.ZeroCoef>
-5.4800

> <Gold.Chemscore.Hbond>
2.8748

> <Gold.Chemscore.Metal>
0.0000

> <Gold.Chemscore.Lipo>
98.6556

> <Gold.Chemscore.Internal_Hbond>
0.0000

> <Gold.Chemscore.DEClash>
0.3682

> <Gold.Chemscore.DEInternal>
3.7518

> <Gold.Chemscore.Rot>
1.6143

> <Gold.Chemscore.Internal.Correction>
   9.000000E+99

> <Gold.Chemscore.Hbonds>
donor molecule, donor type, donor heavy atom, donor atom, acceptor molecule, acceptor atom, score
      L1  H     8    31       P1  8028  0.99
      L1  H    11    32       P1  8028  0.87
      L1  H    16    45       P1  7948  1.00

> <Gold.Chemscore.Hbond.Weighted>
-9.6019

> <Gold.Chemscore.Metal.Weighted>
-0.0000

> <Gold.Chemscore.Lipo.Weighted>
-11.5427

> <Gold.Chemscore.Internal_Hbond.Weighted>
0.0000

> <Gold.Chemscore.DEClash.Weighted>
0.3682

> <Gold.Chemscore.DEInternal.Weighted>
3.7518

> <Gold.Chemscore.Rot.Weighted>
4.1325

> <Gold.Chemscore.Internal.Correction.Weighted>
   9.000000E+99

> <Gold.Protein.RotatedTorsions>
[ 6907 6896 6895 6894 ] final   35.07 input  -60.11 | X-H torsion
[ 7974 7965 7964 7962 ] final -137.26 input  175.53 | X-H torsion
[ 8008 7997 7996 7995 ] final   41.17 input   59.86 | X-H torsion
[ 10167 10162 10161 10158 ] final  -86.07 input  -65.29 | X-H torsion
[ 10718 10713 10712 10709 ] final -104.55 input   66.30 | X-H torsion
[ 10763 10752 10751 10750 ] final -107.98 input  -60.55 | X-H torsion
[ 11005 11000 10999 10996 ] final   12.07 input  -57.11 | X-H torsion

> <Gold.Protein.ActiveResidues>
 VAL166  LYS551  ARG553  GLY616  TRP617  ASP618  TYR619  PRO620  LYS621  CYS622 
 ASP623  PHE694  ASN695  SER759  ASP760  ASP761  ALA762  ILE779  LEU786  VAL792 
 PHE793  MET794  SER795  GLU796  ALA797  LYS798  CYS799  TRP800  GLU811  SER814 

> <Gold.Protein.RotatedAtoms>
  152.1111  134.9273  160.0566 H   0  0  0  0  0  0  0  0  0  0  0  0  # atno 6907 bound_to 6896
  152.0451  133.3989  159.4361 H   0  0  0  0  0  0  0  0  0  0  0  0  # atno 6908 bound_to 6896
  150.6843  134.3292  159.4863 H   0  0  0  0  0  0  0  0  0  0  0  0  # atno 6909 bound_to 6896
  144.8857  140.6571  143.5177 H   0  0  0  0  0  0  0  0  0  0  0  0  # atno 7974 bound_to 7965
  155.2651  140.3362  155.4270 H   0  0  0  0  0  0  0  0  0  0  0  0  # atno 8008 bound_to 7997
  156.2157  140.1788  156.7636 H   0  0  0  0  0  0  0  0  0  0  0  0  # atno 8009 bound_to 7997
  154.5750  140.0663  156.9006 H   0  0  0  0  0  0  0  0  0  0  0  0  # atno 8010 bound_to 7997
  140.3977  143.2676  151.9183 H   0  0  0  0  0  0  0  0  0  0  0  0  # atno 10167 bound_to 10162
  156.0309  130.5520  150.7412 H   0  0  0  0  0  0  0  0  0  0  0  0  # atno 10718 bound_to 10713
  154.8108  135.4655  154.0511 H   0  0  0  0  0  0  0  0  0  0  0  0  # atno 10763 bound_to 10752
  153.1944  135.6860  153.8318 H   0  0  0  0  0  0  0  0  0  0  0  0  # atno 10764 bound_to 10752
  153.7825  135.3254  155.3345 H   0  0  0  0  0  0  0  0  0  0  0  0  # atno 10765 bound_to 10752
  140.4961  134.0792  155.7782 H   0  0  0  0  0  0  0  0  0  0  0  0  # atno 11005 bound_to 11000
  145.3874  139.1624  143.4248 LP  0  0  0  0  0  0  0  0  0  0  0  0  # atno 17320 bound_to 7965
  146.3023  140.3960  142.8700 LP  0  0  0  0  0  0  0  0  0  0  0  0  # atno 17321 bound_to 7965
  139.4786  144.5665  151.8157 LP  0  0  0  0  0  0  0  0  0  0  0  0  # atno 17342 bound_to 10162
  140.4773  144.1500  150.5927 LP  0  0  0  0  0  0  0  0  0  0  0  0  # atno 17343 bound_to 10162
  157.4981  131.0916  151.0348 LP  0  0  0  0  0  0  0  0  0  0  0  0  # atno 17370 bound_to 10713
  157.0736  130.5874  149.5407 LP  0  0  0  0  0  0  0  0  0  0  0  0  # atno 17371 bound_to 10713
  141.1459  133.9055  157.2215 LP  0  0  0  0  0  0  0  0  0  0  0  0  # atno 17394 bound_to 11000
  139.9741  135.0119  156.9586 LP  0  0  0  0  0  0  0  0  0  0  0  0  # atno 17395 bound_to 11000

$$$$
