AV-unprocessed.smi:653|AV-procd|sdf|3207|dock4
  -GOLD-   22720 0143D 1   1.00000     0.00000
 Structure written by MMmdl.
 44 45  0  0  0  0  0  0  0  0  1 V2000
  143.7795  132.0879  150.5829 C   0  0  0  0  0  0  0  0  0  0  0  0
  144.3771  133.4063  151.0285 C   0  0  0  0  0  0  0  0  0  0  0  0
  144.8514  133.5760  152.3462 C   0  0  0  0  0  0  0  0  0  0  0  0
  145.3981  134.8225  152.7070 C   0  0  0  0  0  0  0  0  0  0  0  0
  145.4491  135.8482  151.7404 C   0  0  0  0  0  0  0  0  0  0  0  0
  146.0202  137.2130  152.0821 C   0  0  0  0  0  0  0  0  0  0  0  0
  146.3932  137.2820  153.5635 C   0  0  0  0  0  0  0  0  0  0  0  0
  145.5175  137.4504  154.4118 O   0  0  0  0  0  0  0  0  0  0  0  0
  147.6953  137.1484  153.8607 N   0  0  0  0  0  0  0  0  0  0  0  0
  148.2587  137.1958  155.2050 C   0  0  0  0  0  0  0  0  0  0  0  0
  149.4995  138.1071  155.2818 C   0  0  1  0  0  0  0  0  0  0  0  0
  150.7571  137.5049  154.6854 C   0  0  0  0  0  0  0  0  0  0  0  0
  151.6193  138.7434  154.4726 C   0  0  0  0  0  0  0  0  0  0  0  0
  150.7102  139.7841  154.1309 O   0  0  0  0  0  0  0  0  0  0  0  0
  149.3762  139.4017  154.4639 C   0  0  2  0  0  0  0  0  0  0  0  0
  148.6117  140.5631  155.1395 C   0  0  0  0  0  0  0  0  0  0  0  0
  148.2683  141.6585  154.1178 C   0  0  0  0  0  0  0  0  0  0  0  0
  149.3533  141.1639  156.3477 C   0  0  0  0  0  0  0  0  0  0  0  0
  144.9512  135.5733  150.4489 C   0  0  0  0  0  0  0  0  0  0  0  0
  144.4247  134.3818  150.0944 N   0  0  0  0  0  0  0  0  0  0  0  0
  143.5332  131.4585  151.4384 H   0  0  0  0  0  0  0  0  0  0  0  0
  144.4866  131.5480  149.9528 H   0  0  0  0  0  0  0  0  0  0  0  0
  142.8656  132.2533  150.0113 H   0  0  0  0  0  0  0  0  0  0  0  0
  144.7976  132.7725  153.0661 H   0  0  0  0  0  0  0  0  0  0  0  0
  145.7667  134.9887  153.7087 H   0  0  0  0  0  0  0  0  0  0  0  0
  146.9006  137.4059  151.4673 H   0  0  0  0  0  0  0  0  0  0  0  0
  145.2951  137.9939  151.8489 H   0  0  0  0  0  0  0  0  0  0  0  0
  148.3442  137.0144  153.0985 H   0  0  0  0  0  0  0  0  0  0  0  0
  147.4835  137.5564  155.8817 H   0  0  0  0  0  0  0  0  0  0  0  0
  148.5077  136.1860  155.5351 H   0  0  0  0  0  0  0  0  0  0  0  0
  149.7084  138.3459  156.3241 H   0  0  0  0  0  0  0  0  0  0  0  0
  151.2304  136.7667  155.3335 H   0  0  0  0  0  0  0  0  0  0  0  0
  150.5388  137.0313  153.7272 H   0  0  0  0  0  0  0  0  0  0  0  0
  152.1261  139.0167  155.3989 H   0  0  0  0  0  0  0  0  0  0  0  0
  152.3754  138.6014  153.7003 H   0  0  0  0  0  0  0  0  0  0  0  0
  148.8855  139.1558  153.5203 H   0  0  0  0  0  0  0  0  0  0  0  0
  147.6634  140.1660  155.5036 H   0  0  0  0  0  0  0  0  0  0  0  0
  149.1698  142.1132  153.7059 H   0  0  0  0  0  0  0  0  0  0  0  0
  147.6753  142.4511  154.5750 H   0  0  0  0  0  0  0  0  0  0  0  0
  147.6892  141.2556  153.2864 H   0  0  0  0  0  0  0  0  0  0  0  0
  150.3310  141.5531  156.0619 H   0  0  0  0  0  0  0  0  0  0  0  0
  149.5032  140.4330  157.1412 H   0  0  0  0  0  0  0  0  0  0  0  0
  148.7861  141.9885  156.7801 H   0  0  0  0  0  0  0  0  0  0  0  0
  144.9698  136.3316  149.6798 H   0  0  0  0  0  0  0  0  0  0  0  0
  1  2  1  0  0  0  0
  1 21  1  0  0  0  0
  1 22  1  0  0  0  0
  1 23  1  0  0  0  0
  2 20  1  0  0  0  0
  2  3  2  0  0  0  0
  3  4  1  0  0  0  0
  3 24  1  0  0  0  0
  4  5  2  0  0  0  0
  4 25  1  0  0  0  0
  5  6  1  0  0  0  0
  5 19  1  0  0  0  0
  6  7  1  0  0  0  0
  6 26  1  0  0  0  0
  6 27  1  0  0  0  0
  7  8  2  0  0  0  0
  7  9  1  0  0  0  0
  9 10  1  0  0  0  0
  9 28  1  0  0  0  0
 10 11  1  0  0  0  0
 10 29  1  0  0  0  0
 10 30  1  0  0  0  0
 11 15  1  0  0  0  0
 11 12  1  0  0  0  0
 11 31  1  0  0  0  0
 12 13  1  0  0  0  0
 12 32  1  0  0  0  0
 12 33  1  0  0  0  0
 13 14  1  0  0  0  0
 13 34  1  0  0  0  0
 13 35  1  0  0  0  0
 14 15  1  0  0  0  0
 15 16  1  0  0  0  0
 15 36  1  0  0  0  0
 16 17  1  0  0  0  0
 16 18  1  0  0  0  0
 16 37  1  0  0  0  0
 17 38  1  0  0  0  0
 17 39  1  0  0  0  0
 17 40  1  0  0  0  0
 18 41  1  0  0  0  0
 18 42  1  0  0  0  0
 18 43  1  0  0  0  0
 19 20  2  0  0  0  0
 19 44  1  0  0  0  0
M  END
> <s_m_source_file>
AV-unprocessed.smi

> <i_m_source_file_index>
653

> <i_lp_mmshare_version>
43012

> <i_f3d_flags>
0

> <s_epik_input>
W0NIM11jMVtjSF1bY0hdYyhbY0hdbjEpW0NIMl1DKD1PKVtOSF1bQ0gyXVtDQEBIXTJbQ0gyXVtDSDJdT1tDQEhdMltDSF0oW0NIM10pW0NIM10=

> <s_epik_cmdline>
J2VwaWtfcHl0aG9uJywgJy1waCcsICc3LjAnLCAnLXRuJywgJzgnLCAnLW1hJywgJzIwMCcsICctbWV0YWxfYmluZGluZycsICctaW1hZScsICc8aW5maWxlLm1hZT4nLCAnLW9tYWUnLCAnPG91dGZpbGUubWFlPic=

> <r_epik_Ionization_Penalty>
0.0166429

> <r_epik_Ionization_Penalty_Charging>
0

> <r_epik_Ionization_Penalty_Neutral>
0.0166429

> <r_epik_State_Penalty>
0.0131478

> <r_epik_Charging_Adjusted_Penalty>
0.0131478

> <i_epik_Tot_Q>
0

> <i_epik_Tot_abs_Q>
0

> <r_epik_Metal_State_Penalty>
0.012786

> <b_epik_Metal_Only>
0

> <s_lp_Force_Field>
OPLS_2005

> <r_lp_Energy>
17.7281

> <b_lp_Chiralities_Consistent>
1

> <s_lp_Variant>
AV-unprocessed.smi:653-4

> <Gold.Version>
5.8.1

> <Gold.Id.Protein>
6NUR|6NUR_protein|mol2

> <Gold.PLP.Fitness>
39.7051

> <Gold.PLP.PLP>
-31.6845

> <Gold.PLP.part.hbond>
-1.9723

> <Gold.PLP.part.metal>
0.0000

> <Gold.PLP.part.buried>
-1.2182

> <Gold.PLP.part.nonpolar>
-27.3316

> <Gold.PLP.part.repulsive>
0.9783

> <Gold.PLP.ligand.clash>
0.0000

> <Gold.PLP.ligand.torsion>
0.6050

> <Gold.PLP.Chemscore.Hbond>
2.0000

> <Gold.PLP.Chemscore.CHOScore>
1.0674

> <Gold.PLP.Chemscore.Metal>
0.0000

> <Gold.Chemscore.Hbonds>
donor molecule, donor type, donor heavy atom, donor atom, acceptor molecule, acceptor atom, score
      L1  H     9    28       P1  7948  1.00
      P1  H  7989  7998       L1    14  1.00
      L1  C    19    44       P1  7921  0.14
      L1  C    19    44       P1 10171  0.94

> <Gold.PLP.Chemscore.Internal.Correction>
0.0286

> <Gold.Rescore>
     Score         DG    S(hbond)    S(metal)    S(lipo)     H(rot)  DE(clash)    DE(int)     intcor
     16.98     -17.73       1.74        0.00      87.54       1.48       0.21       0.54       ----

> <Gold.Chemscore.Fitness>
16.9836

> <Gold.Chemscore.DG>
-17.7345

> <Gold.Chemscore.ZeroCoef>
-5.4800

> <Gold.Chemscore.Hbond>
1.7408

> <Gold.Chemscore.Metal>
0.0000

> <Gold.Chemscore.Lipo>
87.5351

> <Gold.Chemscore.Internal_Hbond>
0.0000

> <Gold.Chemscore.DEClash>
0.2106

> <Gold.Chemscore.DEInternal>
0.5403

> <Gold.Chemscore.Rot>
1.4850

> <Gold.Chemscore.Internal.Correction>
   9.000000E+99

> <Gold.Chemscore.Hbonds>
donor molecule, donor type, donor heavy atom, donor atom, acceptor molecule, acceptor atom, score
      L1  H     9    28       P1  7948  0.96
      P1  H  7989  7998       L1    14  0.38

> <Gold.Chemscore.Hbond.Weighted>
-5.8144

> <Gold.Chemscore.Metal.Weighted>
-0.0000

> <Gold.Chemscore.Lipo.Weighted>
-10.2416

> <Gold.Chemscore.Internal_Hbond.Weighted>
0.0000

> <Gold.Chemscore.DEClash.Weighted>
0.2106

> <Gold.Chemscore.DEInternal.Weighted>
0.5403

> <Gold.Chemscore.Rot.Weighted>
3.8015

> <Gold.Chemscore.Internal.Correction.Weighted>
   9.000000E+99

> <Gold.Protein.RotatedTorsions>
[ 6907 6896 6895 6894 ] final -103.75 input  -60.11 | X-H torsion
[ 7974 7965 7964 7962 ] final -173.97 input  175.53 | X-H torsion
[ 8008 7997 7996 7995 ] final   76.83 input   59.86 | X-H torsion
[ 10167 10162 10161 10158 ] final  -53.89 input  -65.29 | X-H torsion
[ 10718 10713 10712 10709 ] final   32.88 input   66.30 | X-H torsion
[ 10763 10752 10751 10750 ] final  110.94 input  -60.55 | X-H torsion
[ 11005 11000 10999 10996 ] final  108.41 input  -57.11 | X-H torsion

> <Gold.Protein.ActiveResidues>
 VAL166  LYS551  ARG553  GLY616  TRP617  ASP618  TYR619  PRO620  LYS621  CYS622 
 ASP623  PHE694  ASN695  SER759  ASP760  ASP761  ALA762  ILE779  LEU786  VAL792 
 PHE793  MET794  SER795  GLU796  ALA797  LYS798  CYS799  TRP800  GLU811  SER814 

> <Gold.Protein.RotatedAtoms>
  150.7254  134.0382  159.3756 H   0  0  0  0  0  0  0  0  0  0  0  0  # atno 6907 bound_to 6896
  151.8354  135.0605  160.0451 H   0  0  0  0  0  0  0  0  0  0  0  0  # atno 6908 bound_to 6896
  152.2902  133.5518  159.5589 H   0  0  0  0  0  0  0  0  0  0  0  0  # atno 6909 bound_to 6896
  144.7134  140.1542  143.6381 H   0  0  0  0  0  0  0  0  0  0  0  0  # atno 7974 bound_to 7965
  155.8329  140.3465  155.5583 H   0  0  0  0  0  0  0  0  0  0  0  0  # atno 8008 bound_to 7997
  155.8222  140.0914  157.1862 H   0  0  0  0  0  0  0  0  0  0  0  0  # atno 8009 bound_to 7997
  154.4004  140.1428  156.3501 H   0  0  0  0  0  0  0  0  0  0  0  0  # atno 8010 bound_to 7997
  140.6460  143.2536  151.4857 H   0  0  0  0  0  0  0  0  0  0  0  0  # atno 10167 bound_to 10162
  157.2908  130.7301  149.6609 H   0  0  0  0  0  0  0  0  0  0  0  0  # atno 10718 bound_to 10713
  153.4562  135.3732  155.2312 H   0  0  0  0  0  0  0  0  0  0  0  0  # atno 10763 bound_to 10752
  154.8757  135.3897  154.3979 H   0  0  0  0  0  0  0  0  0  0  0  0  # atno 10764 bound_to 10752
  153.4545  135.7086  153.6152 H   0  0  0  0  0  0  0  0  0  0  0  0  # atno 10765 bound_to 10752
  139.8844  134.9429  156.5968 H   0  0  0  0  0  0  0  0  0  0  0  0  # atno 11005 bound_to 11000
  145.9088  139.2475  143.1449 LP  0  0  0  0  0  0  0  0  0  0  0  0  # atno 17320 bound_to 7965
  145.9736  140.8740  143.0150 LP  0  0  0  0  0  0  0  0  0  0  0  0  # atno 17321 bound_to 7965
  139.5671  144.2016  152.1781 LP  0  0  0  0  0  0  0  0  0  0  0  0  # atno 17342 bound_to 10162
  140.1301  144.5296  150.6808 LP  0  0  0  0  0  0  0  0  0  0  0  0  # atno 17343 bound_to 10162
  155.9667  130.4309  150.4898 LP  0  0  0  0  0  0  0  0  0  0  0  0  # atno 17370 bound_to 10713
  157.2860  131.0616  151.2165 LP  0  0  0  0  0  0  0  0  0  0  0  0  # atno 17371 bound_to 10713
  140.7914  133.8579  155.8649 LP  0  0  0  0  0  0  0  0  0  0  0  0  # atno 17394 bound_to 11000
  140.9674  134.1576  157.4604 LP  0  0  0  0  0  0  0  0  0  0  0  0  # atno 17395 bound_to 11000

$$$$
