#       Name:                AV-unprocessed.smi:2168
#       Creating user name   scv26
#       Creation time:       Fri Mar 27 12:00:55 2020


#       File generated by GOLD software.
#

@<TRIPOS>MOLECULE
AV-unprocessed.smi:2168
    50    51     1
SMALL
NO_CHARGES


@<TRIPOS>ATOM
      1 ****        -4.0079   4.5121   1.3514 C.3            1 S1                 0.0000
      2 ****        -2.7166   5.0114   0.6863 C.3            1 S1                 0.0000
      3 ****        -1.9706   3.9204   0.0334 N.pl3          1 S1                 0.0000
      4 ****        -2.6599   3.2800  -1.1040 C.3            1 S1                 0.0000
      5 ****        -3.1046   1.8542  -0.7491 C.3            1 S1                 0.0000
      6 ****        -0.2405   4.0557  -0.0219 S.o2           1 S1                 0.0000
      7 ****         0.1352   4.8419  -1.2070 O.2            1 S1                 0.0000
      8 ****         0.2571   4.4239   1.3126 O.2            1 S1                 0.0000
      9 ****         0.1742   2.4099  -0.3099 N.pl3          1 S1                 0.0000
     10 ****         1.5683   1.9808  -0.3438 C.3            1 S1                 0.0000
     11 ****         1.6966   0.4723  -0.2933 C.ar           1 S1                 0.0000
     12 ****         1.4714  -0.3083  -1.4432 C.ar           1 S1                 0.0000
     13 ****         1.5803  -1.7086  -1.3478 C.ar           1 S1                 0.0000
     14 ****         1.9093  -2.2934  -0.1011 C.ar           1 S1                 0.0000
     15 ****         2.0140  -3.6966   0.0205 N.3            1 S1                 0.0000
     16 ****         0.8735  -4.4630  -0.4767 C.3            1 S1                 0.0000
     17 ****         1.2313  -5.9562  -0.5736 C.3            1 S1                 0.0000
     18 ****         1.7030  -6.4221   0.6860 O.3            1 S1                 0.0000
     19 ****         2.8820  -5.7373   1.0947 C.3            1 S1                 0.0000
     20 ****         2.5805  -4.2378   1.2549 C.3            1 S1                 0.0000
     21 ****         2.1349  -1.5339   1.0003 N.ar           1 S1                 0.0000
     22 ****         2.0283  -0.1917   0.9041 C.ar           1 S1                 0.0000
     23 ****        -4.4996   5.3226   1.8896 H              1 S1                 0.0000
     24 ****        -3.7979   3.7186   2.0691 H              1 S1                 0.0000
     25 ****        -4.7217   4.1281   0.6228 H              1 S1                 0.0000
     26 ****        -2.9335   5.7913  -0.0444 H              1 S1                 0.0000
     27 ****        -2.0898   5.4711   1.4503 H              1 S1                 0.0000
     28 ****        -3.5200   3.8746  -1.4136 H              1 S1                 0.0000
     29 ****        -1.9921   3.2525  -1.9655 H              1 S1                 0.0000
     30 ****        -3.6160   1.3900  -1.5924 H              1 S1                 0.0000
     31 ****        -3.7928   1.8507   0.0959 H              1 S1                 0.0000
     32 ****        -2.2580   1.2191  -0.4900 H              1 S1                 0.0000
     33 ****        -0.5047   1.7210   0.0125 H              1 S1                 0.0000
     34 ****         2.0395   2.3643  -1.2492 H              1 S1                 0.0000
     35 ****         2.0985   2.4207   0.5018 H              1 S1                 0.0000
     36 ****         1.2173   0.1570  -2.3844 H              1 S1                 0.0000
     37 ****         1.4225  -2.3116  -2.2293 H              1 S1                 0.0000
     38 ****         0.0337  -4.3248   0.2054 H              1 S1                 0.0000
     39 ****         0.5465  -4.1151  -1.4553 H              1 S1                 0.0000
     40 ****         0.3527  -6.5347  -0.8591 H              1 S1                 0.0000
     41 ****         1.9871  -6.1254  -1.3424 H              1 S1                 0.0000
     42 ****         3.2249  -6.1543   2.0415 H              1 S1                 0.0000
     43 ****         3.6798  -5.8981   0.3678 H              1 S1                 0.0000
     44 ****         3.5004  -3.7110   1.5119 H              1 S1                 0.0000
     45 ****         1.8760  -4.0845   2.0738 H              1 S1                 0.0000
     46 ****         2.2068   0.3653   1.8121 H              1 S1                 0.0000
     47 ****         2.7502  -3.8524  -0.6382 LP             1 S1                 0.0000
     48 ****         1.9042  -7.3991   0.6151 LP             1 S1                 0.0000
     49 ****         0.9902  -6.2775   1.3723 LP             1 S1                 0.0000
     50 ****         2.3767  -1.9623   1.8709 LP             1 S1                 0.0000
@<TRIPOS>BOND
    1    1    2 1     
    2    1   23 1     
    3    1   24 1     
    4    1   25 1     
    5    2    3 1     
    6    2   26 1     
    7    2   27 1     
    8    3    4 1     
    9    3    6 1     
   10    4    5 1     
   11    4   28 1     
   12    4   29 1     
   13    5   30 1     
   14    5   31 1     
   15    5   32 1     
   16    6    7 2     
   17    6    8 2     
   18    6    9 1     
   19    9   10 1     
   20    9   33 1     
   21   10   11 1     
   22   10   34 1     
   23   10   35 1     
   24   11   22 ar    
   25   11   12 ar    
   26   12   13 ar    
   27   12   36 1     
   28   13   14 ar    
   29   13   37 1     
   30   14   15 1     
   31   14   21 ar    
   32   15   20 1     
   33   15   16 1     
   34   16   17 1     
   35   16   38 1     
   36   16   39 1     
   37   17   18 1     
   38   17   40 1     
   39   17   41 1     
   40   18   19 1     
   41   19   20 1     
   42   19   42 1     
   43   19   43 1     
   44   20   44 1     
   45   20   45 1     
   46   21   22 ar    
   47   22   46 1     
   48   15   47 1     
   49   18   48 1     
   50   18   49 1     
   51   21   50 1     
@<TRIPOS>SUBSTRUCTURE
      1 S1             1
@<TRIPOS>SET
LONE_PAIRS      STATIC     ATOMS    <user>   **** ""
6 7 8 47 48 49 50
DONOR_HYDROGENS      STATIC     ATOMS    <user>   **** ""
1 33
ATOM$BLUE        STATIC     ATOMS    COLORGROUP SYSTEM
6 7 8 47 48 49 50
ATOM$RED        STATIC     ATOMS    COLORGROUP SYSTEM
1 33
