AV-unprocessed.smi:2987|AV-procd|sdf|11385|dock1
  -GOLD-   2272016313D 1   1.00000     0.00000
 Structure written by MMmdl.
 25 26  0  0  0  0  0  0  0  0  1 V2000
  150.9651  145.5665  160.2659 C   0  0  0  0  0  0  0  0  0  0  0  0
  151.8133  144.3541  160.4842 C   0  0  0  0  0  0  0  0  0  0  0  0
  152.2039  143.9660  161.6985 N   0  0  0  0  0  0  0  0  0  0  0  0
  152.9509  142.8351  161.4287 C   0  0  0  0  0  0  0  0  0  0  0  0
  153.6424  141.9613  162.2980 C   0  0  0  0  0  0  0  0  0  0  0  0
  154.3502  140.8550  161.7837 C   0  0  0  0  0  0  0  0  0  0  0  0
  154.3777  140.6073  160.3958 C   0  0  0  0  0  0  0  0  0  0  0  0
  153.6952  141.4651  159.5119 C   0  0  0  0  0  0  0  0  0  0  0  0
  152.9894  142.5669  160.0307 C   0  0  0  0  0  0  0  0  0  0  0  0
  152.2328  143.5810  159.4530 N   0  0  0  0  0  0  0  0  0  0  0  0
  151.9698  143.7580  158.0344 C   0  0  0  0  0  0  0  0  0  0  0  0
  151.1339  142.6015  157.4695 C   0  0  0  0  0  0  0  0  0  0  0  0
  149.7664  142.9465  157.4916 O   0  0  0  0  0  0  0  0  0  0  0  0
  150.8212  146.1065  161.2024 H   0  0  0  0  0  0  0  0  0  0  0  0
  149.9866  145.2764  159.8824 H   0  0  0  0  0  0  0  0  0  0  0  0
  151.4400  146.2394  159.5516 H   0  0  0  0  0  0  0  0  0  0  0  0
  153.6287  142.1432  163.3624 H   0  0  0  0  0  0  0  0  0  0  0  0
  154.8746  140.1933  162.4574 H   0  0  0  0  0  0  0  0  0  0  0  0
  154.9229  139.7583  160.0103 H   0  0  0  0  0  0  0  0  0  0  0  0
  153.7143  141.2784  158.4486 H   0  0  0  0  0  0  0  0  0  0  0  0
  151.4464  144.7051  157.8965 H   0  0  0  0  0  0  0  0  0  0  0  0
  152.9155  143.8493  157.4997 H   0  0  0  0  0  0  0  0  0  0  0  0
  151.4271  142.3750  156.4439 H   0  0  0  0  0  0  0  0  0  0  0  0
  151.2811  141.6959  158.0589 H   0  0  0  0  0  0  0  0  0  0  0  0
  149.5651  143.4271  156.7029 H   0  0  0  0  0  0  0  0  0  0  0  0
  1  2  1  0  0  0  0
  1 14  1  0  0  0  0
  1 15  1  0  0  0  0
  1 16  1  0  0  0  0
  2 10  1  0  0  0  0
  2  3  2  0  0  0  0
  3  4  1  0  0  0  0
  4  9  2  0  0  0  0
  4  5  1  0  0  0  0
  5  6  2  0  0  0  0
  5 17  1  0  0  0  0
  6  7  1  0  0  0  0
  6 18  1  0  0  0  0
  7  8  2  0  0  0  0
  7 19  1  0  0  0  0
  8  9  1  0  0  0  0
  8 20  1  0  0  0  0
  9 10  1  0  0  0  0
 10 11  1  0  0  0  0
 11 12  1  0  0  0  0
 11 21  1  0  0  0  0
 11 22  1  0  0  0  0
 12 13  1  0  0  0  0
 12 23  1  0  0  0  0
 12 24  1  0  0  0  0
 13 25  1  0  0  0  0
M  END
> <s_m_source_file>
AV-unprocessed.smi

> <i_m_source_file_index>
2987

> <i_lp_mmshare_version>
43012

> <i_f3d_flags>
0

> <s_epik_input>
W09IXVtDSDJdW0NIMl1uKGMobjEpW0NIM10pYyhjMTIpW2NIXVtjSF1bY0hdW2NIXTI=

> <s_epik_cmdline>
J2VwaWtfcHl0aG9uJywgJy1waCcsICc3LjAnLCAnLXRuJywgJzgnLCAnLW1hJywgJzIwMCcsICctbWV0YWxfYmluZGluZycsICctaW1hZScsICc8aW5maWxlLm1hZT4nLCAnLW9tYWUnLCAnPG91dGZpbGUubWFlPic=

> <r_epik_Ionization_Penalty>
0.129663

> <r_epik_Ionization_Penalty_Charging>
0

> <r_epik_Ionization_Penalty_Neutral>
0.129663

> <r_epik_State_Penalty>
0.119073

> <r_epik_Charging_Adjusted_Penalty>
0.119073

> <i_epik_Tot_Q>
0

> <i_epik_Tot_abs_Q>
0

> <r_epik_Metal_State_Penalty>
0.000131867

> <b_epik_Metal_Only>
0

> <s_lp_Force_Field>
OPLS_2005

> <r_lp_Energy>
7.88102

> <b_lp_Chiralities_Consistent>
1

> <s_lp_Variant>
AV-unprocessed.smi:2987-1

> <Gold.Version>
5.8.1

> <Gold.Id.Protein>
6NUR|6NUR_protein|mol2

> <Gold.PLP.Fitness>
41.2501

> <Gold.PLP.PLP>
-38.7530

> <Gold.PLP.part.hbond>
-1.0000

> <Gold.PLP.part.metal>
0.0000

> <Gold.PLP.part.buried>
-3.9834

> <Gold.PLP.part.nonpolar>
-33.9222

> <Gold.PLP.part.repulsive>
0.1623

> <Gold.PLP.ligand.clash>
0.0000

> <Gold.PLP.ligand.torsion>
0.2516

> <Gold.PLP.Chemscore.Hbond>
1.0000

> <Gold.PLP.Chemscore.CHOScore>
0.0000

> <Gold.PLP.Chemscore.Metal>
0.0000

> <Gold.Chemscore.Hbonds>
donor molecule, donor type, donor heavy atom, donor atom, acceptor molecule, acceptor atom, score
      L1  H    13    25       P1  8028  1.00

> <Gold.PLP.Chemscore.Internal.Correction>
0.0003

> <Gold.Rescore>
     Score         DG    S(hbond)    S(metal)    S(lipo)     H(rot)  DE(clash)    DE(int)     intcor
     15.26     -15.62       1.00        0.00      95.46       1.70       0.13       0.23       ----

> <Gold.Chemscore.Fitness>
15.2564

> <Gold.Chemscore.DG>
-15.6199

> <Gold.Chemscore.ZeroCoef>
-5.4800

> <Gold.Chemscore.Hbond>
0.9967

> <Gold.Chemscore.Metal>
0.0000

> <Gold.Chemscore.Lipo>
95.4592

> <Gold.Chemscore.Internal_Hbond>
0.0000

> <Gold.Chemscore.DEClash>
0.1321

> <Gold.Chemscore.DEInternal>
0.2314

> <Gold.Chemscore.Rot>
1.7023

> <Gold.Chemscore.Internal.Correction>
   9.000000E+99

> <Gold.Chemscore.Hbonds>
donor molecule, donor type, donor heavy atom, donor atom, acceptor molecule, acceptor atom, score
      L1  H    13    25       P1  8028  0.99

> <Gold.Chemscore.Hbond.Weighted>
-3.3291

> <Gold.Chemscore.Metal.Weighted>
-0.0000

> <Gold.Chemscore.Lipo.Weighted>
-11.1687

> <Gold.Chemscore.Internal_Hbond.Weighted>
0.0000

> <Gold.Chemscore.DEClash.Weighted>
0.1321

> <Gold.Chemscore.DEInternal.Weighted>
0.2314

> <Gold.Chemscore.Rot.Weighted>
4.3579

> <Gold.Chemscore.Internal.Correction.Weighted>
   9.000000E+99

> <Gold.Protein.RotatedTorsions>
[ 6907 6896 6895 6894 ] final  -48.58 input  -60.11 | X-H torsion
[ 7974 7965 7964 7962 ] final   11.47 input  175.53 | X-H torsion
[ 8008 7997 7996 7995 ] final -101.76 input   59.86 | X-H torsion
[ 10167 10162 10161 10158 ] final  -66.42 input  -65.29 | X-H torsion
[ 10718 10713 10712 10709 ] final  -81.75 input   66.30 | X-H torsion
[ 10763 10752 10751 10750 ] final  138.11 input  -60.55 | X-H torsion
[ 11005 11000 10999 10996 ] final  168.53 input  -57.11 | X-H torsion

> <Gold.Protein.ActiveResidues>
 VAL166  LYS551  ARG553  GLY616  TRP617  ASP618  TYR619  PRO620  LYS621  CYS622 
 ASP623  PHE694  ASN695  SER759  ASP760  ASP761  ALA762  ILE779  LEU786  VAL792 
 PHE793  MET794  SER795  GLU796  ALA797  LYS798  CYS799  TRP800  GLU811  SER814 

> <Gold.Protein.RotatedAtoms>
  150.8891  134.8293  159.7280 H   0  0  0  0  0  0  0  0  0  0  0  0  # atno 6907 bound_to 6896
  152.4826  134.4675  159.9635 H   0  0  0  0  0  0  0  0  0  0  0  0  # atno 6908 bound_to 6896
  151.4740  133.3523  159.2863 H   0  0  0  0  0  0  0  0  0  0  0  0  # atno 6909 bound_to 6896
  146.2370  139.9480  142.8474 H   0  0  0  0  0  0  0  0  0  0  0  0  # atno 7974 bound_to 7965
  154.8471  140.0432  157.1579 H   0  0  0  0  0  0  0  0  0  0  0  0  # atno 8008 bound_to 7997
  154.8984  140.2996  155.5311 H   0  0  0  0  0  0  0  0  0  0  0  0  # atno 8009 bound_to 7997
  156.2995  140.2380  156.4008 H   0  0  0  0  0  0  0  0  0  0  0  0  # atno 8010 bound_to 7997
  140.5658  143.2314  151.6637 H   0  0  0  0  0  0  0  0  0  0  0  0  # atno 10167 bound_to 10162
  156.0045  130.4613  150.3999 H   0  0  0  0  0  0  0  0  0  0  0  0  # atno 10718 bound_to 10713
  153.8842  135.3040  155.3446 H   0  0  0  0  0  0  0  0  0  0  0  0  # atno 10763 bound_to 10752
  154.7747  135.4867  153.9723 H   0  0  0  0  0  0  0  0  0  0  0  0  # atno 10764 bound_to 10752
  153.1334  135.6809  153.9239 H   0  0  0  0  0  0  0  0  0  0  0  0  # atno 10765 bound_to 10752
  140.2882  134.7695  157.3816 H   0  0  0  0  0  0  0  0  0  0  0  0  # atno 11005 bound_to 11000
  145.1888  140.9802  143.4223 LP  0  0  0  0  0  0  0  0  0  0  0  0  # atno 17320 bound_to 7965
  144.9876  139.3721  143.6231 LP  0  0  0  0  0  0  0  0  0  0  0  0  # atno 17321 bound_to 7965
  139.5092  144.3584  152.0586 LP  0  0  0  0  0  0  0  0  0  0  0  0  # atno 17342 bound_to 10162
  140.2716  144.3958  150.6149 LP  0  0  0  0  0  0  0  0  0  0  0  0  # atno 17343 bound_to 10162
  157.2069  131.0451  151.2620 LP  0  0  0  0  0  0  0  0  0  0  0  0  # atno 17370 bound_to 10713
  157.3924  130.7289  149.6707 LP  0  0  0  0  0  0  0  0  0  0  0  0  # atno 17371 bound_to 10713
  140.1220  134.5208  155.8176 LP  0  0  0  0  0  0  0  0  0  0  0  0  # atno 17394 bound_to 11000
  141.2151  133.6759  156.6882 LP  0  0  0  0  0  0  0  0  0  0  0  0  # atno 17395 bound_to 11000

$$$$
