AV-unprocessed.smi:2992|AV-procd|sdf|11401|dock5
  -GOLD-   2272016323D 1   1.00000     0.00000
 Structure written by MMmdl.
 46 47  0  0  0  0  0  0  0  0  1 V2000
  152.7120  142.8893  159.8241 C   0  0  0  0  0  0  0  0  0  0  0  0
  151.9538  144.0562  159.1558 C   0  0  0  0  0  0  0  0  0  0  0  0
  151.7233  145.1524  160.2140 C   0  0  0  0  0  0  0  0  0  0  0  0
  152.8250  144.6446  158.0248 C   0  0  0  0  0  0  0  0  0  0  0  0
  150.5646  143.6074  158.6174 C   0  0  0  0  0  0  0  0  0  0  0  0
  150.5837  142.4131  157.6543 C   0  0  0  0  0  0  0  0  0  0  0  0
  151.0870  141.3449  158.0013 O   0  0  0  0  0  0  0  0  0  0  0  0
  150.0226  142.6099  156.4513 N   0  0  0  0  0  0  0  0  0  0  0  0
  149.9941  141.6433  155.3596 C   0  0  0  0  0  0  0  0  0  0  0  0
  148.6632  140.9173  155.2652 C   0  0  0  0  0  0  0  0  0  0  0  0
  147.9368  140.8917  154.0578 C   0  0  0  0  0  0  0  0  0  0  0  0
  146.7012  140.2199  154.0354 C   0  0  0  0  0  0  0  0  0  0  0  0
  146.1793  139.5955  155.1116 N   0  0  0  0  0  0  0  0  0  0  0  0
  146.8726  139.6055  156.2774 C   0  0  0  0  0  0  0  0  0  0  0  0
  146.3138  138.9458  157.3939 N   0  0  0  0  0  0  0  0  0  0  0  0
  145.5430  139.7860  158.3075 C   0  0  0  0  0  0  0  0  0  0  0  0
  144.7410  138.9143  159.2896 C   0  0  0  0  0  0  0  0  0  0  0  0
  145.6161  138.0184  159.9667 O   0  0  0  0  0  0  0  0  0  0  0  0
  146.2695  137.1342  159.0626 C   0  0  0  0  0  0  0  0  0  0  0  0
  147.1297  137.9442  158.0782 C   0  0  0  0  0  0  0  0  0  0  0  0
  148.1211  140.2635  156.3910 C   0  0  0  0  0  0  0  0  0  0  0  0
  153.6330  143.2348  160.2949 H   0  0  0  0  0  0  0  0  0  0  0  0
  152.9946  142.1199  159.1053 H   0  0  0  0  0  0  0  0  0  0  0  0
  152.1073  142.4146  160.5976 H   0  0  0  0  0  0  0  0  0  0  0  0
  151.1243  144.7812  161.0464 H   0  0  0  0  0  0  0  0  0  0  0  0
  151.2000  146.0108  159.7911 H   0  0  0  0  0  0  0  0  0  0  0  0
  152.6657  145.5151  160.6261 H   0  0  0  0  0  0  0  0  0  0  0  0
  153.7642  145.0390  158.4142 H   0  0  0  0  0  0  0  0  0  0  0  0
  152.3138  145.4613  157.5140 H   0  0  0  0  0  0  0  0  0  0  0  0
  153.0804  143.8960  157.2741 H   0  0  0  0  0  0  0  0  0  0  0  0
  149.9168  143.3439  159.4547 H   0  0  0  0  0  0  0  0  0  0  0  0
  150.0741  144.4474  158.1225 H   0  0  0  0  0  0  0  0  0  0  0  0
  149.6257  143.5183  156.2601 H   0  0  0  0  0  0  0  0  0  0  0  0
  150.2102  142.1213  154.4028 H   0  0  0  0  0  0  0  0  0  0  0  0
  150.7956  140.9230  155.5261 H   0  0  0  0  0  0  0  0  0  0  0  0
  148.3111  141.3779  153.1691 H   0  0  0  0  0  0  0  0  0  0  0  0
  146.1151  140.1837  153.1290 H   0  0  0  0  0  0  0  0  0  0  0  0
  146.2309  140.4300  158.8569 H   0  0  0  0  0  0  0  0  0  0  0  0
  144.8554  140.4402  157.7738 H   0  0  0  0  0  0  0  0  0  0  0  0
  144.2392  139.5430  160.0252 H   0  0  0  0  0  0  0  0  0  0  0  0
  143.9636  138.3547  158.7666 H   0  0  0  0  0  0  0  0  0  0  0  0
  146.8958  136.4451  159.6292 H   0  0  0  0  0  0  0  0  0  0  0  0
  145.5327  136.5304  158.5303 H   0  0  0  0  0  0  0  0  0  0  0  0
  147.5839  137.2668  157.3540 H   0  0  0  0  0  0  0  0  0  0  0  0
  147.9392  138.4423  158.6133 H   0  0  0  0  0  0  0  0  0  0  0  0
  148.6532  140.2875  157.3301 H   0  0  0  0  0  0  0  0  0  0  0  0
  1  2  1  0  0  0  0
  1 22  1  0  0  0  0
  1 23  1  0  0  0  0
  1 24  1  0  0  0  0
  2  3  1  0  0  0  0
  2  4  1  0  0  0  0
  2  5  1  0  0  0  0
  3 25  1  0  0  0  0
  3 26  1  0  0  0  0
  3 27  1  0  0  0  0
  4 28  1  0  0  0  0
  4 29  1  0  0  0  0
  4 30  1  0  0  0  0
  5  6  1  0  0  0  0
  5 31  1  0  0  0  0
  5 32  1  0  0  0  0
  6  7  2  0  0  0  0
  6  8  1  0  0  0  0
  8  9  1  0  0  0  0
  8 33  1  0  0  0  0
  9 10  1  0  0  0  0
  9 34  1  0  0  0  0
  9 35  1  0  0  0  0
 10 21  1  0  0  0  0
 10 11  2  0  0  0  0
 11 12  1  0  0  0  0
 11 36  1  0  0  0  0
 12 13  2  0  0  0  0
 12 37  1  0  0  0  0
 13 14  1  0  0  0  0
 14 15  1  0  0  0  0
 14 21  2  0  0  0  0
 15 20  1  0  0  0  0
 15 16  1  0  0  0  0
 16 17  1  0  0  0  0
 16 38  1  0  0  0  0
 16 39  1  0  0  0  0
 17 18  1  0  0  0  0
 17 40  1  0  0  0  0
 17 41  1  0  0  0  0
 18 19  1  0  0  0  0
 19 20  1  0  0  0  0
 19 42  1  0  0  0  0
 19 43  1  0  0  0  0
 20 44  1  0  0  0  0
 20 45  1  0  0  0  0
 21 46  1  0  0  0  0
M  END
> <s_m_source_file>
AV-unprocessed.smi

> <i_m_source_file_index>
2992

> <i_lp_mmshare_version>
43012

> <i_f3d_flags>
0

> <s_epik_input>
W0NIM11DKFtDSDNdKShbQ0gzXSlbQ0gyXUMoPU8pW05IXVtDSDJdYzFbY0hdW2NIXW5jKFtjSF0xKU4yW0NIMl1bQ0gyXU9bQ0gyXVtDSDJdMg==

> <s_epik_cmdline>
J2VwaWtfcHl0aG9uJywgJy1waCcsICc3LjAnLCAnLXRuJywgJzgnLCAnLW1hJywgJzIwMCcsICctbWV0YWxfYmluZGluZycsICctaW1hZScsICc8aW5maWxlLm1hZT4nLCAnLW9tYWUnLCAnPG91dGZpbGUubWFlPic=

> <r_lp_tautomer_probability>
1

> <r_epik_Ionization_Penalty>
0.00548609

> <r_epik_Ionization_Penalty_Charging>
0

> <r_epik_Ionization_Penalty_Neutral>
0.00548609

> <r_epik_State_Penalty>
0.00401348

> <r_epik_Charging_Adjusted_Penalty>
0.00401348

> <i_epik_Tot_Q>
0

> <i_epik_Tot_abs_Q>
0

> <r_epik_Metal_State_Penalty>
-0

> <b_epik_Metal_Only>
0

> <s_lp_Force_Field>
OPLS_2005

> <r_lp_Energy>
16.2272

> <b_lp_Chiralities_Consistent>
1

> <s_lp_Variant>
AV-unprocessed.smi:2992-1

> <Gold.Version>
5.8.1

> <Gold.Id.Protein>
6NUR|6NUR_protein|mol2

> <Gold.PLP.Fitness>
41.2720

> <Gold.PLP.PLP>
-33.7937

> <Gold.PLP.part.hbond>
-1.9110

> <Gold.PLP.part.metal>
0.0000

> <Gold.PLP.part.buried>
-4.9308

> <Gold.PLP.part.nonpolar>
-27.9947

> <Gold.PLP.part.repulsive>
0.1592

> <Gold.PLP.ligand.clash>
0.0000

> <Gold.PLP.ligand.torsion>
0.6093

> <Gold.PLP.Chemscore.Hbond>
1.7908

> <Gold.PLP.Chemscore.CHOScore>
0.9837

> <Gold.PLP.Chemscore.Metal>
0.0000

> <Gold.Chemscore.Hbonds>
donor molecule, donor type, donor heavy atom, donor atom, acceptor molecule, acceptor atom, score
      L1  H     8    33       P1  8028  1.00
      P1  H  6934  6947       L1    18  0.74
      L1  C    12    37       P1 10175  0.99

> <Gold.PLP.Chemscore.Internal.Correction>
0.3735

> <Gold.Rescore>
     Score         DG    S(hbond)    S(metal)    S(lipo)     H(rot)  DE(clash)    DE(int)     intcor
     15.26     -17.23       1.44        0.00      94.63       1.62       0.19       1.77       ----

> <Gold.Chemscore.Fitness>
15.2634

> <Gold.Chemscore.DG>
-17.2279

> <Gold.Chemscore.ZeroCoef>
-5.4800

> <Gold.Chemscore.Hbond>
1.4414

> <Gold.Chemscore.Metal>
0.0000

> <Gold.Chemscore.Lipo>
94.6300

> <Gold.Chemscore.Internal_Hbond>
0.0000

> <Gold.Chemscore.DEClash>
0.1908

> <Gold.Chemscore.DEInternal>
1.7736

> <Gold.Chemscore.Rot>
1.6164

> <Gold.Chemscore.Internal.Correction>
   9.000000E+99

> <Gold.Chemscore.Hbonds>
donor molecule, donor type, donor heavy atom, donor atom, acceptor molecule, acceptor atom, score
      L1  H     8    33       P1  8028  0.93
      P1  H  6934  6947       L1    18  0.28

> <Gold.Chemscore.Hbond.Weighted>
-4.8143

> <Gold.Chemscore.Metal.Weighted>
-0.0000

> <Gold.Chemscore.Lipo.Weighted>
-11.0717

> <Gold.Chemscore.Internal_Hbond.Weighted>
0.0000

> <Gold.Chemscore.DEClash.Weighted>
0.1908

> <Gold.Chemscore.DEInternal.Weighted>
1.7736

> <Gold.Chemscore.Rot.Weighted>
4.1381

> <Gold.Chemscore.Internal.Correction.Weighted>
   9.000000E+99

> <Gold.Protein.RotatedTorsions>
[ 6907 6896 6895 6894 ] final  -85.47 input  -60.11 | X-H torsion
[ 7974 7965 7964 7962 ] final   79.05 input  175.53 | X-H torsion
[ 8008 7997 7996 7995 ] final  -52.36 input   59.86 | X-H torsion
[ 10167 10162 10161 10158 ] final -151.60 input  -65.29 | X-H torsion
[ 10718 10713 10712 10709 ] final -157.43 input   66.30 | X-H torsion
[ 10763 10752 10751 10750 ] final   39.12 input  -60.55 | X-H torsion
[ 11005 11000 10999 10996 ] final  -94.59 input  -57.11 | X-H torsion

> <Gold.Protein.ActiveResidues>
 VAL166  LYS551  ARG553  GLY616  TRP617  ASP618  TYR619  PRO620  LYS621  CYS622 
 ASP623  PHE694  ASN695  SER759  ASP760  ASP761  ALA762  ILE779  LEU786  VAL792 
 PHE793  MET794  SER795  GLU796  ALA797  LYS798  CYS799  TRP800  GLU811  SER814 

> <Gold.Protein.RotatedAtoms>
  150.6870  134.3200  159.4782 H   0  0  0  0  0  0  0  0  0  0  0  0  # atno 6907 bound_to 6896
  152.1076  134.9294  160.0577 H   0  0  0  0  0  0  0  0  0  0  0  0  # atno 6908 bound_to 6896
  152.0549  133.4001  159.4430 H   0  0  0  0  0  0  0  0  0  0  0  0  # atno 6909 bound_to 6896
  145.6692  139.2492  143.1878 H   0  0  0  0  0  0  0  0  0  0  0  0  # atno 7974 bound_to 7965
  154.4105  140.1226  156.4979 H   0  0  0  0  0  0  0  0  0  0  0  0  # atno 8008 bound_to 7997
  155.6925  140.3495  155.4880 H   0  0  0  0  0  0  0  0  0  0  0  0  # atno 8009 bound_to 7997
  155.9457  140.1095  157.1009 H   0  0  0  0  0  0  0  0  0  0  0  0  # atno 8010 bound_to 7997
  139.7253  143.8893  152.2517 H   0  0  0  0  0  0  0  0  0  0  0  0  # atno 10167 bound_to 10162
  156.5402  130.8560  151.2746 H   0  0  0  0  0  0  0  0  0  0  0  0  # atno 10718 bound_to 10713
  152.9978  135.6230  154.2414 H   0  0  0  0  0  0  0  0  0  0  0  0  # atno 10763 bound_to 10752
  154.2154  135.2798  155.2945 H   0  0  0  0  0  0  0  0  0  0  0  0  # atno 10764 bound_to 10752
  154.5572  135.5716  153.7033 H   0  0  0  0  0  0  0  0  0  0  0  0  # atno 10765 bound_to 10752
  141.1466  133.7967  157.0319 H   0  0  0  0  0  0  0  0  0  0  0  0  # atno 11005 bound_to 11000
  146.1060  140.7487  142.9526 LP  0  0  0  0  0  0  0  0  0  0  0  0  # atno 17320 bound_to 7965
  144.7062  140.3863  143.7116 LP  0  0  0  0  0  0  0  0  0  0  0  0  # atno 17321 bound_to 7965
  139.8800  144.7022  150.8888 LP  0  0  0  0  0  0  0  0  0  0  0  0  # atno 17342 bound_to 10162
  140.7761  143.3668  151.1723 LP  0  0  0  0  0  0  0  0  0  0  0  0  # atno 17343 bound_to 10162
  157.7406  130.9854  150.2392 LP  0  0  0  0  0  0  0  0  0  0  0  0  # atno 17370 bound_to 10713
  156.2978  130.3754  149.7779 LP  0  0  0  0  0  0  0  0  0  0  0  0  # atno 17371 bound_to 10713
  140.0748  134.9682  157.1528 LP  0  0  0  0  0  0  0  0  0  0  0  0  # atno 17394 bound_to 11000
  140.3659  134.2443  155.7182 LP  0  0  0  0  0  0  0  0  0  0  0  0  # atno 17395 bound_to 11000

$$$$
