AV-unprocessed.smi:1670|AV-procd|sdf|6693|dock4
  -GOLD-   22720 7423D 1   1.00000     0.00000
 Structure written by MMmdl.
 41 42  0  0  0  0  0  0  0  0  1 V2000
  149.1356  135.3471  156.0569 C   0  0  0  0  0  0  0  0  0  0  0  0
  148.9555  134.0667  155.2300 C   0  0  2  0  0  0  0  0  0  0  0  0
  150.2891  133.3038  155.0773 C   0  0  0  0  0  0  0  0  0  0  0  0
  150.1098  131.9629  154.5477 N   0  0  0  0  0  0  0  0  0  0  0  0
  150.6976  130.7901  154.9721 C   0  0  0  0  0  0  0  0  0  0  0  0
  150.2103  129.7842  154.1877 C   0  0  0  0  0  0  0  0  0  0  0  0
  149.3198  130.4496  153.2994 C   0  0  0  0  0  0  0  0  0  0  0  0
  149.2659  131.7543  153.5131 N   0  0  0  0  0  0  0  0  0  0  0  0
  148.4030  134.4181  153.9222 N   0  0  0  0  0  0  0  0  0  0  0  0
  147.3166  133.8670  153.3614 C   0  0  0  0  0  0  0  0  0  0  0  0
  146.6175  133.0138  153.9085 O   0  0  0  0  0  0  0  0  0  0  0  0
  147.1046  134.3442  152.1252 N   0  0  0  0  0  0  0  0  0  0  0  0
  146.0600  133.9366  151.1842 C   0  0  2  0  0  0  0  0  0  0  0  0
  144.6371  134.1566  151.7415 C   0  0  0  0  0  0  0  0  0  0  0  0
  143.5748  133.7893  150.6926 C   0  0  0  0  0  0  0  0  0  0  0  0
  143.7641  132.3451  150.1941 C   0  0  1  0  0  0  0  0  0  0  0  0
  142.8142  132.0667  149.1871 O   0  0  0  0  0  0  0  0  0  0  0  0
  145.1821  132.1276  149.6350 C   0  0  0  0  0  0  0  0  0  0  0  0
  146.2505  132.4893  150.6794 C   0  0  0  0  0  0  0  0  0  0  0  0
  149.5186  135.1196  157.0520 H   0  0  0  0  0  0  0  0  0  0  0  0
  148.1872  135.8704  156.1824 H   0  0  0  0  0  0  0  0  0  0  0  0
  149.8357  136.0342  155.5801 H   0  0  0  0  0  0  0  0  0  0  0  0
  148.2504  133.4324  155.7704 H   0  0  0  0  0  0  0  0  0  0  0  0
  150.9772  133.8562  154.4347 H   0  0  0  0  0  0  0  0  0  0  0  0
  150.7784  133.2123  156.0478 H   0  0  0  0  0  0  0  0  0  0  0  0
  151.4004  130.7691  155.7923 H   0  0  0  0  0  0  0  0  0  0  0  0
  150.4506  128.7329  154.2432 H   0  0  0  0  0  0  0  0  0  0  0  0
  148.7166  130.0264  152.5097 H   0  0  0  0  0  0  0  0  0  0  0  0
  148.9111  135.1079  153.3883 H   0  0  0  0  0  0  0  0  0  0  0  0
  147.7489  135.0442  151.7877 H   0  0  0  0  0  0  0  0  0  0  0  0
  146.1795  134.5991  150.3261 H   0  0  0  0  0  0  0  0  0  0  0  0
  144.4766  133.5506  152.6336 H   0  0  0  0  0  0  0  0  0  0  0  0
  144.5096  135.1960  152.0456 H   0  0  0  0  0  0  0  0  0  0  0  0
  142.5784  133.9118  151.1193 H   0  0  0  0  0  0  0  0  0  0  0  0
  143.6407  134.4836  149.8537 H   0  0  0  0  0  0  0  0  0  0  0  0
  143.5910  131.6527  151.0190 H   0  0  0  0  0  0  0  0  0  0  0  0
  142.0748  132.6431  149.3042 H   0  0  0  0  0  0  0  0  0  0  0  0
  145.3076  131.0901  149.3229 H   0  0  0  0  0  0  0  0  0  0  0  0
  145.3271  132.7392  148.7432 H   0  0  0  0  0  0  0  0  0  0  0  0
  147.2441  132.3709  150.2457 H   0  0  0  0  0  0  0  0  0  0  0  0
  146.1893  131.7827  151.5076 H   0  0  0  0  0  0  0  0  0  0  0  0
  1  2  1  0  0  0  0
  1 20  1  0  0  0  0
  1 21  1  0  0  0  0
  1 22  1  0  0  0  0
  2  3  1  0  0  0  0
  2  9  1  0  0  0  0
  2 23  1  0  0  0  0
  3  4  1  0  0  0  0
  3 24  1  0  0  0  0
  3 25  1  0  0  0  0
  4  8  1  0  0  0  0
  4  5  1  0  0  0  0
  5  6  2  0  0  0  0
  5 26  1  0  0  0  0
  6  7  1  0  0  0  0
  6 27  1  0  0  0  0
  7  8  2  0  0  0  0
  7 28  1  0  0  0  0
  9 10  1  0  0  0  0
  9 29  1  0  0  0  0
 10 11  2  0  0  0  0
 10 12  1  0  0  0  0
 12 13  1  0  0  0  0
 12 30  1  0  0  0  0
 13 19  1  0  0  0  0
 13 14  1  0  0  0  0
 13 31  1  0  0  0  0
 14 15  1  0  0  0  0
 14 32  1  0  0  0  0
 14 33  1  0  0  0  0
 15 16  1  0  0  0  0
 15 34  1  0  0  0  0
 15 35  1  0  0  0  0
 16 17  1  0  0  0  0
 16 18  1  0  0  0  0
 16 36  1  0  0  0  0
 17 37  1  0  0  0  0
 18 19  1  0  0  0  0
 18 38  1  0  0  0  0
 18 39  1  0  0  0  0
 19 40  1  0  0  0  0
 19 41  1  0  0  0  0
M  END
> <s_m_source_file>
AV-unprocessed.smi

> <i_m_source_file_index>
1670

> <i_lp_mmshare_version>
43012

> <i_f3d_flags>
0

> <s_epik_input>
bjFbY0hdW2NIXVtjSF1uMVtDSDJdW0NAQEhdKFtDSDNdKVtOSF1DKD1PKVtOSF1bQ0BASF0yW0NIMl1bQ0gyXVtDQEBIXShbT0hdKVtDSDJdW0NIMl0y

> <s_epik_cmdline>
J2VwaWtfcHl0aG9uJywgJy1waCcsICc3LjAnLCAnLXRuJywgJzgnLCAnLW1hJywgJzIwMCcsICctbWV0YWxfYmluZGluZycsICctaW1hZScsICc8aW5maWxlLm1hZT4nLCAnLW9tYWUnLCAnPG91dGZpbGUubWFlPic=

> <r_lp_tautomer_probability>
1

> <r_epik_Ionization_Penalty>
7.33369e-05

> <r_epik_Ionization_Penalty_Charging>
0

> <r_epik_Ionization_Penalty_Neutral>
7.33369e-05

> <r_epik_State_Penalty>
-0

> <r_epik_Charging_Adjusted_Penalty>
0

> <i_epik_Tot_Q>
0

> <i_epik_Tot_abs_Q>
0

> <r_epik_Metal_State_Penalty>
-0

> <b_epik_Metal_Only>
0

> <s_lp_Force_Field>
OPLS_2005

> <r_lp_Energy>
5.26958

> <b_lp_Chiralities_Consistent>
1

> <s_lp_Variant>
AV-unprocessed.smi:1670-1

> <Gold.Version>
5.8.1

> <Gold.Id.Protein>
6NUR|6NUR_protein|mol2

> <Gold.PLP.Fitness>
46.0949

> <Gold.PLP.PLP>
-32.8858

> <Gold.PLP.part.hbond>
-5.0000

> <Gold.PLP.part.metal>
0.0000

> <Gold.PLP.part.buried>
-1.6926

> <Gold.PLP.part.nonpolar>
-24.6757

> <Gold.PLP.part.repulsive>
0.1961

> <Gold.PLP.ligand.clash>
0.0000

> <Gold.PLP.ligand.torsion>
0.3872

> <Gold.PLP.Chemscore.Hbond>
3.8940

> <Gold.PLP.Chemscore.CHOScore>
0.7508

> <Gold.PLP.Chemscore.Metal>
0.0000

> <Gold.Chemscore.Hbonds>
donor molecule, donor type, donor heavy atom, donor atom, acceptor molecule, acceptor atom, score
      L1  H     9    29       P1  7948  0.96
      L1  H    12    30       P1  7948  1.00
      L1  H    17    37       P1 10186  0.89
      P1  H 10785 10796       L1    17  1.00
      L1  C     7    28       P1 10747  0.77

> <Gold.PLP.Chemscore.Internal.Correction>
0.0492

> <Gold.Rescore>
     Score         DG    S(hbond)    S(metal)    S(lipo)     H(rot)  DE(clash)    DE(int)     intcor
     17.58     -18.90       3.18        0.00      72.39       2.22       1.00       0.31       ----

> <Gold.Chemscore.Fitness>
17.5849

> <Gold.Chemscore.DG>
-18.8979

> <Gold.Chemscore.ZeroCoef>
-5.4800

> <Gold.Chemscore.Hbond>
3.1848

> <Gold.Chemscore.Metal>
0.0000

> <Gold.Chemscore.Lipo>
72.3924

> <Gold.Chemscore.Internal_Hbond>
0.0000

> <Gold.Chemscore.DEClash>
1.0048

> <Gold.Chemscore.DEInternal>
0.3082

> <Gold.Chemscore.Rot>
2.2224

> <Gold.Chemscore.Internal.Correction>
   9.000000E+99

> <Gold.Chemscore.Hbonds>
donor molecule, donor type, donor heavy atom, donor atom, acceptor molecule, acceptor atom, score
      L1  H     9    29       P1  7948  0.41
      L1  H    12    30       P1  7948  0.65
      L1  H    17    37       P1 10186  0.85
      P1  H 10785 10796       L1    17  0.38

> <Gold.Chemscore.Hbond.Weighted>
-10.6373

> <Gold.Chemscore.Metal.Weighted>
-0.0000

> <Gold.Chemscore.Lipo.Weighted>
-8.4699

> <Gold.Chemscore.Internal_Hbond.Weighted>
0.0000

> <Gold.Chemscore.DEClash.Weighted>
1.0048

> <Gold.Chemscore.DEInternal.Weighted>
0.3082

> <Gold.Chemscore.Rot.Weighted>
5.6893

> <Gold.Chemscore.Internal.Correction.Weighted>
   9.000000E+99

> <Gold.Protein.RotatedTorsions>
[ 6907 6896 6895 6894 ] final -129.40 input  -60.11 | X-H torsion
[ 7974 7965 7964 7962 ] final -136.22 input  175.53 | X-H torsion
[ 8008 7997 7996 7995 ] final -158.64 input   59.86 | X-H torsion
[ 10167 10162 10161 10158 ] final -166.68 input  -65.29 | X-H torsion
[ 10718 10713 10712 10709 ] final  153.20 input   66.30 | X-H torsion
[ 10763 10752 10751 10750 ] final -153.41 input  -60.55 | X-H torsion
[ 11005 11000 10999 10996 ] final  162.55 input  -57.11 | X-H torsion

> <Gold.Protein.ActiveResidues>
 VAL166  LYS551  ARG553  GLY616  TRP617  ASP618  TYR619  PRO620  LYS621  CYS622 
 ASP623  PHE694  ASN695  SER759  ASP760  ASP761  ALA762  ILE779  LEU786  VAL792 
 PHE793  MET794  SER795  GLU796  ALA797  LYS798  CYS799  TRP800  GLU811  SER814 

> <Gold.Protein.RotatedAtoms>
  150.9283  133.6797  159.2816 H   0  0  0  0  0  0  0  0  0  0  0  0  # atno 6907 bound_to 6896
  151.4228  135.0998  159.9628 H   0  0  0  0  0  0  0  0  0  0  0  0  # atno 6908 bound_to 6896
  152.5013  133.8731  159.7363 H   0  0  0  0  0  0  0  0  0  0  0  0  # atno 6909 bound_to 6896
  144.8946  140.6689  143.5123 H   0  0  0  0  0  0  0  0  0  0  0  0  # atno 7974 bound_to 7965
  155.7506  140.0826  157.2203 H   0  0  0  0  0  0  0  0  0  0  0  0  # atno 8008 bound_to 7997
  154.4012  140.1561  156.2776 H   0  0  0  0  0  0  0  0  0  0  0  0  # atno 8009 bound_to 7997
  155.8934  140.3414  155.5975 H   0  0  0  0  0  0  0  0  0  0  0  0  # atno 8010 bound_to 7997
  139.6099  144.0836  152.1831 H   0  0  0  0  0  0  0  0  0  0  0  0  # atno 10167 bound_to 10162
  157.2478  131.0772  151.1750 H   0  0  0  0  0  0  0  0  0  0  0  0  # atno 10718 bound_to 10713
  154.7930  135.3213  154.7734 H   0  0  0  0  0  0  0  0  0  0  0  0  # atno 10763 bound_to 10752
  153.8418  135.6870  153.4806 H   0  0  0  0  0  0  0  0  0  0  0  0  # atno 10764 bound_to 10752
  153.1608  135.4661  154.9710 H   0  0  0  0  0  0  0  0  0  0  0  0  # atno 10765 bound_to 10752
  140.2269  134.8154  157.3277 H   0  0  0  0  0  0  0  0  0  0  0  0  # atno 11005 bound_to 11000
  145.3722  139.1656  143.4326 LP  0  0  0  0  0  0  0  0  0  0  0  0  # atno 17320 bound_to 7965
  146.3074  140.3795  142.8682 LP  0  0  0  0  0  0  0  0  0  0  0  0  # atno 17321 bound_to 7965
  140.0452  144.5976  150.7379 LP  0  0  0  0  0  0  0  0  0  0  0  0  # atno 17342 bound_to 10162
  140.7312  143.2691  151.3946 LP  0  0  0  0  0  0  0  0  0  0  0  0  # atno 17343 bound_to 10162
  157.3310  130.6985  149.6324 LP  0  0  0  0  0  0  0  0  0  0  0  0  # atno 17370 bound_to 10713
  155.9667  130.4307  150.4890 LP  0  0  0  0  0  0  0  0  0  0  0  0  # atno 17371 bound_to 10713
  140.1791  134.4512  155.7783 LP  0  0  0  0  0  0  0  0  0  0  0  0  # atno 17394 bound_to 11000
  141.2220  133.6976  156.7838 LP  0  0  0  0  0  0  0  0  0  0  0  0  # atno 17395 bound_to 11000

$$$$
