AV-unprocessed.smi:2087|AV-procd|sdf|8522|dock4
  -GOLD-   2272011233D 1   1.00000     0.00000
 Structure written by MMmdl.
 51 52  0  0  0  0  0  0  0  0  2 V2000
  152.0074  145.6619  159.4179 C   0  0  0  0  0  0  0  0  0  0  0  0
  151.8405  144.1522  159.1758 C   0  0  0  0  0  0  0  0  0  0  0  0
  153.0956  143.3948  159.6358 C   0  0  0  0  0  0  0  0  0  0  0  0
  151.5303  143.8351  157.6964 C   0  0  0  0  0  0  0  0  0  0  0  0
  150.3793  142.9067  157.5230 N   0  3  1  0  0  0  0  0  0  0  0  0
  150.1039  142.5646  156.1062 C   0  0  0  0  0  0  0  0  0  0  0  0
  151.0951  141.5082  155.5857 C   0  0  0  0  0  0  0  0  0  0  0  0
  151.0314  140.3564  156.4168 O   0  0  0  0  0  0  0  0  0  0  0  0
  151.4116  140.6337  157.7615 C   0  0  2  0  0  0  0  0  0  0  0  0
  151.3929  139.3126  158.5517 C   0  0  0  0  0  0  0  0  0  0  0  0
  150.0783  138.6825  158.5086 N   0  0  0  0  0  0  0  0  0  0  0  0
  149.7817  137.4891  159.0435 C   0  0  0  0  0  0  0  0  0  0  0  0
  150.5898  136.8203  159.6891 O   0  0  0  0  0  0  0  0  0  0  0  0
  148.3535  136.9789  158.8148 C   0  0  0  0  0  0  0  0  0  0  0  0
  147.9885  135.8944  159.7352 N   0  0  0  0  0  0  0  0  0  0  0  0
  147.8022  134.6135  159.2482 C   0  0  0  0  0  0  0  0  0  0  0  0
  147.4613  133.5633  160.0267 C   0  0  0  0  0  0  0  0  0  0  0  0
  147.2627  133.7270  161.4618 C   0  0  0  0  0  0  0  0  0  0  0  0
  146.9672  132.7929  162.2079 O   0  0  0  0  0  0  0  0  0  0  0  0
  147.4472  135.0499  161.9317 N   0  0  0  0  0  0  0  0  0  0  0  0
  147.2826  135.3198  163.3451 C   0  0  0  0  0  0  0  0  0  0  0  0
  147.8173  136.1409  161.1149 C   0  0  0  0  0  0  0  0  0  0  0  0
  147.9885  137.2720  161.5779 O   0  0  0  0  0  0  0  0  0  0  0  0
  150.4347  141.6740  158.3513 C   0  0  0  0  0  0  0  0  0  0  0  0
  152.8217  146.0720  158.8196 H   0  0  0  0  0  0  0  0  0  0  0  0
  152.2303  145.8674  160.4654 H   0  0  0  0  0  0  0  0  0  0  0  0
  151.0995  146.2108  159.1672 H   0  0  0  0  0  0  0  0  0  0  0  0
  151.0191  143.8015  159.7997 H   0  0  0  0  0  0  0  0  0  0  0  0
  153.9736  143.6951  159.0625 H   0  0  0  0  0  0  0  0  0  0  0  0
  152.9722  142.3179  159.5158 H   0  0  0  0  0  0  0  0  0  0  0  0
  153.3055  143.5840  160.6890 H   0  0  0  0  0  0  0  0  0  0  0  0
  151.3102  144.7764  157.1904 H   0  0  0  0  0  0  0  0  0  0  0  0
  152.4142  143.4323  157.2022 H   0  0  0  0  0  0  0  0  0  0  0  0
  149.0900  142.1676  156.0407 H   0  0  0  0  0  0  0  0  0  0  0  0
  150.1224  143.4578  155.4807 H   0  0  0  0  0  0  0  0  0  0  0  0
  150.8345  141.2205  154.5673 H   0  0  0  0  0  0  0  0  0  0  0  0
  152.1137  141.8978  155.5538 H   0  0  0  0  0  0  0  0  0  0  0  0
  152.4254  141.0357  157.7724 H   0  0  0  0  0  0  0  0  0  0  0  0
  152.1414  138.6227  158.1584 H   0  0  0  0  0  0  0  0  0  0  0  0
  151.6551  139.4933  159.5947 H   0  0  0  0  0  0  0  0  0  0  0  0
  149.3534  139.1703  158.0023 H   0  0  0  0  0  0  0  0  0  0  0  0
  147.6690  137.8200  158.9318 H   0  0  0  0  0  0  0  0  0  0  0  0
  148.2348  136.6413  157.7834 H   0  0  0  0  0  0  0  0  0  0  0  0
  147.9351  134.4389  158.1904 H   0  0  0  0  0  0  0  0  0  0  0  0
  147.3343  132.5875  159.5811 H   0  0  0  0  0  0  0  0  0  0  0  0
  146.6774  136.2222  163.4492 H   0  0  0  0  0  0  0  0  0  0  0  0
  148.2821  135.4589  163.7598 H   0  0  0  0  0  0  0  0  0  0  0  0
  146.7670  134.4983  163.8420 H   0  0  0  0  0  0  0  0  0  0  0  0
  150.6961  141.9041  159.3831 H   0  0  0  0  0  0  0  0  0  0  0  0
  149.4313  141.2475  158.3837 H   0  0  0  0  0  0  0  0  0  0  0  0
  149.5753  143.4300  157.8394 H   0  0  0  0  0  0  0  0  0  0  0  0
  1  2  1  0  0  0  0
  1 25  1  0  0  0  0
  1 26  1  0  0  0  0
  1 27  1  0  0  0  0
  2  3  1  0  0  0  0
  2  4  1  0  0  0  0
  2 28  1  0  0  0  0
  3 29  1  0  0  0  0
  3 30  1  0  0  0  0
  3 31  1  0  0  0  0
  4  5  1  0  0  0  0
  4 32  1  0  0  0  0
  4 33  1  0  0  0  0
  5 24  1  0  0  0  0
  5  6  1  0  0  0  0
  5 51  1  0  0  0  0
  6  7  1  0  0  0  0
  6 34  1  0  0  0  0
  6 35  1  0  0  0  0
  7  8  1  0  0  0  0
  7 36  1  0  0  0  0
  7 37  1  0  0  0  0
  8  9  1  0  0  0  0
  9 10  1  0  0  0  0
  9 24  1  0  0  0  0
  9 38  1  0  0  0  0
 10 11  1  0  0  0  0
 10 39  1  0  0  0  0
 10 40  1  0  0  0  0
 11 12  1  0  0  0  0
 11 41  1  0  0  0  0
 12 13  2  0  0  0  0
 12 14  1  0  0  0  0
 14 15  1  0  0  0  0
 14 42  1  0  0  0  0
 14 43  1  0  0  0  0
 15 22  1  0  0  0  0
 15 16  1  0  0  0  0
 16 17  2  0  0  0  0
 16 44  1  0  0  0  0
 17 18  1  0  0  0  0
 17 45  1  0  0  0  0
 18 19  2  0  0  0  0
 18 20  1  0  0  0  0
 20 21  1  0  0  0  0
 20 22  1  0  0  0  0
 21 46  1  0  0  0  0
 21 47  1  0  0  0  0
 21 48  1  0  0  0  0
 22 23  2  0  0  0  0
 24 49  1  0  0  0  0
 24 50  1  0  0  0  0
M  CHG  1   5   1
M  END
> <s_m_source_file>
AV-unprocessed.smi

> <i_m_source_file_index>
2087

> <i_lp_mmshare_version>
43012

> <i_f3d_flags>
0

> <s_epik_input>
W0NIM11bQ0hdKFtDSDNdKVtDSDJdTjFbQ0gyXVtDSDJdT1tDQEhdKFtDSDJdMSlbQ0gyXVtOSF1DKD1PKVtDSDJdbjJbY0hdW2NIXWMoPU8pbihbQ0gzXSljMj1P

> <s_epik_cmdline>
J2VwaWtfcHl0aG9uJywgJy1waCcsICc3LjAnLCAnLXRuJywgJzgnLCAnLW1hJywgJzIwMCcsICctbWV0YWxfYmluZGluZycsICctaW1hZScsICc8aW5maWxlLm1hZT4nLCAnLW9tYWUnLCAnPG91dGZpbGUubWFlPic=

> <r_lp_tautomer_probability>
1

> <r_epik_Ionization_Penalty>
0.097593

> <r_epik_Ionization_Penalty_Charging>
0.097593

> <r_epik_Ionization_Penalty_Neutral>
6.27044e-08

> <r_epik_State_Penalty>
0.0877056

> <r_epik_Charging_Adjusted_Penalty>
0.185299

> <i_epik_Tot_Q>
1

> <i_epik_Tot_abs_Q>
1

> <r_epik_Metal_State_Penalty>
0.0877109

> <b_epik_Metal_Only>
0

> <s_lp_Force_Field>
OPLS_2005

> <r_lp_Energy>
27.8921

> <b_lp_Chiralities_Consistent>
1

> <s_lp_Variant>
AV-unprocessed.smi:2087-3

> <Gold.Version>
5.8.1

> <Gold.Id.Protein>
6NUR|6NUR_protein|mol2

> <Gold.PLP.Fitness>
46.0850

> <Gold.PLP.PLP>
-39.7576

> <Gold.PLP.part.hbond>
-4.0000

> <Gold.PLP.part.metal>
0.0000

> <Gold.PLP.part.buried>
0.8591

> <Gold.PLP.part.nonpolar>
-36.2978

> <Gold.PLP.part.repulsive>
0.1906

> <Gold.PLP.ligand.clash>
0.0000

> <Gold.PLP.ligand.torsion>
0.9894

> <Gold.PLP.Chemscore.Hbond>
2.7360

> <Gold.PLP.Chemscore.CHOScore>
0.0000

> <Gold.PLP.Chemscore.Metal>
0.0000

> <Gold.Chemscore.Hbonds>
donor molecule, donor type, donor heavy atom, donor atom, acceptor molecule, acceptor atom, score
      P1  H  6896  6909       L1    13  0.98
      P1  H  6931  6943       L1    23  0.84
      P1  H  6934  6947       L1    23  0.61

> <Gold.PLP.Chemscore.Internal.Correction>
0.0981

> <Gold.Rescore>
     Score         DG    S(hbond)    S(metal)    S(lipo)     H(rot)  DE(clash)    DE(int)     intcor
     16.92     -19.62       2.60        0.00      95.24       2.22       1.97       0.73       ----

> <Gold.Chemscore.Fitness>
16.9197

> <Gold.Chemscore.DG>
-19.6155

> <Gold.Chemscore.ZeroCoef>
-5.4800

> <Gold.Chemscore.Hbond>
2.6011

> <Gold.Chemscore.Metal>
0.0000

> <Gold.Chemscore.Lipo>
95.2450

> <Gold.Chemscore.Internal_Hbond>
0.0000

> <Gold.Chemscore.DEClash>
1.9674

> <Gold.Chemscore.DEInternal>
0.7284

> <Gold.Chemscore.Rot>
2.2249

> <Gold.Chemscore.Internal.Correction>
   9.000000E+99

> <Gold.Chemscore.Hbonds>
donor molecule, donor type, donor heavy atom, donor atom, acceptor molecule, acceptor atom, score
      P1  H  6896  6909       L1    13  0.93
      P1  H  6931  6943       L1    23  0.81
      P1  H  6934  6947       L1    23  0.57

> <Gold.Chemscore.Hbond.Weighted>
-8.6876

> <Gold.Chemscore.Metal.Weighted>
-0.0000

> <Gold.Chemscore.Lipo.Weighted>
-11.1437

> <Gold.Chemscore.Internal_Hbond.Weighted>
0.0000

> <Gold.Chemscore.DEClash.Weighted>
1.9674

> <Gold.Chemscore.DEInternal.Weighted>
0.7284

> <Gold.Chemscore.Rot.Weighted>
5.6957

> <Gold.Chemscore.Internal.Correction.Weighted>
   9.000000E+99

> <Gold.Protein.RotatedTorsions>
[ 6907 6896 6895 6894 ] final   74.40 input  -60.11 | X-H torsion
[ 7974 7965 7964 7962 ] final -123.61 input  175.53 | X-H torsion
[ 8008 7997 7996 7995 ] final -123.41 input   59.86 | X-H torsion
[ 10167 10162 10161 10158 ] final  -68.09 input  -65.29 | X-H torsion
[ 10718 10713 10712 10709 ] final  -40.58 input   66.30 | X-H torsion
[ 10763 10752 10751 10750 ] final  169.55 input  -60.55 | X-H torsion
[ 11005 11000 10999 10996 ] final -105.03 input  -57.11 | X-H torsion

> <Gold.Protein.ActiveResidues>
 VAL166  LYS551  ARG553  GLY616  TRP617  ASP618  TYR619  PRO620  LYS621  CYS622 
 ASP623  PHE694  ASN695  SER759  ASP760  ASP761  ALA762  ILE779  LEU786  VAL792 
 PHE793  MET794  SER795  GLU796  ALA797  LYS798  CYS799  TRP800  GLU811  SER814 

> <Gold.Protein.RotatedAtoms>
  152.4974  134.4276  159.9501 H   0  0  0  0  0  0  0  0  0  0  0  0  # atno 6907 bound_to 6896
  151.4253  133.3680  159.2769 H   0  0  0  0  0  0  0  0  0  0  0  0  # atno 6908 bound_to 6896
  150.9193  134.8634  159.7538 H   0  0  0  0  0  0  0  0  0  0  0  0  # atno 6909 bound_to 6896
  145.0168  140.7954  143.4405 H   0  0  0  0  0  0  0  0  0  0  0  0  # atno 7974 bound_to 7965
  155.1801  140.0410  157.2880 H   0  0  0  0  0  0  0  0  0  0  0  0  # atno 8008 bound_to 7997
  154.6209  140.2500  155.7522 H   0  0  0  0  0  0  0  0  0  0  0  0  # atno 8009 bound_to 7997
  156.2433  140.2895  156.0517 H   0  0  0  0  0  0  0  0  0  0  0  0  # atno 8010 bound_to 7997
  140.5534  143.2312  151.6868 H   0  0  0  0  0  0  0  0  0  0  0  0  # atno 10167 bound_to 10162
  156.2798  130.4216  149.8349 H   0  0  0  0  0  0  0  0  0  0  0  0  # atno 10718 bound_to 10713
  154.3847  135.2753  155.2190 H   0  0  0  0  0  0  0  0  0  0  0  0  # atno 10763 bound_to 10752
  154.4282  135.5984  153.6055 H   0  0  0  0  0  0  0  0  0  0  0  0  # atno 10764 bound_to 10752
  152.9833  135.5989  154.4095 H   0  0  0  0  0  0  0  0  0  0  0  0  # atno 10765 bound_to 10752
  141.1073  133.8773  157.1684 H   0  0  0  0  0  0  0  0  0  0  0  0  # atno 11005 bound_to 11000
  145.1948  139.2282  143.5223 LP  0  0  0  0  0  0  0  0  0  0  0  0  # atno 17320 bound_to 7965
  146.3479  140.1753  142.8589 LP  0  0  0  0  0  0  0  0  0  0  0  0  # atno 17321 bound_to 7965
  139.5037  144.3781  152.0403 LP  0  0  0  0  0  0  0  0  0  0  0  0  # atno 17342 bound_to 10162
  140.2900  144.3764  150.6091 LP  0  0  0  0  0  0  0  0  0  0  0  0  # atno 17343 bound_to 10162
  156.5801  130.8462  151.3380 LP  0  0  0  0  0  0  0  0  0  0  0  0  # atno 17370 bound_to 10713
  157.7311  130.9694  150.1862 LP  0  0  0  0  0  0  0  0  0  0  0  0  # atno 17371 bound_to 10713
  139.9949  135.0050  157.0059 LP  0  0  0  0  0  0  0  0  0  0  0  0  # atno 17394 bound_to 11000
  140.4869  134.1232  155.7226 LP  0  0  0  0  0  0  0  0  0  0  0  0  # atno 17395 bound_to 11000

$$$$
