AV-unprocessed.smi:196|AV-procd|sdf|1542|dock1
  -GOLD-   2262019403D 1   1.00000     0.00000
 Structure written by MMmdl.
 47 50  0  0  0  0  0  0  0  0  1 V2000
  149.0288  141.1057  154.1973 C   0  0  0  0  0  0  0  0  0  0  0  0
  149.7082  139.9278  154.9144 C   0  0  2  0  0  0  0  0  0  0  0  0
  151.1242  139.9781  154.7413 O   0  0  0  0  0  0  0  0  0  0  0  0
  151.5955  138.7540  154.1952 C   0  0  0  0  0  0  0  0  0  0  0  0
  150.5527  137.7246  154.6112 C   0  0  0  0  0  0  0  0  0  0  0  0
  149.2537  138.5094  154.5005 C   0  0  2  0  0  0  0  0  0  0  0  0
  148.8307  138.4870  153.1458 O   0  0  0  0  0  0  0  0  0  0  0  0
  148.1069  137.9604  155.3814 C   0  0  0  0  0  0  0  0  0  0  0  0
  147.4616  136.7823  154.8237 N   0  0  0  0  0  0  0  0  0  0  0  0
  147.7581  135.4679  155.1094 C   0  0  0  0  0  0  0  0  0  0  0  0
  147.0365  134.5829  154.4772 N   0  0  0  0  0  0  0  0  0  0  0  0
  146.1866  135.3466  153.6884 C   0  0  0  0  0  0  0  0  0  0  0  0
  145.1653  135.0359  152.7546 C   0  0  0  0  0  0  0  0  0  0  0  0
  144.8280  133.7590  152.4680 N   0  0  0  0  0  0  0  0  0  0  0  0
  143.5427  133.5867  151.7987 C   0  0  0  0  0  0  0  0  0  0  0  0
  143.7616  132.5244  150.7180 C   0  0  1  0  0  0  0  0  0  0  0  0
  143.9985  133.1239  149.5501 F   0  0  0  0  0  0  0  0  0  0  0  0
  145.0215  131.7992  151.1813 C   0  0  0  0  0  0  0  0  0  0  0  0
  145.8439  132.9185  151.8319 C   0  0  2  0  0  0  0  0  0  0  0  0
  146.8621  132.3730  152.8443 C   0  0  0  0  0  0  0  0  0  0  0  0
  148.0892  132.1178  152.3851 N   0  0  0  0  0  0  0  0  0  0  0  0
  146.5488  132.1728  154.0167 O   0  0  0  0  0  0  0  0  0  0  0  0
  144.5160  136.0660  152.1517 N   0  0  0  0  0  0  0  0  0  0  0  0
  144.8560  137.3262  152.4395 C   0  0  0  0  0  0  0  0  0  0  0  0
  145.7936  137.7668  153.2820 N   0  0  0  0  0  0  0  0  0  0  0  0
  146.4394  136.7312  153.8920 C   0  0  0  0  0  0  0  0  0  0  0  0
  142.9049  131.8641  150.5805 H   0  0  0  0  0  0  0  0  0  0  0  0
  146.3651  133.4765  151.0513 H   0  0  0  0  0  0  0  0  0  0  0  0
  147.9455  141.0632  154.3121 H   0  0  0  0  0  0  0  0  0  0  0  0
  149.2568  141.1130  153.1310 H   0  0  0  0  0  0  0  0  0  0  0  0
  149.3688  142.0557  154.6101 H   0  0  0  0  0  0  0  0  0  0  0  0
  149.5459  140.0465  155.9867 H   0  0  0  0  0  0  0  0  0  0  0  0
  151.6378  138.8423  153.1089 H   0  0  0  0  0  0  0  0  0  0  0  0
  152.5947  138.5114  154.5574 H   0  0  0  0  0  0  0  0  0  0  0  0
  150.5754  136.8185  154.0042 H   0  0  0  0  0  0  0  0  0  0  0  0
  150.7321  137.4377  155.6480 H   0  0  0  0  0  0  0  0  0  0  0  0
  149.1765  139.2523  152.7124 H   0  0  0  0  0  0  0  0  0  0  0  0
  148.4808  137.7044  156.3737 H   0  0  0  0  0  0  0  0  0  0  0  0
  147.3471  138.7284  155.5319 H   0  0  0  0  0  0  0  0  0  0  0  0
  148.5300  135.1838  155.8101 H   0  0  0  0  0  0  0  0  0  0  0  0
  142.8288  133.2264  152.5401 H   0  0  0  0  0  0  0  0  0  0  0  0
  143.1407  134.5117  151.3808 H   0  0  0  0  0  0  0  0  0  0  0  0
  144.7530  131.0364  151.9145 H   0  0  0  0  0  0  0  0  0  0  0  0
  145.5485  131.3066  150.3634 H   0  0  0  0  0  0  0  0  0  0  0  0
  148.7963  131.7557  153.0084 H   0  0  0  0  0  0  0  0  0  0  0  0
  148.3046  132.2865  151.4131 H   0  0  0  0  0  0  0  0  0  0  0  0
  144.2975  138.0909  151.9203 H   0  0  0  0  0  0  0  0  0  0  0  0
  1  2  1  0  0  0  0
  1 29  1  0  0  0  0
  1 30  1  0  0  0  0
  1 31  1  0  0  0  0
  2  6  1  0  0  0  0
  2  3  1  0  0  0  0
  2 32  1  0  0  0  0
  3  4  1  0  0  0  0
  4  5  1  0  0  0  0
  4 33  1  0  0  0  0
  4 34  1  0  0  0  0
  5  6  1  0  0  0  0
  5 35  1  0  0  0  0
  5 36  1  0  0  0  0
  6  7  1  0  0  0  0
  6  8  1  0  0  0  0
  7 37  1  0  0  0  0
  8  9  1  0  0  0  0
  8 38  1  0  0  0  0
  8 39  1  0  0  0  0
  9 26  1  0  0  0  0
  9 10  1  0  0  0  0
 10 11  2  0  0  0  0
 10 40  1  0  0  0  0
 11 12  1  0  0  0  0
 12 26  2  0  0  0  0
 12 13  1  0  0  0  0
 13 14  1  0  0  0  0
 13 23  2  0  0  0  0
 14 19  1  0  0  0  0
 14 15  1  0  0  0  0
 15 16  1  0  0  0  0
 15 41  1  0  0  0  0
 15 42  1  0  0  0  0
 16 27  1  0  0  0  0
 16 17  1  0  0  0  0
 16 18  1  0  0  0  0
 18 19  1  0  0  0  0
 18 43  1  0  0  0  0
 18 44  1  0  0  0  0
 19 28  1  0  0  0  0
 19 20  1  0  0  0  0
 20 21  1  0  0  0  0
 20 22  2  0  0  0  0
 21 45  1  0  0  0  0
 21 46  1  0  0  0  0
 23 24  1  0  0  0  0
 24 25  2  0  0  0  0
 24 47  1  0  0  0  0
 25 26  1  0  0  0  0
M  END
> <s_m_source_file>
AV-unprocessed.smi

> <i_m_source_file_index>
196

> <i_lp_mmshare_version>
43012

> <i_f3d_flags>
0

> <s_epik_input>
W0NIMl0xW0NIMl1PW0NAQEhdKFtDSDNdKVtDQEBdMShbT0hdKVtDSDJdbihbY0hdbjIpYyhjMjMpbltjSF1uYzNONFtDSDJdW0NASF0oRilbQ0gyXVtDQEhdNEMoPU8pW05IMl0=

> <s_epik_cmdline>
J2VwaWtfcHl0aG9uJywgJy1waCcsICc3LjAnLCAnLXRuJywgJzgnLCAnLW1hJywgJzIwMCcsICctbWV0YWxfYmluZGluZycsICctaW1hZScsICc8aW5maWxlLm1hZT4nLCAnLW9tYWUnLCAnPG91dGZpbGUubWFlPic=

> <r_lp_tautomer_probability>
1

> <r_epik_Ionization_Penalty>
0.000857933

> <r_epik_Ionization_Penalty_Charging>
0

> <r_epik_Ionization_Penalty_Neutral>
0.000857933

> <r_epik_State_Penalty>
0.000462053

> <r_epik_Charging_Adjusted_Penalty>
0.000462053

> <i_epik_Tot_Q>
0

> <i_epik_Tot_abs_Q>
0

> <r_epik_Metal_State_Penalty>
-0

> <b_epik_Metal_Only>
0

> <s_lp_Force_Field>
OPLS_2005

> <r_lp_Energy>
44.722

> <b_lp_Chiralities_Consistent>
1

> <s_lp_Variant>
AV-unprocessed.smi:196-15

> <Gold.Version>
5.8.1

> <Gold.Id.Protein>
6NUR|6NUR_protein|mol2

> <Gold.PLP.Fitness>
46.6700

> <Gold.PLP.PLP>
-36.1915

> <Gold.PLP.part.hbond>
-3.9097

> <Gold.PLP.part.metal>
0.0000

> <Gold.PLP.part.buried>
-5.0044

> <Gold.PLP.part.nonpolar>
-27.8392

> <Gold.PLP.part.repulsive>
0.6713

> <Gold.PLP.ligand.clash>
0.0000

> <Gold.PLP.ligand.torsion>
1.5110

> <Gold.PLP.Chemscore.Hbond>
2.4720

> <Gold.PLP.Chemscore.CHOScore>
1.9481

> <Gold.PLP.Chemscore.Metal>
0.0000

> <Gold.Chemscore.Hbonds>
donor molecule, donor type, donor heavy atom, donor atom, acceptor molecule, acceptor atom, score
      L1  H     7    37       P1  7957  0.93
      L1  H    21    46       P1 10747  0.43
      P1  H  7989  7998       L1     3  0.70
      L1  C    24    47       P1 10171  1.00
      L1  C    24    47       P1 10175  1.00

> <Gold.PLP.Chemscore.Internal.Correction>
0.2401

> <Gold.Rescore>
     Score         DG    S(hbond)    S(metal)    S(lipo)     H(rot)  DE(clash)    DE(int)     intcor
      5.37     -10.90       1.70        0.00      64.24       3.04       0.02       5.51       ----

> <Gold.Chemscore.Fitness>
5.3676

> <Gold.Chemscore.DG>
-10.9017

> <Gold.Chemscore.ZeroCoef>
-5.4800

> <Gold.Chemscore.Hbond>
1.7039

> <Gold.Chemscore.Metal>
0.0000

> <Gold.Chemscore.Lipo>
64.2404

> <Gold.Chemscore.Internal_Hbond>
0.0000

> <Gold.Chemscore.DEClash>
0.0203

> <Gold.Chemscore.DEInternal>
5.5137

> <Gold.Chemscore.Rot>
3.0413

> <Gold.Chemscore.Internal.Correction>
   9.000000E+99

> <Gold.Chemscore.Hbonds>
donor molecule, donor type, donor heavy atom, donor atom, acceptor molecule, acceptor atom, score
      L1  H     7    37       P1  7957  0.90
      L1  H    21    46       P1 10747  0.42
      P1  H  7989  7998       L1     3  0.07

> <Gold.Chemscore.Hbond.Weighted>
-5.6912

> <Gold.Chemscore.Metal.Weighted>
-0.0000

> <Gold.Chemscore.Lipo.Weighted>
-7.5161

> <Gold.Chemscore.Internal_Hbond.Weighted>
0.0000

> <Gold.Chemscore.DEClash.Weighted>
0.0203

> <Gold.Chemscore.DEInternal.Weighted>
5.5137

> <Gold.Chemscore.Rot.Weighted>
7.7856

> <Gold.Chemscore.Internal.Correction.Weighted>
   9.000000E+99

> <Gold.Protein.RotatedTorsions>
[ 6907 6896 6895 6894 ] final -146.54 input  -60.11 | X-H torsion
[ 7974 7965 7964 7962 ] final -172.13 input  175.53 | X-H torsion
[ 8008 7997 7996 7995 ] final  -18.84 input   59.86 | X-H torsion
[ 10167 10162 10161 10158 ] final -132.06 input  -65.29 | X-H torsion
[ 10718 10713 10712 10709 ] final  -21.20 input   66.30 | X-H torsion
[ 10763 10752 10751 10750 ] final  147.55 input  -60.55 | X-H torsion
[ 11005 11000 10999 10996 ] final   10.04 input  -57.11 | X-H torsion

> <Gold.Protein.ActiveResidues>
 VAL166  LYS551  ARG553  GLY616  TRP617  ASP618  TYR619  PRO620  LYS621  CYS622 
 ASP623  PHE694  ASN695  SER759  ASP760  ASP761  ALA762  ILE779  LEU786  VAL792 
 PHE793  MET794  SER795  GLU796  ALA797  LYS798  CYS799  TRP800  GLU811  SER814 

> <Gold.Protein.RotatedAtoms>
  151.1431  133.4958  159.2596 H   0  0  0  0  0  0  0  0  0  0  0  0  # atno 6907 bound_to 6896
  151.1634  135.0283  159.8730 H   0  0  0  0  0  0  0  0  0  0  0  0  # atno 6908 bound_to 6896
  152.5462  134.1302  159.8489 H   0  0  0  0  0  0  0  0  0  0  0  0  # atno 6909 bound_to 6896
  144.7149  140.1818  143.6357 H   0  0  0  0  0  0  0  0  0  0  0  0  # atno 7974 bound_to 7965
  154.4878  140.2105  155.9616 H   0  0  0  0  0  0  0  0  0  0  0  0  # atno 8008 bound_to 7997
  156.1261  140.3205  155.8249 H   0  0  0  0  0  0  0  0  0  0  0  0  # atno 8009 bound_to 7997
  155.4380  140.0508  157.3003 H   0  0  0  0  0  0  0  0  0  0  0  0  # atno 8010 bound_to 7997
  139.9124  143.6478  152.2572 H   0  0  0  0  0  0  0  0  0  0  0  0  # atno 10167 bound_to 10162
  156.5214  130.4633  149.6595 H   0  0  0  0  0  0  0  0  0  0  0  0  # atno 10718 bound_to 10713
  154.0401  135.2890  155.3356 H   0  0  0  0  0  0  0  0  0  0  0  0  # atno 10763 bound_to 10752
  154.6934  135.5217  153.8427 H   0  0  0  0  0  0  0  0  0  0  0  0  # atno 10764 bound_to 10752
  153.0603  135.6611  154.0606 H   0  0  0  0  0  0  0  0  0  0  0  0  # atno 10765 bound_to 10752
  140.5190  134.0578  155.7839 H   0  0  0  0  0  0  0  0  0  0  0  0  # atno 11005 bound_to 11000
  145.8849  139.2343  143.1584 LP  0  0  0  0  0  0  0  0  0  0  0  0  # atno 17320 bound_to 7965
  145.9959  140.8562  143.0043 LP  0  0  0  0  0  0  0  0  0  0  0  0  # atno 17321 bound_to 7965
  139.6931  144.7644  151.1404 LP  0  0  0  0  0  0  0  0  0  0  0  0  # atno 17342 bound_to 10162
  140.7682  143.5561  150.9150 LP  0  0  0  0  0  0  0  0  0  0  0  0  # atno 17343 bound_to 10162
  156.3145  130.7247  151.2147 LP  0  0  0  0  0  0  0  0  0  0  0  0  # atno 17370 bound_to 10713
  157.7436  131.0472  150.4933 LP  0  0  0  0  0  0  0  0  0  0  0  0  # atno 17371 bound_to 10713
  141.1345  133.9246  157.2465 LP  0  0  0  0  0  0  0  0  0  0  0  0  # atno 17394 bound_to 11000
  139.9616  135.0152  156.9277 LP  0  0  0  0  0  0  0  0  0  0  0  0  # atno 17395 bound_to 11000

$$$$
