AV-unprocessed.smi:266|AV-procd|sdf|2038|dock7
  -GOLD-   2262021253D 1   1.00000     0.00000
 Structure written by MMmdl.
 52 55  0  0  0  0  0  0  0  0  1 V2000
  152.8038  141.2008  158.9590 C   0  0  0  0  0  0  0  0  0  0  0  0
  151.8981  142.0956  159.8192 C   0  0  1  0  0  0  0  0  0  0  0  0
  152.7225  142.7009  160.8133 O   0  0  0  0  0  0  0  0  0  0  0  0
  152.2246  143.9947  161.1055 C   0  0  0  0  0  0  0  0  0  0  0  0
  151.8042  144.5027  159.7353 C   0  0  0  0  0  0  0  0  0  0  0  0
  151.1805  143.2679  159.0917 C   0  0  2  0  0  0  0  0  0  0  0  0
  149.8124  143.2317  159.4651 O   0  0  0  0  0  0  0  0  0  0  0  0
  151.2470  143.2682  157.5414 C   0  0  0  0  0  0  0  0  0  0  0  0
  150.6769  142.0712  156.9414 N   0  0  0  0  0  0  0  0  0  0  0  0
  151.3506  141.0957  156.2399 C   0  0  0  0  0  0  0  0  0  0  0  0
  150.6136  140.1069  155.8115 N   0  0  0  0  0  0  0  0  0  0  0  0
  149.3333  140.4312  156.2426 C   0  0  0  0  0  0  0  0  0  0  0  0
  148.0604  139.8059  156.1359 C   0  0  0  0  0  0  0  0  0  0  0  0
  147.8418  138.6226  155.5286 N   0  0  0  0  0  0  0  0  0  0  0  0
  148.1997  138.6208  154.1163 C   0  0  0  0  0  0  0  0  0  0  0  0
  148.2581  137.4790  156.3345 C   0  0  0  0  0  0  0  0  0  0  0  0
  147.7552  137.5715  157.7850 C   0  0  1  0  0  0  0  0  0  0  0  0
  146.2370  137.3295  157.8876 C   0  0  0  0  0  0  0  0  0  0  0  0
  145.8699  137.1433  159.3629 C   0  0  0  0  0  0  0  0  0  0  0  0
  147.2982  136.2819  160.1181 S   0  0  0  0  0  0  0  0  0  0  0  0
  147.7490  137.0410  161.2943 O   0  0  0  0  0  0  0  0  0  0  0  0
  147.0102  134.8426  160.2099 O   0  0  0  0  0  0  0  0  0  0  0  0
  148.4513  136.5694  158.7223 C   0  0  0  0  0  0  0  0  0  0  0  0
  146.9933  140.4242  156.6972 N   0  0  0  0  0  0  0  0  0  0  0  0
  147.1569  141.5921  157.3262 C   0  0  0  0  0  0  0  0  0  0  0  0
  148.2787  142.2928  157.5080 N   0  0  0  0  0  0  0  0  0  0  0  0
  149.3534  141.6669  156.9470 C   0  0  0  0  0  0  0  0  0  0  0  0
  152.2381  140.6944  158.1770 H   0  0  0  0  0  0  0  0  0  0  0  0
  153.2747  140.4309  159.5705 H   0  0  0  0  0  0  0  0  0  0  0  0
  153.6022  141.7751  158.4880 H   0  0  0  0  0  0  0  0  0  0  0  0
  151.1718  141.4601  160.3293 H   0  0  0  0  0  0  0  0  0  0  0  0
  151.3687  143.9189  161.7780 H   0  0  0  0  0  0  0  0  0  0  0  0
  152.9821  144.6220  161.5756 H   0  0  0  0  0  0  0  0  0  0  0  0
  151.1358  145.3638  159.7803 H   0  0  0  0  0  0  0  0  0  0  0  0
  152.6969  144.8025  159.1853 H   0  0  0  0  0  0  0  0  0  0  0  0
  149.3369  142.7398  158.8133 H   0  0  0  0  0  0  0  0  0  0  0  0
  150.7098  144.1253  157.1350 H   0  0  0  0  0  0  0  0  0  0  0  0
  152.2794  143.3628  157.2019 H   0  0  0  0  0  0  0  0  0  0  0  0
  152.4157  141.1362  156.0631 H   0  0  0  0  0  0  0  0  0  0  0  0
  147.9830  139.5837  153.6511 H   0  0  0  0  0  0  0  0  0  0  0  0
  147.6292  137.8609  153.5831 H   0  0  0  0  0  0  0  0  0  0  0  0
  149.2609  138.4073  153.9840 H   0  0  0  0  0  0  0  0  0  0  0  0
  147.8766  136.5676  155.8720 H   0  0  0  0  0  0  0  0  0  0  0  0
  149.3462  137.3914  156.3336 H   0  0  0  0  0  0  0  0  0  0  0  0
  147.9433  138.5753  158.1679 H   0  0  0  0  0  0  0  0  0  0  0  0
  145.6670  138.1412  157.4348 H   0  0  0  0  0  0  0  0  0  0  0  0
  145.9810  136.4193  157.3439 H   0  0  0  0  0  0  0  0  0  0  0  0
  145.7566  138.1076  159.8584 H   0  0  0  0  0  0  0  0  0  0  0  0
  144.9575  136.5646  159.5086 H   0  0  0  0  0  0  0  0  0  0  0  0
  148.6158  135.6134  158.2238 H   0  0  0  0  0  0  0  0  0  0  0  0
  149.4093  136.9324  159.0945 H   0  0  0  0  0  0  0  0  0  0  0  0
  146.2616  142.0253  157.7473 H   0  0  0  0  0  0  0  0  0  0  0  0
  1  2  1  0  0  0  0
  1 28  1  0  0  0  0
  1 29  1  0  0  0  0
  1 30  1  0  0  0  0
  2  6  1  0  0  0  0
  2  3  1  0  0  0  0
  2 31  1  0  0  0  0
  3  4  1  0  0  0  0
  4  5  1  0  0  0  0
  4 32  1  0  0  0  0
  4 33  1  0  0  0  0
  5  6  1  0  0  0  0
  5 34  1  0  0  0  0
  5 35  1  0  0  0  0
  6  7  1  0  0  0  0
  6  8  1  0  0  0  0
  7 36  1  0  0  0  0
  8  9  1  0  0  0  0
  8 37  1  0  0  0  0
  8 38  1  0  0  0  0
  9 27  1  0  0  0  0
  9 10  1  0  0  0  0
 10 11  2  0  0  0  0
 10 39  1  0  0  0  0
 11 12  1  0  0  0  0
 12 27  2  0  0  0  0
 12 13  1  0  0  0  0
 13 14  1  0  0  0  0
 13 24  2  0  0  0  0
 14 15  1  0  0  0  0
 14 16  1  0  0  0  0
 15 40  1  0  0  0  0
 15 41  1  0  0  0  0
 15 42  1  0  0  0  0
 16 17  1  0  0  0  0
 16 43  1  0  0  0  0
 16 44  1  0  0  0  0
 17 23  1  0  0  0  0
 17 18  1  0  0  0  0
 17 45  1  0  0  0  0
 18 19  1  0  0  0  0
 18 46  1  0  0  0  0
 18 47  1  0  0  0  0
 19 20  1  0  0  0  0
 19 48  1  0  0  0  0
 19 49  1  0  0  0  0
 20 21  2  0  0  0  0
 20 22  2  0  0  0  0
 20 23  1  0  0  0  0
 23 50  1  0  0  0  0
 23 51  1  0  0  0  0
 24 25  1  0  0  0  0
 25 26  2  0  0  0  0
 25 52  1  0  0  0  0
 26 27  1  0  0  0  0
M  END
> <s_m_source_file>
AV-unprocessed.smi

> <i_m_source_file_index>
266

> <i_lp_mmshare_version>
43012

> <i_f3d_flags>
0

> <s_epik_input>
W0NIMl0xW0NIMl1PW0NAQEhdKFtDSDNdKVtDQEBdMShbT0hdKVtDSDJdbihbY0hdbjIpYyhjMjMpbltjSF1uYzNOKFtDSDNdKVtDSDJdW0NAQEhdKFtDSDJdNClbQ0gyXVtDSDJdUzQoPU8pPU8=

> <s_epik_cmdline>
J2VwaWtfcHl0aG9uJywgJy1waCcsICc3LjAnLCAnLXRuJywgJzgnLCAnLW1hJywgJzIwMCcsICctbWV0YWxfYmluZGluZycsICctaW1hZScsICc8aW5maWxlLm1hZT4nLCAnLW9tYWUnLCAnPG91dGZpbGUubWFlPic=

> <r_lp_tautomer_probability>
1

> <r_epik_Ionization_Penalty>
0.00155497

> <r_epik_Ionization_Penalty_Charging>
0

> <r_epik_Ionization_Penalty_Neutral>
0.00155497

> <r_epik_State_Penalty>
-0

> <r_epik_Charging_Adjusted_Penalty>
0

> <i_epik_Tot_Q>
0

> <i_epik_Tot_abs_Q>
0

> <r_epik_Metal_State_Penalty>
-0

> <b_epik_Metal_Only>
0

> <s_lp_Force_Field>
OPLS_2005

> <r_lp_Energy>
32.9828

> <b_lp_Chiralities_Consistent>
1

> <s_lp_Variant>
AV-unprocessed.smi:266-8

> <Gold.Version>
5.8.1

> <Gold.Id.Protein>
6NUR|6NUR_protein|mol2

> <Gold.PLP.Fitness>
39.4459

> <Gold.PLP.PLP>
-34.3177

> <Gold.PLP.part.hbond>
-3.0000

> <Gold.PLP.part.metal>
0.0000

> <Gold.PLP.part.buried>
-7.3865

> <Gold.PLP.part.nonpolar>
-25.2187

> <Gold.PLP.part.repulsive>
0.7909

> <Gold.PLP.ligand.clash>
0.0007

> <Gold.PLP.ligand.torsion>
0.3987

> <Gold.PLP.Chemscore.Hbond>
1.8320

> <Gold.PLP.Chemscore.CHOScore>
0.0000

> <Gold.PLP.Chemscore.Metal>
0.0000

> <Gold.Chemscore.Hbonds>
donor molecule, donor type, donor heavy atom, donor atom, acceptor molecule, acceptor atom, score
      P1  H  6931  6943       L1    21  1.00
      P1  H  6934  6947       L1    21  0.72

> <Gold.PLP.Chemscore.Internal.Correction>
0.4304

> <Gold.Rescore>
     Score         DG    S(hbond)    S(metal)    S(lipo)     H(rot)  DE(clash)    DE(int)     intcor
      9.28     -12.54       1.73        0.00      71.38       2.76       0.01       3.26       ----

> <Gold.Chemscore.Fitness>
9.2767

> <Gold.Chemscore.DG>
-12.5426

> <Gold.Chemscore.ZeroCoef>
-5.4800

> <Gold.Chemscore.Hbond>
1.7322

> <Gold.Chemscore.Metal>
0.0000

> <Gold.Chemscore.Lipo>
71.3848

> <Gold.Chemscore.Internal_Hbond>
0.0000

> <Gold.Chemscore.DEClash>
0.0089

> <Gold.Chemscore.DEInternal>
3.2570

> <Gold.Chemscore.Rot>
2.7637

> <Gold.Chemscore.Internal.Correction>
   9.000000E+99

> <Gold.Chemscore.Hbonds>
donor molecule, donor type, donor heavy atom, donor atom, acceptor molecule, acceptor atom, score
      P1  H  6931  6943       L1    21  0.97
      P1  H  6934  6947       L1    21  0.38

> <Gold.Chemscore.Hbond.Weighted>
-5.7856

> <Gold.Chemscore.Metal.Weighted>
-0.0000

> <Gold.Chemscore.Lipo.Weighted>
-8.3520

> <Gold.Chemscore.Internal_Hbond.Weighted>
0.0000

> <Gold.Chemscore.DEClash.Weighted>
0.0089

> <Gold.Chemscore.DEInternal.Weighted>
3.2570

> <Gold.Chemscore.Rot.Weighted>
7.0750

> <Gold.Chemscore.Internal.Correction.Weighted>
   9.000000E+99

> <Gold.Protein.RotatedTorsions>
[ 6907 6896 6895 6894 ] final  170.11 input  -60.11 | X-H torsion
[ 7974 7965 7964 7962 ] final  167.14 input  175.53 | X-H torsion
[ 8008 7997 7996 7995 ] final  179.12 input   59.86 | X-H torsion
[ 10167 10162 10161 10158 ] final   19.76 input  -65.29 | X-H torsion
[ 10718 10713 10712 10709 ] final  101.86 input   66.30 | X-H torsion
[ 10763 10752 10751 10750 ] final -158.92 input  -60.55 | X-H torsion
[ 11005 11000 10999 10996 ] final -177.78 input  -57.11 | X-H torsion

> <Gold.Protein.ActiveResidues>
 VAL166  LYS551  ARG553  GLY616  TRP617  ASP618  TYR619  PRO620  LYS621  CYS622 
 ASP623  PHE694  ASN695  SER759  ASP760  ASP761  ALA762  ILE779  LEU786  VAL792 
 PHE793  MET794  SER795  GLU796  ALA797  LYS798  CYS799  TRP800  GLU811  SER814 

> <Gold.Protein.RotatedAtoms>
  151.8213  133.3395  159.3584 H   0  0  0  0  0  0  0  0  0  0  0  0  # atno 6907 bound_to 6896
  150.7293  134.5571  159.5833 H   0  0  0  0  0  0  0  0  0  0  0  0  # atno 6908 bound_to 6896
  152.3003  134.7619  160.0410 H   0  0  0  0  0  0  0  0  0  0  0  0  # atno 6909 bound_to 6896
  144.7435  139.8718  143.6389 H   0  0  0  0  0  0  0  0  0  0  0  0  # atno 7974 bound_to 7965
  156.0469  140.1316  157.0093 H   0  0  0  0  0  0  0  0  0  0  0  0  # atno 8008 bound_to 7997
  154.4417  140.1019  156.6390 H   0  0  0  0  0  0  0  0  0  0  0  0  # atno 8009 bound_to 7997
  155.5582  140.3464  155.4487 H   0  0  0  0  0  0  0  0  0  0  0  0  # atno 8010 bound_to 7997
  140.5555  143.9432  150.6606 H   0  0  0  0  0  0  0  0  0  0  0  0  # atno 10167 bound_to 10162
  157.6818  131.0737  150.5316 H   0  0  0  0  0  0  0  0  0  0  0  0  # atno 10718 bound_to 10713
  154.7517  135.3094  154.8544 H   0  0  0  0  0  0  0  0  0  0  0  0  # atno 10763 bound_to 10752
  153.9330  135.6783  153.4749 H   0  0  0  0  0  0  0  0  0  0  0  0  # atno 10764 bound_to 10752
  153.1114  135.4865  154.8969 H   0  0  0  0  0  0  0  0  0  0  0  0  # atno 10765 bound_to 10752
  140.4371  134.6465  157.4740 H   0  0  0  0  0  0  0  0  0  0  0  0  # atno 11005 bound_to 11000
  146.1275  139.4304  143.0189 LP  0  0  0  0  0  0  0  0  0  0  0  0  # atno 17320 bound_to 7965
  145.7213  141.0074  143.1401 LP  0  0  0  0  0  0  0  0  0  0  0  0  # atno 17321 bound_to 7965
  140.2869  143.3350  152.1098 LP  0  0  0  0  0  0  0  0  0  0  0  0  # atno 17342 bound_to 10162
  139.5046  144.6778  151.6084 LP  0  0  0  0  0  0  0  0  0  0  0  0  # atno 17343 bound_to 10162
  156.5625  130.4259  149.6056 LP  0  0  0  0  0  0  0  0  0  0  0  0  # atno 17370 bound_to 10713
  156.2809  130.7070  151.1894 LP  0  0  0  0  0  0  0  0  0  0  0  0  # atno 17371 bound_to 10713
  140.0095  134.6713  155.9403 LP  0  0  0  0  0  0  0  0  0  0  0  0  # atno 17394 bound_to 11000
  141.1721  133.6538  156.4691 LP  0  0  0  0  0  0  0  0  0  0  0  0  # atno 17395 bound_to 11000

$$$$
