AV-unprocessed.smi:427|AV-procd|sdf|2543|dock10
  -GOLD-   2262022503D 1   1.00000     0.00000
 Structure written by MMmdl.
 51 52  0  0  0  0  0  0  0  0  1 V2000
  153.4934  143.2693  163.7218 C   0  0  0  0  0  0  0  0  0  0  0  0
  153.2391  142.7789  162.3083 C   0  0  0  0  0  0  0  0  0  0  0  0
  152.3547  143.4913  161.4716 C   0  0  0  0  0  0  0  0  0  0  0  0
  152.0934  143.0601  160.1484 C   0  0  0  0  0  0  0  0  0  0  0  0
  151.1347  143.8148  159.2071 C   0  0  0  0  0  0  0  0  0  0  0  0
  150.5656  145.0527  159.9313 C   0  0  0  0  0  0  0  0  0  0  0  0
  149.9386  142.9521  158.7438 C   0  0  0  0  0  0  0  0  0  0  0  0
  151.8978  144.2707  157.9457 C   0  0  0  0  0  0  0  0  0  0  0  0
  152.7452  141.8927  159.6900 C   0  0  0  0  0  0  0  0  0  0  0  0
  153.6286  141.1780  160.5197 C   0  0  0  0  0  0  0  0  0  0  0  0
  153.8864  141.6143  161.8413 C   0  0  0  0  0  0  0  0  0  0  0  0
  154.7388  140.9681  162.7115 O   0  0  0  0  0  0  0  0  0  0  0  0
  155.4090  139.7956  162.2657 C   0  0  0  0  0  0  0  0  0  0  0  0
  156.2411  139.2062  163.4166 C   0  0  1  0  0  0  0  0  0  0  0  0
  156.9305  138.0790  162.9146 O   0  0  0  0  0  0  0  0  0  0  0  0
  157.2351  140.2233  164.0202 C   0  0  0  0  0  0  0  0  0  0  0  0
  156.7193  140.9029  165.1965 N   0  0  0  0  0  0  0  0  0  0  0  0
  156.5474  140.1438  166.3808 C   0  0  0  0  0  0  0  0  0  0  0  0
  156.8201  138.9443  166.4382 O   0  0  0  0  0  0  0  0  0  0  0  0
  156.0111  140.8913  167.5131 C   0  0  0  0  0  0  0  0  0  0  0  0
  155.7033  142.2015  167.3973 C   0  0  0  0  0  0  0  0  0  0  0  0
  155.8678  142.9083  166.2222 N   0  0  0  0  0  0  0  0  0  0  0  0
  155.5309  144.2978  166.1055 C   0  0  0  0  0  0  0  0  0  0  0  0
  156.3799  142.2712  165.0709 C   0  0  0  0  0  0  0  0  0  0  0  0
  156.5138  142.8827  164.0069 O   0  0  0  0  0  0  0  0  0  0  0  0
  152.9393  144.1833  163.9365 H   0  0  0  0  0  0  0  0  0  0  0  0
  154.5543  143.4750  163.8663 H   0  0  0  0  0  0  0  0  0  0  0  0
  153.1898  142.5116  164.4447 H   0  0  0  0  0  0  0  0  0  0  0  0
  151.8841  144.3749  161.8728 H   0  0  0  0  0  0  0  0  0  0  0  0
  149.8671  145.5974  159.2953 H   0  0  0  0  0  0  0  0  0  0  0  0
  151.3470  145.7555  160.2208 H   0  0  0  0  0  0  0  0  0  0  0  0
  150.0292  144.7678  160.8370 H   0  0  0  0  0  0  0  0  0  0  0  0
  149.3304  142.6196  159.5860 H   0  0  0  0  0  0  0  0  0  0  0  0
  150.2663  142.0699  158.1925 H   0  0  0  0  0  0  0  0  0  0  0  0
  149.2802  143.5140  158.0803 H   0  0  0  0  0  0  0  0  0  0  0  0
  151.2385  144.7914  157.2501 H   0  0  0  0  0  0  0  0  0  0  0  0
  152.3264  143.4198  157.4150 H   0  0  0  0  0  0  0  0  0  0  0  0
  152.7133  144.9542  158.1826 H   0  0  0  0  0  0  0  0  0  0  0  0
  152.5732  141.5301  158.6877 H   0  0  0  0  0  0  0  0  0  0  0  0
  154.0975  140.2944  160.1146 H   0  0  0  0  0  0  0  0  0  0  0  0
  154.6654  139.0576  161.9607 H   0  0  0  0  0  0  0  0  0  0  0  0
  156.0430  140.0051  161.4023 H   0  0  0  0  0  0  0  0  0  0  0  0
  155.5500  138.8514  164.1823 H   0  0  0  0  0  0  0  0  0  0  0  0
  156.5713  137.8594  162.0686 H   0  0  0  0  0  0  0  0  0  0  0  0
  158.1984  139.7726  164.2652 H   0  0  0  0  0  0  0  0  0  0  0  0
  157.4825  141.0046  163.2992 H   0  0  0  0  0  0  0  0  0  0  0  0
  155.8573  140.3878  168.4562 H   0  0  0  0  0  0  0  0  0  0  0  0
  155.3084  142.7132  168.2629 H   0  0  0  0  0  0  0  0  0  0  0  0
  156.4436  144.8364  165.8449 H   0  0  0  0  0  0  0  0  0  0  0  0
  155.1475  144.6335  167.0695 H   0  0  0  0  0  0  0  0  0  0  0  0
  154.7642  144.3876  165.3342 H   0  0  0  0  0  0  0  0  0  0  0  0
  1  2  1  0  0  0  0
  1 26  1  0  0  0  0
  1 27  1  0  0  0  0
  1 28  1  0  0  0  0
  2 11  1  0  0  0  0
  2  3  2  0  0  0  0
  3  4  1  0  0  0  0
  3 29  1  0  0  0  0
  4  5  1  0  0  0  0
  4  9  2  0  0  0  0
  5  6  1  0  0  0  0
  5  7  1  0  0  0  0
  5  8  1  0  0  0  0
  6 30  1  0  0  0  0
  6 31  1  0  0  0  0
  6 32  1  0  0  0  0
  7 33  1  0  0  0  0
  7 34  1  0  0  0  0
  7 35  1  0  0  0  0
  8 36  1  0  0  0  0
  8 37  1  0  0  0  0
  8 38  1  0  0  0  0
  9 10  1  0  0  0  0
  9 39  1  0  0  0  0
 10 11  2  0  0  0  0
 10 40  1  0  0  0  0
 11 12  1  0  0  0  0
 12 13  1  0  0  0  0
 13 14  1  0  0  0  0
 13 41  1  0  0  0  0
 13 42  1  0  0  0  0
 14 15  1  0  0  0  0
 14 16  1  0  0  0  0
 14 43  1  0  0  0  0
 15 44  1  0  0  0  0
 16 17  1  0  0  0  0
 16 45  1  0  0  0  0
 16 46  1  0  0  0  0
 17 24  1  0  0  0  0
 17 18  1  0  0  0  0
 18 19  2  0  0  0  0
 18 20  1  0  0  0  0
 20 21  2  0  0  0  0
 20 47  1  0  0  0  0
 21 22  1  0  0  0  0
 21 48  1  0  0  0  0
 22 23  1  0  0  0  0
 22 24  1  0  0  0  0
 23 49  1  0  0  0  0
 23 50  1  0  0  0  0
 23 51  1  0  0  0  0
 24 25  2  0  0  0  0
M  END
> <s_m_source_file>
AV-unprocessed.smi

> <i_m_source_file_index>
427

> <i_lp_mmshare_version>
43012

> <i_f3d_flags>
0

> <s_epik_input>
W0NIM11jMVtjSF1jKEMoW0NIM10pKFtDSDNdKVtDSDNdKVtjSF1bY0hdYzFPW0NIMl1bQ0BIXShbT0hdKVtDSDJdbjJjKD1PKVtjSF1bY0hdbihbQ0gzXSljMj1P

> <s_epik_cmdline>
J2VwaWtfcHl0aG9uJywgJy1waCcsICc3LjAnLCAnLXRuJywgJzgnLCAnLW1hJywgJzIwMCcsICctbWV0YWxfYmluZGluZycsICctaW1hZScsICc8aW5maWxlLm1hZT4nLCAnLW9tYWUnLCAnPG91dGZpbGUubWFlPic=

> <r_lp_tautomer_probability>
1

> <r_epik_Ionization_Penalty>
2.02112e-07

> <r_epik_Ionization_Penalty_Charging>
8.49383e-08

> <r_epik_Ionization_Penalty_Neutral>
1.17174e-07

> <r_epik_State_Penalty>
-0

> <r_epik_Charging_Adjusted_Penalty>
8.49383e-08

> <i_epik_Tot_Q>
0

> <i_epik_Tot_abs_Q>
0

> <r_epik_Metal_State_Penalty>
-0

> <b_epik_Metal_Only>
0

> <s_lp_Force_Field>
OPLS_2005

> <r_lp_Energy>
28.8364

> <b_lp_Chiralities_Consistent>
1

> <s_lp_Variant>
AV-unprocessed.smi:427-2

> <Gold.Version>
5.8.1

> <Gold.Id.Protein>
6NUR|6NUR_protein|mol2

> <Gold.PLP.Fitness>
60.6468

> <Gold.PLP.PLP>
-61.7907

> <Gold.PLP.part.hbond>
-1.6263

> <Gold.PLP.part.metal>
0.0000

> <Gold.PLP.part.buried>
-6.4824

> <Gold.PLP.part.nonpolar>
-52.1569

> <Gold.PLP.part.repulsive>
0.0805

> <Gold.PLP.ligand.clash>
0.0000

> <Gold.PLP.ligand.torsion>
0.5916

> <Gold.PLP.Chemscore.Hbond>
0.0000

> <Gold.PLP.Chemscore.CHOScore>
0.0000

> <Gold.PLP.Chemscore.Metal>
0.0000

> <Gold.PLP.Chemscore.Internal.Correction>
0.0393

> <Gold.Rescore>
     Score         DG    S(hbond)    S(metal)    S(lipo)     H(rot)  DE(clash)    DE(int)     intcor
     13.87     -18.03       0.00        0.00     161.76       2.49       2.52       1.65       ----

> <Gold.Chemscore.Fitness>
13.8689

> <Gold.Chemscore.DG>
-18.0334

> <Gold.Chemscore.ZeroCoef>
-5.4800

> <Gold.Chemscore.Hbond>
0.0000

> <Gold.Chemscore.Metal>
0.0000

> <Gold.Chemscore.Lipo>
161.7619

> <Gold.Chemscore.Internal_Hbond>
0.0000

> <Gold.Chemscore.DEClash>
2.5159

> <Gold.Chemscore.DEInternal>
1.6486

> <Gold.Chemscore.Rot>
2.4894

> <Gold.Chemscore.Internal.Correction>
   9.000000E+99

> <Gold.Chemscore.Hbond.Weighted>
-0.0000

> <Gold.Chemscore.Metal.Weighted>
-0.0000

> <Gold.Chemscore.Lipo.Weighted>
-18.9261

> <Gold.Chemscore.Internal_Hbond.Weighted>
0.0000

> <Gold.Chemscore.DEClash.Weighted>
2.5159

> <Gold.Chemscore.DEInternal.Weighted>
1.6486

> <Gold.Chemscore.Rot.Weighted>
6.3728

> <Gold.Chemscore.Internal.Correction.Weighted>
   9.000000E+99

> <Gold.Protein.RotatedTorsions>
[ 6907 6896 6895 6894 ] final  143.38 input  -60.11 | X-H torsion
[ 7974 7965 7964 7962 ] final   29.84 input  175.53 | X-H torsion
[ 8008 7997 7996 7995 ] final  -73.60 input   59.86 | X-H torsion
[ 10167 10162 10161 10158 ] final  -50.58 input  -65.29 | X-H torsion
[ 10718 10713 10712 10709 ] final  -88.18 input   66.30 | X-H torsion
[ 10763 10752 10751 10750 ] final   -3.25 input  -60.55 | X-H torsion
[ 11005 11000 10999 10996 ] final   34.84 input  -57.11 | X-H torsion

> <Gold.Protein.ActiveResidues>
 VAL166  LYS551  ARG553  GLY616  TRP617  ASP618  TYR619  PRO620  LYS621  CYS622 
 ASP623  PHE694  ASN695  SER759  ASP760  ASP761  ALA762  ILE779  LEU786  VAL792 
 PHE793  MET794  SER795  GLU796  ALA797  LYS798  CYS799  TRP800  GLU811  SER814 

> <Gold.Protein.RotatedAtoms>
  152.2070  133.4883  159.5089 H   0  0  0  0  0  0  0  0  0  0  0  0  # atno 6907 bound_to 6896
  150.6982  134.1516  159.4151 H   0  0  0  0  0  0  0  0  0  0  0  0  # atno 6908 bound_to 6896
  151.9435  135.0202  160.0588 H   0  0  0  0  0  0  0  0  0  0  0  0  # atno 6909 bound_to 6896
  146.1648  139.6868  142.9009 H   0  0  0  0  0  0  0  0  0  0  0  0  # atno 7974 bound_to 7965
  154.5261  140.0776  156.8260 H   0  0  0  0  0  0  0  0  0  0  0  0  # atno 8008 bound_to 7997
  155.3473  140.3410  155.4221 H   0  0  0  0  0  0  0  0  0  0  0  0  # atno 8009 bound_to 7997
  156.1733  140.1627  156.8396 H   0  0  0  0  0  0  0  0  0  0  0  0  # atno 8010 bound_to 7997
  140.6631  143.2652  151.4379 H   0  0  0  0  0  0  0  0  0  0  0  0  # atno 10167 bound_to 10162
  155.9984  130.4826  150.4981 H   0  0  0  0  0  0  0  0  0  0  0  0  # atno 10718 bound_to 10713
  153.3689  135.6993  153.6653 H   0  0  0  0  0  0  0  0  0  0  0  0  # atno 10763 bound_to 10752
  153.5311  135.3592  155.2677 H   0  0  0  0  0  0  0  0  0  0  0  0  # atno 10764 bound_to 10752
  154.8678  135.4181  154.2963 H   0  0  0  0  0  0  0  0  0  0  0  0  # atno 10765 bound_to 10752
  140.2487  134.3329  155.7898 H   0  0  0  0  0  0  0  0  0  0  0  0  # atno 11005 bound_to 11000
  145.4496  141.0427  143.2812 LP  0  0  0  0  0  0  0  0  0  0  0  0  # atno 17320 bound_to 7965
  144.8076  139.6021  143.7043 LP  0  0  0  0  0  0  0  0  0  0  0  0  # atno 17321 bound_to 7965
  139.5870  144.1581  152.2042 LP  0  0  0  0  0  0  0  0  0  0  0  0  # atno 17342 bound_to 10162
  140.0924  144.5609  150.7045 LP  0  0  0  0  0  0  0  0  0  0  0  0  # atno 17343 bound_to 10162
  157.2968  131.0637  151.2096 LP  0  0  0  0  0  0  0  0  0  0  0  0  # atno 17370 bound_to 10713
  157.3089  130.6880  149.6205 LP  0  0  0  0  0  0  0  0  0  0  0  0  # atno 17371 bound_to 10713
  141.2203  133.7341  156.9002 LP  0  0  0  0  0  0  0  0  0  0  0  0  # atno 17394 bound_to 11000
  140.1580  134.9185  157.2678 LP  0  0  0  0  0  0  0  0  0  0  0  0  # atno 17395 bound_to 11000

$$$$
