AV-unprocessed.smi:36|AV-procd|sdf|300|dock8
  -GOLD-   2262016103D 1   1.00000     0.00000
 Structure written by MMmdl.
 63 66  0  0  0  0  0  0  0  0  2 V2000
  150.0457  132.5020  154.7882 C   0  0  0  0  0  0  0  0  0  0  0  0
  149.2702  133.7260  154.2736 C   0  0  0  0  0  0  0  0  0  0  0  0
  150.1955  134.9540  154.2348 C   0  0  0  0  0  0  0  0  0  0  0  0
  148.7235  133.4444  152.8643 C   0  0  0  0  0  0  0  0  0  0  0  0
  147.8081  134.0898  155.4476 Si  0  0  0  0  0  0  0  0  0  0  0  0
  146.6923  132.5667  155.6573 C   0  0  0  0  0  0  0  0  0  0  0  0
  148.4292  134.6659  157.1503 C   0  0  0  0  0  0  0  0  0  0  0  0
  146.8808  135.3285  154.7620 O   0  0  0  0  0  0  0  0  0  0  0  0
  145.5638  135.6275  155.1754 C   0  0  0  0  0  0  0  0  0  0  0  0
  144.9606  136.7113  154.2707 C   0  0  1  0  0  0  0  0  0  0  0  0
  145.2785  137.9735  154.8599 O   0  0  0  0  0  0  0  0  0  0  0  0
  145.9141  138.7871  153.9274 C   0  0  1  0  0  0  0  0  0  0  0  0
  146.9221  139.6268  154.6377 N   0  0  0  0  0  0  0  0  0  0  0  0
  146.6933  140.5982  155.5436 C   0  0  0  0  0  0  0  0  0  0  0  0
  147.7529  141.2192  156.0576 N   0  0  0  0  0  0  0  0  0  0  0  0
  148.7974  140.5714  155.4143 C   0  0  0  0  0  0  0  0  0  0  0  0
  150.2090  140.7302  155.4798 C   0  0  0  0  0  0  0  0  0  0  0  0
  150.8006  141.6345  156.2743 N   0  5  0  0  0  0  0  0  0  0  0  0
  151.8515  141.2688  157.0513 C   0  0  0  0  0  0  0  0  0  0  0  0
  152.5419  140.2513  156.9598 O   0  0  0  0  0  0  0  0  0  0  0  0
  152.1166  142.2264  158.1826 C   0  0  0  0  0  0  0  0  0  0  0  0
  151.6256  143.5501  158.1091 C   0  0  0  0  0  0  0  0  0  0  0  0
  151.8427  144.4547  159.1667 C   0  0  0  0  0  0  0  0  0  0  0  0
  152.5462  144.0429  160.3138 C   0  0  0  0  0  0  0  0  0  0  0  0
  153.0274  142.7234  160.4050 C   0  0  0  0  0  0  0  0  0  0  0  0
  152.8102  141.8180  159.3481 C   0  0  0  0  0  0  0  0  0  0  0  0
  150.9585  139.9027  154.7077 N   0  0  0  0  0  0  0  0  0  0  0  0
  150.3695  138.9966  153.9190 C   0  0  0  0  0  0  0  0  0  0  0  0
  149.0672  138.7484  153.7526 N   0  0  0  0  0  0  0  0  0  0  0  0
  148.3025  139.5696  154.5302 C   0  0  0  0  0  0  0  0  0  0  0  0
  146.5768  137.8581  152.9164 C   0  0  0  0  0  0  0  0  0  0  0  0
  145.5652  136.7329  152.8534 C   0  0  2  0  0  0  0  0  0  0  0  0
  144.5627  137.0189  151.8980 O   0  0  0  0  0  0  0  0  0  0  0  0
  150.8888  132.2654  154.1383 H   0  0  0  0  0  0  0  0  0  0  0  0
  149.4087  131.6185  154.8346 H   0  0  0  0  0  0  0  0  0  0  0  0
  150.4421  132.6747  155.7891 H   0  0  0  0  0  0  0  0  0  0  0  0
  150.6089  135.1728  155.2196 H   0  0  0  0  0  0  0  0  0  0  0  0
  149.6604  135.8429  153.8987 H   0  0  0  0  0  0  0  0  0  0  0  0
  151.0339  134.7975  153.5553 H   0  0  0  0  0  0  0  0  0  0  0  0
  149.5307  133.2524  152.1567 H   0  0  0  0  0  0  0  0  0  0  0  0
  148.1486  134.2906  152.4868 H   0  0  0  0  0  0  0  0  0  0  0  0
  148.0684  132.5728  152.8583 H   0  0  0  0  0  0  0  0  0  0  0  0
  147.2386  131.7250  156.0822 H   0  0  0  0  0  0  0  0  0  0  0  0
  146.2784  132.2384  154.7043 H   0  0  0  0  0  0  0  0  0  0  0  0
  145.8525  132.7765  156.3196 H   0  0  0  0  0  0  0  0  0  0  0  0
  149.0294  133.8975  157.6369 H   0  0  0  0  0  0  0  0  0  0  0  0
  147.6035  134.9030  157.8208 H   0  0  0  0  0  0  0  0  0  0  0  0
  149.0489  135.5586  157.0719 H   0  0  0  0  0  0  0  0  0  0  0  0
  144.9677  134.7162  155.1213 H   0  0  0  0  0  0  0  0  0  0  0  0
  145.5576  135.9498  156.2162 H   0  0  0  0  0  0  0  0  0  0  0  0
  143.8768  136.5896  154.2371 H   0  0  0  0  0  0  0  0  0  0  0  0
  145.2045  139.4829  153.4773 H   0  0  0  0  0  0  0  0  0  0  0  0
  145.6909  140.8684  155.8414 H   0  0  0  0  0  0  0  0  0  0  0  0
  151.0825  143.8823  157.2364 H   0  0  0  0  0  0  0  0  0  0  0  0
  151.4683  145.4653  159.0972 H   0  0  0  0  0  0  0  0  0  0  0  0
  152.7125  144.7364  161.1246 H   0  0  0  0  0  0  0  0  0  0  0  0
  153.5615  142.4033  161.2872 H   0  0  0  0  0  0  0  0  0  0  0  0
  153.1794  140.8069  159.4428 H   0  0  0  0  0  0  0  0  0  0  0  0
  151.0384  138.3821  153.3353 H   0  0  0  0  0  0  0  0  0  0  0  0
  146.7605  138.3613  151.9664 H   0  0  0  0  0  0  0  0  0  0  0  0
  147.5229  137.4869  153.3109 H   0  0  0  0  0  0  0  0  0  0  0  0
  146.0319  135.7872  152.5786 H   0  0  0  0  0  0  0  0  0  0  0  0
  144.8986  137.6643  151.2952 H   0  0  0  0  0  0  0  0  0  0  0  0
  1  2  1  0  0  0  0
  1 34  1  0  0  0  0
  1 35  1  0  0  0  0
  1 36  1  0  0  0  0
  2  3  1  0  0  0  0
  2  4  1  0  0  0  0
  2  5  1  0  0  0  0
  3 37  1  0  0  0  0
  3 38  1  0  0  0  0
  3 39  1  0  0  0  0
  4 40  1  0  0  0  0
  4 41  1  0  0  0  0
  4 42  1  0  0  0  0
  5  6  1  0  0  0  0
  5  7  1  0  0  0  0
  5  8  1  0  0  0  0
  6 43  1  0  0  0  0
  6 44  1  0  0  0  0
  6 45  1  0  0  0  0
  7 46  1  0  0  0  0
  7 47  1  0  0  0  0
  7 48  1  0  0  0  0
  8  9  1  0  0  0  0
  9 10  1  0  0  0  0
  9 49  1  0  0  0  0
  9 50  1  0  0  0  0
 10 32  1  0  0  0  0
 10 11  1  0  0  0  0
 10 51  1  0  0  0  0
 11 12  1  0  0  0  0
 12 13  1  0  0  0  0
 12 31  1  0  0  0  0
 12 52  1  0  0  0  0
 13 30  1  0  0  0  0
 13 14  1  0  0  0  0
 14 15  2  0  0  0  0
 14 53  1  0  0  0  0
 15 16  1  0  0  0  0
 16 30  2  0  0  0  0
 16 17  1  0  0  0  0
 17 18  1  0  0  0  0
 17 27  2  0  0  0  0
 18 19  1  0  0  0  0
 19 20  2  0  0  0  0
 19 21  1  0  0  0  0
 21 26  1  0  0  0  0
 21 22  2  0  0  0  0
 22 23  1  0  0  0  0
 22 54  1  0  0  0  0
 23 24  2  0  0  0  0
 23 55  1  0  0  0  0
 24 25  1  0  0  0  0
 24 56  1  0  0  0  0
 25 26  2  0  0  0  0
 25 57  1  0  0  0  0
 26 58  1  0  0  0  0
 27 28  1  0  0  0  0
 28 29  2  0  0  0  0
 28 59  1  0  0  0  0
 29 30  1  0  0  0  0
 31 32  1  0  0  0  0
 31 60  1  0  0  0  0
 31 61  1  0  0  0  0
 32 33  1  0  0  0  0
 32 62  1  0  0  0  0
 33 63  1  0  0  0  0
M  CHG  1  18  -1
M  END
> <s_m_source_file>
AV-unprocessed.smi

> <i_m_source_file_index>
36

> <i_lp_mmshare_version>
43012

> <i_f3d_flags>
0

> <s_epik_input>
W0NIM11DKFtDSDNdKShbQ0gzXSlbU2ldKFtDSDNdKShbQ0gzXSlPW0NIMl1bQ0BASF0xT1tDQEhdKFtDSDJdW0NASF0xW09IXSluKFtjSF1uMiljKGMyMyluW2NIXW5jM1tOSF1DKD1PKWM0W2NIXVtjSF1bY0hdW2NIXVtjSF00

> <s_epik_cmdline>
J2VwaWtfcHl0aG9uJywgJy1waCcsICc3LjAnLCAnLXRuJywgJzgnLCAnLW1hJywgJzIwMCcsICctbWV0YWxfYmluZGluZycsICctaW1hZScsICc8aW5maWxlLm1hZT4nLCAnLW9tYWUnLCAnPG91dGZpbGUubWFlPic=

> <r_lp_tautomer_probability>
1

> <r_epik_Ionization_Penalty>
4.75685

> <r_epik_Ionization_Penalty_Charging>
3.55822

> <r_epik_Ionization_Penalty_Neutral>
1.19863

> <r_epik_State_Penalty>
3.564

> <r_epik_Charging_Adjusted_Penalty>
7.12222

> <i_epik_Tot_Q>
-1

> <i_epik_Tot_abs_Q>
1

> <r_epik_Metal_State_Penalty>
0.523258

> <b_epik_Metal_Only>
1

> <s_epik_Chemistry_Notes>
This compound contains an acetal/aminal-like group ( X-CH(R)-Y where X, Y are N, S, or O) that may be acid/base labile, releasing an aldehyde.

> <s_lp_Force_Field>
OPLS_2005

> <r_lp_Energy>
29.6254

> <b_lp_Chiralities_Consistent>
1

> <s_lp_Variant>
AV-unprocessed.smi:36-22

> <Gold.Version>
5.8.1

> <Gold.Id.Protein>
6NUR|6NUR_protein|mol2

> <Gold.PLP.Fitness>
49.2316

> <Gold.PLP.PLP>
-44.4743

> <Gold.PLP.part.hbond>
-3.0000

> <Gold.PLP.part.metal>
0.0000

> <Gold.PLP.part.buried>
-4.9179

> <Gold.PLP.part.nonpolar>
-35.9359

> <Gold.PLP.part.repulsive>
0.6769

> <Gold.PLP.ligand.clash>
0.0000

> <Gold.PLP.ligand.torsion>
1.4002

> <Gold.PLP.Chemscore.Hbond>
2.3244

> <Gold.PLP.Chemscore.CHOScore>
0.0000

> <Gold.PLP.Chemscore.Metal>
0.0000

> <Gold.Chemscore.Hbonds>
donor molecule, donor type, donor heavy atom, donor atom, acceptor molecule, acceptor atom, score
      L1  H    33    63       P1 10171  0.54
      P1  H  7989  7998       L1    27  0.90
      P1  H  7997  8009       L1    20  1.00

> <Gold.PLP.Chemscore.Internal.Correction>
0.5845

> <Gold.Rescore>
     Score         DG    S(hbond)    S(metal)    S(lipo)     H(rot)  DE(clash)    DE(int)     intcor
     11.79     -16.07       1.66        0.00     101.61       2.67       0.09       4.19       ----

> <Gold.Chemscore.Fitness>
11.7907

> <Gold.Chemscore.DG>
-16.0690

> <Gold.Chemscore.ZeroCoef>
-5.4800

> <Gold.Chemscore.Hbond>
1.6576

> <Gold.Chemscore.Metal>
0.0000

> <Gold.Chemscore.Lipo>
101.6096

> <Gold.Chemscore.Internal_Hbond>
0.0000

> <Gold.Chemscore.DEClash>
0.0911

> <Gold.Chemscore.DEInternal>
4.1872

> <Gold.Chemscore.Rot>
2.6702

> <Gold.Chemscore.Internal.Correction>
   9.000000E+99

> <Gold.Chemscore.Hbonds>
donor molecule, donor type, donor heavy atom, donor atom, acceptor molecule, acceptor atom, score
      L1  H    33    63       P1 10171  0.50
      P1  H  7989  7998       L1    27  0.10
      P1  H  7997  8009       L1    20  0.94

> <Gold.Chemscore.Hbond.Weighted>
-5.5364

> <Gold.Chemscore.Metal.Weighted>
-0.0000

> <Gold.Chemscore.Lipo.Weighted>
-11.8883

> <Gold.Chemscore.Internal_Hbond.Weighted>
0.0000

> <Gold.Chemscore.DEClash.Weighted>
0.0911

> <Gold.Chemscore.DEInternal.Weighted>
4.1872

> <Gold.Chemscore.Rot.Weighted>
6.8358

> <Gold.Chemscore.Internal.Correction.Weighted>
   9.000000E+99

> <Gold.Protein.RotatedTorsions>
[ 6907 6896 6895 6894 ] final  -76.60 input  -60.11 | X-H torsion
[ 7974 7965 7964 7962 ] final  173.94 input  175.53 | X-H torsion
[ 8008 7997 7996 7995 ] final -169.40 input   59.86 | X-H torsion
[ 10167 10162 10161 10158 ] final -158.24 input  -65.29 | X-H torsion
[ 10718 10713 10712 10709 ] final  119.77 input   66.30 | X-H torsion
[ 10763 10752 10751 10750 ] final -152.25 input  -60.55 | X-H torsion
[ 11005 11000 10999 10996 ] final  118.32 input  -57.11 | X-H torsion

> <Gold.Protein.ActiveResidues>
 VAL166  LYS551  ARG553  GLY616  TRP617  ASP618  TYR619  PRO620  LYS621  CYS622 
 ASP623  PHE694  ASN695  SER759  ASP760  ASP761  ALA762  ILE779  LEU786  VAL792 
 PHE793  MET794  SER795  GLU796  ALA797  LYS798  CYS799  TRP800  GLU811  SER814 

> <Gold.Protein.RotatedAtoms>
  150.7022  134.4547  159.5352 H   0  0  0  0  0  0  0  0  0  0  0  0  # atno 6907 bound_to 6896
  152.2233  134.8389  160.0492 H   0  0  0  0  0  0  0  0  0  0  0  0  # atno 6908 bound_to 6896
  151.9232  133.3556  159.3941 H   0  0  0  0  0  0  0  0  0  0  0  0  # atno 6909 bound_to 6896
  144.7232  139.9723  143.6437 H   0  0  0  0  0  0  0  0  0  0  0  0  # atno 7974 bound_to 7965
  155.9044  140.1046  157.1326 H   0  0  0  0  0  0  0  0  0  0  0  0  # atno 8008 bound_to 7997
  154.4030  140.1286  156.4542 H   0  0  0  0  0  0  0  0  0  0  0  0  # atno 8009 bound_to 7997
  155.7384  140.3467  155.5095 H   0  0  0  0  0  0  0  0  0  0  0  0  # atno 8010 bound_to 7997
  139.6707  143.9749  152.2282 H   0  0  0  0  0  0  0  0  0  0  0  0  # atno 10167 bound_to 10162
  157.5938  131.1061  150.7943 H   0  0  0  0  0  0  0  0  0  0  0  0  # atno 10718 bound_to 10713
  154.8006  135.3241  154.7558 H   0  0  0  0  0  0  0  0  0  0  0  0  # atno 10763 bound_to 10752
  153.8227  135.6886  153.4829 H   0  0  0  0  0  0  0  0  0  0  0  0  # atno 10764 bound_to 10752
  153.1721  135.4619  154.9860 H   0  0  0  0  0  0  0  0  0  0  0  0  # atno 10765 bound_to 10752
  139.9105  134.9619  156.7486 H   0  0  0  0  0  0  0  0  0  0  0  0  # atno 11005 bound_to 11000
  146.0553  139.3550  143.0614 LP  0  0  0  0  0  0  0  0  0  0  0  0  # atno 17320 bound_to 7965
  145.8163  140.9701  143.0922 LP  0  0  0  0  0  0  0  0  0  0  0  0  # atno 17321 bound_to 7965
  139.9513  144.6618  150.8169 LP  0  0  0  0  0  0  0  0  0  0  0  0  # atno 17342 bound_to 10162
  140.7617  143.3180  151.2687 LP  0  0  0  0  0  0  0  0  0  0  0  0  # atno 17343 bound_to 10162
  156.8359  130.5031  149.5326 LP  0  0  0  0  0  0  0  0  0  0  0  0  # atno 17370 bound_to 10713
  156.0997  130.5959  150.9873 LP  0  0  0  0  0  0  0  0  0  0  0  0  # atno 17371 bound_to 10713
  140.6792  133.9490  155.7900 LP  0  0  0  0  0  0  0  0  0  0  0  0  # atno 17394 bound_to 11000
  141.0522  134.0468  157.3768 LP  0  0  0  0  0  0  0  0  0  0  0  0  # atno 17395 bound_to 11000

$$$$
