AV-unprocessed.smi:1401|AV-procd|sdf|5693|dock6
  -GOLD-   22720 5323D 1   1.00000     0.00000
 Structure written by MMmdl.
 48 50  0  0  0  0  0  0  0  0  1 V2000
  154.1963  140.6520  159.9096 C   0  0  0  0  0  0  0  0  0  0  0  0
  153.9774  139.3014  159.2830 C   0  0  0  0  0  0  0  0  0  0  0  0
  153.2507  139.2683  158.2144 N   0  0  0  0  0  0  0  0  0  0  0  0
  152.9831  138.0796  157.5639 N   0  0  0  0  0  0  0  0  0  0  0  0
  152.1016  138.2162  156.3959 C   0  0  0  0  0  0  0  0  0  0  0  0
  151.7648  139.6836  156.1032 C   0  0  0  0  0  0  0  0  0  0  0  0
  152.0793  140.1864  155.0241 O   0  0  0  0  0  0  0  0  0  0  0  0
  151.1314  140.3540  157.0786 N   0  0  0  0  0  0  0  0  0  0  0  0
  150.7687  141.7698  157.0497 C   0  0  1  0  0  0  0  0  0  0  0  0
  149.3004  141.8793  156.6070 C   0  0  0  0  0  0  0  0  0  0  0  0
  151.0117  142.4234  158.4357 C   0  0  2  0  0  0  0  0  0  0  0  0
  150.1559  143.6927  158.6711 C   0  0  0  0  0  0  0  0  0  0  0  0
  151.1963  144.7595  159.0564 C   0  0  1  0  0  0  0  0  0  0  0  0
  151.7666  144.4432  160.4506 C   0  0  0  0  0  0  0  0  0  0  0  0
  152.6510  143.2124  160.1801 C   0  0  0  0  0  0  0  0  0  0  0  0
  152.4455  142.9698  158.6728 C   0  0  2  0  0  0  0  0  0  0  0  0
  152.3601  144.3968  158.1438 C   0  0  0  0  0  0  0  0  0  0  0  0
  153.4586  136.8594  157.9481 C   0  0  0  0  0  0  0  0  0  0  0  0
  153.2095  135.8251  157.3262 O   0  0  0  0  0  0  0  0  0  0  0  0
  154.2779  136.9042  159.1606 C   0  0  0  0  0  0  0  0  0  0  0  0
  154.7834  135.6455  159.6050 C   0  0  0  0  0  0  0  0  0  0  0  0
  155.2113  134.6323  159.9661 N   0  0  0  0  0  0  0  0  0  0  0  0
  154.5347  138.0629  159.8177 C   0  0  0  0  0  0  0  0  0  0  0  0
  155.3779  138.1616  161.0816 C   0  0  0  0  0  0  0  0  0  0  0  0
  155.2606  140.8686  160.0029 H   0  0  0  0  0  0  0  0  0  0  0  0
  153.7534  140.6918  160.9050 H   0  0  0  0  0  0  0  0  0  0  0  0
  153.7486  141.4523  159.3181 H   0  0  0  0  0  0  0  0  0  0  0  0
  152.5754  137.7939  155.5080 H   0  0  0  0  0  0  0  0  0  0  0  0
  151.1883  137.6367  156.5449 H   0  0  0  0  0  0  0  0  0  0  0  0
  150.9162  139.8516  157.9277 H   0  0  0  0  0  0  0  0  0  0  0  0
  151.3738  142.2886  156.3045 H   0  0  0  0  0  0  0  0  0  0  0  0
  148.9842  142.9181  156.5128 H   0  0  0  0  0  0  0  0  0  0  0  0
  148.6335  141.3942  157.3205 H   0  0  0  0  0  0  0  0  0  0  0  0
  149.1480  141.4071  155.6359 H   0  0  0  0  0  0  0  0  0  0  0  0
  150.7839  141.6792  159.2008 H   0  0  0  0  0  0  0  0  0  0  0  0
  149.6366  144.0007  157.7629 H   0  0  0  0  0  0  0  0  0  0  0  0
  149.4034  143.5471  159.4469 H   0  0  0  0  0  0  0  0  0  0  0  0
  150.8320  145.7820  158.9537 H   0  0  0  0  0  0  0  0  0  0  0  0
  152.3683  145.2730  160.8235 H   0  0  0  0  0  0  0  0  0  0  0  0
  150.9830  144.2414  161.1817 H   0  0  0  0  0  0  0  0  0  0  0  0
  153.6962  143.4389  160.3948 H   0  0  0  0  0  0  0  0  0  0  0  0
  152.3671  142.3510  160.7856 H   0  0  0  0  0  0  0  0  0  0  0  0
  153.2460  142.3724  158.2403 H   0  0  0  0  0  0  0  0  0  0  0  0
  152.1162  144.4541  157.0819 H   0  0  0  0  0  0  0  0  0  0  0  0
  153.2601  144.9839  158.3355 H   0  0  0  0  0  0  0  0  0  0  0  0
  155.6685  137.1825  161.4606 H   0  0  0  0  0  0  0  0  0  0  0  0
  154.8259  138.6648  161.8759 H   0  0  0  0  0  0  0  0  0  0  0  0
  156.2910  138.7246  160.8867 H   0  0  0  0  0  0  0  0  0  0  0  0
  1  2  1  0  0  0  0
  1 25  1  0  0  0  0
  1 26  1  0  0  0  0
  1 27  1  0  0  0  0
  2 23  1  0  0  0  0
  2  3  2  0  0  0  0
  3  4  1  0  0  0  0
  4  5  1  0  0  0  0
  4 18  1  0  0  0  0
  5  6  1  0  0  0  0
  5 28  1  0  0  0  0
  5 29  1  0  0  0  0
  6  7  2  0  0  0  0
  6  8  1  0  0  0  0
  8  9  1  0  0  0  0
  8 30  1  0  0  0  0
  9 10  1  0  0  0  0
  9 11  1  0  0  0  0
  9 31  1  0  0  0  0
 10 32  1  0  0  0  0
 10 33  1  0  0  0  0
 10 34  1  0  0  0  0
 11 16  1  0  0  0  0
 11 12  1  0  0  0  0
 11 35  1  0  0  0  0
 12 13  1  0  0  0  0
 12 36  1  0  0  0  0
 12 37  1  0  0  0  0
 13 17  1  0  0  0  0
 13 14  1  0  0  0  0
 13 38  1  0  0  0  0
 14 15  1  0  0  0  0
 14 39  1  0  0  0  0
 14 40  1  0  0  0  0
 15 16  1  0  0  0  0
 15 41  1  0  0  0  0
 15 42  1  0  0  0  0
 16 17  1  0  0  0  0
 16 43  1  0  0  0  0
 17 44  1  0  0  0  0
 17 45  1  0  0  0  0
 18 19  2  0  0  0  0
 18 20  1  0  0  0  0
 20 21  1  0  0  0  0
 20 23  2  0  0  0  0
 21 22  3  0  0  0  0
 23 24  1  0  0  0  0
 24 46  1  0  0  0  0
 24 47  1  0  0  0  0
 24 48  1  0  0  0  0
M  END
> <s_m_source_file>
AV-unprocessed.smi

> <i_m_source_file_index>
1401

> <i_lp_mmshare_version>
43012

> <i_f3d_flags>
0

> <s_epik_input>
TiNDYyhjMVtDSDNdKWMoPU8pbihuYzFbQ0gzXSlbQ0gyXUMoPU8pW05IXVtDQEhdKFtDSDNdKVtDQEhdKFtDSDJdW0NASF0yMylbQ0BIXShbQ0gyXTMpW0NIMl1bQ0gyXTI=

> <s_epik_cmdline>
J2VwaWtfcHl0aG9uJywgJy1waCcsICc3LjAnLCAnLXRuJywgJzgnLCAnLW1hJywgJzIwMCcsICctbWV0YWxfYmluZGluZycsICctaW1hZScsICc8aW5maWxlLm1hZT4nLCAnLW9tYWUnLCAnPG91dGZpbGUubWFlPic=

> <r_lp_tautomer_probability>
1

> <r_epik_Ionization_Penalty>
2.16501e-08

> <r_epik_Ionization_Penalty_Charging>
2.29436e-11

> <r_epik_Ionization_Penalty_Neutral>
2.16271e-08

> <r_epik_State_Penalty>
-0

> <r_epik_Charging_Adjusted_Penalty>
2.29436e-11

> <i_epik_Tot_Q>
0

> <i_epik_Tot_abs_Q>
0

> <r_epik_Metal_State_Penalty>
-0

> <b_epik_Metal_Only>
0

> <s_lp_Force_Field>
OPLS_2005

> <r_lp_Energy>
65.2014

> <b_lp_Chiralities_Consistent>
1

> <s_lp_Variant>
AV-unprocessed.smi:1401-6

> <Gold.Version>
5.8.1

> <Gold.Id.Protein>
6NUR|6NUR_protein|mol2

> <Gold.PLP.Fitness>
47.6881

> <Gold.PLP.PLP>
-41.1613

> <Gold.PLP.part.hbond>
-3.0000

> <Gold.PLP.part.metal>
0.0000

> <Gold.PLP.part.buried>
-3.7772

> <Gold.PLP.part.nonpolar>
-33.7916

> <Gold.PLP.part.repulsive>
0.1099

> <Gold.PLP.ligand.clash>
0.0000

> <Gold.PLP.ligand.torsion>
0.8996

> <Gold.PLP.Chemscore.Hbond>
2.7680

> <Gold.PLP.Chemscore.CHOScore>
0.0000

> <Gold.PLP.Chemscore.Metal>
0.0000

> <Gold.Chemscore.Hbonds>
donor molecule, donor type, donor heavy atom, donor atom, acceptor molecule, acceptor atom, score
      P1  H  7989  7998       L1     7  0.74
      P1  H  7997  8009       L1     3  0.90
      P1  H 10752 10765       L1    19  0.94

> <Gold.PLP.Chemscore.Internal.Correction>
0.0219

> <Gold.Rescore>
     Score         DG    S(hbond)    S(metal)    S(lipo)     H(rot)  DE(clash)    DE(int)     intcor
     20.67     -21.71       1.84        0.00     121.74       1.63       0.18       0.86       ----

> <Gold.Chemscore.Fitness>
20.6739

> <Gold.Chemscore.DG>
-21.7139

> <Gold.Chemscore.ZeroCoef>
-5.4800

> <Gold.Chemscore.Hbond>
1.8439

> <Gold.Chemscore.Metal>
0.0000

> <Gold.Chemscore.Lipo>
121.7353

> <Gold.Chemscore.Internal_Hbond>
0.0000

> <Gold.Chemscore.DEClash>
0.1820

> <Gold.Chemscore.DEInternal>
0.8580

> <Gold.Chemscore.Rot>
1.6281

> <Gold.Chemscore.Internal.Correction>
   9.000000E+99

> <Gold.Chemscore.Hbonds>
donor molecule, donor type, donor heavy atom, donor atom, acceptor molecule, acceptor atom, score
      P1  H  7989  7998       L1     7  0.74
      P1  H  7997  8009       L1     3  0.05
      P1  H 10752 10765       L1    19  0.90

> <Gold.Chemscore.Hbond.Weighted>
-6.1587

> <Gold.Chemscore.Metal.Weighted>
-0.0000

> <Gold.Chemscore.Lipo.Weighted>
-14.2430

> <Gold.Chemscore.Internal_Hbond.Weighted>
0.0000

> <Gold.Chemscore.DEClash.Weighted>
0.1820

> <Gold.Chemscore.DEInternal.Weighted>
0.8580

> <Gold.Chemscore.Rot.Weighted>
4.1678

> <Gold.Chemscore.Internal.Correction.Weighted>
   9.000000E+99

> <Gold.Protein.RotatedTorsions>
[ 6907 6896 6895 6894 ] final -114.60 input  -60.11 | X-H torsion
[ 7974 7965 7964 7962 ] final   -8.21 input  175.53 | X-H torsion
[ 8008 7997 7996 7995 ] final  166.55 input   59.86 | X-H torsion
[ 10167 10162 10161 10158 ] final  -60.67 input  -65.29 | X-H torsion
[ 10718 10713 10712 10709 ] final -118.53 input   66.30 | X-H torsion
[ 10763 10752 10751 10750 ] final -119.95 input  -60.55 | X-H torsion
[ 11005 11000 10999 10996 ] final   -0.45 input  -57.11 | X-H torsion

> <Gold.Protein.ActiveResidues>
 VAL166  LYS551  ARG553  GLY616  TRP617  ASP618  TYR619  PRO620  LYS621  CYS622 
 ASP623  PHE694  ASN695  SER759  ASP760  ASP761  ALA762  ILE779  LEU786  VAL792 
 PHE793  MET794  SER795  GLU796  ALA797  LYS798  CYS799  TRP800  GLU811  SER814 

> <Gold.Protein.RotatedAtoms>
  150.7915  133.8777  159.3276 H   0  0  0  0  0  0  0  0  0  0  0  0  # atno 6907 bound_to 6896
  151.6614  135.0987  160.0189 H   0  0  0  0  0  0  0  0  0  0  0  0  # atno 6908 bound_to 6896
  152.3989  133.6749  159.6335 H   0  0  0  0  0  0  0  0  0  0  0  0  # atno 6909 bound_to 6896
  146.2286  140.2434  142.8344 H   0  0  0  0  0  0  0  0  0  0  0  0  # atno 7974 bound_to 7965
  156.1709  140.1640  156.8448 H   0  0  0  0  0  0  0  0  0  0  0  0  # atno 8008 bound_to 7997
  154.5256  140.0768  156.8287 H   0  0  0  0  0  0  0  0  0  0  0  0  # atno 8009 bound_to 7997
  155.3514  140.3390  155.4241 H   0  0  0  0  0  0  0  0  0  0  0  0  # atno 8010 bound_to 7997
  140.6056  143.2372  151.5829 H   0  0  0  0  0  0  0  0  0  0  0  0  # atno 10167 bound_to 10162
  156.1113  130.6251  150.9303 H   0  0  0  0  0  0  0  0  0  0  0  0  # atno 10718 bound_to 10713
  154.8631  135.4220  154.2381 H   0  0  0  0  0  0  0  0  0  0  0  0  # atno 10763 bound_to 10752
  153.3352  135.6990  153.6919 H   0  0  0  0  0  0  0  0  0  0  0  0  # atno 10764 bound_to 10752
  153.5919  135.3553  155.2887 H   0  0  0  0  0  0  0  0  0  0  0  0  # atno 10765 bound_to 10752
  140.6364  133.9528  155.8302 H   0  0  0  0  0  0  0  0  0  0  0  0  # atno 11005 bound_to 11000
  144.9467  140.8135  143.5597 LP  0  0  0  0  0  0  0  0  0  0  0  0  # atno 17320 bound_to 7965
  145.2391  139.2080  143.5002 LP  0  0  0  0  0  0  0  0  0  0  0  0  # atno 17321 bound_to 7965
  139.5322  144.2882  152.1173 LP  0  0  0  0  0  0  0  0  0  0  0  0  # atno 17342 bound_to 10162
  140.2071  144.4599  150.6403 LP  0  0  0  0  0  0  0  0  0  0  0  0  # atno 17343 bound_to 10162
  157.6294  131.0922  150.8470 LP  0  0  0  0  0  0  0  0  0  0  0  0  # atno 17370 bound_to 10713
  156.8580  130.5103  149.5306 LP  0  0  0  0  0  0  0  0  0  0  0  0  # atno 17371 bound_to 10713
  141.0638  134.0307  157.3622 LP  0  0  0  0  0  0  0  0  0  0  0  0  # atno 17394 bound_to 11000
  139.9096  135.0187  156.7636 LP  0  0  0  0  0  0  0  0  0  0  0  0  # atno 17395 bound_to 11000

$$$$
