#       Name:                AV-unprocessed.smi:3040
#       Creating user name   scv26
#       Creation time:       Fri Mar 27 16:57:25 2020


#       File generated by GOLD software.
#

@<TRIPOS>MOLECULE
AV-unprocessed.smi:3040
    44    45     1
SMALL
NO_CHARGES


@<TRIPOS>ATOM
      1 ****        -4.2793   1.9530   1.6025 C.3            1 S1                 0.0000
      2 ****        -2.9574   1.3442   1.4426 N.am           1 S1                 0.0000
      3 ****        -2.3139   0.9192   2.6940 C.3            1 S1                 0.0000
      4 ****        -0.8001   0.7095   2.5628 C.3            1 S1                 0.0000
      5 ****        -0.4949  -0.1519   1.3308 C.3            1 S1                 0.0000
      6 ****         1.0113  -0.4088   1.1960 C.2            1 S1                 0.0000
      7 ****         1.8060   0.5316   1.2218 O.2            1 S1                 0.0000
      8 ****         1.3852  -1.6859   1.0139 N.am           1 S1                 0.0000
      9 ****         2.7392  -2.1334   0.6913 C.3            1 S1                 0.0000
     10 ****         2.9121  -2.4091  -0.8164 C.3            1 S1                 0.0000
     11 ****         2.5006  -1.2418  -1.6758 C.2            1 S1                 0.0000
     12 ****         3.2054  -0.0241  -1.8979 C.2            1 S1                 0.0000
     13 ****         2.5397   0.8222  -2.6671 N.2            1 S1                 0.0000
     14 ****         1.3944   0.1754  -2.9657 N.pl3          1 S1                 0.0000
     15 ****         0.3962   0.8274  -3.7859 C.3            1 S1                 0.0000
     16 ****         1.3490  -1.0765  -2.3929 C.2            1 S1                 0.0000
     17 ****        -1.0333   0.5392   0.0608 C.3            1 S1                 0.0000
     18 ****        -2.4384   1.1453   0.2068 C.2            1 S1                 0.0000
     19 ****        -3.0401   1.4587  -0.8210 O.2            1 S1                 0.0000
     20 ****        -5.0260   1.4281   1.0046 H              1 S1                 0.0000
     21 ****        -4.2580   2.9959   1.2836 H              1 S1                 0.0000
     22 ****        -4.6213   1.9290   2.6379 H              1 S1                 0.0000
     23 ****        -2.5016   1.6522   3.4799 H              1 S1                 0.0000
     24 ****        -2.7853  -0.0106   3.0153 H              1 S1                 0.0000
     25 ****        -0.3087   1.6803   2.4770 H              1 S1                 0.0000
     26 ****        -0.4121   0.2419   3.4687 H              1 S1                 0.0000
     27 ****        -1.0027  -1.1113   1.4483 H              1 S1                 0.0000
     28 ****         0.6641  -2.3925   1.0187 H              1 S1                 0.0000
     29 ****         3.4753  -1.3974   1.0191 H              1 S1                 0.0000
     30 ****         2.9483  -3.0410   1.2578 H              1 S1                 0.0000
     31 ****         3.9504  -2.6792  -1.0096 H              1 S1                 0.0000
     32 ****         2.3292  -3.2926  -1.0792 H              1 S1                 0.0000
     33 ****         4.1672   0.2750  -1.5083 H              1 S1                 0.0000
     34 ****        -0.2888   0.0860  -4.1981 H              1 S1                 0.0000
     35 ****         0.8756   1.3610  -4.6075 H              1 S1                 0.0000
     36 ****        -0.1695   1.5349  -3.1788 H              1 S1                 0.0000
     37 ****         0.4987  -1.7302  -2.5203 H              1 S1                 0.0000
     38 ****        -0.3690   1.3496  -0.2446 H              1 S1                 0.0000
     39 ****        -1.0461  -0.1721  -0.7661 H              1 S1                 0.0000
     40 ****         1.4701   1.4671   1.3310 LP             1 S1                 0.0000
     41 ****         2.7871   0.3596   1.1336 LP             1 S1                 0.0000
     42 ****         2.8221   1.7354  -2.9608 LP             1 S1                 0.0000
     43 ****        -3.9466   1.8767  -0.7619 LP             1 S1                 0.0000
     44 ****        -2.6222   1.2951  -1.7146 LP             1 S1                 0.0000
@<TRIPOS>BOND
    1    1    2 1     
    2    1   20 1     
    3    1   21 1     
    4    1   22 1     
    5    2   18 am    
    6    2    3 1     
    7    3    4 1     
    8    3   23 1     
    9    3   24 1     
   10    4    5 1     
   11    4   25 1     
   12    4   26 1     
   13    5    6 1     
   14    5   17 1     
   15    5   27 1     
   16    6    7 2     
   17    6    8 am    
   18    8    9 1     
   19    8   28 1     
   20    9   10 1     
   21    9   29 1     
   22    9   30 1     
   23   10   11 1     
   24   10   31 1     
   25   10   32 1     
   26   11   16 2     
   27   11   12 1     
   28   12   13 2     
   29   12   33 1     
   30   13   14 1     
   31   14   15 1     
   32   14   16 1     
   33   15   34 1     
   34   15   35 1     
   35   15   36 1     
   36   16   37 1     
   37   17   18 1     
   38   17   38 1     
   39   17   39 1     
   40   18   19 2     
   41    7   40 1     
   42    7   41 1     
   43   13   42 1     
   44   19   43 1     
   45   19   44 1     
@<TRIPOS>SUBSTRUCTURE
      1 S1             1
@<TRIPOS>SET
LONE_PAIRS      STATIC     ATOMS    <user>   **** ""
5 40 41 42 43 44
DONOR_HYDROGENS      STATIC     ATOMS    <user>   **** ""
1 28
ATOM$BLUE        STATIC     ATOMS    COLORGROUP SYSTEM
5 40 41 42 43 44
ATOM$RED        STATIC     ATOMS    COLORGROUP SYSTEM
1 28
