#       Name:                AV-unprocessed.smi:933
#       Creating user name   scv26
#       Creation time:       Fri Mar 27 02:11:04 2020


#       File generated by GOLD software.
#

@<TRIPOS>MOLECULE
AV-unprocessed.smi:933
    45    46     1
SMALL
NO_CHARGES


@<TRIPOS>ATOM
      1 ****         0.1885  -4.5329   3.0442 C.3            1 S1                 0.0000
      2 ****        -1.2167  -4.1424   3.5144 C.3            1 S1                 0.0000
      3 ****        -2.1044  -3.7387   2.3852 C.2            1 S1                 0.0000
      4 ****        -2.1689  -2.4927   1.9093 N.2            1 S1                 0.0000
      5 ****        -3.0375  -2.3750   0.8190 C.2            1 S1                 0.0000
      6 ****        -3.2270  -1.0469   0.1438 C.3            1 S1                 0.0000
      7 ****        -2.1596  -0.7423  -0.9218 C.3            1 S1                 0.0000
      8 ****        -0.8123  -0.7329  -0.3537 N.am           1 S1                 0.0000
      9 ****         0.3455  -0.5330  -1.0051 C.2            1 S1                 0.0000
     10 ****         0.3841  -0.3271  -2.2166 O.2            1 S1                 0.0000
     11 ****         1.4376  -0.5793  -0.2242 N.am           1 S1                 0.0000
     12 ****         2.8138  -0.3993  -0.6835 C.3            1 S1                 0.0000
     13 ****         3.3949  -1.7273  -1.2159 C.3            1 S1                 0.0000
     14 ****         4.6561  -2.0144  -0.3951 C.3            1 S1                 0.0000
     15 ****         4.4668  -1.2327   0.9020 C.3            1 S1                 0.0000
     16 ****         3.7571   0.0472   0.4573 C.3            1 S1                 0.0000
     17 ****         3.1182   0.8377   1.6130 C.3            1 S1                 0.0000
     18 ****        -3.6330  -3.5624   0.4731 C.2            1 S1                 0.0000
     19 ****        -3.1159  -4.8727   1.4981 S.3            1 S1                 0.0000
     20 ****         0.8142  -4.8239   3.8882 H              1 S1                 0.0000
     21 ****         0.6786  -3.7011   2.5369 H              1 S1                 0.0000
     22 ****         0.1519  -5.3734   2.3505 H              1 S1                 0.0000
     23 ****        -1.6789  -4.9781   4.0403 H              1 S1                 0.0000
     24 ****        -1.1558  -3.3194   4.2274 H              1 S1                 0.0000
     25 ****        -4.2119  -1.0083  -0.3228 H              1 S1                 0.0000
     26 ****        -3.2267  -0.2498   0.8886 H              1 S1                 0.0000
     27 ****        -2.2134  -1.4900  -1.7149 H              1 S1                 0.0000
     28 ****        -2.3659   0.2269  -1.3782 H              1 S1                 0.0000
     29 ****        -0.7521  -0.8998   0.6409 H              1 S1                 0.0000
     30 ****         1.3071  -0.7527   0.7616 H              1 S1                 0.0000
     31 ****         2.8301   0.3611  -1.4666 H              1 S1                 0.0000
     32 ****         2.6844  -2.5453  -1.0861 H              1 S1                 0.0000
     33 ****         3.6203  -1.6702  -2.2811 H              1 S1                 0.0000
     34 ****         4.8101  -3.0801  -0.2230 H              1 S1                 0.0000
     35 ****         5.5311  -1.6349  -0.9242 H              1 S1                 0.0000
     36 ****         3.8310  -1.7985   1.5846 H              1 S1                 0.0000
     37 ****         5.4107  -1.0343   1.4108 H              1 S1                 0.0000
     38 ****         4.5156   0.6894   0.0064 H              1 S1                 0.0000
     39 ****         2.3958   0.2371   2.1665 H              1 S1                 0.0000
     40 ****         2.6047   1.7252   1.2425 H              1 S1                 0.0000
     41 ****         3.8785   1.1683   2.3212 H              1 S1                 0.0000
     42 ****        -4.3357  -3.7471  -0.3258 H              1 S1                 0.0000
     43 ****        -1.6521  -1.7264   2.2911 LP             1 S1                 0.0000
     44 ****        -0.4632  -0.3047  -2.7472 LP             1 S1                 0.0000
     45 ****         1.2628  -0.1820  -2.6713 LP             1 S1                 0.0000
@<TRIPOS>BOND
    1    1    2 1     
    2    1   20 1     
    3    1   21 1     
    4    1   22 1     
    5    2    3 1     
    6    2   23 1     
    7    2   24 1     
    8    3   19 1     
    9    3    4 2     
   10    4    5 1     
   11    5    6 1     
   12    5   18 2     
   13    6    7 1     
   14    6   25 1     
   15    6   26 1     
   16    7    8 1     
   17    7   27 1     
   18    7   28 1     
   19    8    9 am    
   20    8   29 1     
   21    9   10 2     
   22    9   11 am    
   23   11   12 1     
   24   11   30 1     
   25   12   16 1     
   26   12   13 1     
   27   12   31 1     
   28   13   14 1     
   29   13   32 1     
   30   13   33 1     
   31   14   15 1     
   32   14   34 1     
   33   14   35 1     
   34   15   16 1     
   35   15   36 1     
   36   15   37 1     
   37   16   17 1     
   38   16   38 1     
   39   17   39 1     
   40   17   40 1     
   41   17   41 1     
   42   18   19 1     
   43   18   42 1     
   44    4   43 1     
   45   10   44 1     
   46   10   45 1     
@<TRIPOS>SUBSTRUCTURE
      1 S1             1
@<TRIPOS>SET
LONE_PAIRS      STATIC     ATOMS    <user>   **** ""
3 43 44 45
DONOR_HYDROGENS      STATIC     ATOMS    <user>   **** ""
2 29 30
ATOM$BLUE        STATIC     ATOMS    COLORGROUP SYSTEM
3 43 44 45
ATOM$RED        STATIC     ATOMS    COLORGROUP SYSTEM
2 29 30
