AV-unprocessed.smi:1360|AV-procd|sdf|5551|dock6
  -GOLD-   22720 5143D 1   1.00000     0.00000
 Structure written by MMmdl.
 36 37  0  0  0  0  0  0  0  0  1 V2000
  151.4735  139.1839  155.0333 C   0  0  0  0  0  0  0  0  0  0  0  0
  150.6261  139.0679  156.3096 C   0  0  2  0  0  0  0  0  0  0  0  0
  149.1449  138.7984  155.9817 C   0  0  0  0  0  0  0  0  0  0  0  0
  148.5892  139.7949  155.0828 N   0  0  0  0  0  0  0  0  0  0  0  0
  147.8934  139.5940  153.9094 C   0  0  0  0  0  0  0  0  0  0  0  0
  147.5645  140.8241  153.4166 C   0  0  0  0  0  0  0  0  0  0  0  0
  148.1102  141.7275  154.3709 C   0  0  0  0  0  0  0  0  0  0  0  0
  148.7240  141.1087  155.3667 N   0  0  0  0  0  0  0  0  0  0  0  0
  150.7502  140.2901  157.1006 N   0  0  0  0  0  0  0  0  0  0  0  0
  151.8155  140.6379  157.8385 C   0  0  0  0  0  0  0  0  0  0  0  0
  152.8373  139.9547  157.9145 O   0  0  0  0  0  0  0  0  0  0  0  0
  151.7079  141.9586  158.6117 C   0  0  2  0  0  0  0  0  0  0  0  0
  151.4737  143.1497  157.6537 C   0  0  0  0  0  0  0  0  0  0  0  0
  151.6236  144.4882  158.3552 C   0  0  0  0  0  0  0  0  0  0  0  0
  152.2124  144.6325  159.5548 C   0  0  0  0  0  0  0  0  0  0  0  0
  152.7995  143.4744  160.3426 C   0  0  0  0  0  0  0  0  0  0  0  0
  152.9551  142.2045  159.4844 C   0  0  0  0  0  0  0  0  0  0  0  0
  151.4126  138.2719  154.4388 H   0  0  0  0  0  0  0  0  0  0  0  0
  152.5249  139.3497  155.2704 H   0  0  0  0  0  0  0  0  0  0  0  0
  151.1377  140.0118  154.4080 H   0  0  0  0  0  0  0  0  0  0  0  0
  151.0010  138.2219  156.8891 H   0  0  0  0  0  0  0  0  0  0  0  0
  149.0193  137.8072  155.5425 H   0  0  0  0  0  0  0  0  0  0  0  0
  148.5516  138.8093  156.8969 H   0  0  0  0  0  0  0  0  0  0  0  0
  147.6909  138.6035  153.5294 H   0  0  0  0  0  0  0  0  0  0  0  0
  147.0164  141.0452  152.5128 H   0  0  0  0  0  0  0  0  0  0  0  0
  148.0789  142.8071  154.3692 H   0  0  0  0  0  0  0  0  0  0  0  0
  149.9527  140.9098  157.1045 H   0  0  0  0  0  0  0  0  0  0  0  0
  150.8479  141.8905  159.2811 H   0  0  0  0  0  0  0  0  0  0  0  0
  152.1715  143.1305  156.8153 H   0  0  0  0  0  0  0  0  0  0  0  0
  150.4698  143.0899  157.2317 H   0  0  0  0  0  0  0  0  0  0  0  0
  151.2402  145.3553  157.8373 H   0  0  0  0  0  0  0  0  0  0  0  0
  152.2754  145.6112  160.0075 H   0  0  0  0  0  0  0  0  0  0  0  0
  153.7676  143.7688  160.7485 H   0  0  0  0  0  0  0  0  0  0  0  0
  152.1449  143.2776  161.1919 H   0  0  0  0  0  0  0  0  0  0  0  0
  153.1513  141.3477  160.1306 H   0  0  0  0  0  0  0  0  0  0  0  0
  153.8319  142.3136  158.8439 H   0  0  0  0  0  0  0  0  0  0  0  0
  1  2  1  0  0  0  0
  1 18  1  0  0  0  0
  1 19  1  0  0  0  0
  1 20  1  0  0  0  0
  2  3  1  0  0  0  0
  2  9  1  0  0  0  0
  2 21  1  0  0  0  0
  3  4  1  0  0  0  0
  3 22  1  0  0  0  0
  3 23  1  0  0  0  0
  4  8  1  0  0  0  0
  4  5  1  0  0  0  0
  5  6  2  0  0  0  0
  5 24  1  0  0  0  0
  6  7  1  0  0  0  0
  6 25  1  0  0  0  0
  7  8  2  0  0  0  0
  7 26  1  0  0  0  0
  9 10  1  0  0  0  0
  9 27  1  0  0  0  0
 10 11  2  0  0  0  0
 10 12  1  0  0  0  0
 12 17  1  0  0  0  0
 12 13  1  0  0  0  0
 12 28  1  0  0  0  0
 13 14  1  0  0  0  0
 13 29  1  0  0  0  0
 13 30  1  0  0  0  0
 14 15  2  0  0  0  0
 14 31  1  0  0  0  0
 15 16  1  0  0  0  0
 15 32  1  0  0  0  0
 16 17  1  0  0  0  0
 16 33  1  0  0  0  0
 16 34  1  0  0  0  0
 17 35  1  0  0  0  0
 17 36  1  0  0  0  0
M  END
> <s_m_source_file>
AV-unprocessed.smi

> <i_m_source_file_index>
1360

> <i_lp_mmshare_version>
43012

> <i_f3d_flags>
0

> <s_epik_input>
bjFbY0hdW2NIXVtjSF1uMVtDSDJdW0NAQEhdKFtDSDNdKVtOSF1DKD1PKVtDQEBIXTJbQ0gyXVtDSF09W0NIXVtDSDJdW0NIMl0y

> <s_epik_cmdline>
J2VwaWtfcHl0aG9uJywgJy1waCcsICc3LjAnLCAnLXRuJywgJzgnLCAnLW1hJywgJzIwMCcsICctbWV0YWxfYmluZGluZycsICctaW1hZScsICc8aW5maWxlLm1hZT4nLCAnLW9tYWUnLCAnPG91dGZpbGUubWFlPic=

> <r_lp_tautomer_probability>
1

> <r_epik_Ionization_Penalty>
0.000315076

> <r_epik_Ionization_Penalty_Charging>
0

> <r_epik_Ionization_Penalty_Neutral>
0.000315076

> <r_epik_State_Penalty>
-0

> <r_epik_Charging_Adjusted_Penalty>
0

> <i_epik_Tot_Q>
0

> <i_epik_Tot_abs_Q>
0

> <r_epik_Metal_State_Penalty>
-0

> <b_epik_Metal_Only>
0

> <s_lp_Force_Field>
OPLS_2005

> <r_lp_Energy>
8.39031

> <b_lp_Chiralities_Consistent>
1

> <s_lp_Variant>
AV-unprocessed.smi:1360-1

> <Gold.Version>
5.8.1

> <Gold.Id.Protein>
6NUR|6NUR_protein|mol2

> <Gold.PLP.Fitness>
40.8300

> <Gold.PLP.PLP>
-35.4403

> <Gold.PLP.part.hbond>
-1.0000

> <Gold.PLP.part.metal>
0.0000

> <Gold.PLP.part.buried>
-3.2998

> <Gold.PLP.part.nonpolar>
-31.9662

> <Gold.PLP.part.repulsive>
0.1403

> <Gold.PLP.ligand.clash>
0.0000

> <Gold.PLP.ligand.torsion>
0.3202

> <Gold.PLP.Chemscore.Hbond>
1.0000

> <Gold.PLP.Chemscore.CHOScore>
1.0000

> <Gold.PLP.Chemscore.Metal>
0.0000

> <Gold.Chemscore.Hbonds>
donor molecule, donor type, donor heavy atom, donor atom, acceptor molecule, acceptor atom, score
      P1  H  7997  8010       L1    11  1.00
      L1  C     7    26       P1  8028  1.00

> <Gold.PLP.Chemscore.Internal.Correction>
0.0300

> <Gold.Rescore>
     Score         DG    S(hbond)    S(metal)    S(lipo)     H(rot)  DE(clash)    DE(int)     intcor
     16.95     -17.30       0.99        0.00     105.81       1.51       0.07       0.28       ----

> <Gold.Chemscore.Fitness>
16.9498

> <Gold.Chemscore.DG>
-17.3039

> <Gold.Chemscore.ZeroCoef>
-5.4800

> <Gold.Chemscore.Hbond>
0.9878

> <Gold.Chemscore.Metal>
0.0000

> <Gold.Chemscore.Lipo>
105.8050

> <Gold.Chemscore.Internal_Hbond>
0.0000

> <Gold.Chemscore.DEClash>
0.0743

> <Gold.Chemscore.DEInternal>
0.2798

> <Gold.Chemscore.Rot>
1.5057

> <Gold.Chemscore.Internal.Correction>
   9.000000E+99

> <Gold.Chemscore.Hbonds>
donor molecule, donor type, donor heavy atom, donor atom, acceptor molecule, acceptor atom, score
      P1  H  7997  8010       L1    11  0.98

> <Gold.Chemscore.Hbond.Weighted>
-3.2994

> <Gold.Chemscore.Metal.Weighted>
-0.0000

> <Gold.Chemscore.Lipo.Weighted>
-12.3792

> <Gold.Chemscore.Internal_Hbond.Weighted>
0.0000

> <Gold.Chemscore.DEClash.Weighted>
0.0743

> <Gold.Chemscore.DEInternal.Weighted>
0.2798

> <Gold.Chemscore.Rot.Weighted>
3.8546

> <Gold.Chemscore.Internal.Correction.Weighted>
   9.000000E+99

> <Gold.Protein.RotatedTorsions>
[ 6907 6896 6895 6894 ] final -102.10 input  -60.11 | X-H torsion
[ 7974 7965 7964 7962 ] final  145.42 input  175.53 | X-H torsion
[ 8008 7997 7996 7995 ] final   43.84 input   59.86 | X-H torsion
[ 10167 10162 10161 10158 ] final  135.34 input  -65.29 | X-H torsion
[ 10718 10713 10712 10709 ] final -178.85 input   66.30 | X-H torsion
[ 10763 10752 10751 10750 ] final  -55.62 input  -60.55 | X-H torsion
[ 11005 11000 10999 10996 ] final  126.35 input  -57.11 | X-H torsion

> <Gold.Protein.ActiveResidues>
 VAL166  LYS551  ARG553  GLY616  TRP617  ASP618  TYR619  PRO620  LYS621  CYS622 
 ASP623  PHE694  ASN695  SER759  ASP760  ASP761  ALA762  ILE779  LEU786  VAL792 
 PHE793  MET794  SER795  GLU796  ALA797  LYS798  CYS799  TRP800  GLU811  SER814 

> <Gold.Protein.RotatedAtoms>
  150.7182  134.0633  159.3838 H   0  0  0  0  0  0  0  0  0  0  0  0  # atno 6907 bound_to 6896
  151.8613  135.0521  160.0479 H   0  0  0  0  0  0  0  0  0  0  0  0  # atno 6908 bound_to 6896
  152.2715  133.5351  159.5478 H   0  0  0  0  0  0  0  0  0  0  0  0  # atno 6909 bound_to 6896
  144.8754  139.5781  143.5867 H   0  0  0  0  0  0  0  0  0  0  0  0  # atno 7974 bound_to 7965
  155.3095  140.3390  155.4244 H   0  0  0  0  0  0  0  0  0  0  0  0  # atno 8008 bound_to 7997
  156.1963  140.1716  156.8030 H   0  0  0  0  0  0  0  0  0  0  0  0  # atno 8009 bound_to 7997
  154.5502  140.0707  156.8640 H   0  0  0  0  0  0  0  0  0  0  0  0  # atno 8010 bound_to 7997
  139.5221  144.6521  151.5270 H   0  0  0  0  0  0  0  0  0  0  0  0  # atno 10167 bound_to 10162
  156.8503  130.9717  151.3093 H   0  0  0  0  0  0  0  0  0  0  0  0  # atno 10718 bound_to 10713
  154.1936  135.6423  153.5067 H   0  0  0  0  0  0  0  0  0  0  0  0  # atno 10763 bound_to 10752
  153.0029  135.5434  154.6389 H   0  0  0  0  0  0  0  0  0  0  0  0  # atno 10764 bound_to 10752
  154.5784  135.2923  155.0730 H   0  0  0  0  0  0  0  0  0  0  0  0  # atno 10765 bound_to 10752
  139.9452  134.9630  156.8694 H   0  0  0  0  0  0  0  0  0  0  0  0  # atno 11005 bound_to 11000
  146.2959  139.7277  142.9127 LP  0  0  0  0  0  0  0  0  0  0  0  0  # atno 17320 bound_to 7965
  145.4052  141.0390  143.3048 LP  0  0  0  0  0  0  0  0  0  0  0  0  # atno 17321 bound_to 7965
  140.6331  143.9037  150.6623 LP  0  0  0  0  0  0  0  0  0  0  0  0  # atno 17342 bound_to 10162
  140.2347  143.3709  152.1536 LP  0  0  0  0  0  0  0  0  0  0  0  0  # atno 17343 bound_to 10162
  157.6307  130.8727  149.9268 LP  0  0  0  0  0  0  0  0  0  0  0  0  # atno 17370 bound_to 10713
  156.0832  130.3671  150.0540 LP  0  0  0  0  0  0  0  0  0  0  0  0  # atno 17371 bound_to 10713
  140.5853  134.0313  155.7479 LP  0  0  0  0  0  0  0  0  0  0  0  0  # atno 17394 bound_to 11000
  141.1100  133.9632  157.2928 LP  0  0  0  0  0  0  0  0  0  0  0  0  # atno 17395 bound_to 11000

$$$$
