AV-unprocessed.smi:2061|AV-procd|sdf|8394|dock8
  -GOLD-   2272011 83D 1   1.00000     0.00000
 Structure written by MMmdl.
 45 46  0  0  0  0  0  0  0  0  3 V2000
  150.1872  140.4855  155.9191 C   0  0  0  0  0  0  0  0  0  0  0  0
  150.1645  138.9973  155.8468 C   0  0  0  0  0  0  0  0  0  0  0  0
  149.3948  138.1114  155.1468 C   0  0  0  0  0  0  0  0  0  0  0  0
  149.9075  136.8498  155.5513 C   0  0  0  0  0  0  0  0  0  0  0  0
  149.3588  135.6452  155.0359 N   0  0  0  0  0  0  0  0  0  0  0  0
  149.6162  134.3769  155.4055 C   0  0  0  0  0  0  0  0  0  0  0  0
  150.4353  134.1431  156.3023 O   0  0  0  0  0  0  0  0  0  0  0  0
  148.8887  133.4734  154.6926 N   0  5  0  0  0  0  0  0  0  0  0  0
  148.5262  133.6345  153.2844 C   0  0  0  0  0  0  0  0  0  0  0  0
  146.9797  133.6144  153.1053 C   0  0  2  0  0  0  0  0  0  0  0  0
  146.4392  132.1554  153.1494 C   0  0  0  0  0  0  0  0  0  0  0  0
  146.6071  134.3766  151.8604 N   0  3  1  0  0  0  0  0  0  0  0  0
  146.4635  133.6176  150.5869 C   0  0  0  0  0  0  0  0  0  0  0  0
  145.1001  132.8983  150.5030 C   0  0  2  0  0  0  0  0  0  0  0  0
  144.9123  132.1767  149.1643 C   0  0  0  0  0  0  0  0  0  0  0  0
  144.0641  133.8640  150.6315 O   0  0  0  0  0  0  0  0  0  0  0  0
  144.0989  134.5382  151.8837 C   0  0  2  0  0  0  0  0  0  0  0  0
  142.8966  135.4868  151.9429 C   0  0  0  0  0  0  0  0  0  0  0  0
  145.4388  135.2930  152.0137 C   0  0  0  0  0  0  0  0  0  0  0  0
  150.9038  136.9585  156.4178 N   0  0  0  0  0  0  0  0  0  0  0  0
  151.0735  138.3344  156.6114 O   0  0  0  0  0  0  0  0  0  0  0  0
  149.2791  140.9100  155.4909 H   0  0  0  0  0  0  0  0  0  0  0  0
  151.0396  140.8851  155.3699 H   0  0  0  0  0  0  0  0  0  0  0  0
  150.2617  140.8221  156.9533 H   0  0  0  0  0  0  0  0  0  0  0  0
  148.5925  138.3317  154.4583 H   0  0  0  0  0  0  0  0  0  0  0  0
  148.6770  135.7567  154.3005 H   0  0  0  0  0  0  0  0  0  0  0  0
  148.9174  134.5753  152.8956 H   0  0  0  0  0  0  0  0  0  0  0  0
  148.9640  132.8580  152.6557 H   0  0  0  0  0  0  0  0  0  0  0  0
  146.5297  134.1352  153.9515 H   0  0  0  0  0  0  0  0  0  0  0  0
  146.7027  131.6433  154.0773 H   0  0  0  0  0  0  0  0  0  0  0  0
  146.8174  131.5443  152.3274 H   0  0  0  0  0  0  0  0  0  0  0  0
  145.3521  132.1210  153.1100 H   0  0  0  0  0  0  0  0  0  0  0  0
  146.5257  134.3396  149.7713 H   0  0  0  0  0  0  0  0  0  0  0  0
  147.2939  132.9344  150.4142 H   0  0  0  0  0  0  0  0  0  0  0  0
  144.9989  132.1657  151.3039 H   0  0  0  0  0  0  0  0  0  0  0  0
  145.6753  131.4111  149.0208 H   0  0  0  0  0  0  0  0  0  0  0  0
  144.9746  132.8730  148.3276 H   0  0  0  0  0  0  0  0  0  0  0  0
  143.9391  131.6875  149.1187 H   0  0  0  0  0  0  0  0  0  0  0  0
  143.9970  133.8079  152.6877 H   0  0  0  0  0  0  0  0  0  0  0  0
  142.8661  136.0220  152.8923 H   0  0  0  0  0  0  0  0  0  0  0  0
  141.9608  134.9367  151.8418 H   0  0  0  0  0  0  0  0  0  0  0  0
  142.9361  136.2262  151.1423 H   0  0  0  0  0  0  0  0  0  0  0  0
  145.4750  135.8354  152.9587 H   0  0  0  0  0  0  0  0  0  0  0  0
  145.5027  136.0518  151.2325 H   0  0  0  0  0  0  0  0  0  0  0  0
  147.4075  134.9747  151.7113 H   0  0  0  0  0  0  0  0  0  0  0  0
  1  2  1  0  0  0  0
  1 22  1  0  0  0  0
  1 23  1  0  0  0  0
  1 24  1  0  0  0  0
  2 21  1  0  0  0  0
  2  3  2  0  0  0  0
  3  4  1  0  0  0  0
  3 25  1  0  0  0  0
  4  5  1  0  0  0  0
  4 20  2  0  0  0  0
  5  6  1  0  0  0  0
  5 26  1  0  0  0  0
  6  7  2  0  0  0  0
  6  8  1  0  0  0  0
  8  9  1  0  0  0  0
  9 10  1  0  0  0  0
  9 27  1  0  0  0  0
  9 28  1  0  0  0  0
 10 11  1  0  0  0  0
 10 12  1  0  0  0  0
 10 29  1  0  0  0  0
 11 30  1  0  0  0  0
 11 31  1  0  0  0  0
 11 32  1  0  0  0  0
 12 19  1  0  0  0  0
 12 13  1  0  0  0  0
 12 45  1  0  0  0  0
 13 14  1  0  0  0  0
 13 33  1  0  0  0  0
 13 34  1  0  0  0  0
 14 15  1  0  0  0  0
 14 16  1  0  0  0  0
 14 35  1  0  0  0  0
 15 36  1  0  0  0  0
 15 37  1  0  0  0  0
 15 38  1  0  0  0  0
 16 17  1  0  0  0  0
 17 18  1  0  0  0  0
 17 19  1  0  0  0  0
 17 39  1  0  0  0  0
 18 40  1  0  0  0  0
 18 41  1  0  0  0  0
 18 42  1  0  0  0  0
 19 43  1  0  0  0  0
 19 44  1  0  0  0  0
 20 21  1  0  0  0  0
M  CHG  1   8  -1
M  CHG  1  12   1
M  END
> <s_m_source_file>
AV-unprocessed.smi

> <i_m_source_file_index>
2061

> <i_lp_mmshare_version>
43012

> <i_f3d_flags>
0

> <s_epik_input>
W0NIM11jMVtjSF1jKG5vMSlbTkhdQyg9TylbTkhdW0NIMl1bQ0BIXShbQ0gzXSlOMltDSDJdW0NAQEhdKFtDSDNdKU9bQ0BASF0oW0NIM10pW0NIMl0y

> <s_epik_cmdline>
J2VwaWtfcHl0aG9uJywgJy1waCcsICc3LjAnLCAnLXRuJywgJzgnLCAnLW1hJywgJzIwMCcsICctbWV0YWxfYmluZGluZycsICctaW1hZScsICc8aW5maWxlLm1hZT4nLCAnLW9tYWUnLCAnPG91dGZpbGUubWFlPic=

> <r_epik_Ionization_Penalty>
6.8073

> <r_epik_Ionization_Penalty_Charging>
6.80729

> <r_epik_Ionization_Penalty_Neutral>
5.65391e-06

> <r_epik_State_Penalty>
7.47323

> <r_epik_Charging_Adjusted_Penalty>
14.2805

> <i_epik_Tot_Q>
0

> <i_epik_Tot_abs_Q>
2

> <r_epik_Metal_State_Penalty>
3.40035

> <b_epik_Metal_Only>
1

> <s_lp_Force_Field>
OPLS_2005

> <r_lp_Energy>
21.662

> <b_lp_Chiralities_Consistent>
1

> <s_lp_Variant>
AV-unprocessed.smi:2061-35

> <Gold.Version>
5.8.1

> <Gold.Id.Protein>
6NUR|6NUR_protein|mol2

> <Gold.PLP.Fitness>
41.0823

> <Gold.PLP.PLP>
-33.7238

> <Gold.PLP.part.hbond>
-3.8083

> <Gold.PLP.part.metal>
0.0000

> <Gold.PLP.part.buried>
-3.0066

> <Gold.PLP.part.nonpolar>
-27.8370

> <Gold.PLP.part.repulsive>
0.4281

> <Gold.PLP.ligand.clash>
0.0000

> <Gold.PLP.ligand.torsion>
1.4513

> <Gold.PLP.Chemscore.Hbond>
3.3822

> <Gold.PLP.Chemscore.CHOScore>
0.0000

> <Gold.PLP.Chemscore.Metal>
0.0000

> <Gold.Chemscore.Hbonds>
donor molecule, donor type, donor heavy atom, donor atom, acceptor molecule, acceptor atom, score
      L1  H    12    45       P1  7948  2.00

> <Gold.PLP.Chemscore.Internal.Correction>
0.1146

> <Gold.Rescore>
     Score         DG    S(hbond)    S(metal)    S(lipo)     H(rot)  DE(clash)    DE(int)     intcor
     14.51     -16.53       1.82        0.00      76.43       1.56       0.17       1.86       ----

> <Gold.Chemscore.Fitness>
14.5060

> <Gold.Chemscore.DG>
-16.5281

> <Gold.Chemscore.ZeroCoef>
-5.4800

> <Gold.Chemscore.Hbond>
1.8223

> <Gold.Chemscore.Metal>
0.0000

> <Gold.Chemscore.Lipo>
76.4312

> <Gold.Chemscore.Internal_Hbond>
0.0000

> <Gold.Chemscore.DEClash>
0.1652

> <Gold.Chemscore.DEInternal>
1.8569

> <Gold.Chemscore.Rot>
1.5550

> <Gold.Chemscore.Internal.Correction>
   9.000000E+99

> <Gold.Chemscore.Hbonds>
donor molecule, donor type, donor heavy atom, donor atom, acceptor molecule, acceptor atom, score
      L1  H     5    26       P1  7948  0.01
      L1  H    12    45       P1  7948  0.78

> <Gold.Chemscore.Hbond.Weighted>
-6.0866

> <Gold.Chemscore.Metal.Weighted>
-0.0000

> <Gold.Chemscore.Lipo.Weighted>
-8.9424

> <Gold.Chemscore.Internal_Hbond.Weighted>
0.0000

> <Gold.Chemscore.DEClash.Weighted>
0.1652

> <Gold.Chemscore.DEInternal.Weighted>
1.8569

> <Gold.Chemscore.Rot.Weighted>
3.9809

> <Gold.Chemscore.Internal.Correction.Weighted>
   9.000000E+99

> <Gold.Protein.RotatedTorsions>
[ 6907 6896 6895 6894 ] final  -82.73 input  -60.11 | X-H torsion
[ 7974 7965 7964 7962 ] final -177.25 input  175.53 | X-H torsion
[ 8008 7997 7996 7995 ] final   87.05 input   59.86 | X-H torsion
[ 10167 10162 10161 10158 ] final  -64.64 input  -65.29 | X-H torsion
[ 10718 10713 10712 10709 ] final  -83.70 input   66.30 | X-H torsion
[ 10763 10752 10751 10750 ] final   96.98 input  -60.55 | X-H torsion
[ 11005 11000 10999 10996 ] final -104.77 input  -57.11 | X-H torsion

> <Gold.Protein.ActiveResidues>
 VAL166  LYS551  ARG553  GLY616  TRP617  ASP618  TYR619  PRO620  LYS621  CYS622 
 ASP623  PHE694  ASN695  SER759  ASP760  ASP761  ALA762  ILE779  LEU786  VAL792 
 PHE793  MET794  SER795  GLU796  ALA797  LYS798  CYS799  TRP800  GLU811  SER814 

> <Gold.Protein.RotatedAtoms>
  150.6894  134.3620  159.4954 H   0  0  0  0  0  0  0  0  0  0  0  0  # atno 6907 bound_to 6896
  152.1448  134.9032  160.0561 H   0  0  0  0  0  0  0  0  0  0  0  0  # atno 6908 bound_to 6896
  152.0152  133.3842  159.4272 H   0  0  0  0  0  0  0  0  0  0  0  0  # atno 6909 bound_to 6896
  144.7127  140.1047  143.6414 H   0  0  0  0  0  0  0  0  0  0  0  0  # atno 7974 bound_to 7965
  155.9705  140.3386  155.6572 H   0  0  0  0  0  0  0  0  0  0  0  0  # atno 8008 bound_to 7997
  155.6680  140.0723  157.2548 H   0  0  0  0  0  0  0  0  0  0  0  0  # atno 8009 bound_to 7997
  154.4165  140.1696  156.1836 H   0  0  0  0  0  0  0  0  0  0  0  0  # atno 8010 bound_to 7997
  140.5786  143.2324  151.6389 H   0  0  0  0  0  0  0  0  0  0  0  0  # atno 10167 bound_to 10162
  156.0015  130.4674  150.4298 H   0  0  0  0  0  0  0  0  0  0  0  0  # atno 10718 bound_to 10713
  153.2714  135.4199  155.0992 H   0  0  0  0  0  0  0  0  0  0  0  0  # atno 10763 bound_to 10752
  154.8457  135.3473  154.6238 H   0  0  0  0  0  0  0  0  0  0  0  0  # atno 10764 bound_to 10752
  153.6658  135.7046  153.5220 H   0  0  0  0  0  0  0  0  0  0  0  0  # atno 10765 bound_to 10752
  141.1085  133.8751  157.1652 H   0  0  0  0  0  0  0  0  0  0  0  0  # atno 11005 bound_to 11000
  145.9507  139.2731  143.1214 LP  0  0  0  0  0  0  0  0  0  0  0  0  # atno 17320 bound_to 7965
  145.9326  140.9037  143.0348 LP  0  0  0  0  0  0  0  0  0  0  0  0  # atno 17321 bound_to 7965
  139.5157  144.3371  152.0774 LP  0  0  0  0  0  0  0  0  0  0  0  0  # atno 17342 bound_to 10162
  140.2518  144.4161  150.6219 LP  0  0  0  0  0  0  0  0  0  0  0  0  # atno 17343 bound_to 10162
  157.2348  131.0512  151.2471 LP  0  0  0  0  0  0  0  0  0  0  0  0  # atno 17370 bound_to 10713
  157.3677  130.7164  149.6544 LP  0  0  0  0  0  0  0  0  0  0  0  0  # atno 17371 bound_to 10713
  139.9967  135.0044  157.0097 LP  0  0  0  0  0  0  0  0  0  0  0  0  # atno 17394 bound_to 11000
  140.4839  134.1262  155.7221 LP  0  0  0  0  0  0  0  0  0  0  0  0  # atno 17395 bound_to 11000

$$$$
