#       Name:                AV-unprocessed.smi:2353
#       Creating user name   scv26
#       Creation time:       Fri Mar 27 13:01:14 2020


#       File generated by GOLD software.
#

@<TRIPOS>MOLECULE
AV-unprocessed.smi:2353
    53    55     1
SMALL
NO_CHARGES


@<TRIPOS>ATOM
      1 ****        -6.5768  -0.4945   0.9536 C.3            1 S1                 0.0000
      2 ****        -5.5767   0.6430   0.9775 C.ar           1 S1                 0.0000
      3 ****        -6.0081   1.9646   1.2017 C.ar           1 S1                 0.0000
      4 ****        -5.0718   3.0137   1.2276 C.ar           1 S1                 0.0000
      5 ****        -3.7009   2.7494   1.0286 C.ar           1 S1                 0.0000
      6 ****        -2.7053   3.8940   1.0575 C.3            1 S1                 0.0000
      7 ****        -3.2542   1.4272   0.7999 C.ar           1 S1                 0.0000
      8 ****        -1.9005   1.2385   0.6106 O.3            1 S1                 0.0000
      9 ****        -1.4296  -0.0709   0.3214 C.3            1 S1                 0.0000
     10 ****         0.0937  -0.0135   0.1185 C.3            1 S1                 0.0000
     11 ****         0.3242   0.4857  -1.1853 O.3            1 S1                 0.0000
     12 ****         0.7395  -1.4141   0.2087 C.3            1 S1                 0.0000
     13 ****         2.1851  -1.3371   0.4517 N.am           1 S1                 0.0000
     14 ****         2.9537  -1.4473  -0.6934 N.2            1 S1                 0.0000
     15 ****         4.2449  -1.3784  -0.6360 C.2            1 S1                 0.0000
     16 ****         5.0972  -1.4776  -1.8090 N.pl3          1 S1                 0.0000
     17 ****         6.4668  -1.4343  -1.9151 C.2            1 S1                 0.0000
     18 ****         6.7517  -1.5728  -3.2497 C.2            1 S1                 0.0000
     19 ****         5.5506  -1.6940  -3.8976 N.pl3          1 S1                 1.0000
     20 ****         4.5417  -1.6356  -3.0213 C.2            1 S1                 0.0000
     21 ****         4.9029  -1.1925   0.6482 C.2            1 S1                 0.0000
     22 ****         4.1440  -1.0861   1.7602 C.2            1 S1                 0.0000
     23 ****         2.6844  -1.1513   1.7093 C.2            1 S1                 0.0000
     24 ****         1.9695  -1.0438   2.7051 O.2            1 S1                 0.0000
     25 ****        -4.2070   0.3767   0.7783 C.ar           1 S1                 0.0000
     26 ****        -7.6019  -0.1225   0.9421 H              1 S1                 0.0000
     27 ****        -6.4517  -1.1238   1.8349 H              1 S1                 0.0000
     28 ****        -6.4302  -1.1116   0.0668 H              1 S1                 0.0000
     29 ****        -7.0557   2.1790   1.3554 H              1 S1                 0.0000
     30 ****        -5.4116   4.0243   1.4011 H              1 S1                 0.0000
     31 ****        -2.2157   3.9919   0.0881 H              1 S1                 0.0000
     32 ****        -1.9400   3.7125   1.8126 H              1 S1                 0.0000
     33 ****        -3.1919   4.8418   1.2896 H              1 S1                 0.0000
     34 ****        -1.6574  -0.7102   1.1757 H              1 S1                 0.0000
     35 ****        -1.9231  -0.4946  -0.5554 H              1 S1                 0.0000
     36 ****         0.5329   0.6573   0.8582 H              1 S1                 0.0000
     37 ****        -0.1364  -0.0622  -1.8022 H              1 S1                 0.0000
     38 ****         0.2812  -1.9835   1.0194 H              1 S1                 0.0000
     39 ****         0.5264  -1.9945  -0.6913 H              1 S1                 0.0000
     40 ****         7.1309  -1.3130  -1.0726 H              1 S1                 0.0000
     41 ****         7.6963  -1.5937  -3.7736 H              1 S1                 0.0000
     42 ****         3.4947  -1.7032  -3.2607 H              1 S1                 0.0000
     43 ****         5.9769  -1.1376   0.7303 H              1 S1                 0.0000
     44 ****         4.6271  -0.9474   2.7164 H              1 S1                 0.0000
     45 ****        -3.9096  -0.6475   0.6115 H              1 S1                 0.0000
     46 ****         5.4395  -1.8102  -4.8972 H              1 S1                 0.0000
     47 ****        -1.4413   1.5388   1.4466 LP             1 S1                 0.0000
     48 ****        -1.6247   1.8256  -0.1505 LP             1 S1                 0.0000
     49 ****         1.3040   0.4683  -1.3848 LP             1 S1                 0.0000
     50 ****        -0.0127   1.4249  -1.2513 LP             1 S1                 0.0000
     51 ****         2.5057  -1.5820  -1.5772 LP             1 S1                 0.0000
     52 ****         0.9748  -1.0915   2.6140 LP             1 S1                 0.0000
     53 ****         2.3832  -0.9088   3.6054 LP             1 S1                 0.0000
@<TRIPOS>BOND
    1    1    2 1     
    2    1   26 1     
    3    1   27 1     
    4    1   28 1     
    5    2   25 ar    
    6    2    3 ar    
    7    3    4 ar    
    8    3   29 1     
    9    4    5 ar    
   10    4   30 1     
   11    5    6 1     
   12    5    7 ar    
   13    6   31 1     
   14    6   32 1     
   15    6   33 1     
   16    7    8 1     
   17    7   25 ar    
   18    8    9 1     
   19    9   10 1     
   20    9   34 1     
   21    9   35 1     
   22   10   11 1     
   23   10   12 1     
   24   10   36 1     
   25   11   37 1     
   26   12   13 1     
   27   12   38 1     
   28   12   39 1     
   29   13   23 am    
   30   13   14 1     
   31   14   15 2     
   32   15   16 1     
   33   15   21 1     
   34   16   20 1     
   35   16   17 1     
   36   17   18 2     
   37   17   40 1     
   38   18   19 1     
   39   18   41 1     
   40   19   20 2     
   41   19   46 1     
   42   20   42 1     
   43   21   22 2     
   44   21   43 1     
   45   22   23 1     
   46   22   44 1     
   47   23   24 2     
   48   25   45 1     
   49    8   47 1     
   50    8   48 1     
   51   11   49 1     
   52   11   50 1     
   53   14   51 1     
   54   24   52 1     
   55   24   53 1     
@<TRIPOS>SUBSTRUCTURE
      1 S1             1
@<TRIPOS>SET
LONE_PAIRS      STATIC     ATOMS    <user>   **** ""
7 47 48 49 50 51 52 53
DONOR_HYDROGENS      STATIC     ATOMS    <user>   **** ""
2 37 46
ATOM$BLUE        STATIC     ATOMS    COLORGROUP SYSTEM
7 47 48 49 50 51 52 53
ATOM$RED        STATIC     ATOMS    COLORGROUP SYSTEM
2 37 46
