#       Name:                AV-unprocessed.smi:987
#       Creating user name   scv26
#       Creation time:       Fri Mar 27 02:22:48 2020


#       File generated by GOLD software.
#

@<TRIPOS>MOLECULE
AV-unprocessed.smi:987
    58    60     1
SMALL
NO_CHARGES


@<TRIPOS>ATOM
      1 ****        -6.1003   1.2720   1.9393 C.3            1 S1                 0.0000
      2 ****        -5.4804   0.1675   1.0768 C.3            1 S1                 0.0000
      3 ****        -3.9956   0.4381   0.7711 C.3            1 S1                 0.0000
      4 ****        -3.4697  -0.5734  -0.1432 N.3            1 S1                 0.0000
      5 ****        -2.0713  -0.6397  -0.3251 C.ar           1 S1                 0.0000
      6 ****        -1.4926  -1.7396  -1.0009 C.ar           1 S1                 0.0000
      7 ****        -0.0958  -1.7841  -1.1695 C.ar           1 S1                 0.0000
      8 ****         0.6930  -0.7306  -0.6688 C.ar           1 S1                 0.0000
      9 ****         2.1020  -0.8127  -0.8348 N.am           1 S1                 0.0000
     10 ****         3.0108   0.1755  -0.7727 C.2            1 S1                 0.0000
     11 ****         2.7548   1.3679  -0.6067 O.2            1 S1                 0.0000
     12 ****         4.2532  -0.3015  -0.9326 N.am           1 S1                 0.0000
     13 ****         5.4816   0.4889  -0.9110 C.3            1 S1                 0.0000
     14 ****         6.1950   0.3994   0.4455 C.3            1 S1                 0.0000
     15 ****         6.8554  -0.8515   0.4310 O.3            1 S1                 0.0000
     16 ****         7.1168   1.5691   0.8349 C.3            1 S1                 0.0000
     17 ****         6.6076   1.4636   2.2736 C.3            1 S1                 0.0000
     18 ****         5.4014   0.6942   1.7330 C.3            1 S1                 0.0000
     19 ****         0.0293   0.3202   0.0074 C.ar           1 S1                 0.0000
     20 ****        -1.3094   0.3647   0.1734 N.ar           1 S1                 0.0000
     21 ****        -4.2750  -0.7322  -1.3511 C.3            1 S1                 0.0000
     22 ****        -5.7530  -0.9665  -0.9850 C.3            1 S1                 0.0000
     23 ****        -6.6518  -1.0180  -2.2248 C.3            1 S1                 0.0000
     24 ****        -6.2043   0.0955  -0.1486 O.3            1 S1                 0.0000
     25 ****        -5.5824   1.3604   2.8946 H              1 S1                 0.0000
     26 ****        -7.1492   1.0614   2.1486 H              1 S1                 0.0000
     27 ****        -6.0478   2.2395   1.4392 H              1 S1                 0.0000
     28 ****        -5.5790  -0.7818   1.6065 H              1 S1                 0.0000
     29 ****        -3.8766   1.4251   0.3216 H              1 S1                 0.0000
     30 ****        -3.4284   0.4330   1.7029 H              1 S1                 0.0000
     31 ****        -2.0972  -2.5523  -1.3748 H              1 S1                 0.0000
     32 ****         0.3610  -2.6203  -1.6784 H              1 S1                 0.0000
     33 ****         2.4581  -1.7286  -1.0657 H              1 S1                 0.0000
     34 ****         4.3644  -1.2961  -1.0646 H              1 S1                 0.0000
     35 ****         6.1283   0.1412  -1.7180 H              1 S1                 0.0000
     36 ****         5.2570   1.5286  -1.1541 H              1 S1                 0.0000
     37 ****         7.3183  -0.9280   1.2514 H              1 S1                 0.0000
     38 ****         8.1836   1.3720   0.7220 H              1 S1                 0.0000
     39 ****         6.8365   2.5113   0.3614 H              1 S1                 0.0000
     40 ****         7.2513   0.8498   2.9054 H              1 S1                 0.0000
     41 ****         6.3663   2.4174   2.7432 H              1 S1                 0.0000
     42 ****         4.5400   1.3424   1.5665 H              1 S1                 0.0000
     43 ****         5.1298  -0.1853   2.3177 H              1 S1                 0.0000
     44 ****         0.5645   1.1435   0.4536 H              1 S1                 0.0000
     45 ****        -4.1765   0.1697  -1.9567 H              1 S1                 0.0000
     46 ****        -3.9244  -1.5626  -1.9622 H              1 S1                 0.0000
     47 ****        -5.8518  -1.9114  -0.4476 H              1 S1                 0.0000
     48 ****        -6.3522  -1.8261  -2.8926 H              1 S1                 0.0000
     49 ****        -6.6046  -0.0844  -2.7861 H              1 S1                 0.0000
     50 ****        -7.6917  -1.1868  -1.9447 H              1 S1                 0.0000
     51 ****        -3.5945  -1.4182   0.3770 LP             1 S1                 0.0000
     52 ****         1.8057   1.6662  -0.5056 LP             1 S1                 0.0000
     53 ****         3.4959   2.0385  -0.5729 LP             1 S1                 0.0000
     54 ****         7.5002  -0.8909  -0.3324 LP             1 S1                 0.0000
     55 ****         6.1884  -1.5912   0.3425 LP             1 S1                 0.0000
     56 ****        -1.7341   1.1293   0.6582 LP             1 S1                 0.0000
     57 ****        -6.0926   0.9600  -0.6388 LP             1 S1                 0.0000
     58 ****        -7.1721  -0.0477   0.0582 LP             1 S1                 0.0000
@<TRIPOS>BOND
    1    1    2 1     
    2    1   25 1     
    3    1   26 1     
    4    1   27 1     
    5    2   24 1     
    6    2    3 1     
    7    2   28 1     
    8    3    4 1     
    9    3   29 1     
   10    3   30 1     
   11    4    5 1     
   12    4   21 1     
   13    5   20 ar    
   14    5    6 ar    
   15    6    7 ar    
   16    6   31 1     
   17    7    8 ar    
   18    7   32 1     
   19    8    9 1     
   20    8   19 ar    
   21    9   10 am    
   22    9   33 1     
   23   10   11 2     
   24   10   12 am    
   25   12   13 1     
   26   12   34 1     
   27   13   14 1     
   28   13   35 1     
   29   13   36 1     
   30   14   18 1     
   31   14   15 1     
   32   14   16 1     
   33   15   37 1     
   34   16   17 1     
   35   16   38 1     
   36   16   39 1     
   37   17   18 1     
   38   17   40 1     
   39   17   41 1     
   40   18   42 1     
   41   18   43 1     
   42   19   20 ar    
   43   19   44 1     
   44   21   22 1     
   45   21   45 1     
   46   21   46 1     
   47   22   23 1     
   48   22   24 1     
   49   22   47 1     
   50   23   48 1     
   51   23   49 1     
   52   23   50 1     
   53    4   51 1     
   54   11   52 1     
   55   11   53 1     
   56   15   54 1     
   57   15   55 1     
   58   20   56 1     
   59   24   57 1     
   60   24   58 1     
@<TRIPOS>SUBSTRUCTURE
      1 S1             1
@<TRIPOS>SET
LONE_PAIRS      STATIC     ATOMS    <user>   **** ""
8 51 52 53 54 55 56 57 58
DONOR_HYDROGENS      STATIC     ATOMS    <user>   **** ""
3 33 34 37
ATOM$BLUE        STATIC     ATOMS    COLORGROUP SYSTEM
8 51 52 53 54 55 56 57 58
ATOM$RED        STATIC     ATOMS    COLORGROUP SYSTEM
3 33 34 37
