#       Name:                AV-unprocessed.smi:1047
#       Creating user name   scv26
#       Creation time:       Fri Mar 27 03:00:35 2020


#       File generated by GOLD software.
#

@<TRIPOS>MOLECULE
AV-unprocessed.smi:1047
    62    64     1
SMALL
NO_CHARGES


@<TRIPOS>ATOM
      1 ****        -5.7771   5.0929   0.6109 C.3            1 S1                 0.0000
      2 ****        -4.8618   3.8661   0.4967 C.3            1 S1                 0.0000
      3 ****        -5.0646   3.1260  -0.7769 N.4            1 S1                 1.0000
      4 ****        -4.5038   3.7928  -1.9794 C.3            1 S1                 0.0000
      5 ****        -2.9785   3.5986  -2.0716 C.3            1 S1                 0.0000
      6 ****        -2.6670   2.2108  -2.0304 O.3            1 S1                 0.0000
      7 ****        -3.0887   1.5875  -0.8210 C.3            1 S1                 0.0000
      8 ****        -2.6395   0.1188  -0.8656 C.3            1 S1                 0.0000
      9 ****        -1.1683  -0.0003  -0.8105 N.4            1 S1                 1.0000
     10 ****        -0.6739  -1.3864  -0.9376 C.3            1 S1                 0.0000
     11 ****         0.8623  -1.4420  -0.9038 C.3            1 S1                 0.0000
     12 ****         1.3650  -0.7642  -2.0397 O.3            1 S1                 0.0000
     13 ****         1.3821  -2.8930  -0.9033 C.3            1 S1                 0.0000
     14 ****         2.8321  -2.9649  -0.8801 N.pl3          1 S1                 0.0000
     15 ****         3.6532  -3.1826  -1.9259 C.2            1 S1                 0.0000
     16 ****         4.9595  -3.2053  -1.6794 N.2            1 S1                 0.0000
     17 ****         4.9898  -2.9849  -0.3132 C.ar           1 S1                 0.0000
     18 ****         6.0821  -2.8958   0.5769 C.ar           1 S1                 0.0000
     19 ****         5.8761  -2.6655   1.9558 C.ar           1 S1                 0.0000
     20 ****         7.0801  -2.5795   2.8775 C.3            1 S1                 0.0000
     21 ****         4.5600  -2.5206   2.4634 C.ar           1 S1                 0.0000
     22 ****         4.3154  -2.2816   3.9428 C.3            1 S1                 0.0000
     23 ****         3.4574  -2.6020   1.5871 C.ar           1 S1                 0.0000
     24 ****         3.6754  -2.8325   0.2174 C.ar           1 S1                 0.0000
     25 ****        -4.6249   1.7098  -0.7186 C.3            1 S1                 0.0000
     26 ****        -5.6714   5.5594   1.5906 H              1 S1                 0.0000
     27 ****        -6.8246   4.8155   0.4901 H              1 S1                 0.0000
     28 ****        -5.5413   5.8521  -0.1341 H              1 S1                 0.0000
     29 ****        -3.8184   4.1572   0.6178 H              1 S1                 0.0000
     30 ****        -5.0935   3.2051   1.3328 H              1 S1                 0.0000
     31 ****        -4.9725   3.3509  -2.8597 H              1 S1                 0.0000
     32 ****        -4.7593   4.8516  -2.0018 H              1 S1                 0.0000
     33 ****        -2.6076   4.0120  -3.0097 H              1 S1                 0.0000
     34 ****        -2.4586   4.1256  -1.2709 H              1 S1                 0.0000
     35 ****        -2.6181   2.0791   0.0326 H              1 S1                 0.0000
     36 ****        -3.0612  -0.4251  -0.0194 H              1 S1                 0.0000
     37 ****        -3.0135  -0.3589  -1.7724 H              1 S1                 0.0000
     38 ****        -0.7743   0.5383  -1.5696 H              1 S1                 0.0000
     39 ****        -1.0825  -1.9763  -0.1159 H              1 S1                 0.0000
     40 ****        -1.0478  -1.8262  -1.8638 H              1 S1                 0.0000
     41 ****         1.2265  -0.9317  -0.0109 H              1 S1                 0.0000
     42 ****         2.3100  -0.7956  -2.0139 H              1 S1                 0.0000
     43 ****         1.0014  -3.4308  -0.0341 H              1 S1                 0.0000
     44 ****         1.0212  -3.4290  -1.7827 H              1 S1                 0.0000
     45 ****         3.2701  -3.3272  -2.9256 H              1 S1                 0.0000
     46 ****         7.0841  -3.0091   0.1899 H              1 S1                 0.0000
     47 ****         7.0566  -3.3848   3.6121 H              1 S1                 0.0000
     48 ****         7.0911  -1.6266   3.4069 H              1 S1                 0.0000
     49 ****         8.0140  -2.6610   2.3209 H              1 S1                 0.0000
     50 ****         3.2497  -2.2238   4.1661 H              1 S1                 0.0000
     51 ****         4.7758  -1.3459   4.2605 H              1 S1                 0.0000
     52 ****         4.7368  -3.0941   4.5355 H              1 S1                 0.0000
     53 ****         2.4499  -2.4928   1.9606 H              1 S1                 0.0000
     54 ****        -4.9953   1.2335   0.1900 H              1 S1                 0.0000
     55 ****        -5.0880   1.1771  -1.5505 H              1 S1                 0.0000
     56 ****        -0.8376   0.3840   0.0631 H              1 S1                 0.0000
     57 ****        -6.0665   3.0975  -0.9049 H              1 S1                 0.0000
     58 ****        -1.6766   2.1026  -2.1175 LP             1 S1                 0.0000
     59 ****        -3.1204   1.7583  -2.7983 LP             1 S1                 0.0000
     60 ****         1.0587   0.1876  -2.0276 LP             1 S1                 0.0000
     61 ****         1.0353  -1.2100  -2.8719 LP             1 S1                 0.0000
     62 ****         5.7198  -3.3449  -2.3138 LP             1 S1                 0.0000
@<TRIPOS>BOND
    1    1    2 1     
    2    1   26 1     
    3    1   27 1     
    4    1   28 1     
    5    2    3 1     
    6    2   29 1     
    7    2   30 1     
    8    3   25 1     
    9    3    4 1     
   10    3   57 1     
   11    4    5 1     
   12    4   31 1     
   13    4   32 1     
   14    5    6 1     
   15    5   33 1     
   16    5   34 1     
   17    6    7 1     
   18    7    8 1     
   19    7   25 1     
   20    7   35 1     
   21    8    9 1     
   22    8   36 1     
   23    8   37 1     
   24    9   10 1     
   25    9   38 1     
   26    9   56 1     
   27   10   11 1     
   28   10   39 1     
   29   10   40 1     
   30   11   12 1     
   31   11   13 1     
   32   11   41 1     
   33   12   42 1     
   34   13   14 1     
   35   13   43 1     
   36   13   44 1     
   37   14   24 1     
   38   14   15 1     
   39   15   16 2     
   40   15   45 1     
   41   16   17 1     
   42   17   24 ar    
   43   17   18 ar    
   44   18   19 ar    
   45   18   46 1     
   46   19   20 1     
   47   19   21 ar    
   48   20   47 1     
   49   20   48 1     
   50   20   49 1     
   51   21   22 1     
   52   21   23 ar    
   53   22   50 1     
   54   22   51 1     
   55   22   52 1     
   56   23   24 ar    
   57   23   53 1     
   58   25   54 1     
   59   25   55 1     
   60    6   58 1     
   61    6   59 1     
   62   12   60 1     
   63   12   61 1     
   64   16   62 1     
@<TRIPOS>SUBSTRUCTURE
      1 S1             1
@<TRIPOS>SET
LONE_PAIRS      STATIC     ATOMS    <user>   **** ""
5 58 59 60 61 62
DONOR_HYDROGENS      STATIC     ATOMS    <user>   **** ""
4 57 38 56 42
ATOM$BLUE        STATIC     ATOMS    COLORGROUP SYSTEM
5 58 59 60 61 62
ATOM$RED        STATIC     ATOMS    COLORGROUP SYSTEM
4 57 38 56 42
