AV-unprocessed.smi:40|AV-procd|sdf|379|dock4
  -GOLD-   2262016233D 1   1.00000     0.00000
 Structure written by MMmdl.
 47 48  0  0  0  0  0  0  0  0  1 V2000
  146.0373  134.0568  151.5658 C   0  0  0  0  0  0  0  0  0  0  0  0
  147.1057  133.0761  152.0619 C   0  0  0  0  0  0  0  0  0  0  0  0
  147.6652  133.4644  153.4374 C   0  0  0  0  0  0  0  0  0  0  0  0
  148.7381  132.4843  153.9415 C   0  0  0  0  0  0  0  0  0  0  0  0
  149.4264  132.9540  155.2311 C   0  0  0  0  0  0  0  0  0  0  0  0
  149.1184  134.3214  155.4402 O   0  0  0  0  0  0  0  0  0  0  0  0
  150.0761  135.2128  155.7406 C   0  0  0  0  0  0  0  0  0  0  0  0
  151.2678  134.9261  155.8522 O   0  0  0  0  0  0  0  0  0  0  0  0
  149.5336  136.5536  155.9213 N   0  0  0  0  0  0  0  0  0  0  0  0
  150.1548  137.7227  156.2286 C   0  0  0  0  0  0  0  0  0  0  0  0
  151.1294  138.2478  155.5027 N   0  0  0  0  0  0  0  0  0  0  0  0
  151.7572  139.4291  155.7867 C   0  0  0  0  0  0  0  0  0  0  0  0
  152.6326  139.8625  155.0414 O   0  0  0  0  0  0  0  0  0  0  0  0
  151.3473  140.1172  156.9547 N   0  0  0  0  0  0  0  0  0  0  0  0
  151.9500  141.4587  157.3211 C   0  0  2  0  0  0  0  0  0  0  0  0
  152.4717  141.3827  158.6114 O   0  0  0  0  0  0  0  0  0  0  0  0
  152.3735  142.6648  159.2175 C   0  0  2  0  0  0  0  0  0  0  0  0
  152.5085  142.5681  160.7444 C   0  0  0  0  0  0  0  0  0  0  0  0
  151.0565  143.2478  158.6798 C   0  0  2  0  0  0  0  0  0  0  0  0
  149.9537  142.8803  159.4893 O   0  0  0  0  0  0  0  0  0  0  0  0
  150.9838  142.6668  157.2665 C   0  0  2  0  0  0  0  0  0  0  0  0
  149.6683  142.3992  156.8096 O   0  0  0  0  0  0  0  0  0  0  0  0
  150.3186  139.5954  157.7235 C   0  0  0  0  0  0  0  0  0  0  0  0
  149.7125  138.4288  157.4125 C   0  0  0  0  0  0  0  0  0  0  0  0
  148.7220  137.9449  158.1824 F   0  0  0  0  0  0  0  0  0  0  0  0
  152.7861  141.5965  156.6344 H   0  0  0  0  0  0  0  0  0  0  0  0
  153.1978  143.2659  158.8297 H   0  0  0  0  0  0  0  0  0  0  0  0
  151.0901  144.3375  158.6543 H   0  0  0  0  0  0  0  0  0  0  0  0
  151.4262  143.3830  156.5730 H   0  0  0  0  0  0  0  0  0  0  0  0
  145.6589  133.7575  150.5884 H   0  0  0  0  0  0  0  0  0  0  0  0
  146.4433  135.0646  151.4700 H   0  0  0  0  0  0  0  0  0  0  0  0
  145.1915  134.0989  152.2524 H   0  0  0  0  0  0  0  0  0  0  0  0
  146.6837  132.0716  152.1069 H   0  0  0  0  0  0  0  0  0  0  0  0
  147.9177  133.0387  151.3345 H   0  0  0  0  0  0  0  0  0  0  0  0
  148.0871  134.4679  153.3729 H   0  0  0  0  0  0  0  0  0  0  0  0
  146.8520  133.5195  154.1619 H   0  0  0  0  0  0  0  0  0  0  0  0
  148.2819  131.5097  154.1177 H   0  0  0  0  0  0  0  0  0  0  0  0
  149.4918  132.3347  153.1673 H   0  0  0  0  0  0  0  0  0  0  0  0
  149.0901  132.3628  156.0839 H   0  0  0  0  0  0  0  0  0  0  0  0
  150.5059  132.8238  155.1431 H   0  0  0  0  0  0  0  0  0  0  0  0
  148.5376  136.6099  155.7652 H   0  0  0  0  0  0  0  0  0  0  0  0
  152.3932  143.5467  161.2108 H   0  0  0  0  0  0  0  0  0  0  0  0
  153.4889  142.1803  161.0214 H   0  0  0  0  0  0  0  0  0  0  0  0
  151.7608  141.8994  161.1720 H   0  0  0  0  0  0  0  0  0  0  0  0
  150.2154  142.1581  160.0397 H   0  0  0  0  0  0  0  0  0  0  0  0
  149.3030  143.1983  156.4625 H   0  0  0  0  0  0  0  0  0  0  0  0
  149.9834  140.1237  158.6046 H   0  0  0  0  0  0  0  0  0  0  0  0
  1  2  1  0  0  0  0
  1 30  1  0  0  0  0
  1 31  1  0  0  0  0
  1 32  1  0  0  0  0
  2  3  1  0  0  0  0
  2 33  1  0  0  0  0
  2 34  1  0  0  0  0
  3  4  1  0  0  0  0
  3 35  1  0  0  0  0
  3 36  1  0  0  0  0
  4  5  1  0  0  0  0
  4 37  1  0  0  0  0
  4 38  1  0  0  0  0
  5  6  1  0  0  0  0
  5 39  1  0  0  0  0
  5 40  1  0  0  0  0
  6  7  1  0  0  0  0
  7  8  2  0  0  0  0
  7  9  1  0  0  0  0
  9 10  1  0  0  0  0
  9 41  1  0  0  0  0
 10 24  1  0  0  0  0
 10 11  2  0  0  0  0
 11 12  1  0  0  0  0
 12 13  2  0  0  0  0
 12 14  1  0  0  0  0
 14 15  1  0  0  0  0
 14 23  1  0  0  0  0
 15 26  1  0  0  0  0
 15 21  1  0  0  0  0
 15 16  1  0  0  0  0
 16 17  1  0  0  0  0
 17 27  1  0  0  0  0
 17 18  1  0  0  0  0
 17 19  1  0  0  0  0
 18 42  1  0  0  0  0
 18 43  1  0  0  0  0
 18 44  1  0  0  0  0
 19 28  1  0  0  0  0
 19 20  1  0  0  0  0
 19 21  1  0  0  0  0
 20 45  1  0  0  0  0
 21 29  1  0  0  0  0
 21 22  1  0  0  0  0
 22 46  1  0  0  0  0
 23 24  2  0  0  0  0
 23 47  1  0  0  0  0
 24 25  1  0  0  0  0
M  END
> <s_m_source_file>
AV-unprocessed.smi

> <i_m_source_file_index>
40

> <i_lp_mmshare_version>
43012

> <i_f3d_flags>
0

> <s_epik_input>
W0NIM11bQ0gyXVtDSDJdW0NIMl1bQ0gyXU9DKD1PKVtOSF1jMW5jKD1PKW4oW2NIXWMxRilbQ0BASF0yT1tDQEhdKFtDSDNdKVtDQEBIXShbT0hdKVtDQEhdMltPSF0=

> <s_epik_cmdline>
J2VwaWtfcHl0aG9uJywgJy1waCcsICc3LjAnLCAnLXRuJywgJzgnLCAnLW1hJywgJzIwMCcsICctbWV0YWxfYmluZGluZycsICctaW1hZScsICc8aW5maWxlLm1hZT4nLCAnLW9tYWUnLCAnPG91dGZpbGUubWFlPic=

> <r_lp_tautomer_probability>
1

> <r_epik_Ionization_Penalty>
2.29506e-06

> <r_epik_Ionization_Penalty_Charging>
8.26867e-09

> <r_epik_Ionization_Penalty_Neutral>
2.2868e-06

> <r_epik_State_Penalty>
-0

> <r_epik_Charging_Adjusted_Penalty>
8.26867e-09

> <i_epik_Tot_Q>
0

> <i_epik_Tot_abs_Q>
0

> <r_epik_Metal_State_Penalty>
-0

> <b_epik_Metal_Only>
0

> <s_epik_Chemistry_Notes>
This compound has an ester and may undergo hydrolysis at high or low pH. This compound contains an acetal/aminal-like group ( X-CH(R)-Y where X, Y are N, S, or O) that may be acid/base labile, releasing an aldehyde.

> <s_lp_Force_Field>
OPLS_2005

> <r_lp_Energy>
38.6632

> <b_lp_Chiralities_Consistent>
1

> <s_lp_Variant>
AV-unprocessed.smi:40-13

> <Gold.Version>
5.8.1

> <Gold.Id.Protein>
6NUR|6NUR_protein|mol2

> <Gold.PLP.Fitness>
45.5685

> <Gold.PLP.PLP>
-37.6405

> <Gold.PLP.part.hbond>
-5.0000

> <Gold.PLP.part.metal>
0.0000

> <Gold.PLP.part.buried>
-4.1864

> <Gold.PLP.part.nonpolar>
-27.8566

> <Gold.PLP.part.repulsive>
0.2018

> <Gold.PLP.ligand.clash>
0.0000

> <Gold.PLP.ligand.torsion>
1.2488

> <Gold.PLP.Chemscore.Hbond>
3.4400

> <Gold.PLP.Chemscore.CHOScore>
0.0000

> <Gold.PLP.Chemscore.Metal>
0.0000

> <Gold.Chemscore.Hbonds>
donor molecule, donor type, donor heavy atom, donor atom, acceptor molecule, acceptor atom, score
      L1  H    22    46       P1  8028  1.00
      P1  H  7989  7998       L1    13  0.50
      P1  H  7997  8010       L1    13  0.99
      P1  H 10752 10765       L1     8  0.80

> <Gold.PLP.Chemscore.Internal.Correction>
0.1056

> <Gold.Rescore>
     Score         DG    S(hbond)    S(metal)    S(lipo)     H(rot)  DE(clash)    DE(int)     intcor
     12.99     -14.94       3.16        0.00      71.59       3.70       0.51       1.44       ----

> <Gold.Chemscore.Fitness>
12.9936

> <Gold.Chemscore.DG>
-14.9395

> <Gold.Chemscore.ZeroCoef>
-5.4800

> <Gold.Chemscore.Hbond>
3.1569

> <Gold.Chemscore.Metal>
0.0000

> <Gold.Chemscore.Lipo>
71.5942

> <Gold.Chemscore.Internal_Hbond>
0.0000

> <Gold.Chemscore.DEClash>
0.5087

> <Gold.Chemscore.DEInternal>
1.4373

> <Gold.Chemscore.Rot>
3.6957

> <Gold.Chemscore.Internal.Correction>
   9.000000E+99

> <Gold.Chemscore.Hbonds>
donor molecule, donor type, donor heavy atom, donor atom, acceptor molecule, acceptor atom, score
      L1  H    22    46       P1  8028  1.00
      P1  H  7989  7998       L1    13  0.31
      P1  H  7997  8010       L1    13  0.79
      P1  H 10752 10765       L1     8  0.75

> <Gold.Chemscore.Hbond.Weighted>
-10.5440

> <Gold.Chemscore.Metal.Weighted>
-0.0000

> <Gold.Chemscore.Lipo.Weighted>
-8.3765

> <Gold.Chemscore.Internal_Hbond.Weighted>
0.0000

> <Gold.Chemscore.DEClash.Weighted>
0.5087

> <Gold.Chemscore.DEInternal.Weighted>
1.4373

> <Gold.Chemscore.Rot.Weighted>
9.4610

> <Gold.Chemscore.Internal.Correction.Weighted>
   9.000000E+99

> <Gold.Protein.RotatedTorsions>
[ 6907 6896 6895 6894 ] final   20.88 input  -60.11 | X-H torsion
[ 7974 7965 7964 7962 ] final -139.26 input  175.53 | X-H torsion
[ 8008 7997 7996 7995 ] final   97.96 input   59.86 | X-H torsion
[ 10167 10162 10161 10158 ] final -157.99 input  -65.29 | X-H torsion
[ 10718 10713 10712 10709 ] final  -10.54 input   66.30 | X-H torsion
[ 10763 10752 10751 10750 ] final -161.12 input  -60.55 | X-H torsion
[ 11005 11000 10999 10996 ] final   -6.34 input  -57.11 | X-H torsion

> <Gold.Protein.ActiveResidues>
 VAL166  LYS551  ARG553  GLY616  TRP617  ASP618  TYR619  PRO620  LYS621  CYS622 
 ASP623  PHE694  ASN695  SER759  ASP760  ASP761  ALA762  ILE779  LEU786  VAL792 
 PHE793  MET794  SER795  GLU796  ALA797  LYS798  CYS799  TRP800  GLU811  SER814 

> <Gold.Protein.RotatedAtoms>
  151.9032  135.0370  160.0507 H   0  0  0  0  0  0  0  0  0  0  0  0  # atno 6907 bound_to 6896
  152.2341  133.5077  159.5241 H   0  0  0  0  0  0  0  0  0  0  0  0  # atno 6908 bound_to 6896
  150.7034  134.1094  159.4037 H   0  0  0  0  0  0  0  0  0  0  0  0  # atno 6909 bound_to 6896
  144.8691  140.6339  143.5278 H   0  0  0  0  0  0  0  0  0  0  0  0  # atno 7974 bound_to 7965
  156.0955  140.3251  155.7872 H   0  0  0  0  0  0  0  0  0  0  0  0  # atno 8008 bound_to 7997
  155.4925  140.0562  157.2969 H   0  0  0  0  0  0  0  0  0  0  0  0  # atno 8009 bound_to 7997
  154.4664  140.1991  156.0123 H   0  0  0  0  0  0  0  0  0  0  0  0  # atno 8010 bound_to 7997
  139.6727  143.9717  152.2293 H   0  0  0  0  0  0  0  0  0  0  0  0  # atno 10167 bound_to 10162
  156.6720  130.5012  149.5997 H   0  0  0  0  0  0  0  0  0  0  0  0  # atno 10718 bound_to 10713
  154.7331  135.3051  154.8858 H   0  0  0  0  0  0  0  0  0  0  0  0  # atno 10763 bound_to 10752
  153.9695  135.6743  153.4751 H   0  0  0  0  0  0  0  0  0  0  0  0  # atno 10764 bound_to 10752
  153.0937  135.4946  154.8660 H   0  0  0  0  0  0  0  0  0  0  0  0  # atno 10765 bound_to 10752
  140.7009  133.8990  155.8683 H   0  0  0  0  0  0  0  0  0  0  0  0  # atno 11005 bound_to 11000
  145.4164  139.1571  143.4098 LP  0  0  0  0  0  0  0  0  0  0  0  0  # atno 17320 bound_to 7965
  146.2917  140.4271  142.8737 LP  0  0  0  0  0  0  0  0  0  0  0  0  # atno 17321 bound_to 7965
  139.9486  144.6635  150.8194 LP  0  0  0  0  0  0  0  0  0  0  0  0  # atno 17342 bound_to 10162
  140.7624  143.3197  151.2651 LP  0  0  0  0  0  0  0  0  0  0  0  0  # atno 17343 bound_to 10162
  156.1931  130.6572  151.1084 LP  0  0  0  0  0  0  0  0  0  0  0  0  # atno 17370 bound_to 10713
  157.7074  131.0750  150.6621 LP  0  0  0  0  0  0  0  0  0  0  0  0  # atno 17371 bound_to 10713
  141.0164  134.0950  157.4167 LP  0  0  0  0  0  0  0  0  0  0  0  0  # atno 17394 bound_to 11000
  139.8897  135.0107  156.6693 LP  0  0  0  0  0  0  0  0  0  0  0  0  # atno 17395 bound_to 11000

$$$$
