AV-unprocessed.smi:610|AV-procd|sdf|3058|dock4
  -GOLD-   2262023583D 1   1.00000     0.00000
 Structure written by MMmdl.
 38 39  0  0  0  0  0  0  0  0  2 V2000
  147.5638  141.6036  156.5888 C   0  0  0  0  0  0  0  0  0  0  0  0
  149.0813  141.3799  156.5191 C   0  0  1  0  0  0  0  0  0  0  0  0
  149.5618  141.1797  155.0697 C   0  0  0  0  0  0  0  0  0  0  0  0
  150.0166  139.8078  154.8191 N   0  0  0  0  0  0  0  0  0  0  0  0
  151.1223  139.1916  155.3466 C   0  0  0  0  0  0  0  0  0  0  0  0
  151.1487  137.9236  154.8259 C   0  0  0  0  0  0  0  0  0  0  0  0
  150.0576  137.8185  154.0054 N   0  3  0  0  0  0  0  0  0  0  0  0
  149.3696  138.9649  154.0036 C   0  0  0  0  0  0  0  0  0  0  0  0
  149.7759  142.5157  157.1208 N   0  0  0  0  0  0  0  0  0  0  0  0
  150.4797  142.4943  158.2660 C   0  0  0  0  0  0  0  0  0  0  0  0
  150.5833  141.4796  158.9563 O   0  0  0  0  0  0  0  0  0  0  0  0
  151.1679  143.8086  158.7139 C   0  0  0  0  0  0  0  0  0  0  0  0
  150.9340  144.8882  157.7625 N   0  0  0  0  0  0  0  0  0  0  0  0
  150.6704  144.2411  160.1185 C   0  0  0  0  0  0  0  0  0  0  0  0
  151.8996  144.2957  161.0335 C   0  0  0  0  0  0  0  0  0  0  0  0
  152.9342  143.3978  160.3644 C   0  0  0  0  0  0  0  0  0  0  0  0
  152.6975  143.6242  158.8718 C   0  0  0  0  0  0  0  0  0  0  0  0
  147.0236  140.7630  156.1526 H   0  0  0  0  0  0  0  0  0  0  0  0
  147.2689  142.5047  156.0498 H   0  0  0  0  0  0  0  0  0  0  0  0
  147.2281  141.7079  157.6213 H   0  0  0  0  0  0  0  0  0  0  0  0
  149.3119  140.4702  157.0767 H   0  0  0  0  0  0  0  0  0  0  0  0
  148.7511  141.3834  154.3686 H   0  0  0  0  0  0  0  0  0  0  0  0
  150.3726  141.8685  154.8257 H   0  0  0  0  0  0  0  0  0  0  0  0
  151.7921  139.6899  156.0327 H   0  0  0  0  0  0  0  0  0  0  0  0
  151.8438  137.1099  154.9741 H   0  0  0  0  0  0  0  0  0  0  0  0
  148.4713  139.1698  153.4488 H   0  0  0  0  0  0  0  0  0  0  0  0
  149.7244  143.3964  156.6289 H   0  0  0  0  0  0  0  0  0  0  0  0
  150.1343  144.6551  157.1911 H   0  0  0  0  0  0  0  0  0  0  0  0
  150.6822  145.7241  158.2696 H   0  0  0  0  0  0  0  0  0  0  0  0
  150.1561  145.2036  160.1103 H   0  0  0  0  0  0  0  0  0  0  0  0
  149.9572  143.5226  160.5268 H   0  0  0  0  0  0  0  0  0  0  0  0
  152.2787  145.3178  161.0731 H   0  0  0  0  0  0  0  0  0  0  0  0
  151.6757  143.9869  162.0550 H   0  0  0  0  0  0  0  0  0  0  0  0
  153.9544  143.6328  160.6687 H   0  0  0  0  0  0  0  0  0  0  0  0
  152.7410  142.3551  160.6201 H   0  0  0  0  0  0  0  0  0  0  0  0
  153.1027  142.8072  158.2724 H   0  0  0  0  0  0  0  0  0  0  0  0
  153.2337  144.5253  158.5684 H   0  0  0  0  0  0  0  0  0  0  0  0
  149.8052  136.9929  153.4765 H   0  0  0  0  0  0  0  0  0  0  0  0
  1  2  1  0  0  0  0
  1 18  1  0  0  0  0
  1 19  1  0  0  0  0
  1 20  1  0  0  0  0
  2  3  1  0  0  0  0
  2  9  1  0  0  0  0
  2 21  1  0  0  0  0
  3  4  1  0  0  0  0
  3 22  1  0  0  0  0
  3 23  1  0  0  0  0
  4  8  1  0  0  0  0
  4  5  1  0  0  0  0
  5  6  2  0  0  0  0
  5 24  1  0  0  0  0
  6  7  1  0  0  0  0
  6 25  1  0  0  0  0
  7  8  2  0  0  0  0
  7 38  1  0  0  0  0
  8 26  1  0  0  0  0
  9 10  1  0  0  0  0
  9 27  1  0  0  0  0
 10 11  2  0  0  0  0
 10 12  1  0  0  0  0
 12 17  1  0  0  0  0
 12 13  1  0  0  0  0
 12 14  1  0  0  0  0
 13 28  1  0  0  0  0
 13 29  1  0  0  0  0
 14 15  1  0  0  0  0
 14 30  1  0  0  0  0
 14 31  1  0  0  0  0
 15 16  1  0  0  0  0
 15 32  1  0  0  0  0
 15 33  1  0  0  0  0
 16 17  1  0  0  0  0
 16 34  1  0  0  0  0
 16 35  1  0  0  0  0
 17 36  1  0  0  0  0
 17 37  1  0  0  0  0
M  CHG  1   7   1
M  END
> <s_m_source_file>
AV-unprocessed.smi

> <i_m_source_file_index>
610

> <i_lp_mmshare_version>
43012

> <i_f3d_flags>
0

> <s_epik_input>
W2NIXTFuW2NIXVtjSF1uMVtDSDJdW0NAQEhdKFtDSDNdKVtOSF1DKD1PKUMyKFtOSDJdKVtDSDJdW0NIMl1bQ0gyXVtDSDJdMg==

> <s_epik_cmdline>
J2VwaWtfcHl0aG9uJywgJy1waCcsICc3LjAnLCAnLXRuJywgJzgnLCAnLW1hJywgJzIwMCcsICctbWV0YWxfYmluZGluZycsICctaW1hZScsICc8aW5maWxlLm1hZT4nLCAnLW9tYWUnLCAnPG91dGZpbGUubWFlPic=

> <r_epik_Ionization_Penalty>
1.50287

> <r_epik_Ionization_Penalty_Charging>
0

> <r_epik_Ionization_Penalty_Neutral>
1.50287

> <r_epik_State_Penalty>
1.57152

> <r_epik_Charging_Adjusted_Penalty>
1.57152

> <i_epik_Tot_Q>
1

> <i_epik_Tot_abs_Q>
1

> <r_epik_Metal_State_Penalty>
1.8522

> <b_epik_Metal_Only>
0

> <s_lp_Force_Field>
OPLS_2005

> <r_lp_Energy>
23.5797

> <b_lp_Chiralities_Consistent>
1

> <s_lp_Variant>
AV-unprocessed.smi:610-6

> <Gold.Version>
5.8.1

> <Gold.Id.Protein>
6NUR|6NUR_protein|mol2

> <Gold.PLP.Fitness>
48.4974

> <Gold.PLP.PLP>
-37.0768

> <Gold.PLP.part.hbond>
-3.8894

> <Gold.PLP.part.metal>
0.0000

> <Gold.PLP.part.buried>
-1.3154

> <Gold.PLP.part.nonpolar>
-31.2689

> <Gold.PLP.part.repulsive>
0.0764

> <Gold.PLP.ligand.clash>
0.0000

> <Gold.PLP.ligand.torsion>
0.8266

> <Gold.PLP.Chemscore.Hbond>
4.0000

> <Gold.PLP.Chemscore.CHOScore>
0.3447

> <Gold.PLP.Chemscore.Metal>
0.0000

> <Gold.Chemscore.Hbonds>
donor molecule, donor type, donor heavy atom, donor atom, acceptor molecule, acceptor atom, score
      L1  H     7    38       P1  7948  1.92
      L1  H     9    27       P1  8028  1.00
      L1  H    13    28       P1  8028  1.00
      L1  C     8    26       P1  7957  0.22

> <Gold.PLP.Chemscore.Internal.Correction>
0.0398

> <Gold.Rescore>
     Score         DG    S(hbond)    S(metal)    S(lipo)     H(rot)  DE(clash)    DE(int)     intcor
     17.90     -19.80       2.69        0.00      89.72       2.02       0.88       1.02       ----

> <Gold.Chemscore.Fitness>
17.9007

> <Gold.Chemscore.DG>
-19.7964

> <Gold.Chemscore.ZeroCoef>
-5.4800

> <Gold.Chemscore.Hbond>
2.6880

> <Gold.Chemscore.Metal>
0.0000

> <Gold.Chemscore.Lipo>
89.7204

> <Gold.Chemscore.Internal_Hbond>
0.0000

> <Gold.Chemscore.DEClash>
0.8774

> <Gold.Chemscore.DEInternal>
1.0183

> <Gold.Chemscore.Rot>
2.0152

> <Gold.Chemscore.Internal.Correction>
   9.000000E+99

> <Gold.Chemscore.Hbonds>
donor molecule, donor type, donor heavy atom, donor atom, acceptor molecule, acceptor atom, score
      L1  H     7    38       P1  7948  0.46
      L1  H     9    27       P1  8028  0.98
      L1  H    13    28       P1  8028  0.34

> <Gold.Chemscore.Hbond.Weighted>
-8.9781

> <Gold.Chemscore.Metal.Weighted>
-0.0000

> <Gold.Chemscore.Lipo.Weighted>
-10.4973

> <Gold.Chemscore.Internal_Hbond.Weighted>
0.0000

> <Gold.Chemscore.DEClash.Weighted>
0.8774

> <Gold.Chemscore.DEInternal.Weighted>
1.0183

> <Gold.Chemscore.Rot.Weighted>
5.1589

> <Gold.Chemscore.Internal.Correction.Weighted>
   9.000000E+99

> <Gold.Protein.RotatedTorsions>
[ 6907 6896 6895 6894 ] final   75.19 input  -60.11 | X-H torsion
[ 7974 7965 7964 7962 ] final  -57.11 input  175.53 | X-H torsion
[ 8008 7997 7996 7995 ] final   14.26 input   59.86 | X-H torsion
[ 10167 10162 10161 10158 ] final -115.92 input  -65.29 | X-H torsion
[ 10718 10713 10712 10709 ] final  148.57 input   66.30 | X-H torsion
[ 10763 10752 10751 10750 ] final -121.12 input  -60.55 | X-H torsion
[ 11005 11000 10999 10996 ] final  178.71 input  -57.11 | X-H torsion

> <Gold.Protein.ActiveResidues>
 VAL166  LYS551  ARG553  GLY616  TRP617  ASP618  TYR619  PRO620  LYS621  CYS622 
 ASP623  PHE694  ASN695  SER759  ASP760  ASP761  ALA762  ILE779  LEU786  VAL792 
 PHE793  MET794  SER795  GLU796  ALA797  LYS798  CYS799  TRP800  GLU811  SER814 

> <Gold.Protein.RotatedAtoms>
  152.5014  134.4157  159.9463 H   0  0  0  0  0  0  0  0  0  0  0  0  # atno 6907 bound_to 6896
  151.4127  133.3716  159.2754 H   0  0  0  0  0  0  0  0  0  0  0  0  # atno 6908 bound_to 6896
  150.9279  134.8717  159.7591 H   0  0  0  0  0  0  0  0  0  0  0  0  # atno 6909 bound_to 6896
  145.8548  140.8327  142.9967 H   0  0  0  0  0  0  0  0  0  0  0  0  # atno 7974 bound_to 7965
  154.8460  140.2922  155.5629 H   0  0  0  0  0  0  0  0  0  0  0  0  # atno 8008 bound_to 7997
  156.3014  140.2505  156.3343 H   0  0  0  0  0  0  0  0  0  0  0  0  # atno 8009 bound_to 7997
  154.9073  140.0389  157.1916 H   0  0  0  0  0  0  0  0  0  0  0  0  # atno 8010 bound_to 7997
  140.0848  143.4754  152.1904 H   0  0  0  0  0  0  0  0  0  0  0  0  # atno 10167 bound_to 10162
  157.3070  131.0881  151.1346 H   0  0  0  0  0  0  0  0  0  0  0  0  # atno 10718 bound_to 10713
  154.8661  135.4179  154.2569 H   0  0  0  0  0  0  0  0  0  0  0  0  # atno 10763 bound_to 10752
  153.3505  135.6998  153.6798 H   0  0  0  0  0  0  0  0  0  0  0  0  # atno 10764 bound_to 10752
  153.5740  135.3586  155.2821 H   0  0  0  0  0  0  0  0  0  0  0  0  # atno 10765 bound_to 10752
  140.3981  134.6802  157.4546 H   0  0  0  0  0  0  0  0  0  0  0  0  # atno 11005 bound_to 11000
  144.6728  140.1007  143.7460 LP  0  0  0  0  0  0  0  0  0  0  0  0  # atno 17320 bound_to 7965
  145.9316  139.2610  143.1322 LP  0  0  0  0  0  0  0  0  0  0  0  0  # atno 17321 bound_to 7965
  139.5758  144.7487  151.3768 LP  0  0  0  0  0  0  0  0  0  0  0  0  # atno 17342 bound_to 10162
  140.7059  143.7515  150.7481 LP  0  0  0  0  0  0  0  0  0  0  0  0  # atno 17343 bound_to 10162
  157.2683  130.6692  149.6007 LP  0  0  0  0  0  0  0  0  0  0  0  0  # atno 17370 bound_to 10713
  155.9675  130.4487  150.5630 LP  0  0  0  0  0  0  0  0  0  0  0  0  # atno 17371 bound_to 10713
  140.0356  134.6342  155.9047 LP  0  0  0  0  0  0  0  0  0  0  0  0  # atno 17394 bound_to 11000
  141.1866  133.6558  156.5249 LP  0  0  0  0  0  0  0  0  0  0  0  0  # atno 17395 bound_to 11000

$$$$
