AV-unprocessed.smi:2304|AV-procd|sdf|9244|dock2
  -GOLD-   2272012463D 1   1.00000     0.00000
 Structure written by MMmdl.
 37 38  0  0  0  0  0  0  0  0  1 V2000
  151.2767  140.5084  155.9263 C   0  0  0  0  0  0  0  0  0  0  0  0
  150.4877  140.5434  154.7504 O   0  0  0  0  0  0  0  0  0  0  0  0
  149.9629  139.2711  154.4067 C   0  0  0  0  0  0  0  0  0  0  0  0
  148.4276  139.3264  154.3207 C   0  0  2  0  0  0  0  0  0  0  0  0
  147.9607  138.1307  153.6248 N   0  0  0  0  0  0  0  0  0  0  0  0
  146.7003  137.6728  153.6208 C   0  0  0  0  0  0  0  0  0  0  0  0
  145.7765  138.2167  154.2266 O   0  0  0  0  0  0  0  0  0  0  0  0
  146.5922  136.5587  152.8756 N   0  0  0  0  0  0  0  0  0  0  0  0
  145.4306  135.7817  152.6213 C   0  0  0  0  0  0  0  0  0  0  0  0
  145.5796  134.7888  151.6267 C   0  0  0  0  0  0  0  0  0  0  0  0
  144.4852  133.9644  151.3014 C   0  0  0  0  0  0  0  0  0  0  0  0
  143.2678  134.1530  151.9797 C   0  0  0  0  0  0  0  0  0  0  0  0
  143.2027  135.1648  152.9575 C   0  0  0  0  0  0  0  0  0  0  0  0
  141.9240  135.4250  153.7258 C   0  0  0  0  0  0  0  0  0  0  0  0
  144.2517  135.9559  153.2692 N   0  0  0  0  0  0  0  0  0  0  0  0
  147.9410  140.6206  153.6849 C   0  0  0  0  0  0  0  0  0  0  0  0
  148.1173  141.9550  154.3719 C   0  0  0  0  0  0  0  0  0  0  0  0
  146.7374  141.3572  154.2251 C   0  0  0  0  0  0  0  0  0  0  0  0
  151.6536  141.5080  156.1427 H   0  0  0  0  0  0  0  0  0  0  0  0
  152.1335  139.8438  155.8074 H   0  0  0  0  0  0  0  0  0  0  0  0
  150.6912  140.1760  156.7846 H   0  0  0  0  0  0  0  0  0  0  0  0
  150.3770  138.9578  153.4466 H   0  0  0  0  0  0  0  0  0  0  0  0
  150.2680  138.5317  155.1492 H   0  0  0  0  0  0  0  0  0  0  0  0
  148.0515  139.3018  155.3456 H   0  0  0  0  0  0  0  0  0  0  0  0
  148.6525  137.6168  153.0994 H   0  0  0  0  0  0  0  0  0  0  0  0
  147.4391  136.2287  152.4373 H   0  0  0  0  0  0  0  0  0  0  0  0
  146.5221  134.6566  151.1151 H   0  0  0  0  0  0  0  0  0  0  0  0
  144.5793  133.2004  150.5439 H   0  0  0  0  0  0  0  0  0  0  0  0
  142.4098  133.5371  151.7533 H   0  0  0  0  0  0  0  0  0  0  0  0
  141.1668  134.6734  153.5004 H   0  0  0  0  0  0  0  0  0  0  0  0
  141.5204  136.4043  153.4671 H   0  0  0  0  0  0  0  0  0  0  0  0
  142.1139  135.4037  154.7993 H   0  0  0  0  0  0  0  0  0  0  0  0
  148.0539  140.6358  152.6024 H   0  0  0  0  0  0  0  0  0  0  0  0
  148.5567  141.9606  155.3675 H   0  0  0  0  0  0  0  0  0  0  0  0
  148.3651  142.8112  153.7479 H   0  0  0  0  0  0  0  0  0  0  0  0
  146.0637  141.8137  153.5029 H   0  0  0  0  0  0  0  0  0  0  0  0
  146.2637  140.9717  155.1257 H   0  0  0  0  0  0  0  0  0  0  0  0
  1  2  1  0  0  0  0
  1 19  1  0  0  0  0
  1 20  1  0  0  0  0
  1 21  1  0  0  0  0
  2  3  1  0  0  0  0
  3  4  1  0  0  0  0
  3 22  1  0  0  0  0
  3 23  1  0  0  0  0
  4  5  1  0  0  0  0
  4 16  1  0  0  0  0
  4 24  1  0  0  0  0
  5  6  1  0  0  0  0
  5 25  1  0  0  0  0
  6  7  2  0  0  0  0
  6  8  1  0  0  0  0
  8  9  1  0  0  0  0
  8 26  1  0  0  0  0
  9 15  1  0  0  0  0
  9 10  2  0  0  0  0
 10 11  1  0  0  0  0
 10 27  1  0  0  0  0
 11 12  2  0  0  0  0
 11 28  1  0  0  0  0
 12 13  1  0  0  0  0
 12 29  1  0  0  0  0
 13 14  1  0  0  0  0
 13 15  2  0  0  0  0
 14 30  1  0  0  0  0
 14 31  1  0  0  0  0
 14 32  1  0  0  0  0
 16 18  1  0  0  0  0
 16 17  1  0  0  0  0
 16 33  1  0  0  0  0
 17 18  1  0  0  0  0
 17 34  1  0  0  0  0
 17 35  1  0  0  0  0
 18 36  1  0  0  0  0
 18 37  1  0  0  0  0
M  END
> <s_m_source_file>
AV-unprocessed.smi

> <i_m_source_file_index>
2304

> <i_lp_mmshare_version>
43012

> <i_f3d_flags>
0

> <s_epik_input>
W0NIM11PW0NIMl1bQ0BASF0oW0NIXTFbQ0gyXVtDSDJdMSlbTkhdQyg9TylbTkhdYzJbY0hdW2NIXVtjSF1jKG4yKVtDSDNd

> <s_epik_cmdline>
J2VwaWtfcHl0aG9uJywgJy1waCcsICc3LjAnLCAnLXRuJywgJzgnLCAnLW1hJywgJzIwMCcsICctbWV0YWxfYmluZGluZycsICctaW1hZScsICc8aW5maWxlLm1hZT4nLCAnLW9tYWUnLCAnPG91dGZpbGUubWFlPic=

> <r_lp_tautomer_probability>
1

> <r_epik_Ionization_Penalty>
8.58396e-05

> <r_epik_Ionization_Penalty_Charging>
0

> <r_epik_Ionization_Penalty_Neutral>
8.58396e-05

> <r_epik_State_Penalty>
-0

> <r_epik_Charging_Adjusted_Penalty>
0

> <i_epik_Tot_Q>
0

> <i_epik_Tot_abs_Q>
0

> <r_epik_Metal_State_Penalty>
-0

> <b_epik_Metal_Only>
0

> <s_lp_Force_Field>
OPLS_2005

> <r_lp_Energy>
16.2574

> <b_lp_Chiralities_Consistent>
1

> <s_lp_Variant>
AV-unprocessed.smi:2304-1

> <Gold.Version>
5.8.1

> <Gold.Id.Protein>
6NUR|6NUR_protein|mol2

> <Gold.PLP.Fitness>
37.2019

> <Gold.PLP.PLP>
-29.9317

> <Gold.PLP.part.hbond>
-3.0000

> <Gold.PLP.part.metal>
0.0000

> <Gold.PLP.part.buried>
-2.4595

> <Gold.PLP.part.nonpolar>
-24.8697

> <Gold.PLP.part.repulsive>
0.3027

> <Gold.PLP.ligand.clash>
0.0000

> <Gold.PLP.ligand.torsion>
1.3042

> <Gold.PLP.Chemscore.Hbond>
2.9360

> <Gold.PLP.Chemscore.CHOScore>
0.0000

> <Gold.PLP.Chemscore.Metal>
0.0000

> <Gold.Chemscore.Hbonds>
donor molecule, donor type, donor heavy atom, donor atom, acceptor molecule, acceptor atom, score
      L1  H     5    25       P1  7948  0.94
      L1  H     8    26       P1  7948  1.00
      P1  H  7989  7998       L1     2  0.99

> <Gold.PLP.Chemscore.Internal.Correction>
1.0706

> <Gold.Rescore>
     Score         DG    S(hbond)    S(metal)    S(lipo)     H(rot)  DE(clash)    DE(int)     intcor
     14.05     -18.67       2.91        0.00      65.01       1.61       0.49       4.13       ----

> <Gold.Chemscore.Fitness>
14.0545

> <Gold.Chemscore.DG>
-18.6683

> <Gold.Chemscore.ZeroCoef>
-5.4800

> <Gold.Chemscore.Hbond>
2.9087

> <Gold.Chemscore.Metal>
0.0000

> <Gold.Chemscore.Lipo>
65.0059

> <Gold.Chemscore.Internal_Hbond>
0.0000

> <Gold.Chemscore.DEClash>
0.4872

> <Gold.Chemscore.DEInternal>
4.1267

> <Gold.Chemscore.Rot>
1.6142

> <Gold.Chemscore.Internal.Correction>
   9.000000E+99

> <Gold.Chemscore.Hbonds>
donor molecule, donor type, donor heavy atom, donor atom, acceptor molecule, acceptor atom, score
      L1  H     5    25       P1  7948  0.91
      L1  H     8    26       P1  7948  0.99
      P1  H  7989  7998       L1     2  0.19

> <Gold.Chemscore.Hbond.Weighted>
-9.7149

> <Gold.Chemscore.Metal.Weighted>
-0.0000

> <Gold.Chemscore.Lipo.Weighted>
-7.6057

> <Gold.Chemscore.Internal_Hbond.Weighted>
0.0000

> <Gold.Chemscore.DEClash.Weighted>
0.4872

> <Gold.Chemscore.DEInternal.Weighted>
4.1267

> <Gold.Chemscore.Rot.Weighted>
4.1323

> <Gold.Chemscore.Internal.Correction.Weighted>
   9.000000E+99

> <Gold.Protein.RotatedTorsions>
[ 6907 6896 6895 6894 ] final   14.87 input  -60.11 | X-H torsion
[ 7974 7965 7964 7962 ] final   38.64 input  175.53 | X-H torsion
[ 8008 7997 7996 7995 ] final   44.92 input   59.86 | X-H torsion
[ 10167 10162 10161 10158 ] final  -38.60 input  -65.29 | X-H torsion
[ 10718 10713 10712 10709 ] final  106.57 input   66.30 | X-H torsion
[ 10763 10752 10751 10750 ] final  -77.08 input  -60.55 | X-H torsion
[ 11005 11000 10999 10996 ] final  -37.34 input  -57.11 | X-H torsion

> <Gold.Protein.ActiveResidues>
 VAL166  LYS551  ARG553  GLY616  TRP617  ASP618  TYR619  PRO620  LYS621  CYS622 
 ASP623  PHE694  ASN695  SER759  ASP760  ASP761  ALA762  ILE779  LEU786  VAL792 
 PHE793  MET794  SER795  GLU796  ALA797  LYS798  CYS799  TRP800  GLU811  SER814 

> <Gold.Protein.RotatedAtoms>
  151.8090  135.0686  160.0410 H   0  0  0  0  0  0  0  0  0  0  0  0  # atno 6907 bound_to 6896
  152.3034  133.5674  159.5642 H   0  0  0  0  0  0  0  0  0  0  0  0  # atno 6908 bound_to 6896
  150.7284  134.0174  159.3732 H   0  0  0  0  0  0  0  0  0  0  0  0  # atno 6909 bound_to 6896
  146.1046  139.5747  142.9392 H   0  0  0  0  0  0  0  0  0  0  0  0  # atno 7974 bound_to 7965
  155.3274  140.3400  155.4240 H   0  0  0  0  0  0  0  0  0  0  0  0  # atno 8008 bound_to 7997
  156.1879  140.1687  156.8187 H   0  0  0  0  0  0  0  0  0  0  0  0  # atno 8009 bound_to 7997
  154.5407  140.0725  156.8489 H   0  0  0  0  0  0  0  0  0  0  0  0  # atno 8010 bound_to 7997
  140.7088  143.3267  151.2663 H   0  0  0  0  0  0  0  0  0  0  0  0  # atno 10167 bound_to 10162
  157.6663  131.0853  150.6026 H   0  0  0  0  0  0  0  0  0  0  0  0  # atno 10718 bound_to 10713
  154.5082  135.5776  153.6584 H   0  0  0  0  0  0  0  0  0  0  0  0  # atno 10763 bound_to 10752
  152.9892  135.6152  154.2913 H   0  0  0  0  0  0  0  0  0  0  0  0  # atno 10764 bound_to 10752
  154.2826  135.2850  155.2670 H   0  0  0  0  0  0  0  0  0  0  0  0  # atno 10765 bound_to 10752
  140.9944  133.6988  156.1908 H   0  0  0  0  0  0  0  0  0  0  0  0  # atno 11005 bound_to 11000
  145.5786  141.0385  143.2134 LP  0  0  0  0  0  0  0  0  0  0  0  0  # atno 17320 bound_to 7965
  144.7460  139.7319  143.7292 LP  0  0  0  0  0  0  0  0  0  0  0  0  # atno 17321 bound_to 7965
  139.6737  143.9975  152.2768 LP  0  0  0  0  0  0  0  0  0  0  0  0  # atno 17342 bound_to 10162
  139.9582  144.6575  150.8105 LP  0  0  0  0  0  0  0  0  0  0  0  0  # atno 17343 bound_to 10162
  156.6327  130.4436  149.5781 LP  0  0  0  0  0  0  0  0  0  0  0  0  # atno 17370 bound_to 10713
  156.2269  130.6771  151.1425 LP  0  0  0  0  0  0  0  0  0  0  0  0  # atno 17371 bound_to 10713
  140.6988  134.4586  157.5587 LP  0  0  0  0  0  0  0  0  0  0  0  0  # atno 17394 bound_to 11000
  139.9008  134.8561  156.1906 LP  0  0  0  0  0  0  0  0  0  0  0  0  # atno 17395 bound_to 11000

$$$$
