AV-unprocessed.smi:2672|AV-procd|sdf|10354|dock5
  -GOLD-   2272014383D 1   1.00000     0.00000
 Structure written by MMmdl.
 36 36  0  0  0  0  0  0  0  0  2 V2000
  151.2828  142.5643  158.3947 C   0  0  0  0  0  0  0  0  0  0  0  0
  151.3020  141.4427  157.3670 C   0  0  0  0  0  0  0  0  0  0  0  0
  150.5637  141.5625  156.2469 C   0  0  0  0  0  0  0  0  0  0  0  0
  150.5115  140.5279  155.2210 C   0  0  0  0  0  0  0  0  0  0  0  0
  149.8323  140.6708  154.2026 O   0  0  0  0  0  0  0  0  0  0  0  0
  151.2376  139.3958  155.4713 N   0  0  0  0  0  0  0  0  0  0  0  0
  151.0885  138.2620  154.5259 C   0  0  0  0  0  0  0  0  0  0  0  0
  150.4585  137.0052  155.1473 C   0  0  0  0  0  0  0  0  0  0  0  0
  150.0081  137.0180  156.2936 O   0  0  0  0  0  0  0  0  0  0  0  0
  150.4301  135.9194  154.3594 N   0  0  0  0  0  0  0  0  0  0  0  0
  149.8776  134.6190  154.7276 C   0  0  0  0  0  0  0  0  0  0  0  0
  148.3486  134.7184  154.8067 C   0  0  0  0  0  0  0  0  0  0  0  0
  150.4824  134.1322  156.0543 C   0  0  0  0  0  0  0  0  0  0  0  0
  152.0761  139.2716  156.6207 C   0  0  0  0  0  0  0  0  0  0  0  0
  152.9397  138.0065  156.7136 C   0  0  0  0  0  0  0  0  0  0  0  0
  152.1147  140.2484  157.5637 C   0  0  0  0  0  0  0  0  0  0  0  0
  153.0057  140.1300  158.8429 C   0  0  0  0  0  0  0  0  0  0  0  0
  152.5273  140.6197  159.8891 O   0  0  0  0  0  0  0  0  0  0  0  0
  154.1089  139.5612  158.6918 O   0  5  0  0  0  0  0  0  0  0  0  0
  150.5957  143.3622  158.1117 H   0  0  0  0  0  0  0  0  0  0  0  0
  152.2767  142.9998  158.4997 H   0  0  0  0  0  0  0  0  0  0  0  0
  150.9685  142.1843  159.3673 H   0  0  0  0  0  0  0  0  0  0  0  0
  149.9700  142.4524  156.0972 H   0  0  0  0  0  0  0  0  0  0  0  0
  150.5271  138.5498  153.6377 H   0  0  0  0  0  0  0  0  0  0  0  0
  152.0579  137.9770  154.1130 H   0  0  0  0  0  0  0  0  0  0  0  0
  150.8204  136.0011  153.4319 H   0  0  0  0  0  0  0  0  0  0  0  0
  150.1233  133.8966  153.9472 H   0  0  0  0  0  0  0  0  0  0  0  0
  147.9052  133.7518  155.0479 H   0  0  0  0  0  0  0  0  0  0  0  0
  147.9262  135.0448  153.8558 H   0  0  0  0  0  0  0  0  0  0  0  0
  148.0352  135.4283  155.5728 H   0  0  0  0  0  0  0  0  0  0  0  0
  150.0794  133.1583  156.3331 H   0  0  0  0  0  0  0  0  0  0  0  0
  150.2674  134.8266  156.8672 H   0  0  0  0  0  0  0  0  0  0  0  0
  151.5657  134.0288  155.9827 H   0  0  0  0  0  0  0  0  0  0  0  0
  153.8563  138.1771  157.2765 H   0  0  0  0  0  0  0  0  0  0  0  0
  153.2793  137.6452  155.7449 H   0  0  0  0  0  0  0  0  0  0  0  0
  152.3875  137.2100  157.2124 H   0  0  0  0  0  0  0  0  0  0  0  0
  1  2  1  0  0  0  0
  1 20  1  0  0  0  0
  1 21  1  0  0  0  0
  1 22  1  0  0  0  0
  2 16  1  0  0  0  0
  2  3  2  0  0  0  0
  3  4  1  0  0  0  0
  3 23  1  0  0  0  0
  4  5  2  0  0  0  0
  4  6  1  0  0  0  0
  6  7  1  0  0  0  0
  6 14  1  0  0  0  0
  7  8  1  0  0  0  0
  7 24  1  0  0  0  0
  7 25  1  0  0  0  0
  8  9  2  0  0  0  0
  8 10  1  0  0  0  0
 10 11  1  0  0  0  0
 10 26  1  0  0  0  0
 11 12  1  0  0  0  0
 11 13  1  0  0  0  0
 11 27  1  0  0  0  0
 12 28  1  0  0  0  0
 12 29  1  0  0  0  0
 12 30  1  0  0  0  0
 13 31  1  0  0  0  0
 13 32  1  0  0  0  0
 13 33  1  0  0  0  0
 14 15  1  0  0  0  0
 14 16  2  0  0  0  0
 15 34  1  0  0  0  0
 15 35  1  0  0  0  0
 15 36  1  0  0  0  0
 16 17  1  0  0  0  0
 17 18  2  0  0  0  0
 17 19  1  0  0  0  0
M  CHG  1  19  -1
M  END
> <s_m_source_file>
AV-unprocessed.smi

> <i_m_source_file_index>
2672

> <i_lp_mmshare_version>
43012

> <i_f3d_flags>
0

> <s_epik_input>
W0NIM11jMVtjSF1jKD1PKW4oYyhbQ0gzXSljMUMoPU8pW09IXSlbQ0gyXUMoPU8pW05IXVtDSF0oW0NIM10pW0NIM10=

> <s_epik_cmdline>
J2VwaWtfcHl0aG9uJywgJy1waCcsICc3LjAnLCAnLXRuJywgJzgnLCAnLW1hJywgJzIwMCcsICctbWV0YWxfYmluZGluZycsICctaW1hZScsICc8aW5maWxlLm1hZT4nLCAnLW9tYWUnLCAnPG91dGZpbGUubWFlPic=

> <r_lp_tautomer_probability>
1

> <r_epik_Ionization_Penalty>
0.000277152

> <r_epik_Ionization_Penalty_Charging>
0.000277132

> <r_epik_Ionization_Penalty_Neutral>
2.06705e-08

> <r_epik_State_Penalty>
-0

> <r_epik_Charging_Adjusted_Penalty>
0.000277132

> <i_epik_Tot_Q>
-1

> <i_epik_Tot_abs_Q>
1

> <r_epik_Metal_State_Penalty>
-0

> <b_epik_Metal_Only>
0

> <s_lp_Force_Field>
OPLS_2005

> <r_lp_Energy>
18.8997

> <b_lp_Chiralities_Consistent>
1

> <s_lp_Variant>
AV-unprocessed.smi:2672-1

> <Gold.Version>
5.8.1

> <Gold.Id.Protein>
6NUR|6NUR_protein|mol2

> <Gold.PLP.Fitness>
39.7176

> <Gold.PLP.PLP>
-30.6615

> <Gold.PLP.part.hbond>
-3.9074

> <Gold.PLP.part.metal>
0.0000

> <Gold.PLP.part.buried>
-2.2848

> <Gold.PLP.part.nonpolar>
-25.4038

> <Gold.PLP.part.repulsive>
0.7359

> <Gold.PLP.ligand.clash>
0.0000

> <Gold.PLP.ligand.torsion>
0.6483

> <Gold.PLP.Chemscore.Hbond>
3.1128

> <Gold.PLP.Chemscore.CHOScore>
0.0000

> <Gold.PLP.Chemscore.Metal>
0.0000

> <Gold.Chemscore.Hbonds>
donor molecule, donor type, donor heavy atom, donor atom, acceptor molecule, acceptor atom, score
      L1  H    10    26       P1  7949  0.65
      P1  H  7997  8010       L1    19  2.00

> <Gold.PLP.Chemscore.Internal.Correction>
1.0143

> <Gold.Rescore>
     Score         DG    S(hbond)    S(metal)    S(lipo)     H(rot)  DE(clash)    DE(int)     intcor
      8.91     -13.73       1.46        0.00      61.52       1.50       0.16       4.66       ----

> <Gold.Chemscore.Fitness>
8.9135

> <Gold.Chemscore.DG>
-13.7287

> <Gold.Chemscore.ZeroCoef>
-5.4800

> <Gold.Chemscore.Hbond>
1.4627

> <Gold.Chemscore.Metal>
0.0000

> <Gold.Chemscore.Lipo>
61.5233

> <Gold.Chemscore.Internal_Hbond>
0.0000

> <Gold.Chemscore.DEClash>
0.1600

> <Gold.Chemscore.DEInternal>
4.6553

> <Gold.Chemscore.Rot>
1.4980

> <Gold.Chemscore.Internal.Correction>
   9.000000E+99

> <Gold.Chemscore.Hbonds>
donor molecule, donor type, donor heavy atom, donor atom, acceptor molecule, acceptor atom, score
      L1  H    10    26       P1  7949  0.06
      P1  H  7997  8010       L1    19  0.94

> <Gold.Chemscore.Hbond.Weighted>
-4.8855

> <Gold.Chemscore.Metal.Weighted>
-0.0000

> <Gold.Chemscore.Lipo.Weighted>
-7.1982

> <Gold.Chemscore.Internal_Hbond.Weighted>
0.0000

> <Gold.Chemscore.DEClash.Weighted>
0.1600

> <Gold.Chemscore.DEInternal.Weighted>
4.6553

> <Gold.Chemscore.Rot.Weighted>
3.8350

> <Gold.Chemscore.Internal.Correction.Weighted>
   9.000000E+99

> <Gold.Protein.RotatedTorsions>
[ 6907 6896 6895 6894 ] final  -53.47 input  -60.11 | X-H torsion
[ 7974 7965 7964 7962 ] final -134.12 input  175.53 | X-H torsion
[ 8008 7997 7996 7995 ] final   -1.32 input   59.86 | X-H torsion
[ 10167 10162 10161 10158 ] final  -39.13 input  -65.29 | X-H torsion
[ 10718 10713 10712 10709 ] final  125.28 input   66.30 | X-H torsion
[ 10763 10752 10751 10750 ] final  -28.88 input  -60.55 | X-H torsion
[ 11005 11000 10999 10996 ] final  144.12 input  -57.11 | X-H torsion

> <Gold.Protein.ActiveResidues>
 VAL166  LYS551  ARG553  GLY616  TRP617  ASP618  TYR619  PRO620  LYS621  CYS622 
 ASP623  PHE694  ASN695  SER759  ASP760  ASP761  ALA762  ILE779  LEU786  VAL792 
 PHE793  MET794  SER795  GLU796  ALA797  LYS798  CYS799  TRP800  GLU811  SER814 

> <Gold.Protein.RotatedAtoms>
  150.8424  134.7721  159.6942 H   0  0  0  0  0  0  0  0  0  0  0  0  # atno 6907 bound_to 6896
  152.4508  134.5393  159.9844 H   0  0  0  0  0  0  0  0  0  0  0  0  # atno 6908 bound_to 6896
  151.5530  133.3376  159.2992 H   0  0  0  0  0  0  0  0  0  0  0  0  # atno 6909 bound_to 6896
  144.9131  140.6920  143.5012 H   0  0  0  0  0  0  0  0  0  0  0  0  # atno 7974 bound_to 7965
  154.6482  140.2562  155.7244 H   0  0  0  0  0  0  0  0  0  0  0  0  # atno 8008 bound_to 7997
  156.2562  140.2873  156.0825 H   0  0  0  0  0  0  0  0  0  0  0  0  # atno 8009 bound_to 7997
  155.1492  140.0382  157.2807 H   0  0  0  0  0  0  0  0  0  0  0  0  # atno 8010 bound_to 7997
  140.7073  143.3233  151.2739 H   0  0  0  0  0  0  0  0  0  0  0  0  # atno 10167 bound_to 10162
  157.5516  131.1094  150.8692 H   0  0  0  0  0  0  0  0  0  0  0  0  # atno 10718 bound_to 10713
  153.7555  135.6923  153.4936 H   0  0  0  0  0  0  0  0  0  0  0  0  # atno 10763 bound_to 10752
  153.1974  135.4449  155.0223 H   0  0  0  0  0  0  0  0  0  0  0  0  # atno 10764 bound_to 10752
  154.8172  135.3404  154.7073 H   0  0  0  0  0  0  0  0  0  0  0  0  # atno 10765 bound_to 10752
  140.0607  134.9206  157.1179 H   0  0  0  0  0  0  0  0  0  0  0  0  # atno 11005 bound_to 11000
  145.3420  139.1729  143.4480 LP  0  0  0  0  0  0  0  0  0  0  0  0  # atno 17320 bound_to 7965
  146.3168  140.3463  142.8652 LP  0  0  0  0  0  0  0  0  0  0  0  0  # atno 17321 bound_to 7965
  139.6694  144.0047  152.2743 LP  0  0  0  0  0  0  0  0  0  0  0  0  # atno 17342 bound_to 10162
  139.9640  144.6538  150.8052 LP  0  0  0  0  0  0  0  0  0  0  0  0  # atno 17343 bound_to 10162
  156.9215  130.5317  149.5279 LP  0  0  0  0  0  0  0  0  0  0  0  0  # atno 17370 bound_to 10713
  156.0582  130.5639  150.9136 LP  0  0  0  0  0  0  0  0  0  0  0  0  # atno 17371 bound_to 10713
  140.3774  134.2324  155.7173 LP  0  0  0  0  0  0  0  0  0  0  0  0  # atno 17394 bound_to 11000
  141.1972  133.8065  157.0639 LP  0  0  0  0  0  0  0  0  0  0  0  0  # atno 17395 bound_to 11000

$$$$
