AV-unprocessed.smi:1244|AV-procd|sdf|5226|dock1
  -GOLD-   22720 4323D 1   1.00000     0.00000
 Structure written by MMmdl.
 55 57  0  0  0  0  0  0  0  0  2 V2000
  152.8191  138.8738  155.1737 C   0  0  0  0  0  0  0  0  0  0  0  0
  151.2986  138.6893  155.2199 C   0  0  2  0  0  0  0  0  0  0  0  0
  150.8307  137.5147  154.3368 C   0  0  0  0  0  0  0  0  0  0  0  0
  149.3519  137.4016  154.3300 N   0  3  1  0  0  0  0  0  0  0  0  0
  148.7964  136.7827  155.5624 C   0  0  0  0  0  0  0  0  0  0  0  0
  147.2858  136.5056  155.4469 C   0  0  0  0  0  0  0  0  0  0  0  0
  147.0281  135.2348  154.7799 N   0  0  0  0  0  0  0  0  0  0  0  0
  146.3503  135.0992  153.6313 C   0  0  0  0  0  0  0  0  0  0  0  0
  145.8685  136.0494  153.0141 O   0  0  0  0  0  0  0  0  0  0  0  0
  146.2853  133.8115  153.2541 N   0  0  0  0  0  0  0  0  0  0  0  0
  145.7095  133.2639  152.0721 C   0  0  0  0  0  0  0  0  0  0  0  0
  144.9934  134.0654  151.1491 C   0  0  0  0  0  0  0  0  0  0  0  0
  144.3908  133.4612  150.0324 C   0  0  0  0  0  0  0  0  0  0  0  0
  144.5105  132.0694  149.8843 C   0  0  0  0  0  0  0  0  0  0  0  0
  145.1745  131.2902  150.7610 N   0  0  0  0  0  0  0  0  0  0  0  0
  145.7734  131.8606  151.8353 C   0  0  0  0  0  0  0  0  0  0  0  0
  146.4702  130.9979  152.7118 N   0  0  0  0  0  0  0  0  0  0  0  0
  146.2788  129.5534  152.6361 C   0  0  0  0  0  0  0  0  0  0  0  0
  147.4443  128.9604  153.4225 C   0  0  0  0  0  0  0  0  0  0  0  0
  148.5800  129.9258  153.0969 C   0  0  0  0  0  0  0  0  0  0  0  0
  147.8786  131.2828  152.9705 C   0  0  0  0  0  0  0  0  0  0  0  0
  148.7363  138.7010  153.9567 C   0  0  0  0  0  0  0  0  0  0  0  0
  149.2717  139.8588  154.8275 C   0  0  2  0  0  0  0  0  0  0  0  0
  148.7421  141.2196  154.3625 C   0  0  0  0  0  0  0  0  0  0  0  0
  150.6929  139.8880  154.7480 O   0  0  0  0  0  0  0  0  0  0  0  0
  153.3336  137.9833  155.5355 H   0  0  0  0  0  0  0  0  0  0  0  0
  153.1289  139.7124  155.7979 H   0  0  0  0  0  0  0  0  0  0  0  0
  153.1631  139.0702  154.1578 H   0  0  0  0  0  0  0  0  0  0  0  0
  151.0051  138.5200  156.2572 H   0  0  0  0  0  0  0  0  0  0  0  0
  151.1641  137.6760  153.3106 H   0  0  0  0  0  0  0  0  0  0  0  0
  151.2849  136.5771  154.6600 H   0  0  0  0  0  0  0  0  0  0  0  0
  149.2967  135.8297  155.7404 H   0  0  0  0  0  0  0  0  0  0  0  0
  149.0138  137.4037  156.4313 H   0  0  0  0  0  0  0  0  0  0  0  0
  146.8017  136.5008  156.4239 H   0  0  0  0  0  0  0  0  0  0  0  0
  146.8063  137.2960  154.8688 H   0  0  0  0  0  0  0  0  0  0  0  0
  147.3957  134.4029  155.2188 H   0  0  0  0  0  0  0  0  0  0  0  0
  146.8002  133.1551  153.8230 H   0  0  0  0  0  0  0  0  0  0  0  0
  144.8758  135.1291  151.2886 H   0  0  0  0  0  0  0  0  0  0  0  0
  143.8397  134.0492  149.3135 H   0  0  0  0  0  0  0  0  0  0  0  0
  144.0559  131.5668  149.0435 H   0  0  0  0  0  0  0  0  0  0  0  0
  145.3155  129.2582  153.0534 H   0  0  0  0  0  0  0  0  0  0  0  0
  146.3266  129.2080  151.6026 H   0  0  0  0  0  0  0  0  0  0  0  0
  147.2272  128.9876  154.4913 H   0  0  0  0  0  0  0  0  0  0  0  0
  147.6642  127.9293  153.1446 H   0  0  0  0  0  0  0  0  0  0  0  0
  149.3699  129.9248  153.8485 H   0  0  0  0  0  0  0  0  0  0  0  0
  149.0269  129.6538  152.1398 H   0  0  0  0  0  0  0  0  0  0  0  0
  148.3271  131.8910  152.1836 H   0  0  0  0  0  0  0  0  0  0  0  0
  147.9601  131.8308  153.9094 H   0  0  0  0  0  0  0  0  0  0  0  0
  148.9773  138.8961  152.9107 H   0  0  0  0  0  0  0  0  0  0  0  0
  147.6494  138.6510  154.0112 H   0  0  0  0  0  0  0  0  0  0  0  0
  148.9750  139.7198  155.8679 H   0  0  0  0  0  0  0  0  0  0  0  0
  147.6533  141.2545  154.4114 H   0  0  0  0  0  0  0  0  0  0  0  0
  149.0381  141.4295  153.3341 H   0  0  0  0  0  0  0  0  0  0  0  0
  149.1279  142.0230  154.9906 H   0  0  0  0  0  0  0  0  0  0  0  0
  149.1304  136.7527  153.5880 H   0  0  0  0  0  0  0  0  0  0  0  0
  1  2  1  0  0  0  0
  1 26  1  0  0  0  0
  1 27  1  0  0  0  0
  1 28  1  0  0  0  0
  2 25  1  0  0  0  0
  2  3  1  0  0  0  0
  2 29  1  0  0  0  0
  3  4  1  0  0  0  0
  3 30  1  0  0  0  0
  3 31  1  0  0  0  0
  4  5  1  0  0  0  0
  4 22  1  0  0  0  0
  4 55  1  0  0  0  0
  5  6  1  0  0  0  0
  5 32  1  0  0  0  0
  5 33  1  0  0  0  0
  6  7  1  0  0  0  0
  6 34  1  0  0  0  0
  6 35  1  0  0  0  0
  7  8  1  0  0  0  0
  7 36  1  0  0  0  0
  8  9  2  0  0  0  0
  8 10  1  0  0  0  0
 10 11  1  0  0  0  0
 10 37  1  0  0  0  0
 11 16  1  0  0  0  0
 11 12  2  0  0  0  0
 12 13  1  0  0  0  0
 12 38  1  0  0  0  0
 13 14  2  0  0  0  0
 13 39  1  0  0  0  0
 14 15  1  0  0  0  0
 14 40  1  0  0  0  0
 15 16  2  0  0  0  0
 16 17  1  0  0  0  0
 17 21  1  0  0  0  0
 17 18  1  0  0  0  0
 18 19  1  0  0  0  0
 18 41  1  0  0  0  0
 18 42  1  0  0  0  0
 19 20  1  0  0  0  0
 19 43  1  0  0  0  0
 19 44  1  0  0  0  0
 20 21  1  0  0  0  0
 20 45  1  0  0  0  0
 20 46  1  0  0  0  0
 21 47  1  0  0  0  0
 21 48  1  0  0  0  0
 22 23  1  0  0  0  0
 22 49  1  0  0  0  0
 22 50  1  0  0  0  0
 23 24  1  0  0  0  0
 23 25  1  0  0  0  0
 23 51  1  0  0  0  0
 24 52  1  0  0  0  0
 24 53  1  0  0  0  0
 24 54  1  0  0  0  0
M  CHG  1   4   1
M  END
> <s_m_source_file>
AV-unprocessed.smi

> <i_m_source_file_index>
1244

> <i_lp_mmshare_version>
43012

> <i_f3d_flags>
0

> <s_epik_input>
W0NIM11bQ0BASF0xW0NIMl1OKFtDSDJdW0NASF0oTzEpW0NIM10pW0NIMl1bQ0gyXVtOSF1DKD1PKVtOSF1jMltjSF1bY0hdW2NIXW5jMk4zW0NIMl1bQ0gyXVtDSDJdW0NIMl0z

> <s_epik_cmdline>
J2VwaWtfcHl0aG9uJywgJy1waCcsICc3LjAnLCAnLXRuJywgJzgnLCAnLW1hJywgJzIwMCcsICctbWV0YWxfYmluZGluZycsICctaW1hZScsICc8aW5maWxlLm1hZT4nLCAnLW9tYWUnLCAnPG91dGZpbGUubWFlPic=

> <r_lp_tautomer_probability>
1

> <r_epik_Ionization_Penalty>
0.684913

> <r_epik_Ionization_Penalty_Charging>
0.602531

> <r_epik_Ionization_Penalty_Neutral>
0.0823829

> <r_epik_State_Penalty>
0.678827

> <r_epik_Charging_Adjusted_Penalty>
1.28136

> <i_epik_Tot_Q>
1

> <i_epik_Tot_abs_Q>
1

> <r_epik_Metal_State_Penalty>
0.67806

> <b_epik_Metal_Only>
0

> <s_lp_Force_Field>
OPLS_2005

> <r_lp_Energy>
44.826

> <b_lp_Chiralities_Consistent>
1

> <s_lp_Variant>
AV-unprocessed.smi:1244-6

> <Gold.Version>
5.8.1

> <Gold.Id.Protein>
6NUR|6NUR_protein|mol2

> <Gold.PLP.Fitness>
46.3780

> <Gold.PLP.PLP>
-37.6958

> <Gold.PLP.part.hbond>
-2.0000

> <Gold.PLP.part.metal>
0.0000

> <Gold.PLP.part.buried>
-3.1837

> <Gold.PLP.part.nonpolar>
-32.6892

> <Gold.PLP.part.repulsive>
0.4960

> <Gold.PLP.ligand.clash>
0.0000

> <Gold.PLP.ligand.torsion>
0.3364

> <Gold.PLP.Chemscore.Hbond>
3.0000

> <Gold.PLP.Chemscore.CHOScore>
0.0000

> <Gold.PLP.Chemscore.Metal>
0.0000

> <Gold.Chemscore.Hbonds>
donor molecule, donor type, donor heavy atom, donor atom, acceptor molecule, acceptor atom, score
      L1  H     4    55       P1  7948  2.00
      P1  H  7989  7998       L1    25  1.00

> <Gold.PLP.Chemscore.Internal.Correction>
0.3550

> <Gold.Rescore>
     Score         DG    S(hbond)    S(metal)    S(lipo)     H(rot)  DE(clash)    DE(int)     intcor
     16.94     -18.99       1.92        0.00      95.78       1.60       0.20       1.85       ----

> <Gold.Chemscore.Fitness>
16.9423

> <Gold.Chemscore.DG>
-18.9942

> <Gold.Chemscore.ZeroCoef>
-5.4800

> <Gold.Chemscore.Hbond>
1.9158

> <Gold.Chemscore.Metal>
0.0000

> <Gold.Chemscore.Lipo>
95.7759

> <Gold.Chemscore.Internal_Hbond>
0.0000

> <Gold.Chemscore.DEClash>
0.1993

> <Gold.Chemscore.DEInternal>
1.8526

> <Gold.Chemscore.Rot>
1.5978

> <Gold.Chemscore.Internal.Correction>
   9.000000E+99

> <Gold.Chemscore.Hbonds>
donor molecule, donor type, donor heavy atom, donor atom, acceptor molecule, acceptor atom, score
      L1  H     4    55       P1  7948  0.97
      P1  H  7989  7998       L1    25  0.94

> <Gold.Chemscore.Hbond.Weighted>
-6.3989

> <Gold.Chemscore.Metal.Weighted>
-0.0000

> <Gold.Chemscore.Lipo.Weighted>
-11.2058

> <Gold.Chemscore.Internal_Hbond.Weighted>
0.0000

> <Gold.Chemscore.DEClash.Weighted>
0.1993

> <Gold.Chemscore.DEInternal.Weighted>
1.8526

> <Gold.Chemscore.Rot.Weighted>
4.0905

> <Gold.Chemscore.Internal.Correction.Weighted>
   9.000000E+99

> <Gold.Protein.RotatedTorsions>
[ 6907 6896 6895 6894 ] final   97.57 input  -60.11 | X-H torsion
[ 7974 7965 7964 7962 ] final  -13.74 input  175.53 | X-H torsion
[ 8008 7997 7996 7995 ] final  105.20 input   59.86 | X-H torsion
[ 10167 10162 10161 10158 ] final   -1.52 input  -65.29 | X-H torsion
[ 10718 10713 10712 10709 ] final -102.51 input   66.30 | X-H torsion
[ 10763 10752 10751 10750 ] final   80.71 input  -60.55 | X-H torsion
[ 11005 11000 10999 10996 ] final  130.15 input  -57.11 | X-H torsion

> <Gold.Protein.ActiveResidues>
 VAL166  LYS551  ARG553  GLY616  TRP617  ASP618  TYR619  PRO620  LYS621  CYS622 
 ASP623  PHE694  ASN695  SER759  ASP760  ASP761  ALA762  ILE779  LEU786  VAL792 
 PHE793  MET794  SER795  GLU796  ALA797  LYS798  CYS799  TRP800  GLU811  SER814 

> <Gold.Protein.RotatedAtoms>
  152.5421  134.0713  159.8194 H   0  0  0  0  0  0  0  0  0  0  0  0  # atno 6907 bound_to 6896
  151.0827  133.5370  159.2627 H   0  0  0  0  0  0  0  0  0  0  0  0  # atno 6908 bound_to 6896
  151.2191  135.0520  159.8996 H   0  0  0  0  0  0  0  0  0  0  0  0  # atno 6909 bound_to 6896
  146.2102  140.3248  142.8393 H   0  0  0  0  0  0  0  0  0  0  0  0  # atno 7974 bound_to 7965
  156.1639  140.3134  155.8854 H   0  0  0  0  0  0  0  0  0  0  0  0  # atno 8008 bound_to 7997
  155.3727  140.0483  157.3062 H   0  0  0  0  0  0  0  0  0  0  0  0  # atno 8009 bound_to 7997
  154.5173  140.2186  155.9053 H   0  0  0  0  0  0  0  0  0  0  0  0  # atno 8010 bound_to 7997
  140.6813  143.6766  150.8140 H   0  0  0  0  0  0  0  0  0  0  0  0  # atno 10167 bound_to 10162
  156.0231  130.5423  150.7118 H   0  0  0  0  0  0  0  0  0  0  0  0  # atno 10718 bound_to 10713
  153.1056  135.4792  154.8945 H   0  0  0  0  0  0  0  0  0  0  0  0  # atno 10763 bound_to 10752
  154.7426  135.3086  154.8703 H   0  0  0  0  0  0  0  0  0  0  0  0  # atno 10764 bound_to 10752
  153.9307  135.6845  153.4799 H   0  0  0  0  0  0  0  0  0  0  0  0  # atno 10765 bound_to 10752
  139.9656  134.9591  156.9252 H   0  0  0  0  0  0  0  0  0  0  0  0  # atno 11005 bound_to 11000
  144.8894  140.7504  143.5936 LP  0  0  0  0  0  0  0  0  0  0  0  0  # atno 17320 bound_to 7965
  145.3170  139.1800  143.4608 LP  0  0  0  0  0  0  0  0  0  0  0  0  # atno 17321 bound_to 7965
  140.0467  143.5291  152.2693 LP  0  0  0  0  0  0  0  0  0  0  0  0  # atno 17342 bound_to 10162
  139.6138  144.7615  151.2892 LP  0  0  0  0  0  0  0  0  0  0  0  0  # atno 17343 bound_to 10162
  157.4755  131.0897  151.0595 LP  0  0  0  0  0  0  0  0  0  0  0  0  # atno 17370 bound_to 10713
  157.1043  130.5995  149.5467 LP  0  0  0  0  0  0  0  0  0  0  0  0  # atno 17371 bound_to 10713
  140.5404  134.0725  155.7340 LP  0  0  0  0  0  0  0  0  0  0  0  0  # atno 17394 bound_to 11000
  141.1335  133.9261  157.2484 LP  0  0  0  0  0  0  0  0  0  0  0  0  # atno 17395 bound_to 11000

$$$$
