AV-unprocessed.smi:653|AV-procd|sdf|3208|dock2
  -GOLD-   22720 0143D 1   1.00000     0.00000
 Structure written by MMmdl.
 45 46  0  0  0  0  0  0  0  0  2 V2000
  151.6725  145.3098  158.5118 C   0  0  0  0  0  0  0  0  0  0  0  0
  151.5850  143.7996  158.4458 C   0  0  0  0  0  0  0  0  0  0  0  0
  152.3277  142.9649  159.3079 C   0  0  0  0  0  0  0  0  0  0  0  0
  152.1952  141.5654  159.1947 C   0  0  0  0  0  0  0  0  0  0  0  0
  151.3234  141.0275  158.2219 C   0  0  0  0  0  0  0  0  0  0  0  0
  151.1565  139.5248  158.0774 C   0  0  0  0  0  0  0  0  0  0  0  0
  152.5139  138.8212  158.1455 C   0  0  0  0  0  0  0  0  0  0  0  0
  153.3550  139.0161  157.2677 O   0  0  0  0  0  0  0  0  0  0  0  0
  152.7160  138.0076  159.1932 N   0  0  0  0  0  0  0  0  0  0  0  0
  153.9379  137.2492  159.4384 C   0  0  0  0  0  0  0  0  0  0  0  0
  153.9618  136.6316  160.8507 C   0  0  2  0  0  0  0  0  0  0  0  0
  153.9972  137.6474  161.9767 C   0  0  0  0  0  0  0  0  0  0  0  0
  154.4929  136.8014  163.1443 C   0  0  0  0  0  0  0  0  0  0  0  0
  155.3721  135.8373  162.5739 O   0  0  0  0  0  0  0  0  0  0  0  0
  155.2251  135.8129  161.1548 C   0  0  1  0  0  0  0  0  0  0  0  0
  155.2444  134.3643  160.6142 C   0  0  0  0  0  0  0  0  0  0  0  0
  156.3950  133.5126  161.1811 C   0  0  0  0  0  0  0  0  0  0  0  0
  155.2729  134.3554  159.0777 C   0  0  0  0  0  0  0  0  0  0  0  0
  150.6062  141.9120  157.3873 C   0  0  0  0  0  0  0  0  0  0  0  0
  150.7597  143.2469  157.5285 N   0  3  0  0  0  0  0  0  0  0  0  0
  152.6122  145.6248  158.9663 H   0  0  0  0  0  0  0  0  0  0  0  0
  150.8520  145.7094  159.1081 H   0  0  0  0  0  0  0  0  0  0  0  0
  151.6173  145.7454  157.5136 H   0  0  0  0  0  0  0  0  0  0  0  0
  152.9902  143.3888  160.0487 H   0  0  0  0  0  0  0  0  0  0  0  0
  152.7541  140.9141  159.8509 H   0  0  0  0  0  0  0  0  0  0  0  0
  150.4899  139.1556  158.8587 H   0  0  0  0  0  0  0  0  0  0  0  0
  150.6828  139.2919  157.1229 H   0  0  0  0  0  0  0  0  0  0  0  0
  151.9704  137.9012  159.8659 H   0  0  0  0  0  0  0  0  0  0  0  0
  154.0456  136.4709  158.6814 H   0  0  0  0  0  0  0  0  0  0  0  0
  154.7860  137.9219  159.3070 H   0  0  0  0  0  0  0  0  0  0  0  0
  153.0770  136.0114  160.9904 H   0  0  0  0  0  0  0  0  0  0  0  0
  154.7157  138.4383  161.7569 H   0  0  0  0  0  0  0  0  0  0  0  0
  153.0284  138.1088  162.1708 H   0  0  0  0  0  0  0  0  0  0  0  0
  154.9936  137.3963  163.9083 H   0  0  0  0  0  0  0  0  0  0  0  0
  153.6603  136.2762  163.6144 H   0  0  0  0  0  0  0  0  0  0  0  0
  156.0814  136.3547  160.7492 H   0  0  0  0  0  0  0  0  0  0  0  0
  154.3102  133.8880  160.9131 H   0  0  0  0  0  0  0  0  0  0  0  0
  157.3665  133.9482  160.9465 H   0  0  0  0  0  0  0  0  0  0  0  0
  156.3773  132.5067  160.7611 H   0  0  0  0  0  0  0  0  0  0  0  0
  156.3301  133.4040  162.2629 H   0  0  0  0  0  0  0  0  0  0  0  0
  156.1835  134.8171  158.6950 H   0  0  0  0  0  0  0  0  0  0  0  0
  154.4241  134.9008  158.6642 H   0  0  0  0  0  0  0  0  0  0  0  0
  155.2273  133.3378  158.6888 H   0  0  0  0  0  0  0  0  0  0  0  0
  149.9159  141.5954  156.6190 H   0  0  0  0  0  0  0  0  0  0  0  0
  150.2284  143.8661  156.9160 H   0  0  0  0  0  0  0  0  0  0  0  0
  1  2  1  0  0  0  0
  1 21  1  0  0  0  0
  1 22  1  0  0  0  0
  1 23  1  0  0  0  0
  2 20  1  0  0  0  0
  2  3  2  0  0  0  0
  3  4  1  0  0  0  0
  3 24  1  0  0  0  0
  4  5  2  0  0  0  0
  4 25  1  0  0  0  0
  5  6  1  0  0  0  0
  5 19  1  0  0  0  0
  6  7  1  0  0  0  0
  6 26  1  0  0  0  0
  6 27  1  0  0  0  0
  7  8  2  0  0  0  0
  7  9  1  0  0  0  0
  9 10  1  0  0  0  0
  9 28  1  0  0  0  0
 10 11  1  0  0  0  0
 10 29  1  0  0  0  0
 10 30  1  0  0  0  0
 11 15  1  0  0  0  0
 11 12  1  0  0  0  0
 11 31  1  0  0  0  0
 12 13  1  0  0  0  0
 12 32  1  0  0  0  0
 12 33  1  0  0  0  0
 13 14  1  0  0  0  0
 13 34  1  0  0  0  0
 13 35  1  0  0  0  0
 14 15  1  0  0  0  0
 15 16  1  0  0  0  0
 15 36  1  0  0  0  0
 16 17  1  0  0  0  0
 16 18  1  0  0  0  0
 16 37  1  0  0  0  0
 17 38  1  0  0  0  0
 17 39  1  0  0  0  0
 17 40  1  0  0  0  0
 18 41  1  0  0  0  0
 18 42  1  0  0  0  0
 18 43  1  0  0  0  0
 19 20  2  0  0  0  0
 19 44  1  0  0  0  0
 20 45  1  0  0  0  0
M  CHG  1  20   1
M  END
> <s_m_source_file>
AV-unprocessed.smi

> <i_m_source_file_index>
653

> <i_lp_mmshare_version>
43012

> <i_f3d_flags>
0

> <s_epik_input>
W0NIM11jMVtjSF1bY0hdYyhbY0hdbjEpW0NIMl1DKD1PKVtOSF1bQ0gyXVtDQEBIXTJbQ0gyXVtDSDJdT1tDQEhdMltDSF0oW0NIM10pW0NIM10=

> <s_epik_cmdline>
J2VwaWtfcHl0aG9uJywgJy1waCcsICc3LjAnLCAnLXRuJywgJzgnLCAnLW1hJywgJzIwMCcsICctbWV0YWxfYmluZGluZycsICctaW1hZScsICc8aW5maWxlLm1hZT4nLCAnLW9tYWUnLCAnPG91dGZpbGUubWFlPic=

> <r_epik_Ionization_Penalty>
2.12486

> <r_epik_Ionization_Penalty_Charging>
2.12486

> <r_epik_Ionization_Penalty_Neutral>
9.0873e-08

> <r_epik_State_Penalty>
2.26279

> <r_epik_Charging_Adjusted_Penalty>
4.38765

> <i_epik_Tot_Q>
1

> <i_epik_Tot_abs_Q>
1

> <r_epik_Metal_State_Penalty>
2.27914

> <b_epik_Metal_Only>
0

> <s_lp_Force_Field>
OPLS_2005

> <r_lp_Energy>
26.2023

> <b_lp_Chiralities_Consistent>
1

> <s_lp_Variant>
AV-unprocessed.smi:653-5

> <Gold.Version>
5.8.1

> <Gold.Id.Protein>
6NUR|6NUR_protein|mol2

> <Gold.PLP.Fitness>
41.7503

> <Gold.PLP.PLP>
-33.5510

> <Gold.PLP.part.hbond>
-1.9920

> <Gold.PLP.part.metal>
0.0000

> <Gold.PLP.part.buried>
-4.7821

> <Gold.PLP.part.nonpolar>
-27.0165

> <Gold.PLP.part.repulsive>
0.1063

> <Gold.PLP.ligand.clash>
0.0000

> <Gold.PLP.ligand.torsion>
0.4025

> <Gold.PLP.Chemscore.Hbond>
2.9825

> <Gold.PLP.Chemscore.CHOScore>
0.0000

> <Gold.PLP.Chemscore.Metal>
0.0000

> <Gold.Chemscore.Hbonds>
donor molecule, donor type, donor heavy atom, donor atom, acceptor molecule, acceptor atom, score
      L1  H    20    45       P1  8028  2.00
      P1  H  7997  8009       L1     8  1.00

> <Gold.PLP.Chemscore.Internal.Correction>
0.0568

> <Gold.Rescore>
     Score         DG    S(hbond)    S(metal)    S(lipo)     H(rot)  DE(clash)    DE(int)     intcor
     19.00     -19.35       1.97        0.00      96.74       1.57       0.02       0.33       ----

> <Gold.Chemscore.Fitness>
18.9993

> <Gold.Chemscore.DG>
-19.3498

> <Gold.Chemscore.ZeroCoef>
-5.4800

> <Gold.Chemscore.Hbond>
1.9673

> <Gold.Chemscore.Metal>
0.0000

> <Gold.Chemscore.Lipo>
96.7394

> <Gold.Chemscore.Internal_Hbond>
0.0000

> <Gold.Chemscore.DEClash>
0.0202

> <Gold.Chemscore.DEInternal>
0.3302

> <Gold.Chemscore.Rot>
1.5701

> <Gold.Chemscore.Internal.Correction>
   9.000000E+99

> <Gold.Chemscore.Hbonds>
donor molecule, donor type, donor heavy atom, donor atom, acceptor molecule, acceptor atom, score
      L1  H    20    45       P1  8028  0.95
      P1  H  7997  8009       L1     8  0.97

> <Gold.Chemscore.Hbond.Weighted>
-6.5708

> <Gold.Chemscore.Metal.Weighted>
-0.0000

> <Gold.Chemscore.Lipo.Weighted>
-11.3185

> <Gold.Chemscore.Internal_Hbond.Weighted>
0.0000

> <Gold.Chemscore.DEClash.Weighted>
0.0202

> <Gold.Chemscore.DEInternal.Weighted>
0.3302

> <Gold.Chemscore.Rot.Weighted>
4.0196

> <Gold.Chemscore.Internal.Correction.Weighted>
   9.000000E+99

> <Gold.Protein.RotatedTorsions>
[ 6907 6896 6895 6894 ] final   90.99 input  -60.11 | X-H torsion
[ 7974 7965 7964 7962 ] final -157.90 input  175.53 | X-H torsion
[ 8008 7997 7996 7995 ] final  171.78 input   59.86 | X-H torsion
[ 10167 10162 10161 10158 ] final   59.29 input  -65.29 | X-H torsion
[ 10718 10713 10712 10709 ] final -166.45 input   66.30 | X-H torsion
[ 10763 10752 10751 10750 ] final -126.80 input  -60.55 | X-H torsion
[ 11005 11000 10999 10996 ] final  -14.00 input  -57.11 | X-H torsion

> <Gold.Protein.ActiveResidues>
 VAL166  LYS551  ARG553  GLY616  TRP617  ASP618  TYR619  PRO620  LYS621  CYS622 
 ASP623  PHE694  ASN695  SER759  ASP760  ASP761  ALA762  ILE779  LEU786  VAL792 
 PHE793  MET794  SER795  GLU796  ALA797  LYS798  CYS799  TRP800  GLU811  SER814 

> <Gold.Protein.RotatedAtoms>
  152.5448  134.1727  159.8602 H   0  0  0  0  0  0  0  0  0  0  0  0  # atno 6907 bound_to 6896
  151.1735  133.4762  159.2601 H   0  0  0  0  0  0  0  0  0  0  0  0  # atno 6908 bound_to 6896
  151.1250  135.0111  159.8611 H   0  0  0  0  0  0  0  0  0  0  0  0  # atno 6909 bound_to 6896
  144.7528  140.3904  143.6035 H   0  0  0  0  0  0  0  0  0  0  0  0  # atno 7974 bound_to 7965
  156.1238  140.1503  156.9166 H   0  0  0  0  0  0  0  0  0  0  0  0  # atno 8008 bound_to 7997
  154.4856  140.0866  156.7519 H   0  0  0  0  0  0  0  0  0  0  0  0  # atno 8009 bound_to 7997
  155.4380  140.3430  155.4289 H   0  0  0  0  0  0  0  0  0  0  0  0  # atno 8010 bound_to 7997
  140.1780  144.4210  150.6629 H   0  0  0  0  0  0  0  0  0  0  0  0  # atno 10167 bound_to 10162
  156.6680  130.9073  151.3039 H   0  0  0  0  0  0  0  0  0  0  0  0  # atno 10718 bound_to 10713
  154.8748  135.3983  154.3490 H   0  0  0  0  0  0  0  0  0  0  0  0  # atno 10763 bound_to 10752
  153.4278  135.7024  153.6256 H   0  0  0  0  0  0  0  0  0  0  0  0  # atno 10764 bound_to 10752
  153.4890  135.3752  155.2452 H   0  0  0  0  0  0  0  0  0  0  0  0  # atno 10765 bound_to 10752
  140.7819  133.8356  155.9300 H   0  0  0  0  0  0  0  0  0  0  0  0  # atno 11005 bound_to 11000
  145.6882  139.1633  143.2662 LP  0  0  0  0  0  0  0  0  0  0  0  0  # atno 17320 bound_to 7965
  146.1502  140.6936  142.9326 LP  0  0  0  0  0  0  0  0  0  0  0  0  # atno 17321 bound_to 7965
  140.6538  143.2232  151.6015 LP  0  0  0  0  0  0  0  0  0  0  0  0  # atno 17342 bound_to 10162
  139.5309  144.2920  152.1144 LP  0  0  0  0  0  0  0  0  0  0  0  0  # atno 17343 bound_to 10162
  157.7087  130.9414  150.1015 LP  0  0  0  0  0  0  0  0  0  0  0  0  # atno 17370 bound_to 10713
  156.1960  130.3657  149.8849 LP  0  0  0  0  0  0  0  0  0  0  0  0  # atno 17371 bound_to 10713
  140.9474  134.1823  157.4753 LP  0  0  0  0  0  0  0  0  0  0  0  0  # atno 17394 bound_to 11000
  139.8741  134.9896  156.5463 LP  0  0  0  0  0  0  0  0  0  0  0  0  # atno 17395 bound_to 11000

$$$$
