#       Name:                AV-unprocessed.smi:1436
#       Creating user name   scv26
#       Creation time:       Fri Mar 27 05:53:35 2020


#       File generated by GOLD software.
#

@<TRIPOS>MOLECULE
AV-unprocessed.smi:1436
    51    52     1
SMALL
NO_CHARGES


@<TRIPOS>ATOM
      1 ****        -2.9412  -1.2081   0.5556 C.3            1 S1                 0.0000
      2 ****        -2.6266   0.2446   0.3413 C.2            1 S1                 0.0000
      3 ****        -2.8274   1.1041   1.3250 N.2            1 S1                 0.0000
      4 ****        -2.4302   2.3505   0.8319 O.3            1 S1                 0.0000
      5 ****        -1.9932   2.1898  -0.4425 C.2            1 S1                 0.0000
      6 ****        -1.5024   3.4158  -1.1353 C.3            1 S1                 0.0000
      7 ****        -2.0907   0.8775  -0.8178 C.2            1 S1                 0.0000
      8 ****        -1.7020   0.2416  -2.1290 C.3            1 S1                 0.0000
      9 ****        -0.2532  -0.2260  -2.0258 C.2            1 S1                 0.0000
     10 ****         0.6605   0.5179  -2.3798 O.2            1 S1                 0.0000
     11 ****        -0.0602  -1.4344  -1.4733 N.am           1 S1                 0.0000
     12 ****         1.2278  -1.9989  -1.0733 C.3            1 S1                 0.0000
     13 ****         1.2722  -3.4849  -1.4532 C.3            1 S1                 0.0000
     14 ****         1.4601  -1.7916   0.4415 C.3            1 S1                 0.0000
     15 ****         1.3160  -0.3734   0.8615 N.4            1 S1                 1.0000
     16 ****         0.9429  -0.2204   2.2869 C.3            1 S1                 0.0000
     17 ****         0.7381   1.2661   2.6280 C.3            1 S1                 0.0000
     18 ****         1.9136   2.0007   2.3091 O.3            1 S1                 0.0000
     19 ****         2.2292   1.9259   0.9244 C.3            1 S1                 0.0000
     20 ****         2.4976   0.4621   0.5399 C.3            1 S1                 0.0000
     21 ****        -2.0440  -1.7628   0.8314 H              1 S1                 0.0000
     22 ****        -3.3473  -1.6606  -0.3490 H              1 S1                 0.0000
     23 ****        -3.6756  -1.3475   1.3498 H              1 S1                 0.0000
     24 ****        -0.5492   3.7385  -0.7166 H              1 S1                 0.0000
     25 ****        -2.2151   4.2336  -1.0269 H              1 S1                 0.0000
     26 ****        -1.3579   3.2350  -2.2002 H              1 S1                 0.0000
     27 ****        -2.3444  -0.6049  -2.3743 H              1 S1                 0.0000
     28 ****        -1.7941   0.9423  -2.9596 H              1 S1                 0.0000
     29 ****        -0.8805  -1.9731  -1.2347 H              1 S1                 0.0000
     30 ****         2.0301  -1.5067  -1.6250 H              1 S1                 0.0000
     31 ****         2.2318  -3.9287  -1.1859 H              1 S1                 0.0000
     32 ****         1.1361  -3.6203  -2.5267 H              1 S1                 0.0000
     33 ****         0.4909  -4.0509  -0.9443 H              1 S1                 0.0000
     34 ****         0.7241  -2.3914   0.9796 H              1 S1                 0.0000
     35 ****         2.4379  -2.1715   0.7411 H              1 S1                 0.0000
     36 ****         0.0233  -0.7703   2.4910 H              1 S1                 0.0000
     37 ****         1.7233  -0.6478   2.9184 H              1 S1                 0.0000
     38 ****        -0.1137   1.6770   2.0858 H              1 S1                 0.0000
     39 ****         0.5239   1.3827   3.6904 H              1 S1                 0.0000
     40 ****         1.4156   2.3424   0.3277 H              1 S1                 0.0000
     41 ****         3.1123   2.5345   0.7290 H              1 S1                 0.0000
     42 ****         3.3706   0.0883   1.0771 H              1 S1                 0.0000
     43 ****         2.7281   0.4026  -0.5233 H              1 S1                 0.0000
     44 ****         0.5421   0.0001   0.3301 H              1 S1                 0.0000
     45 ****        -3.1893   0.9039   2.2355 LP             1 S1                 0.0000
     46 ****        -1.6920   2.7176   1.3979 LP             1 S1                 0.0000
     47 ****        -3.2059   2.9815   0.8455 LP             1 S1                 0.0000
     48 ****         0.4539   1.4294  -2.7354 LP             1 S1                 0.0000
     49 ****         1.6099   0.2111  -2.3120 LP             1 S1                 0.0000
     50 ****         2.6789   1.6297   2.8352 LP             1 S1                 0.0000
     51 ****         1.7725   2.9592   2.5568 LP             1 S1                 0.0000
@<TRIPOS>BOND
    1    1    2 1     
    2    1   21 1     
    3    1   22 1     
    4    1   23 1     
    5    2    7 1     
    6    2    3 2     
    7    3    4 1     
    8    4    5 1     
    9    5    6 1     
   10    5    7 2     
   11    6   24 1     
   12    6   25 1     
   13    6   26 1     
   14    7    8 1     
   15    8    9 1     
   16    8   27 1     
   17    8   28 1     
   18    9   10 2     
   19    9   11 am    
   20   11   12 1     
   21   11   29 1     
   22   12   13 1     
   23   12   14 1     
   24   12   30 1     
   25   13   31 1     
   26   13   32 1     
   27   13   33 1     
   28   14   15 1     
   29   14   34 1     
   30   14   35 1     
   31   15   20 1     
   32   15   16 1     
   33   15   44 1     
   34   16   17 1     
   35   16   36 1     
   36   16   37 1     
   37   17   18 1     
   38   17   38 1     
   39   17   39 1     
   40   18   19 1     
   41   19   20 1     
   42   19   40 1     
   43   19   41 1     
   44   20   42 1     
   45   20   43 1     
   46    3   45 1     
   47    4   46 1     
   48    4   47 1     
   49   10   48 1     
   50   10   49 1     
   51   18   50 1     
   52   18   51 1     
@<TRIPOS>SUBSTRUCTURE
      1 S1             1
@<TRIPOS>SET
LONE_PAIRS      STATIC     ATOMS    <user>   **** ""
7 45 46 47 48 49 50 51
DONOR_HYDROGENS      STATIC     ATOMS    <user>   **** ""
2 29 44
ATOM$BLUE        STATIC     ATOMS    COLORGROUP SYSTEM
7 45 46 47 48 49 50 51
ATOM$RED        STATIC     ATOMS    COLORGROUP SYSTEM
2 29 44
