AV-unprocessed.smi:2033|AV-procd|sdf|8260|dock4
  -GOLD-   2272010533D 1   1.00000     0.00000
 Structure written by MMmdl.
 33 34  0  0  0  0  0  0  0  0  1 V2000
  153.1618  142.6975  162.5208 C   0  0  0  0  0  0  0  0  0  0  0  0
  152.3627  142.6796  161.2626 C   0  0  0  0  0  0  0  0  0  0  0  0
  151.1678  143.2731  161.1519 N   0  0  0  0  0  0  0  0  0  0  0  0
  150.6197  143.1201  159.8860 N   0  0  0  0  0  0  0  0  0  0  0  0
  151.4205  142.4127  159.0773 C   0  0  0  0  0  0  0  0  0  0  0  0
  151.1069  142.1061  157.7269 N   0  0  0  0  0  0  0  0  0  0  0  0
  150.0257  141.4678  157.2460 C   0  0  0  0  0  0  0  0  0  0  0  0
  149.0969  141.0282  157.9246 O   0  0  0  0  0  0  0  0  0  0  0  0
  150.0809  141.3621  155.9103 N   0  0  0  0  0  0  0  0  0  0  0  0
  149.0942  140.6898  155.0633 C   0  0  1  0  0  0  0  0  0  0  0  0
  148.4093  141.7113  154.1278 C   0  0  0  0  0  0  0  0  0  0  0  0
  147.0336  141.2600  153.6116 C   0  0  0  0  0  0  0  0  0  0  0  0
  147.0554  139.9998  152.7339 C   0  0  0  0  0  0  0  0  0  0  0  0
  147.4942  138.7313  153.4854 C   0  0  0  0  0  0  0  0  0  0  0  0
  148.9402  138.6489  153.6494 N   0  0  0  0  0  0  0  0  0  0  0  0
  149.7296  139.4912  154.3335 C   0  0  0  0  0  0  0  0  0  0  0  0
  150.9471  139.3128  154.3716 O   0  0  0  0  0  0  0  0  0  0  0  0
  152.9252  141.8746  159.8033 S   0  0  0  0  0  0  0  0  0  0  0  0
  152.5859  143.1340  163.3376 H   0  0  0  0  0  0  0  0  0  0  0  0
  154.0673  143.2869  162.3773 H   0  0  0  0  0  0  0  0  0  0  0  0
  153.4444  141.6816  162.7972 H   0  0  0  0  0  0  0  0  0  0  0  0
  151.7911  142.4016  157.0463 H   0  0  0  0  0  0  0  0  0  0  0  0
  150.8836  141.7497  155.4360 H   0  0  0  0  0  0  0  0  0  0  0  0
  148.3378  140.2726  155.7309 H   0  0  0  0  0  0  0  0  0  0  0  0
  148.2607  142.6516  154.6604 H   0  0  0  0  0  0  0  0  0  0  0  0
  149.0644  141.9501  153.2887 H   0  0  0  0  0  0  0  0  0  0  0  0
  146.3626  141.1033  154.4571 H   0  0  0  0  0  0  0  0  0  0  0  0
  146.5969  142.0756  153.0345 H   0  0  0  0  0  0  0  0  0  0  0  0
  146.0464  139.8392  152.3526 H   0  0  0  0  0  0  0  0  0  0  0  0
  147.6835  140.1581  151.8562 H   0  0  0  0  0  0  0  0  0  0  0  0
  146.9953  138.6521  154.4524 H   0  0  0  0  0  0  0  0  0  0  0  0
  147.1897  137.8552  152.9124 H   0  0  0  0  0  0  0  0  0  0  0  0
  149.3940  137.8753  153.1856 H   0  0  0  0  0  0  0  0  0  0  0  0
  1  2  1  0  0  0  0
  1 19  1  0  0  0  0
  1 20  1  0  0  0  0
  1 21  1  0  0  0  0
  2 18  1  0  0  0  0
  2  3  2  0  0  0  0
  3  4  1  0  0  0  0
  4  5  2  0  0  0  0
  5  6  1  0  0  0  0
  5 18  1  0  0  0  0
  6  7  1  0  0  0  0
  6 22  1  0  0  0  0
  7  8  2  0  0  0  0
  7  9  1  0  0  0  0
  9 10  1  0  0  0  0
  9 23  1  0  0  0  0
 10 16  1  0  0  0  0
 10 11  1  0  0  0  0
 10 24  1  0  0  0  0
 11 12  1  0  0  0  0
 11 25  1  0  0  0  0
 11 26  1  0  0  0  0
 12 13  1  0  0  0  0
 12 27  1  0  0  0  0
 12 28  1  0  0  0  0
 13 14  1  0  0  0  0
 13 29  1  0  0  0  0
 13 30  1  0  0  0  0
 14 15  1  0  0  0  0
 14 31  1  0  0  0  0
 14 32  1  0  0  0  0
 15 16  1  0  0  0  0
 15 33  1  0  0  0  0
 16 17  2  0  0  0  0
M  END
> <s_m_source_file>
AV-unprocessed.smi

> <i_m_source_file_index>
2033

> <i_lp_mmshare_version>
43012

> <i_f3d_flags>
0

> <s_epik_input>
W0NIM11jMW5uYyhzMSlbTkhdQyg9TylbTkhdW0NAQEhdMltDSDJdW0NIMl1bQ0gyXVtDSDJdW05IXUMyPU8=

> <s_epik_cmdline>
J2VwaWtfcHl0aG9uJywgJy1waCcsICc3LjAnLCAnLXRuJywgJzgnLCAnLW1hJywgJzIwMCcsICctbWV0YWxfYmluZGluZycsICctaW1hZScsICc8aW5maWxlLm1hZT4nLCAnLW9tYWUnLCAnPG91dGZpbGUubWFlPic=

> <r_lp_tautomer_probability>
1

> <r_epik_Ionization_Penalty>
0.00079266

> <r_epik_Ionization_Penalty_Charging>
0

> <r_epik_Ionization_Penalty_Neutral>
0.00079266

> <r_epik_State_Penalty>
-0

> <r_epik_Charging_Adjusted_Penalty>
0

> <i_epik_Tot_Q>
0

> <i_epik_Tot_abs_Q>
0

> <r_epik_Metal_State_Penalty>
0.265831

> <b_epik_Metal_Only>
0

> <s_lp_Force_Field>
OPLS_2005

> <r_lp_Energy>
9.00356

> <b_lp_Chiralities_Consistent>
1

> <s_lp_Variant>
AV-unprocessed.smi:2033-2

> <Gold.Version>
5.8.1

> <Gold.Id.Protein>
6NUR|6NUR_protein|mol2

> <Gold.PLP.Fitness>
40.3665

> <Gold.PLP.PLP>
-35.7907

> <Gold.PLP.part.hbond>
-5.0000

> <Gold.PLP.part.metal>
0.0000

> <Gold.PLP.part.buried>
-2.9727

> <Gold.PLP.part.nonpolar>
-28.1811

> <Gold.PLP.part.repulsive>
0.5575

> <Gold.PLP.ligand.clash>
0.0000

> <Gold.PLP.ligand.torsion>
0.5346

> <Gold.PLP.Chemscore.Hbond>
1.8725

> <Gold.PLP.Chemscore.CHOScore>
0.0000

> <Gold.PLP.Chemscore.Metal>
0.0000

> <Gold.Chemscore.Hbonds>
donor molecule, donor type, donor heavy atom, donor atom, acceptor molecule, acceptor atom, score
      L1  H    15    33       P1  7948  0.64
      P1  H  6933  6945       L1     3  0.13
      P1  H  7989  7998       L1    17  1.00

> <Gold.PLP.Chemscore.Internal.Correction>
0.0276

> <Gold.Rescore>
     Score         DG    S(hbond)    S(metal)    S(lipo)     H(rot)  DE(clash)    DE(int)     intcor
     16.17     -16.89       1.80        0.00      68.10       1.00       0.17       0.56       ----

> <Gold.Chemscore.Fitness>
16.1667

> <Gold.Chemscore.DG>
-16.8915

> <Gold.Chemscore.ZeroCoef>
-5.4800

> <Gold.Chemscore.Hbond>
1.7975

> <Gold.Chemscore.Metal>
0.0000

> <Gold.Chemscore.Lipo>
68.1022

> <Gold.Chemscore.Internal_Hbond>
0.0000

> <Gold.Chemscore.DEClash>
0.1683

> <Gold.Chemscore.DEInternal>
0.5564

> <Gold.Chemscore.Rot>
1.0000

> <Gold.Chemscore.Internal.Correction>
   9.000000E+99

> <Gold.Chemscore.Hbonds>
donor molecule, donor type, donor heavy atom, donor atom, acceptor molecule, acceptor atom, score
      L1  H    15    33       P1  7948  0.60
      P1  H  6933  6945       L1     3  0.01
      P1  H  7989  7998       L1    17  0.40

> <Gold.Chemscore.Hbond.Weighted>
-6.0035

> <Gold.Chemscore.Metal.Weighted>
-0.0000

> <Gold.Chemscore.Lipo.Weighted>
-7.9680

> <Gold.Chemscore.Internal_Hbond.Weighted>
0.0000

> <Gold.Chemscore.DEClash.Weighted>
0.1683

> <Gold.Chemscore.DEInternal.Weighted>
0.5564

> <Gold.Chemscore.Rot.Weighted>
2.5600

> <Gold.Chemscore.Internal.Correction.Weighted>
   9.000000E+99

> <Gold.Protein.RotatedTorsions>
[ 6907 6896 6895 6894 ] final  -56.65 input  -60.11 | X-H torsion
[ 7974 7965 7964 7962 ] final -115.02 input  175.53 | X-H torsion
[ 8008 7997 7996 7995 ] final   99.75 input   59.86 | X-H torsion
[ 10167 10162 10161 10158 ] final -112.61 input  -65.29 | X-H torsion
[ 10718 10713 10712 10709 ] final -175.62 input   66.30 | X-H torsion
[ 10763 10752 10751 10750 ] final -144.26 input  -60.55 | X-H torsion
[ 11005 11000 10999 10996 ] final   -4.77 input  -57.11 | X-H torsion

> <Gold.Protein.ActiveResidues>
 VAL166  LYS551  ARG553  GLY616  TRP617  ASP618  TYR619  PRO620  LYS621  CYS622 
 ASP623  PHE694  ASN695  SER759  ASP760  ASP761  ALA762  ILE779  LEU786  VAL792 
 PHE793  MET794  SER795  GLU796  ALA797  LYS798  CYS799  TRP800  GLU811  SER814 

> <Gold.Protein.RotatedAtoms>
  150.8150  134.7326  159.6721 H   0  0  0  0  0  0  0  0  0  0  0  0  # atno 6907 bound_to 6896
  152.4269  134.5849  159.9968 H   0  0  0  0  0  0  0  0  0  0  0  0  # atno 6908 bound_to 6896
  151.6048  133.3315  159.3091 H   0  0  0  0  0  0  0  0  0  0  0  0  # atno 6909 bound_to 6896
  145.1133  140.8624  143.3857 H   0  0  0  0  0  0  0  0  0  0  0  0  # atno 7974 bound_to 7965
  156.1136  140.3224  155.8107 H   0  0  0  0  0  0  0  0  0  0  0  0  # atno 8008 bound_to 7997
  155.4630  140.0541  157.3006 H   0  0  0  0  0  0  0  0  0  0  0  0  # atno 8009 bound_to 7997
  154.4777  140.2039  155.9853 H   0  0  0  0  0  0  0  0  0  0  0  0  # atno 8010 bound_to 7997
  140.1208  143.4445  152.1692 H   0  0  0  0  0  0  0  0  0  0  0  0  # atno 10167 bound_to 10162
  156.8025  130.9557  151.3118 H   0  0  0  0  0  0  0  0  0  0  0  0  # atno 10718 bound_to 10713
  154.8436  135.3445  154.6317 H   0  0  0  0  0  0  0  0  0  0  0  0  # atno 10763 bound_to 10752
  153.6927  135.6974  153.5090 H   0  0  0  0  0  0  0  0  0  0  0  0  # atno 10764 bound_to 10752
  153.2583  135.4331  155.0823 H   0  0  0  0  0  0  0  0  0  0  0  0  # atno 10765 bound_to 10752
  140.6839  133.9129  155.8573 H   0  0  0  0  0  0  0  0  0  0  0  0  # atno 11005 bound_to 11000
  145.0823  139.2951  143.5777 LP  0  0  0  0  0  0  0  0  0  0  0  0  # atno 17320 bound_to 7965
  146.3525  140.0333  142.8649 LP  0  0  0  0  0  0  0  0  0  0  0  0  # atno 17321 bound_to 7965
  139.5569  144.7379  151.4267 LP  0  0  0  0  0  0  0  0  0  0  0  0  # atno 17342 bound_to 10162
  140.6873  143.7945  150.7204 LP  0  0  0  0  0  0  0  0  0  0  0  0  # atno 17343 bound_to 10162
  157.6546  130.8913  149.9703 LP  0  0  0  0  0  0  0  0  0  0  0  0  # atno 17370 bound_to 10713
  156.1092  130.3651  150.0079 LP  0  0  0  0  0  0  0  0  0  0  0  0  # atno 17371 bound_to 10713
  141.0295  134.0776  157.4030 LP  0  0  0  0  0  0  0  0  0  0  0  0  # atno 17394 bound_to 11000
  139.8943  135.0135  156.6945 LP  0  0  0  0  0  0  0  0  0  0  0  0  # atno 17395 bound_to 11000

$$$$
