AV-unprocessed.smi:145|AV-procd|sdf|1197|dock1
  -GOLD-   2262018353D 1   1.00000     0.00000
 Structure written by MMmdl.
 40 42  0  0  0  0  0  0  0  0  1 V2000
  149.4695  135.2036  158.2058 O   0  0  0  0  0  0  0  0  0  0  0  0
  149.2504  136.3889  158.4594 C   0  0  0  0  0  0  0  0  0  0  0  0
  149.8096  137.4982  157.5541 C   0  0  0  0  0  0  0  0  0  0  0  0
  150.6658  138.4729  158.2662 N   0  0  0  0  0  0  0  0  0  0  0  0
  151.7872  137.9930  158.9875 C   0  0  0  0  0  0  0  0  0  0  0  0
  152.0430  136.7893  159.0442 O   0  0  0  0  0  0  0  0  0  0  0  0
  152.6045  139.0139  159.6331 C   0  0  0  0  0  0  0  0  0  0  0  0
  153.6975  138.6524  160.3264 F   0  0  0  0  0  0  0  0  0  0  0  0
  152.2829  140.3206  159.5416 C   0  0  0  0  0  0  0  0  0  0  0  0
  151.1747  140.7742  158.8538 N   0  0  0  0  0  0  0  0  0  0  0  0
  150.9206  142.2610  158.7623 C   0  0  2  0  0  0  0  0  0  0  0  0
  151.0075  142.8153  157.3276 C   0  0  0  0  0  0  0  0  0  0  0  0
  152.0934  143.8731  157.4371 C   0  0  0  0  0  0  0  0  0  0  0  0
  152.1140  144.1861  158.9293 C   0  0  0  0  0  0  0  0  0  0  0  0
  151.8760  142.9236  159.5317 O   0  0  0  0  0  0  0  0  0  0  0  0
  150.3528  139.8501  158.1678 C   0  0  0  0  0  0  0  0  0  0  0  0
  149.3934  140.2308  157.4949 O   0  0  0  0  0  0  0  0  0  0  0  0
  148.5527  136.8229  159.5248 N   0  0  0  0  0  0  0  0  0  0  0  0
  147.9103  136.0590  160.5366 C   0  0  0  0  0  0  0  0  0  0  0  0
  147.4760  136.6029  161.7702 C   0  0  0  0  0  0  0  0  0  0  0  0
  146.8637  135.7767  162.7328 C   0  0  0  0  0  0  0  0  0  0  0  0
  146.6886  134.4036  162.4781 C   0  0  0  0  0  0  0  0  0  0  0  0
  147.1332  133.8538  161.2612 C   0  0  0  0  0  0  0  0  0  0  0  0
  146.8861  131.8122  160.8833 I   0  0  0  0  0  0  0  0  0  0  0  0
  147.7462  134.6783  160.2978 C   0  0  0  0  0  0  0  0  0  0  0  0
  150.3552  137.0329  156.7315 H   0  0  0  0  0  0  0  0  0  0  0  0
  148.9722  137.9976  157.0643 H   0  0  0  0  0  0  0  0  0  0  0  0
  152.9251  141.0368  160.0331 H   0  0  0  0  0  0  0  0  0  0  0  0
  149.9338  142.4254  159.1975 H   0  0  0  0  0  0  0  0  0  0  0  0
  151.2367  142.0436  156.5922 H   0  0  0  0  0  0  0  0  0  0  0  0
  150.0471  143.2630  157.0698 H   0  0  0  0  0  0  0  0  0  0  0  0
  153.0541  143.4585  157.1312 H   0  0  0  0  0  0  0  0  0  0  0  0
  151.8951  144.7514  156.8224 H   0  0  0  0  0  0  0  0  0  0  0  0
  153.0603  144.6163  159.2576 H   0  0  0  0  0  0  0  0  0  0  0  0
  151.3100  144.8749  159.1943 H   0  0  0  0  0  0  0  0  0  0  0  0
  148.5345  137.8231  159.6607 H   0  0  0  0  0  0  0  0  0  0  0  0
  147.6145  137.6467  162.0060 H   0  0  0  0  0  0  0  0  0  0  0  0
  146.5330  136.1975  163.6709 H   0  0  0  0  0  0  0  0  0  0  0  0
  146.2195  133.7729  163.2188 H   0  0  0  0  0  0  0  0  0  0  0  0
  148.0860  134.2456  159.3680 H   0  0  0  0  0  0  0  0  0  0  0  0
  1  2  2  0  0  0  0
  2  3  1  0  0  0  0
  2 18  1  0  0  0  0
  3  4  1  0  0  0  0
  3 26  1  0  0  0  0
  3 27  1  0  0  0  0
  4 16  1  0  0  0  0
  4  5  1  0  0  0  0
  5  6  2  0  0  0  0
  5  7  1  0  0  0  0
  7  8  1  0  0  0  0
  7  9  2  0  0  0  0
  9 10  1  0  0  0  0
  9 28  1  0  0  0  0
 10 11  1  0  0  0  0
 10 16  1  0  0  0  0
 11 15  1  0  0  0  0
 11 12  1  0  0  0  0
 11 29  1  0  0  0  0
 12 13  1  0  0  0  0
 12 30  1  0  0  0  0
 12 31  1  0  0  0  0
 13 14  1  0  0  0  0
 13 32  1  0  0  0  0
 13 33  1  0  0  0  0
 14 15  1  0  0  0  0
 14 34  1  0  0  0  0
 14 35  1  0  0  0  0
 16 17  2  0  0  0  0
 18 19  1  0  0  0  0
 18 36  1  0  0  0  0
 19 25  1  0  0  0  0
 19 20  2  0  0  0  0
 20 21  1  0  0  0  0
 20 37  1  0  0  0  0
 21 22  2  0  0  0  0
 21 38  1  0  0  0  0
 22 23  1  0  0  0  0
 22 39  1  0  0  0  0
 23 24  1  0  0  0  0
 23 25  2  0  0  0  0
 25 40  1  0  0  0  0
M  END
> <s_m_source_file>
AV-unprocessed.smi

> <i_m_source_file_index>
145

> <i_lp_mmshare_version>
43012

> <i_f3d_flags>
0

> <s_epik_input>
SWMoW2NIXTEpW2NIXVtjSF1bY0hdYzFbTkhdQyg9TylbQ0gyXW4yYyg9TyljKEYpW2NIXW4oYzI9TylbQ0BASF0zW0NIMl1bQ0gyXVtDSDJdTzM=

> <s_epik_cmdline>
J2VwaWtfcHl0aG9uJywgJy1waCcsICc3LjAnLCAnLXRuJywgJzgnLCAnLW1hJywgJzIwMCcsICctbWV0YWxfYmluZGluZycsICctaW1hZScsICc8aW5maWxlLm1hZT4nLCAnLW9tYWUnLCAnPG91dGZpbGUubWFlPic=

> <r_lp_tautomer_probability>
1

> <r_epik_Ionization_Penalty>
9.72367e-07

> <r_epik_Ionization_Penalty_Charging>
3.88729e-08

> <r_epik_Ionization_Penalty_Neutral>
9.33494e-07

> <r_epik_State_Penalty>
-0

> <r_epik_Charging_Adjusted_Penalty>
3.88729e-08

> <i_epik_Tot_Q>
0

> <i_epik_Tot_abs_Q>
0

> <r_epik_Metal_State_Penalty>
-0

> <b_epik_Metal_Only>
0

> <s_epik_Chemistry_Notes>
This compound contains an acetal/aminal-like group ( X-CH(R)-Y where X, Y are N, S, or O) that may be acid/base labile, releasing an aldehyde.

> <s_lp_Force_Field>
OPLS_2005

> <r_lp_Energy>
28.2642

> <b_lp_Chiralities_Consistent>
1

> <s_lp_Variant>
AV-unprocessed.smi:145-1

> <Gold.Version>
5.8.1

> <Gold.Id.Protein>
6NUR|6NUR_protein|mol2

> <Gold.PLP.Fitness>
51.1459

> <Gold.PLP.PLP>
-46.5567

> <Gold.PLP.part.hbond>
-2.0000

> <Gold.PLP.part.metal>
0.0000

> <Gold.PLP.part.buried>
-6.4085

> <Gold.PLP.part.nonpolar>
-38.7532

> <Gold.PLP.part.repulsive>
0.2120

> <Gold.PLP.ligand.clash>
0.0000

> <Gold.PLP.ligand.torsion>
0.1045

> <Gold.PLP.Chemscore.Hbond>
1.5810

> <Gold.PLP.Chemscore.CHOScore>
0.0000

> <Gold.PLP.Chemscore.Metal>
0.0000

> <Gold.Chemscore.Hbonds>
donor molecule, donor type, donor heavy atom, donor atom, acceptor molecule, acceptor atom, score
      P1  H  6896  6907       L1     6  0.78
      P1  H  6896  6909       L1     1  1.00

> <Gold.PLP.Chemscore.Internal.Correction>
0.0552

> <Gold.Rescore>
     Score         DG    S(hbond)    S(metal)    S(lipo)     H(rot)  DE(clash)    DE(int)     intcor
     16.30     -19.87       1.83        0.00     107.13       1.66       0.06       3.51       ----

> <Gold.Chemscore.Fitness>
16.3041

> <Gold.Chemscore.DG>
-19.8713

> <Gold.Chemscore.ZeroCoef>
-5.4800

> <Gold.Chemscore.Hbond>
1.8299

> <Gold.Chemscore.Metal>
0.0000

> <Gold.Chemscore.Lipo>
107.1301

> <Gold.Chemscore.Internal_Hbond>
0.0000

> <Gold.Chemscore.DEClash>
0.0603

> <Gold.Chemscore.DEInternal>
3.5069

> <Gold.Chemscore.Rot>
1.6621

> <Gold.Chemscore.Internal.Correction>
   9.000000E+99

> <Gold.Chemscore.Hbonds>
donor molecule, donor type, donor heavy atom, donor atom, acceptor molecule, acceptor atom, score
      P1  H  6896  6907       L1     6  0.78
      P1  H  6896  6909       L1     1  0.92

> <Gold.Chemscore.Hbond.Weighted>
-6.1120

> <Gold.Chemscore.Metal.Weighted>
-0.0000

> <Gold.Chemscore.Lipo.Weighted>
-12.5342

> <Gold.Chemscore.Internal_Hbond.Weighted>
0.0000

> <Gold.Chemscore.DEClash.Weighted>
0.0603

> <Gold.Chemscore.DEInternal.Weighted>
3.5069

> <Gold.Chemscore.Rot.Weighted>
4.2550

> <Gold.Chemscore.Internal.Correction.Weighted>
   9.000000E+99

> <Gold.Protein.RotatedTorsions>
[ 6907 6896 6895 6894 ] final   24.61 input  -60.11 | X-H torsion
[ 7974 7965 7964 7962 ] final  -55.11 input  175.53 | X-H torsion
[ 8008 7997 7996 7995 ] final  116.87 input   59.86 | X-H torsion
[ 10167 10162 10161 10158 ] final -138.42 input  -65.29 | X-H torsion
[ 10718 10713 10712 10709 ] final  161.07 input   66.30 | X-H torsion
[ 10763 10752 10751 10750 ] final   85.17 input  -60.55 | X-H torsion
[ 11005 11000 10999 10996 ] final -169.87 input  -57.11 | X-H torsion

> <Gold.Protein.ActiveResidues>
 VAL166  LYS551  ARG553  GLY616  TRP617  ASP618  TYR619  PRO620  LYS621  CYS622 
 ASP623  PHE694  ASN695  SER759  ASP760  ASP761  ALA762  ILE779  LEU786  VAL792 
 PHE793  MET794  SER795  GLU796  ALA797  LYS798  CYS799  TRP800  GLU811  SER814 

> <Gold.Protein.RotatedAtoms>
  151.9602  135.0127  160.0546 H   0  0  0  0  0  0  0  0  0  0  0  0  # atno 6907 bound_to 6896
  152.1876  133.4745  159.4999 H   0  0  0  0  0  0  0  0  0  0  0  0  # atno 6908 bound_to 6896
  150.6929  134.1671  159.4241 H   0  0  0  0  0  0  0  0  0  0  0  0  # atno 6909 bound_to 6896
  145.8779  140.8167  142.9855 H   0  0  0  0  0  0  0  0  0  0  0  0  # atno 7974 bound_to 7965
  156.2463  140.2908  156.0590 H   0  0  0  0  0  0  0  0  0  0  0  0  # atno 8008 bound_to 7997
  155.1796  140.0404  157.2897 H   0  0  0  0  0  0  0  0  0  0  0  0  # atno 8009 bound_to 7997
  154.6269  140.2489  155.7488 H   0  0  0  0  0  0  0  0  0  0  0  0  # atno 8010 bound_to 7997
  139.8479  143.7236  152.2659 H   0  0  0  0  0  0  0  0  0  0  0  0  # atno 10167 bound_to 10162
  157.1417  131.0542  151.2323 H   0  0  0  0  0  0  0  0  0  0  0  0  # atno 10718 bound_to 10713
  153.1450  135.4627  154.9552 H   0  0  0  0  0  0  0  0  0  0  0  0  # atno 10763 bound_to 10752
  154.7778  135.3179  154.8056 H   0  0  0  0  0  0  0  0  0  0  0  0  # atno 10764 bound_to 10752
  153.8572  135.6916  153.4840 H   0  0  0  0  0  0  0  0  0  0  0  0  # atno 10765 bound_to 10752
  140.5259  134.5664  157.5061 H   0  0  0  0  0  0  0  0  0  0  0  0  # atno 11005 bound_to 11000
  144.6726  140.1339  143.7442 LP  0  0  0  0  0  0  0  0  0  0  0  0  # atno 17320 bound_to 7965
  145.9059  139.2458  143.1466 LP  0  0  0  0  0  0  0  0  0  0  0  0  # atno 17321 bound_to 7965
  139.7494  144.7538  151.0530 LP  0  0  0  0  0  0  0  0  0  0  0  0  # atno 17342 bound_to 10162
  140.7791  143.4878  150.9933 LP  0  0  0  0  0  0  0  0  0  0  0  0  # atno 17343 bound_to 10162
  157.4301  130.7486  149.6983 LP  0  0  0  0  0  0  0  0  0  0  0  0  # atno 17370 bound_to 10713
  155.9787  130.4048  150.3630 LP  0  0  0  0  0  0  0  0  0  0  0  0  # atno 17371 bound_to 10713
  139.9580  134.7501  156.0298 LP  0  0  0  0  0  0  0  0  0  0  0  0  # atno 17394 bound_to 11000
  141.1308  133.6587  156.3461 LP  0  0  0  0  0  0  0  0  0  0  0  0  # atno 17395 bound_to 11000

$$$$
