AV-unprocessed.smi:2979|AV-procd|sdf|11370|dock2
  -GOLD-   2272016283D 1   1.00000     0.00000
 Structure written by MMmdl.
 35 36  0  0  0  0  0  0  0  0  1 V2000
  147.5353  140.9301  153.5316 C   0  0  0  0  0  0  0  0  0  0  0  0
  148.8121  141.4613  153.8374 O   0  0  0  0  0  0  0  0  0  0  0  0
  149.1895  141.2283  155.1848 C   0  0  0  0  0  0  0  0  0  0  0  0
  150.4571  142.0292  155.5152 C   0  0  0  0  0  0  0  0  0  0  0  0
  151.0822  141.6040  156.7615 N   0  0  0  0  0  0  0  0  0  0  0  0
  151.3186  140.3424  157.2072 C   0  0  0  0  0  0  0  0  0  0  0  0
  150.9754  139.1163  156.4141 C   0  0  0  0  0  0  0  0  0  0  0  0
  151.7627  139.0264  155.0977 C   0  0  0  0  0  0  0  0  0  0  0  0
  151.0214  138.2157  154.0273 C   0  0  0  0  0  0  0  0  0  0  0  0
  151.5075  136.8911  154.0069 O   0  0  0  0  0  0  0  0  0  0  0  0
  151.8945  140.2506  158.4066 N   0  0  0  0  0  0  0  0  0  0  0  0
  152.0608  141.5724  158.7683 C   0  0  0  0  0  0  0  0  0  0  0  0
  152.6231  142.1406  159.9338 C   0  0  0  0  0  0  0  0  0  0  0  0
  152.6899  143.5411  160.0843 C   0  0  0  0  0  0  0  0  0  0  0  0
  152.1972  144.3914  159.0735 C   0  0  0  0  0  0  0  0  0  0  0  0
  151.6319  143.8455  157.9051 C   0  0  0  0  0  0  0  0  0  0  0  0
  151.5657  142.4462  157.7596 C   0  0  0  0  0  0  0  0  0  0  0  0
  147.2908  141.1415  152.4907 H   0  0  0  0  0  0  0  0  0  0  0  0
  146.7617  141.3766  154.1577 H   0  0  0  0  0  0  0  0  0  0  0  0
  147.5164  139.8481  153.6685 H   0  0  0  0  0  0  0  0  0  0  0  0
  148.3812  141.5244  155.8549 H   0  0  0  0  0  0  0  0  0  0  0  0
  149.3640  140.1649  155.3469 H   0  0  0  0  0  0  0  0  0  0  0  0
  151.1797  141.9099  154.7078 H   0  0  0  0  0  0  0  0  0  0  0  0
  150.2421  143.0964  155.5633 H   0  0  0  0  0  0  0  0  0  0  0  0
  151.1901  138.2410  157.0285 H   0  0  0  0  0  0  0  0  0  0  0  0
  149.9066  139.0804  156.2108 H   0  0  0  0  0  0  0  0  0  0  0  0
  151.9613  140.0293  154.7187 H   0  0  0  0  0  0  0  0  0  0  0  0
  152.7372  138.5746  155.2882 H   0  0  0  0  0  0  0  0  0  0  0  0
  149.9503  138.1985  154.2301 H   0  0  0  0  0  0  0  0  0  0  0  0
  151.1619  138.6599  153.0415 H   0  0  0  0  0  0  0  0  0  0  0  0
  151.1251  136.4415  153.2690 H   0  0  0  0  0  0  0  0  0  0  0  0
  153.0048  141.4972  160.7126 H   0  0  0  0  0  0  0  0  0  0  0  0
  153.1225  143.9648  160.9787 H   0  0  0  0  0  0  0  0  0  0  0  0
  152.2541  145.4632  159.1953 H   0  0  0  0  0  0  0  0  0  0  0  0
  151.2571  144.4960  157.1291 H   0  0  0  0  0  0  0  0  0  0  0  0
  1  2  1  0  0  0  0
  1 18  1  0  0  0  0
  1 19  1  0  0  0  0
  1 20  1  0  0  0  0
  2  3  1  0  0  0  0
  3  4  1  0  0  0  0
  3 21  1  0  0  0  0
  3 22  1  0  0  0  0
  4  5  1  0  0  0  0
  4 23  1  0  0  0  0
  4 24  1  0  0  0  0
  5 17  1  0  0  0  0
  5  6  1  0  0  0  0
  6  7  1  0  0  0  0
  6 11  2  0  0  0  0
  7  8  1  0  0  0  0
  7 25  1  0  0  0  0
  7 26  1  0  0  0  0
  8  9  1  0  0  0  0
  8 27  1  0  0  0  0
  8 28  1  0  0  0  0
  9 10  1  0  0  0  0
  9 29  1  0  0  0  0
  9 30  1  0  0  0  0
 10 31  1  0  0  0  0
 11 12  1  0  0  0  0
 12 17  2  0  0  0  0
 12 13  1  0  0  0  0
 13 14  2  0  0  0  0
 13 32  1  0  0  0  0
 14 15  1  0  0  0  0
 14 33  1  0  0  0  0
 15 16  2  0  0  0  0
 15 34  1  0  0  0  0
 16 17  1  0  0  0  0
 16 35  1  0  0  0  0
M  END
> <s_m_source_file>
AV-unprocessed.smi

> <i_m_source_file_index>
2979

> <i_lp_mmshare_version>
43012

> <i_f3d_flags>
0

> <s_epik_input>
W2NIXTFbY0hdW2NIXVtjSF1jKGMxMiluKFtDSDJdW0NIMl1PW0NIM10pYyhuMilbQ0gyXVtDSDJdW0NIMl1bT0hd

> <s_epik_cmdline>
J2VwaWtfcHl0aG9uJywgJy1waCcsICc3LjAnLCAnLXRuJywgJzgnLCAnLW1hJywgJzIwMCcsICctbWV0YWxfYmluZGluZycsICctaW1hZScsICc8aW5maWxlLm1hZT4nLCAnLW9tYWUnLCAnPG91dGZpbGUubWFlPic=

> <r_epik_Ionization_Penalty>
0.183246

> <r_epik_Ionization_Penalty_Charging>
0

> <r_epik_Ionization_Penalty_Neutral>
0.183246

> <r_epik_State_Penalty>
0.172781

> <r_epik_Charging_Adjusted_Penalty>
0.172781

> <i_epik_Tot_Q>
0

> <i_epik_Tot_abs_Q>
0

> <r_epik_Metal_State_Penalty>
0.000200578

> <b_epik_Metal_Only>
0

> <s_lp_Force_Field>
OPLS_2005

> <r_lp_Energy>
6.05289

> <b_lp_Chiralities_Consistent>
1

> <s_lp_Variant>
AV-unprocessed.smi:2979-1

> <Gold.Version>
5.8.1

> <Gold.Id.Protein>
6NUR|6NUR_protein|mol2

> <Gold.PLP.Fitness>
47.3991

> <Gold.PLP.PLP>
-40.5191

> <Gold.PLP.part.hbond>
-3.0000

> <Gold.PLP.part.metal>
0.0000

> <Gold.PLP.part.buried>
-4.3286

> <Gold.PLP.part.nonpolar>
-32.9409

> <Gold.PLP.part.repulsive>
0.1863

> <Gold.PLP.ligand.clash>
0.0000

> <Gold.PLP.ligand.torsion>
0.6859

> <Gold.PLP.Chemscore.Hbond>
2.7216

> <Gold.PLP.Chemscore.CHOScore>
0.0000

> <Gold.PLP.Chemscore.Metal>
0.0000

> <Gold.Chemscore.Hbonds>
donor molecule, donor type, donor heavy atom, donor atom, acceptor molecule, acceptor atom, score
      L1  H    10    31       P1  7949  1.00
      P1  H  8011  8017       L1     2  0.73
      P1  H 10752 10765       L1    10  1.00

> <Gold.PLP.Chemscore.Internal.Correction>
0.0870

> <Gold.Rescore>
     Score         DG    S(hbond)    S(metal)    S(lipo)     H(rot)  DE(clash)    DE(int)     intcor
     15.57     -17.35       1.61        0.00     108.97       2.45       0.36       1.41       ----

> <Gold.Chemscore.Fitness>
15.5746

> <Gold.Chemscore.DG>
-17.3477

> <Gold.Chemscore.ZeroCoef>
-5.4800

> <Gold.Chemscore.Hbond>
1.6117

> <Gold.Chemscore.Metal>
0.0000

> <Gold.Chemscore.Lipo>
108.9745

> <Gold.Chemscore.Internal_Hbond>
0.0000

> <Gold.Chemscore.DEClash>
0.3618

> <Gold.Chemscore.DEInternal>
1.4112

> <Gold.Chemscore.Rot>
2.4474

> <Gold.Chemscore.Internal.Correction>
   9.000000E+99

> <Gold.Chemscore.Hbonds>
donor molecule, donor type, donor heavy atom, donor atom, acceptor molecule, acceptor atom, score
      L1  H    10    31       P1  7949  0.37
      P1  H  8011  8017       L1     2  0.63
      P1  H 10752 10765       L1    10  0.25

> <Gold.Chemscore.Hbond.Weighted>
-5.3830

> <Gold.Chemscore.Metal.Weighted>
-0.0000

> <Gold.Chemscore.Lipo.Weighted>
-12.7500

> <Gold.Chemscore.Internal_Hbond.Weighted>
0.0000

> <Gold.Chemscore.DEClash.Weighted>
0.3618

> <Gold.Chemscore.DEInternal.Weighted>
1.4112

> <Gold.Chemscore.Rot.Weighted>
6.2654

> <Gold.Chemscore.Internal.Correction.Weighted>
   9.000000E+99

> <Gold.Protein.RotatedTorsions>
[ 6907 6896 6895 6894 ] final -121.96 input  -60.11 | X-H torsion
[ 7974 7965 7964 7962 ] final  116.00 input  175.53 | X-H torsion
[ 8008 7997 7996 7995 ] final -145.95 input   59.86 | X-H torsion
[ 10167 10162 10161 10158 ] final  -45.86 input  -65.29 | X-H torsion
[ 10718 10713 10712 10709 ] final -131.40 input   66.30 | X-H torsion
[ 10763 10752 10751 10750 ] final  173.25 input  -60.55 | X-H torsion
[ 11005 11000 10999 10996 ] final  -42.16 input  -57.11 | X-H torsion

> <Gold.Protein.ActiveResidues>
 VAL166  LYS551  ARG553  GLY616  TRP617  ASP618  TYR619  PRO620  LYS621  CYS622 
 ASP623  PHE694  ASN695  SER759  ASP760  ASP761  ALA762  ILE779  LEU786  VAL792 
 PHE793  MET794  SER795  GLU796  ALA797  LYS798  CYS799  TRP800  GLU811  SER814 

> <Gold.Protein.RotatedAtoms>
  150.8532  133.7756  159.3018 H   0  0  0  0  0  0  0  0  0  0  0  0  # atno 6907 bound_to 6896
  151.5421  135.1067  159.9938 H   0  0  0  0  0  0  0  0  0  0  0  0  # atno 6908 bound_to 6896
  152.4569  133.7697  159.6848 H   0  0  0  0  0  0  0  0  0  0  0  0  # atno 6909 bound_to 6896
  145.1851  139.3029  143.4398 H   0  0  0  0  0  0  0  0  0  0  0  0  # atno 7974 bound_to 7965
  155.5515  140.0617  157.2849 H   0  0  0  0  0  0  0  0  0  0  0  0  # atno 8008 bound_to 7997
  154.4419  140.1901  156.0736 H   0  0  0  0  0  0  0  0  0  0  0  0  # atno 8009 bound_to 7997
  156.0513  140.3284  155.7358 H   0  0  0  0  0  0  0  0  0  0  0  0  # atno 8010 bound_to 7997
  140.6841  143.2859  151.3699 H   0  0  0  0  0  0  0  0  0  0  0  0  # atno 10167 bound_to 10162
  156.2240  130.6996  151.0787 H   0  0  0  0  0  0  0  0  0  0  0  0  # atno 10718 bound_to 10713
  154.4375  135.2761  155.1870 H   0  0  0  0  0  0  0  0  0  0  0  0  # atno 10763 bound_to 10752
  154.3751  135.6100  153.5764 H   0  0  0  0  0  0  0  0  0  0  0  0  # atno 10764 bound_to 10752
  152.9839  135.5866  154.4697 H   0  0  0  0  0  0  0  0  0  0  0  0  # atno 10765 bound_to 10752
  141.0296  133.6826  156.2556 H   0  0  0  0  0  0  0  0  0  0  0  0  # atno 11005 bound_to 11000
  146.3446  140.2044  142.8589 LP  0  0  0  0  0  0  0  0  0  0  0  0  # atno 17320 bound_to 7965
  145.0097  140.8704  143.5231 LP  0  0  0  0  0  0  0  0  0  0  0  0  # atno 17321 bound_to 7965
  139.6185  144.0954  152.2369 LP  0  0  0  0  0  0  0  0  0  0  0  0  # atno 17342 bound_to 10162
  140.0390  144.6022  150.7426 LP  0  0  0  0  0  0  0  0  0  0  0  0  # atno 17343 bound_to 10162
  157.7101  131.0738  150.6529 LP  0  0  0  0  0  0  0  0  0  0  0  0  # atno 17370 bound_to 10713
  156.6594  130.4508  149.5693 LP  0  0  0  0  0  0  0  0  0  0  0  0  # atno 17371 bound_to 10713
  140.6430  134.5146  157.5571 LP  0  0  0  0  0  0  0  0  0  0  0  0  # atno 17394 bound_to 11000
  139.9199  134.8170  156.1245 LP  0  0  0  0  0  0  0  0  0  0  0  0  # atno 17395 bound_to 11000

$$$$
