AV-unprocessed.smi:3260|AV-procd|sdf|12477|dock3
  -GOLD-   2272018373D 1   1.00000     0.00000
 Structure written by MMmdl.
 38 39  0  0  0  0  0  0  0  0  1 V2000
  148.3626  141.6693  154.4523 C   0  0  0  0  0  0  0  0  0  0  0  0
  149.4518  140.7630  154.7471 N   0  0  0  0  0  0  0  0  0  0  0  0
  149.7829  139.5820  154.1186 C   0  0  0  0  0  0  0  0  0  0  0  0
  150.8854  139.0773  154.7490 C   0  0  0  0  0  0  0  0  0  0  0  0
  151.6413  137.8111  154.4572 C   0  0  0  0  0  0  0  0  0  0  0  0
  151.0442  136.6099  155.2084 C   0  0  0  0  0  0  0  0  0  0  0  0
  150.0903  135.8811  154.3808 N   0  0  0  0  0  0  0  0  0  0  0  0
  149.3911  134.8104  154.7818 C   0  0  0  0  0  0  0  0  0  0  0  0
  149.4765  134.3131  155.9049 O   0  0  0  0  0  0  0  0  0  0  0  0
  148.5880  134.3491  153.8129 N   0  0  0  0  0  0  0  0  0  0  0  0
  147.6761  133.2194  153.9506 C   0  0  0  0  0  0  0  0  0  0  0  0
  147.3494  132.5951  152.5842 C   0  0  1  0  0  0  0  0  0  0  0  0
  146.3087  131.4800  152.6493 C   0  0  0  0  0  0  0  0  0  0  0  0
  145.7294  131.4568  151.2438 C   0  0  0  0  0  0  0  0  0  0  0  0
  146.1419  132.8065  150.6477 C   0  0  0  0  0  0  0  0  0  0  0  0
  146.7213  133.5319  151.7234 O   0  0  0  0  0  0  0  0  0  0  0  0
  151.1560  140.0405  155.7625 C   0  0  0  0  0  0  0  0  0  0  0  0
  150.2979  141.0477  155.7581 N   0  0  0  0  0  0  0  0  0  0  0  0
  147.7057  141.2321  153.6998 H   0  0  0  0  0  0  0  0  0  0  0  0
  148.7598  142.6112  154.0734 H   0  0  0  0  0  0  0  0  0  0  0  0
  147.7848  141.8611  155.3572 H   0  0  0  0  0  0  0  0  0  0  0  0
  149.2119  139.1997  153.2853 H   0  0  0  0  0  0  0  0  0  0  0  0
  151.6370  137.6043  153.3865 H   0  0  0  0  0  0  0  0  0  0  0  0
  152.6907  137.9263  154.7316 H   0  0  0  0  0  0  0  0  0  0  0  0
  151.8355  135.9386  155.5472 H   0  0  0  0  0  0  0  0  0  0  0  0
  150.5230  136.9507  156.1034 H   0  0  0  0  0  0  0  0  0  0  0  0
  149.9504  136.2178  153.4396 H   0  0  0  0  0  0  0  0  0  0  0  0
  148.5915  134.8257  152.9232 H   0  0  0  0  0  0  0  0  0  0  0  0
  148.1645  132.4773  154.5825 H   0  0  0  0  0  0  0  0  0  0  0  0
  146.7629  133.5136  154.4713 H   0  0  0  0  0  0  0  0  0  0  0  0
  148.2585  132.2240  152.1065 H   0  0  0  0  0  0  0  0  0  0  0  0
  146.7347  130.5225  152.9502 H   0  0  0  0  0  0  0  0  0  0  0  0
  145.5242  131.7388  153.3619 H   0  0  0  0  0  0  0  0  0  0  0  0
  146.1463  130.6377  150.6570 H   0  0  0  0  0  0  0  0  0  0  0  0
  144.6460  131.3356  151.2670 H   0  0  0  0  0  0  0  0  0  0  0  0
  146.8884  132.6672  149.8644 H   0  0  0  0  0  0  0  0  0  0  0  0
  145.2993  133.3514  150.2213 H   0  0  0  0  0  0  0  0  0  0  0  0
  151.9469  140.0361  156.4982 H   0  0  0  0  0  0  0  0  0  0  0  0
  1  2  1  0  0  0  0
  1 19  1  0  0  0  0
  1 20  1  0  0  0  0
  1 21  1  0  0  0  0
  2 18  1  0  0  0  0
  2  3  1  0  0  0  0
  3  4  2  0  0  0  0
  3 22  1  0  0  0  0
  4  5  1  0  0  0  0
  4 17  1  0  0  0  0
  5  6  1  0  0  0  0
  5 23  1  0  0  0  0
  5 24  1  0  0  0  0
  6  7  1  0  0  0  0
  6 25  1  0  0  0  0
  6 26  1  0  0  0  0
  7  8  1  0  0  0  0
  7 27  1  0  0  0  0
  8  9  2  0  0  0  0
  8 10  1  0  0  0  0
 10 11  1  0  0  0  0
 10 28  1  0  0  0  0
 11 12  1  0  0  0  0
 11 29  1  0  0  0  0
 11 30  1  0  0  0  0
 12 16  1  0  0  0  0
 12 13  1  0  0  0  0
 12 31  1  0  0  0  0
 13 14  1  0  0  0  0
 13 32  1  0  0  0  0
 13 33  1  0  0  0  0
 14 15  1  0  0  0  0
 14 34  1  0  0  0  0
 14 35  1  0  0  0  0
 15 16  1  0  0  0  0
 15 36  1  0  0  0  0
 15 37  1  0  0  0  0
 17 18  2  0  0  0  0
 17 38  1  0  0  0  0
M  END
> <s_m_source_file>
AV-unprocessed.smi

> <i_m_source_file_index>
3260

> <i_lp_mmshare_version>
43012

> <i_f3d_flags>
0

> <s_epik_input>
W0NIM11uMVtjSF1jKFtjSF1uMSlbQ0gyXVtDSDJdW05IXUMoPU8pW05IXVtDSDJdW0NAQEhdMltDSDJdW0NIMl1bQ0gyXU8y

> <s_epik_cmdline>
J2VwaWtfcHl0aG9uJywgJy1waCcsICc3LjAnLCAnLXRuJywgJzgnLCAnLW1hJywgJzIwMCcsICctbWV0YWxfYmluZGluZycsICctaW1hZScsICc8aW5maWxlLm1hZT4nLCAnLW9tYWUnLCAnPG91dGZpbGUubWFlPic=

> <r_lp_tautomer_probability>
1

> <r_epik_Ionization_Penalty>
0.000550106

> <r_epik_Ionization_Penalty_Charging>
0

> <r_epik_Ionization_Penalty_Neutral>
0.000550106

> <r_epik_State_Penalty>
-0

> <r_epik_Charging_Adjusted_Penalty>
0

> <i_epik_Tot_Q>
0

> <i_epik_Tot_abs_Q>
0

> <r_epik_Metal_State_Penalty>
-0

> <b_epik_Metal_Only>
0

> <s_lp_Force_Field>
OPLS_2005

> <r_lp_Energy>
10.8429

> <b_lp_Chiralities_Consistent>
1

> <s_lp_Variant>
AV-unprocessed.smi:3260-2

> <Gold.Version>
5.8.1

> <Gold.Id.Protein>
6NUR|6NUR_protein|mol2

> <Gold.PLP.Fitness>
39.9562

> <Gold.PLP.PLP>
-33.9185

> <Gold.PLP.part.hbond>
-2.7591

> <Gold.PLP.part.metal>
0.0000

> <Gold.PLP.part.buried>
-0.5518

> <Gold.PLP.part.nonpolar>
-30.3874

> <Gold.PLP.part.repulsive>
0.3405

> <Gold.PLP.ligand.clash>
0.0000

> <Gold.PLP.ligand.torsion>
0.7719

> <Gold.PLP.Chemscore.Hbond>
1.7000

> <Gold.PLP.Chemscore.CHOScore>
0.8146

> <Gold.PLP.Chemscore.Metal>
0.0000

> <Gold.Chemscore.Hbonds>
donor molecule, donor type, donor heavy atom, donor atom, acceptor molecule, acceptor atom, score
      L1  H     7    27       P1  7948  0.65
      L1  H    10    28       P1  7948  1.00
      L1  C     3    22       P1  7957  0.79

> <Gold.PLP.Chemscore.Internal.Correction>
0.0377

> <Gold.Rescore>
     Score         DG    S(hbond)    S(metal)    S(lipo)     H(rot)  DE(clash)    DE(int)     intcor
     13.90     -14.59       1.66        0.00      70.93       1.85       0.00       0.70       ----

> <Gold.Chemscore.Fitness>
13.8969

> <Gold.Chemscore.DG>
-14.5942

> <Gold.Chemscore.ZeroCoef>
-5.4800

> <Gold.Chemscore.Hbond>
1.6642

> <Gold.Chemscore.Metal>
0.0000

> <Gold.Chemscore.Lipo>
70.9330

> <Gold.Chemscore.Internal_Hbond>
0.0000

> <Gold.Chemscore.DEClash>
0.0004

> <Gold.Chemscore.DEInternal>
0.6969

> <Gold.Chemscore.Rot>
1.8528

> <Gold.Chemscore.Internal.Correction>
   9.000000E+99

> <Gold.Chemscore.Hbonds>
donor molecule, donor type, donor heavy atom, donor atom, acceptor molecule, acceptor atom, score
      L1  H     7    27       P1  7948  0.05
      L1  H    10    28       P1  7948  0.34

> <Gold.Chemscore.Hbond.Weighted>
-5.5583

> <Gold.Chemscore.Metal.Weighted>
-0.0000

> <Gold.Chemscore.Lipo.Weighted>
-8.2992

> <Gold.Chemscore.Internal_Hbond.Weighted>
0.0000

> <Gold.Chemscore.DEClash.Weighted>
0.0004

> <Gold.Chemscore.DEInternal.Weighted>
0.6969

> <Gold.Chemscore.Rot.Weighted>
4.7433

> <Gold.Chemscore.Internal.Correction.Weighted>
   9.000000E+99

> <Gold.Protein.RotatedTorsions>
[ 6907 6896 6895 6894 ] final   73.25 input  -60.11 | X-H torsion
[ 7974 7965 7964 7962 ] final  -26.42 input  175.53 | X-H torsion
[ 8008 7997 7996 7995 ] final -161.06 input   59.86 | X-H torsion
[ 10167 10162 10161 10158 ] final -169.40 input  -65.29 | X-H torsion
[ 10718 10713 10712 10709 ] final  105.78 input   66.30 | X-H torsion
[ 10763 10752 10751 10750 ] final   77.38 input  -60.55 | X-H torsion
[ 11005 11000 10999 10996 ] final  104.78 input  -57.11 | X-H torsion

> <Gold.Protein.ActiveResidues>
 VAL166  LYS551  ARG553  GLY616  TRP617  ASP618  TYR619  PRO620  LYS621  CYS622 
 ASP623  PHE694  ASN695  SER759  ASP760  ASP761  ALA762  ILE779  LEU786  VAL792 
 PHE793  MET794  SER795  GLU796  ALA797  LYS798  CYS799  TRP800  GLU811  SER814 

> <Gold.Protein.RotatedAtoms>
  152.4913  134.4449  159.9555 H   0  0  0  0  0  0  0  0  0  0  0  0  # atno 6907 bound_to 6896
  151.4436  133.3630  159.2793 H   0  0  0  0  0  0  0  0  0  0  0  0  # atno 6908 bound_to 6896
  150.9071  134.8510  159.7460 H   0  0  0  0  0  0  0  0  0  0  0  0  # atno 6909 bound_to 6896
  146.1427  140.5017  142.8645 H   0  0  0  0  0  0  0  0  0  0  0  0  # atno 7974 bound_to 7965
  155.7866  140.0872  157.2031 H   0  0  0  0  0  0  0  0  0  0  0  0  # atno 8008 bound_to 7997
  154.3987  140.1498  156.3172 H   0  0  0  0  0  0  0  0  0  0  0  0  # atno 8009 bound_to 7997
  155.8600  140.3430  155.5753 H   0  0  0  0  0  0  0  0  0  0  0  0  # atno 8010 bound_to 7997
  139.5925  144.1183  152.1650 H   0  0  0  0  0  0  0  0  0  0  0  0  # atno 10167 bound_to 10162
  157.6693  131.0836  150.5908 H   0  0  0  0  0  0  0  0  0  0  0  0  # atno 10718 bound_to 10713
  153.0794  135.4916  154.8472 H   0  0  0  0  0  0  0  0  0  0  0  0  # atno 10763 bound_to 10752
  154.7131  135.3024  154.9168 H   0  0  0  0  0  0  0  0  0  0  0  0  # atno 10764 bound_to 10752
  153.9856  135.6784  153.4805 H   0  0  0  0  0  0  0  0  0  0  0  0  # atno 10765 bound_to 10752
  139.8795  134.9312  156.5413 H   0  0  0  0  0  0  0  0  0  0  0  0  # atno 11005 bound_to 11000
  144.7810  140.5841  143.6605 LP  0  0  0  0  0  0  0  0  0  0  0  0  # atno 17320 bound_to 7965
  145.5010  139.1483  143.3657 LP  0  0  0  0  0  0  0  0  0  0  0  0  # atno 17321 bound_to 7965
  140.0761  144.5739  150.7156 LP  0  0  0  0  0  0  0  0  0  0  0  0  # atno 17342 bound_to 10162
  140.7185  143.2566  151.4357 LP  0  0  0  0  0  0  0  0  0  0  0  0  # atno 17343 bound_to 10162
  156.6209  130.4405  149.5823 LP  0  0  0  0  0  0  0  0  0  0  0  0  # atno 17370 bound_to 10713
  156.2357  130.6821  151.1507 LP  0  0  0  0  0  0  0  0  0  0  0  0  # atno 17371 bound_to 10713
  140.8308  133.8280  155.8982 LP  0  0  0  0  0  0  0  0  0  0  0  0  # atno 17394 bound_to 11000
  140.9330  134.1997  157.4851 LP  0  0  0  0  0  0  0  0  0  0  0  0  # atno 17395 bound_to 11000

$$$$
