AV-unprocessed.smi:2889|AV-procd|sdf|11111|dock9
  -GOLD-   2272015573D 1   1.00000     0.00000
 Structure written by MMmdl.
 36 37  0  0  0  0  0  0  0  0  1 V2000
  151.8995  145.7458  160.0573 C   0  0  0  0  0  0  0  0  0  0  0  0
  151.1220  144.5180  158.9721 S   0  0  0  0  0  0  0  0  0  0  0  0
  152.3143  143.1444  159.0730 C   0  0  1  0  0  0  0  0  0  0  0  0
  152.7371  142.9394  160.5401 C   0  0  0  0  0  0  0  0  0  0  0  0
  153.7123  141.7631  160.6982 C   0  0  0  0  0  0  0  0  0  0  0  0
  153.1093  140.4698  160.1328 C   0  0  0  0  0  0  0  0  0  0  0  0
  152.7026  140.6502  158.6635 C   0  0  0  0  0  0  0  0  0  0  0  0
  151.7354  141.8362  158.4827 C   0  0  2  0  0  0  0  0  0  0  0  0
  151.4518  142.0022  157.0559 N   0  0  0  0  0  0  0  0  0  0  0  0
  150.6820  140.7135  156.2064 S   0  0  0  0  0  0  0  0  0  0  0  0
  151.6683  140.1323  155.2819 O   0  0  0  0  0  0  0  0  0  0  0  0
  150.0218  139.8714  157.2153 O   0  0  0  0  0  0  0  0  0  0  0  0
  149.3920  141.6034  155.2329 C   0  0  0  0  0  0  0  0  0  0  0  0
  148.5586  140.6205  154.4579 C   0  0  0  0  0  0  0  0  0  0  0  0
  148.6977  139.2064  154.3837 C   0  0  0  0  0  0  0  0  0  0  0  0
  147.6844  138.8293  153.5506 C   0  0  0  0  0  0  0  0  0  0  0  0
  146.9813  139.9133  153.1371 O   0  0  0  0  0  0  0  0  0  0  0  0
  147.5481  141.0523  153.7202 N   0  0  0  0  0  0  0  0  0  0  0  0
  151.2655  146.6290  160.1325 H   0  0  0  0  0  0  0  0  0  0  0  0
  152.8686  146.0554  159.6681 H   0  0  0  0  0  0  0  0  0  0  0  0
  152.0391  145.3372  161.0581 H   0  0  0  0  0  0  0  0  0  0  0  0
  153.2037  143.4294  158.5091 H   0  0  0  0  0  0  0  0  0  0  0  0
  153.1979  143.8496  160.9249 H   0  0  0  0  0  0  0  0  0  0  0  0
  151.8537  142.7588  161.1542 H   0  0  0  0  0  0  0  0  0  0  0  0
  154.6470  141.9891  160.1837 H   0  0  0  0  0  0  0  0  0  0  0  0
  153.9627  141.6272  161.7506 H   0  0  0  0  0  0  0  0  0  0  0  0
  153.8268  139.6537  160.2232 H   0  0  0  0  0  0  0  0  0  0  0  0
  152.2373  140.1827  160.7215 H   0  0  0  0  0  0  0  0  0  0  0  0
  153.5976  140.8094  158.0602 H   0  0  0  0  0  0  0  0  0  0  0  0
  152.2433  139.7321  158.2949 H   0  0  0  0  0  0  0  0  0  0  0  0
  150.8032  141.6113  159.0033 H   0  0  0  0  0  0  0  0  0  0  0  0
  150.9759  142.8872  156.8830 H   0  0  0  0  0  0  0  0  0  0  0  0
  148.7758  142.1647  155.9359 H   0  0  0  0  0  0  0  0  0  0  0  0
  149.8798  142.3240  154.5771 H   0  0  0  0  0  0  0  0  0  0  0  0
  149.4217  138.5699  154.8701 H   0  0  0  0  0  0  0  0  0  0  0  0
  147.3501  137.8742  153.1728 H   0  0  0  0  0  0  0  0  0  0  0  0
  1  2  1  0  0  0  0
  1 19  1  0  0  0  0
  1 20  1  0  0  0  0
  1 21  1  0  0  0  0
  2  3  1  0  0  0  0
  3  8  1  0  0  0  0
  3  4  1  0  0  0  0
  3 22  1  0  0  0  0
  4  5  1  0  0  0  0
  4 23  1  0  0  0  0
  4 24  1  0  0  0  0
  5  6  1  0  0  0  0
  5 25  1  0  0  0  0
  5 26  1  0  0  0  0
  6  7  1  0  0  0  0
  6 27  1  0  0  0  0
  6 28  1  0  0  0  0
  7  8  1  0  0  0  0
  7 29  1  0  0  0  0
  7 30  1  0  0  0  0
  8  9  1  0  0  0  0
  8 31  1  0  0  0  0
  9 10  1  0  0  0  0
  9 32  1  0  0  0  0
 10 11  2  0  0  0  0
 10 12  2  0  0  0  0
 10 13  1  0  0  0  0
 13 14  1  0  0  0  0
 13 33  1  0  0  0  0
 13 34  1  0  0  0  0
 14 18  2  0  0  0  0
 14 15  1  0  0  0  0
 15 16  2  0  0  0  0
 15 35  1  0  0  0  0
 16 17  1  0  0  0  0
 16 36  1  0  0  0  0
 17 18  1  0  0  0  0
M  END
> <s_m_source_file>
AV-unprocessed.smi

> <i_m_source_file_index>
2889

> <i_lp_mmshare_version>
43012

> <i_f3d_flags>
0

> <s_epik_input>
W0NIM11TW0NAQEhdMVtDSDJdW0NIMl1bQ0gyXVtDSDJdW0NASF0xW05IXVMoPU8pKD1PKVtDSDJdYzJbY0hdW2NIXW9uMg==

> <s_epik_cmdline>
J2VwaWtfcHl0aG9uJywgJy1waCcsICc3LjAnLCAnLXRuJywgJzgnLCAnLW1hJywgJzIwMCcsICctbWV0YWxfYmluZGluZycsICctaW1hZScsICc8aW5maWxlLm1hZT4nLCAnLW9tYWUnLCAnPG91dGZpbGUubWFlPic=

> <r_lp_tautomer_probability>
1

> <r_epik_Ionization_Penalty>
0.000229547

> <r_epik_Ionization_Penalty_Charging>
0

> <r_epik_Ionization_Penalty_Neutral>
0.000229547

> <r_epik_State_Penalty>
-0

> <r_epik_Charging_Adjusted_Penalty>
0

> <i_epik_Tot_Q>
0

> <i_epik_Tot_abs_Q>
0

> <r_epik_Metal_State_Penalty>
0.145979

> <b_epik_Metal_Only>
0

> <s_lp_Force_Field>
OPLS_2005

> <r_lp_Energy>
3.91212

> <b_lp_Chiralities_Consistent>
1

> <s_lp_Variant>
AV-unprocessed.smi:2889-4

> <Gold.Version>
5.8.1

> <Gold.Id.Protein>
6NUR|6NUR_protein|mol2

> <Gold.PLP.Fitness>
42.1184

> <Gold.PLP.PLP>
-37.4199

> <Gold.PLP.part.hbond>
-1.0000

> <Gold.PLP.part.metal>
0.0000

> <Gold.PLP.part.buried>
-2.2129

> <Gold.PLP.part.nonpolar>
-34.6912

> <Gold.PLP.part.repulsive>
0.6605

> <Gold.PLP.ligand.clash>
0.0000

> <Gold.PLP.ligand.torsion>
0.4378

> <Gold.PLP.Chemscore.Hbond>
0.8960

> <Gold.PLP.Chemscore.CHOScore>
0.9073

> <Gold.PLP.Chemscore.Metal>
0.0000

> <Gold.Chemscore.Hbonds>
donor molecule, donor type, donor heavy atom, donor atom, acceptor molecule, acceptor atom, score
      P1  H  7989  7998       L1    11  0.94
      L1  C    16    36       P1  7948  0.62

> <Gold.PLP.Chemscore.Internal.Correction>
0.1643

> <Gold.Rescore>
     Score         DG    S(hbond)    S(metal)    S(lipo)     H(rot)  DE(clash)    DE(int)     intcor
     15.66     -16.08       0.95        0.00     102.94       1.81       0.03       0.39       ----

> <Gold.Chemscore.Fitness>
15.6566

> <Gold.Chemscore.DG>
-16.0791

> <Gold.Chemscore.ZeroCoef>
-5.4800

> <Gold.Chemscore.Hbond>
0.9515

> <Gold.Chemscore.Metal>
0.0000

> <Gold.Chemscore.Lipo>
102.9405

> <Gold.Chemscore.Internal_Hbond>
0.0000

> <Gold.Chemscore.DEClash>
0.0343

> <Gold.Chemscore.DEInternal>
0.3882

> <Gold.Chemscore.Rot>
1.8058

> <Gold.Chemscore.Internal.Correction>
   9.000000E+99

> <Gold.Chemscore.Hbonds>
donor molecule, donor type, donor heavy atom, donor atom, acceptor molecule, acceptor atom, score
      P1  H  7989  7998       L1    11  0.82

> <Gold.Chemscore.Hbond.Weighted>
-3.1779

> <Gold.Chemscore.Metal.Weighted>
-0.0000

> <Gold.Chemscore.Lipo.Weighted>
-12.0440

> <Gold.Chemscore.Internal_Hbond.Weighted>
0.0000

> <Gold.Chemscore.DEClash.Weighted>
0.0343

> <Gold.Chemscore.DEInternal.Weighted>
0.3882

> <Gold.Chemscore.Rot.Weighted>
4.6228

> <Gold.Chemscore.Internal.Correction.Weighted>
   9.000000E+99

> <Gold.Protein.RotatedTorsions>
[ 6907 6896 6895 6894 ] final  113.26 input  -60.11 | X-H torsion
[ 7974 7965 7964 7962 ] final  126.78 input  175.53 | X-H torsion
[ 8008 7997 7996 7995 ] final  -60.65 input   59.86 | X-H torsion
[ 10167 10162 10161 10158 ] final  140.05 input  -65.29 | X-H torsion
[ 10718 10713 10712 10709 ] final  172.77 input   66.30 | X-H torsion
[ 10763 10752 10751 10750 ] final  -45.80 input  -60.55 | X-H torsion
[ 11005 11000 10999 10996 ] final  127.08 input  -57.11 | X-H torsion

> <Gold.Protein.ActiveResidues>
 VAL166  LYS551  ARG553  GLY616  TRP617  ASP618  TYR619  PRO620  LYS621  CYS622 
 ASP623  PHE694  ASN695  SER759  ASP760  ASP761  ALA762  ILE779  LEU786  VAL792 
 PHE793  MET794  SER795  GLU796  ALA797  LYS798  CYS799  TRP800  GLU811  SER814 

> <Gold.Protein.RotatedAtoms>
  152.4871  133.8401  159.7147 H   0  0  0  0  0  0  0  0  0  0  0  0  # atno 6907 bound_to 6896
  150.8967  133.7163  159.2896 H   0  0  0  0  0  0  0  0  0  0  0  0  # atno 6908 bound_to 6896
  151.4617  135.1043  159.9779 H   0  0  0  0  0  0  0  0  0  0  0  0  # atno 6909 bound_to 6896
  145.0579  139.3829  143.5021 H   0  0  0  0  0  0  0  0  0  0  0  0  # atno 7974 bound_to 7965
  154.4409  140.1035  156.6307 H   0  0  0  0  0  0  0  0  0  0  0  0  # atno 8008 bound_to 7997
  155.5608  140.3487  155.4472 H   0  0  0  0  0  0  0  0  0  0  0  0  # atno 8009 bound_to 7997
  156.0461  140.1293  157.0091 H   0  0  0  0  0  0  0  0  0  0  0  0  # atno 8010 bound_to 7997
  139.5060  144.6257  151.5942 H   0  0  0  0  0  0  0  0  0  0  0  0  # atno 10167 bound_to 10162
  156.9741  131.0099  151.2898 H   0  0  0  0  0  0  0  0  0  0  0  0  # atno 10718 bound_to 10713
  154.0345  135.6652  153.4784 H   0  0  0  0  0  0  0  0  0  0  0  0  # atno 10763 bound_to 10752
  153.0527  135.5075  154.7901 H   0  0  0  0  0  0  0  0  0  0  0  0  # atno 10764 bound_to 10752
  154.6857  135.3052  154.9515 H   0  0  0  0  0  0  0  0  0  0  0  0  # atno 10765 bound_to 10752
  139.9489  134.9625  156.8801 H   0  0  0  0  0  0  0  0  0  0  0  0  # atno 11005 bound_to 11000
  146.3522  140.0262  142.8654 LP  0  0  0  0  0  0  0  0  0  0  0  0  # atno 17320 bound_to 7965
  145.1445  140.9589  143.4469 LP  0  0  0  0  0  0  0  0  0  0  0  0  # atno 17321 bound_to 7965
  140.5974  143.9672  150.6363 LP  0  0  0  0  0  0  0  0  0  0  0  0  # atno 17342 bound_to 10162
  140.2872  143.3349  152.1096 LP  0  0  0  0  0  0  0  0  0  0  0  0  # atno 17343 bound_to 10162
  157.5572  130.8221  149.8219 LP  0  0  0  0  0  0  0  0  0  0  0  0  # atno 17370 bound_to 10713
  156.0271  130.3776  150.1793 LP  0  0  0  0  0  0  0  0  0  0  0  0  # atno 17371 bound_to 10713
  140.5768  134.0391  155.7449 LP  0  0  0  0  0  0  0  0  0  0  0  0  # atno 17394 bound_to 11000
  141.1146  133.9560  157.2846 LP  0  0  0  0  0  0  0  0  0  0  0  0  # atno 17395 bound_to 11000

$$$$
