AV-unprocessed.smi:101|AV-procd|sdf|929|dock4
  -GOLD-   2262017443D 1   1.00000     0.00000
 Structure written by MMmdl.
 43 45  0  0  0  0  0  0  0  0  2 V2000
  147.7904  137.0022  159.0112 C   0  0  0  0  0  0  0  0  0  0  0  0
  148.6622  136.6876  157.8077 C   0  0  0  0  0  0  0  0  0  0  0  0
  148.8669  137.5776  156.8117 C   0  0  0  0  0  0  0  0  0  0  0  0
  149.6636  137.2940  155.7112 N   0  0  0  0  0  0  0  0  0  0  0  0
  149.9671  138.3355  154.6382 C   0  0  2  0  0  0  0  0  0  0  0  0
  150.6981  139.3595  155.2347 O   0  0  0  0  0  0  0  0  0  0  0  0
  149.7925  140.3528  155.6942 C   0  0  1  0  0  0  0  0  0  0  0  0
  150.5347  141.6574  156.0180 C   0  0  0  0  0  0  0  0  0  0  0  0
  150.8241  141.6827  157.4058 O   0  0  0  0  0  0  0  0  0  0  0  0
  151.8956  141.0258  157.8871 C   0  0  0  0  0  0  0  0  0  0  0  0
  152.4702  140.1197  157.2800 O   0  0  0  0  0  0  0  0  0  0  0  0
  152.3165  141.5132  159.2324 C   0  0  0  0  0  0  0  0  0  0  0  0
  153.2528  140.7622  159.9808 C   0  0  0  0  0  0  0  0  0  0  0  0
  153.6697  141.1992  161.2535 C   0  0  0  0  0  0  0  0  0  0  0  0
  153.1554  142.3924  161.7933 C   0  0  0  0  0  0  0  0  0  0  0  0
  152.2229  143.1482  161.0592 C   0  0  0  0  0  0  0  0  0  0  0  0
  151.8042  142.7126  159.7867 C   0  0  0  0  0  0  0  0  0  0  0  0
  148.7523  140.4198  154.5615 C   0  0  1  0  0  0  0  0  0  0  0  0
  149.1209  141.3873  153.5903 O   0  0  0  0  0  0  0  0  0  0  0  0
  148.7208  138.9872  153.9998 C   0  0  1  0  0  0  0  0  0  0  0  0
  148.7604  138.9452  152.5852 O   0  0  0  0  0  0  0  0  0  0  0  0
  150.3739  136.0616  155.6812 C   0  0  0  0  0  0  0  0  0  0  0  0
  151.1620  135.8627  154.7565 O   0  0  0  0  0  0  0  0  0  0  0  0
  150.1587  135.1492  156.6713 N   0  5  0  0  0  0  0  0  0  0  0  0
  149.3267  135.3837  157.7248 C   0  0  0  0  0  0  0  0  0  0  0  0
  149.1269  134.5435  158.6015 O   0  0  0  0  0  0  0  0  0  0  0  0
  147.3721  138.0068  158.9475 H   0  0  0  0  0  0  0  0  0  0  0  0
  148.3727  136.9357  159.9307 H   0  0  0  0  0  0  0  0  0  0  0  0
  146.9626  136.2955  159.0760 H   0  0  0  0  0  0  0  0  0  0  0  0
  148.4007  138.5452  156.9059 H   0  0  0  0  0  0  0  0  0  0  0  0
  150.5674  137.8210  153.8868 H   0  0  0  0  0  0  0  0  0  0  0  0
  149.3013  139.9954  156.5999 H   0  0  0  0  0  0  0  0  0  0  0  0
  151.4507  141.7375  155.4306 H   0  0  0  0  0  0  0  0  0  0  0  0
  149.9057  142.5149  155.7745 H   0  0  0  0  0  0  0  0  0  0  0  0
  153.6617  139.8429  159.5870 H   0  0  0  0  0  0  0  0  0  0  0  0
  154.3852  140.6172  161.8154 H   0  0  0  0  0  0  0  0  0  0  0  0
  153.4755  142.7275  162.7690 H   0  0  0  0  0  0  0  0  0  0  0  0
  151.8265  144.0643  161.4722 H   0  0  0  0  0  0  0  0  0  0  0  0
  151.0859  143.3163  159.2511 H   0  0  0  0  0  0  0  0  0  0  0  0
  147.7757  140.7057  154.9534 H   0  0  0  0  0  0  0  0  0  0  0  0
  149.1730  140.9633  152.7476 H   0  0  0  0  0  0  0  0  0  0  0  0
  147.8120  138.4605  154.2834 H   0  0  0  0  0  0  0  0  0  0  0  0
  148.6105  138.0523  152.3133 H   0  0  0  0  0  0  0  0  0  0  0  0
  1  2  1  0  0  0  0
  1 27  1  0  0  0  0
  1 28  1  0  0  0  0
  1 29  1  0  0  0  0
  2 25  1  0  0  0  0
  2  3  2  0  0  0  0
  3  4  1  0  0  0  0
  3 30  1  0  0  0  0
  4  5  1  0  0  0  0
  4 22  1  0  0  0  0
  5 20  1  0  0  0  0
  5  6  1  0  0  0  0
  5 31  1  0  0  0  0
  6  7  1  0  0  0  0
  7  8  1  0  0  0  0
  7 18  1  0  0  0  0
  7 32  1  0  0  0  0
  8  9  1  0  0  0  0
  8 33  1  0  0  0  0
  8 34  1  0  0  0  0
  9 10  1  0  0  0  0
 10 11  2  0  0  0  0
 10 12  1  0  0  0  0
 12 17  1  0  0  0  0
 12 13  2  0  0  0  0
 13 14  1  0  0  0  0
 13 35  1  0  0  0  0
 14 15  2  0  0  0  0
 14 36  1  0  0  0  0
 15 16  1  0  0  0  0
 15 37  1  0  0  0  0
 16 17  2  0  0  0  0
 16 38  1  0  0  0  0
 17 39  1  0  0  0  0
 18 19  1  0  0  0  0
 18 20  1  0  0  0  0
 18 40  1  0  0  0  0
 19 41  1  0  0  0  0
 20 21  1  0  0  0  0
 20 42  1  0  0  0  0
 21 43  1  0  0  0  0
 22 23  2  0  0  0  0
 22 24  1  0  0  0  0
 24 25  1  0  0  0  0
 25 26  2  0  0  0  0
M  CHG  1  24  -1
M  END
> <s_m_source_file>
AV-unprocessed.smi

> <i_m_source_file_index>
101

> <i_lp_mmshare_version>
43012

> <i_f3d_flags>
0

> <s_epik_input>
Tz1jMVtuSF1jKD1PKW4oW2NIXWMxW0NIM10pW0NAQEhdMk9bQ0BIXShbQ0BASF0oW09IXSlbQ0BIXTJbT0hdKVtDSDJdT0MoPU8pYzNbY0hdW2NIXVtjSF1bY0hdW2NIXTM=

> <s_epik_cmdline>
J2VwaWtfcHl0aG9uJywgJy1waCcsICc3LjAnLCAnLXRuJywgJzgnLCAnLW1hJywgJzIwMCcsICctbWV0YWxfYmluZGluZycsICctaW1hZScsICc8aW5maWxlLm1hZT4nLCAnLW9tYWUnLCAnPG91dGZpbGUubWFlPic=

> <r_lp_tautomer_probability>
0.999537

> <r_epik_Ionization_Penalty>
3.21006

> <r_epik_Ionization_Penalty_Charging>
5.75142e-08

> <r_epik_Ionization_Penalty_Neutral>
3.21006

> <r_epik_State_Penalty>
3.20925

> <r_epik_Charging_Adjusted_Penalty>
3.20925

> <i_epik_Tot_Q>
-1

> <i_epik_Tot_abs_Q>
1

> <r_epik_Metal_State_Penalty>
0.119957

> <b_epik_Metal_Only>
1

> <s_epik_Chemistry_Notes>
This compound has an ester and may undergo hydrolysis at high or low pH. This compound contains an acetal/aminal-like group ( X-CH(R)-Y where X, Y are N, S, or O) that may be acid/base labile, releasing an aldehyde.

> <s_lp_Force_Field>
OPLS_2005

> <r_lp_Energy>
45.1107

> <b_lp_Chiralities_Consistent>
1

> <s_lp_Variant>
AV-unprocessed.smi:101-17

> <Gold.Version>
5.8.1

> <Gold.Id.Protein>
6NUR|6NUR_protein|mol2

> <Gold.PLP.Fitness>
55.8172

> <Gold.PLP.PLP>
-42.8514

> <Gold.PLP.part.hbond>
-5.8890

> <Gold.PLP.part.metal>
0.0000

> <Gold.PLP.part.buried>
-6.4513

> <Gold.PLP.part.nonpolar>
-30.3091

> <Gold.PLP.part.repulsive>
0.2503

> <Gold.PLP.ligand.clash>
0.0000

> <Gold.PLP.ligand.torsion>
1.0950

> <Gold.PLP.Chemscore.Hbond>
5.0000

> <Gold.PLP.Chemscore.CHOScore>
0.0000

> <Gold.PLP.Chemscore.Metal>
0.0000

> <Gold.Chemscore.Hbonds>
donor molecule, donor type, donor heavy atom, donor atom, acceptor molecule, acceptor atom, score
      L1  H    19    41       P1  7957  1.00
      L1  H    21    43       P1  7948  1.00
      P1  H  6896  6907       L1    26  1.00
      P1  H  7997  8010       L1    11  1.00
      P1  H 10752 10765       L1    23  1.00

> <Gold.PLP.Chemscore.Internal.Correction>
0.1557

> <Gold.Rescore>
     Score         DG    S(hbond)    S(metal)    S(lipo)     H(rot)  DE(clash)    DE(int)     intcor
     20.84     -23.77       4.75        0.00      92.06       3.27       0.63       2.30       ----

> <Gold.Chemscore.Fitness>
20.8406

> <Gold.Chemscore.DG>
-23.7675

> <Gold.Chemscore.ZeroCoef>
-5.4800

> <Gold.Chemscore.Hbond>
4.7535

> <Gold.Chemscore.Metal>
0.0000

> <Gold.Chemscore.Lipo>
92.0553

> <Gold.Chemscore.Internal_Hbond>
0.0000

> <Gold.Chemscore.DEClash>
0.6259

> <Gold.Chemscore.DEInternal>
2.3009

> <Gold.Chemscore.Rot>
3.2656

> <Gold.Chemscore.Internal.Correction>
   9.000000E+99

> <Gold.Chemscore.Hbonds>
donor molecule, donor type, donor heavy atom, donor atom, acceptor molecule, acceptor atom, score
      L1  H    19    41       P1  7957  1.00
      L1  H    21    43       P1  7948  0.99
      P1  H  6896  6907       L1    26  0.70
      P1  H  7997  8010       L1    11  0.93
      P1  H 10752 10765       L1    23  1.00

> <Gold.Chemscore.Hbond.Weighted>
-15.8769

> <Gold.Chemscore.Metal.Weighted>
-0.0000

> <Gold.Chemscore.Lipo.Weighted>
-10.7705

> <Gold.Chemscore.Internal_Hbond.Weighted>
0.0000

> <Gold.Chemscore.DEClash.Weighted>
0.6259

> <Gold.Chemscore.DEInternal.Weighted>
2.3009

> <Gold.Chemscore.Rot.Weighted>
8.3598

> <Gold.Chemscore.Internal.Correction.Weighted>
   9.000000E+99

> <Gold.Protein.RotatedTorsions>
[ 6907 6896 6895 6894 ] final  -94.59 input  -60.11 | X-H torsion
[ 7974 7965 7964 7962 ] final  144.37 input  175.53 | X-H torsion
[ 8008 7997 7996 7995 ] final   59.10 input   59.86 | X-H torsion
[ 10167 10162 10161 10158 ] final -153.09 input  -65.29 | X-H torsion
[ 10718 10713 10712 10709 ] final -142.98 input   66.30 | X-H torsion
[ 10763 10752 10751 10750 ] final  171.96 input  -60.55 | X-H torsion
[ 11005 11000 10999 10996 ] final -112.41 input  -57.11 | X-H torsion

> <Gold.Protein.ActiveResidues>
 VAL166  LYS551  ARG553  GLY616  TRP617  ASP618  TYR619  PRO620  LYS621  CYS622 
 ASP623  PHE694  ASN695  SER759  ASP760  ASP761  ALA762  ILE779  LEU786  VAL792 
 PHE793  MET794  SER795  GLU796  ALA797  LYS798  CYS799  TRP800  GLU811  SER814 

> <Gold.Protein.RotatedAtoms>
  150.6945  134.1789  159.4240 H   0  0  0  0  0  0  0  0  0  0  0  0  # atno 6907 bound_to 6896
  151.9764  135.0048  160.0564 H   0  0  0  0  0  0  0  0  0  0  0  0  # atno 6908 bound_to 6896
  152.1795  133.4662  159.4987 H   0  0  0  0  0  0  0  0  0  0  0  0  # atno 6909 bound_to 6896
  144.8841  139.5655  143.5829 H   0  0  0  0  0  0  0  0  0  0  0  0  # atno 7974 bound_to 7965
  155.5608  140.3488  155.4491 H   0  0  0  0  0  0  0  0  0  0  0  0  # atno 8008 bound_to 7997
  156.0516  140.1319  157.0070 H   0  0  0  0  0  0  0  0  0  0  0  0  # atno 8009 bound_to 7997
  154.4437  140.1003  156.6369 H   0  0  0  0  0  0  0  0  0  0  0  0  # atno 8010 bound_to 7997
  139.7126  143.9084  152.2474 H   0  0  0  0  0  0  0  0  0  0  0  0  # atno 10167 bound_to 10162
  156.3524  130.7695  151.1850 H   0  0  0  0  0  0  0  0  0  0  0  0  # atno 10718 bound_to 10713
  154.4193  135.2757  155.1986 H   0  0  0  0  0  0  0  0  0  0  0  0  # atno 10763 bound_to 10752
  154.3938  135.6060  153.5862 H   0  0  0  0  0  0  0  0  0  0  0  0  # atno 10764 bound_to 10752
  152.9832  135.5910  154.4487 H   0  0  0  0  0  0  0  0  0  0  0  0  # atno 10765 bound_to 10752
  141.0676  133.9432  157.2547 H   0  0  0  0  0  0  0  0  0  0  0  0  # atno 11005 bound_to 11000
  146.3013  139.7436  142.9089 LP  0  0  0  0  0  0  0  0  0  0  0  0  # atno 17320 bound_to 7965
  145.3901  141.0371  143.3129 LP  0  0  0  0  0  0  0  0  0  0  0  0  # atno 17321 bound_to 7965
  139.8957  144.6940  150.8721 LP  0  0  0  0  0  0  0  0  0  0  0  0  # atno 17342 bound_to 10162
  140.7737  143.3552  151.1935 LP  0  0  0  0  0  0  0  0  0  0  0  0  # atno 17343 bound_to 10162
  157.7463  131.0423  150.4691 LP  0  0  0  0  0  0  0  0  0  0  0  0  # atno 17370 bound_to 10713
  156.4888  130.4090  149.6418 LP  0  0  0  0  0  0  0  0  0  0  0  0  # atno 17371 bound_to 10713
  139.9492  135.0178  156.8943 LP  0  0  0  0  0  0  0  0  0  0  0  0  # atno 17394 bound_to 11000
  140.5740  134.0416  155.7440 LP  0  0  0  0  0  0  0  0  0  0  0  0  # atno 17395 bound_to 11000

$$$$
