AV-unprocessed.smi:1176|AV-procd|sdf|4953|dock3
  -GOLD-   22720 3543D 1   1.00000     0.00000
 Structure written by MMmdl.
 50 51  0  0  0  0  0  0  0  0  2 V2000
  141.9907  137.8611  153.1982 C   0  0  0  0  0  0  0  0  0  0  0  0
  143.0559  136.7810  152.9566 C   0  0  0  0  0  0  0  0  0  0  0  0
  142.4487  135.3792  153.1340 C   0  0  0  0  0  0  0  0  0  0  0  0
  144.2723  137.0021  153.8817 C   0  0  0  0  0  0  0  0  0  0  0  0
  145.1207  138.1479  153.4624 N   0  3  2  0  0  0  0  0  0  0  0  0
  145.9573  137.8265  152.2771 C   0  0  0  0  0  0  0  0  0  0  0  0
  146.7231  139.0665  151.7762 C   0  0  0  0  0  0  0  0  0  0  0  0
  147.5773  139.7029  152.8860 C   0  0  2  0  0  0  0  0  0  0  0  0
  148.7104  138.8362  153.2056 N   0  0  0  0  0  0  0  0  0  0  0  0
  149.7826  139.1842  153.9328 C   0  0  0  0  0  0  0  0  0  0  0  0
  149.9532  140.3121  154.3938 O   0  0  0  0  0  0  0  0  0  0  0  0
  150.8214  138.0856  154.1736 C   0  0  0  0  0  0  0  0  0  0  0  0
  151.0306  137.8607  155.6085 N   0  0  0  0  0  0  0  0  0  0  0  0
  150.3609  136.8241  156.2332 C   0  0  0  0  0  0  0  0  0  0  0  0
  150.4639  136.5570  157.5530 C   0  0  0  0  0  0  0  0  0  0  0  0
  151.3139  137.3686  158.4143 C   0  0  0  0  0  0  0  0  0  0  0  0
  151.4245  137.1795  159.6263 O   0  0  0  0  0  0  0  0  0  0  0  0
  152.0011  138.4105  157.7499 N   0  0  0  0  0  0  0  0  0  0  0  0
  152.8528  139.2546  158.5625 C   0  0  0  0  0  0  0  0  0  0  0  0
  151.8780  138.6956  156.3700 C   0  0  0  0  0  0  0  0  0  0  0  0
  152.4710  139.6356  155.8364 O   0  0  0  0  0  0  0  0  0  0  0  0
  146.6872  139.9746  154.1169 C   0  0  0  0  0  0  0  0  0  0  0  0
  145.9358  138.7115  154.5710 C   0  0  0  0  0  0  0  0  0  0  0  0
  141.6132  137.8264  154.2208 H   0  0  0  0  0  0  0  0  0  0  0  0
  141.1412  137.7336  152.5265 H   0  0  0  0  0  0  0  0  0  0  0  0
  142.3956  138.8590  153.0268 H   0  0  0  0  0  0  0  0  0  0  0  0
  143.3715  136.8794  151.9184 H   0  0  0  0  0  0  0  0  0  0  0  0
  142.1153  135.2179  154.1597 H   0  0  0  0  0  0  0  0  0  0  0  0
  143.1684  134.5973  152.8900 H   0  0  0  0  0  0  0  0  0  0  0  0
  141.5872  135.2400  152.4802 H   0  0  0  0  0  0  0  0  0  0  0  0
  143.9503  137.1533  154.9135 H   0  0  0  0  0  0  0  0  0  0  0  0
  144.8667  136.0872  153.8829 H   0  0  0  0  0  0  0  0  0  0  0  0
  146.6523  137.0240  152.5283 H   0  0  0  0  0  0  0  0  0  0  0  0
  145.3239  137.4535  151.4712 H   0  0  0  0  0  0  0  0  0  0  0  0
  147.3481  138.8016  150.9223 H   0  0  0  0  0  0  0  0  0  0  0  0
  146.0068  139.8027  151.4090 H   0  0  0  0  0  0  0  0  0  0  0  0
  147.9752  140.6501  152.5172 H   0  0  0  0  0  0  0  0  0  0  0  0
  148.6730  137.8904  152.8540 H   0  0  0  0  0  0  0  0  0  0  0  0
  150.5009  137.1599  153.6923 H   0  0  0  0  0  0  0  0  0  0  0  0
  151.7558  138.3598  153.6811 H   0  0  0  0  0  0  0  0  0  0  0  0
  149.7148  136.1964  155.6368 H   0  0  0  0  0  0  0  0  0  0  0  0
  149.9080  135.7342  157.9780 H   0  0  0  0  0  0  0  0  0  0  0  0
  153.5563  139.8075  157.9403 H   0  0  0  0  0  0  0  0  0  0  0  0
  153.4240  138.6159  159.2387 H   0  0  0  0  0  0  0  0  0  0  0  0
  152.1975  139.9325  159.1114 H   0  0  0  0  0  0  0  0  0  0  0  0
  147.2743  140.3754  154.9434 H   0  0  0  0  0  0  0  0  0  0  0  0
  145.9606  140.7489  153.8673 H   0  0  0  0  0  0  0  0  0  0  0  0
  145.3004  138.9688  155.4172 H   0  0  0  0  0  0  0  0  0  0  0  0
  146.6417  137.9598  154.9282 H   0  0  0  0  0  0  0  0  0  0  0  0
  144.4856  138.8748  153.1650 H   0  0  0  0  0  0  0  0  0  0  0  0
  1  2  1  0  0  0  0
  1 24  1  0  0  0  0
  1 25  1  0  0  0  0
  1 26  1  0  0  0  0
  2  3  1  0  0  0  0
  2  4  1  0  0  0  0
  2 27  1  0  0  0  0
  3 28  1  0  0  0  0
  3 29  1  0  0  0  0
  3 30  1  0  0  0  0
  4  5  1  0  0  0  0
  4 31  1  0  0  0  0
  4 32  1  0  0  0  0
  5 23  1  0  0  0  0
  5  6  1  0  0  0  0
  5 50  1  0  0  0  0
  6  7  1  0  0  0  0
  6 33  1  0  0  0  0
  6 34  1  0  0  0  0
  7  8  1  0  0  0  0
  7 35  1  0  0  0  0
  7 36  1  0  0  0  0
  8  9  1  0  0  0  0
  8 22  1  0  0  0  0
  8 37  1  0  0  0  0
  9 10  1  0  0  0  0
  9 38  1  0  0  0  0
 10 11  2  0  0  0  0
 10 12  1  0  0  0  0
 12 13  1  0  0  0  0
 12 39  1  0  0  0  0
 12 40  1  0  0  0  0
 13 20  1  0  0  0  0
 13 14  1  0  0  0  0
 14 15  2  0  0  0  0
 14 41  1  0  0  0  0
 15 16  1  0  0  0  0
 15 42  1  0  0  0  0
 16 17  2  0  0  0  0
 16 18  1  0  0  0  0
 18 19  1  0  0  0  0
 18 20  1  0  0  0  0
 19 43  1  0  0  0  0
 19 44  1  0  0  0  0
 19 45  1  0  0  0  0
 20 21  2  0  0  0  0
 22 23  1  0  0  0  0
 22 46  1  0  0  0  0
 22 47  1  0  0  0  0
 23 48  1  0  0  0  0
 23 49  1  0  0  0  0
M  CHG  1   5   1
M  END
> <s_m_source_file>
AV-unprocessed.smi

> <i_m_source_file_index>
1176

> <i_lp_mmshare_version>
43012

> <i_f3d_flags>
0

> <s_epik_input>
W0NIM11bQ0hdKFtDSDNdKVtDSDJdTjFbQ0gyXVtDSDJdW0NIXShbQ0gyXVtDSDJdMSlbTkhdQyg9TylbQ0gyXW4yW2NIXVtjSF1jKD1PKW4oW0NIM10pYzI9Tw==

> <s_epik_cmdline>
J2VwaWtfcHl0aG9uJywgJy1waCcsICc3LjAnLCAnLXRuJywgJzgnLCAnLW1hJywgJzIwMCcsICctbWV0YWxfYmluZGluZycsICctaW1hZScsICc8aW5maWxlLm1hZT4nLCAnLW9tYWUnLCAnPG91dGZpbGUubWFlPic=

> <r_lp_tautomer_probability>
1

> <r_epik_Ionization_Penalty>
0.00401429

> <r_epik_Ionization_Penalty_Charging>
0.00401425

> <r_epik_Ionization_Penalty_Neutral>
4.29561e-08

> <r_epik_State_Penalty>
0.00287487

> <r_epik_Charging_Adjusted_Penalty>
0.00688912

> <i_epik_Tot_Q>
1

> <i_epik_Tot_abs_Q>
1

> <r_epik_Metal_State_Penalty>
-0

> <b_epik_Metal_Only>
0

> <s_lp_Force_Field>
OPLS_2005

> <r_lp_Energy>
29.2662

> <b_lp_Chiralities_Consistent>
1

> <s_lp_Variant>
AV-unprocessed.smi:1176-2

> <Gold.Version>
5.8.1

> <Gold.Id.Protein>
6NUR|6NUR_protein|mol2

> <Gold.PLP.Fitness>
51.1091

> <Gold.PLP.PLP>
-34.8038

> <Gold.PLP.part.hbond>
-5.9427

> <Gold.PLP.part.metal>
0.0000

> <Gold.PLP.part.buried>
0.0740

> <Gold.PLP.part.nonpolar>
-29.4966

> <Gold.PLP.part.repulsive>
0.1944

> <Gold.PLP.ligand.clash>
0.0000

> <Gold.PLP.ligand.torsion>
0.7531

> <Gold.PLP.Chemscore.Hbond>
5.9120

> <Gold.PLP.Chemscore.CHOScore>
0.0000

> <Gold.PLP.Chemscore.Metal>
0.0000

> <Gold.Chemscore.Hbonds>
donor molecule, donor type, donor heavy atom, donor atom, acceptor molecule, acceptor atom, score
      L1  H     5    50       P1 10175  2.00
      L1  H     9    38       P1  7948  1.00
      P1  H  6896  6909       L1    17  0.99
      P1  H  7989  7998       L1    11  0.91
      P1  H  7997  8008       L1    21  1.00

> <Gold.PLP.Chemscore.Internal.Correction>
0.0754

> <Gold.Rescore>
     Score         DG    S(hbond)    S(metal)    S(lipo)     H(rot)  DE(clash)    DE(int)     intcor
     20.30     -22.91       4.52        0.00      61.79       1.92       1.70       0.90       ----

> <Gold.Chemscore.Fitness>
20.3042

> <Gold.Chemscore.DG>
-22.9079

> <Gold.Chemscore.ZeroCoef>
-5.4800

> <Gold.Chemscore.Hbond>
4.5250

> <Gold.Chemscore.Metal>
0.0000

> <Gold.Chemscore.Lipo>
61.7870

> <Gold.Chemscore.Internal_Hbond>
0.0000

> <Gold.Chemscore.DEClash>
1.7021

> <Gold.Chemscore.DEInternal>
0.9015

> <Gold.Chemscore.Rot>
1.9198

> <Gold.Chemscore.Internal.Correction>
   9.000000E+99

> <Gold.Chemscore.Hbonds>
donor molecule, donor type, donor heavy atom, donor atom, acceptor molecule, acceptor atom, score
      L1  H     5    50       P1 10175  1.00
      L1  H     9    38       P1  7948  0.99
      P1  H  6896  6909       L1    17  0.65
      P1  H  7989  7998       L1    11  0.30
      P1  H  7997  8008       L1    21  0.98

> <Gold.Chemscore.Hbond.Weighted>
-15.1135

> <Gold.Chemscore.Metal.Weighted>
-0.0000

> <Gold.Chemscore.Lipo.Weighted>
-7.2291

> <Gold.Chemscore.Internal_Hbond.Weighted>
0.0000

> <Gold.Chemscore.DEClash.Weighted>
1.7021

> <Gold.Chemscore.DEInternal.Weighted>
0.9015

> <Gold.Chemscore.Rot.Weighted>
4.9147

> <Gold.Chemscore.Internal.Correction.Weighted>
   9.000000E+99

> <Gold.Protein.RotatedTorsions>
[ 6907 6896 6895 6894 ] final  114.06 input  -60.11 | X-H torsion
[ 7974 7965 7964 7962 ] final   38.88 input  175.53 | X-H torsion
[ 8008 7997 7996 7995 ] final  -36.22 input   59.86 | X-H torsion
[ 10167 10162 10161 10158 ] final   68.80 input  -65.29 | X-H torsion
[ 10718 10713 10712 10709 ] final  152.00 input   66.30 | X-H torsion
[ 10763 10752 10751 10750 ] final  -18.40 input  -60.55 | X-H torsion
[ 11005 11000 10999 10996 ] final -127.83 input  -57.11 | X-H torsion

> <Gold.Protein.ActiveResidues>
 VAL166  LYS551  ARG553  GLY616  TRP617  ASP618  TYR619  PRO620  LYS621  CYS622 
 ASP623  PHE694  ASN695  SER759  ASP760  ASP761  ALA762  ILE779  LEU786  VAL792 
 PHE793  MET794  SER795  GLU796  ALA797  LYS798  CYS799  TRP800  GLU811  SER814 

> <Gold.Protein.RotatedAtoms>
  152.4825  133.8289  159.7092 H   0  0  0  0  0  0  0  0  0  0  0  0  # atno 6907 bound_to 6896
  150.8885  133.7265  159.2918 H   0  0  0  0  0  0  0  0  0  0  0  0  # atno 6908 bound_to 6896
  151.4746  135.1052  159.9813 H   0  0  0  0  0  0  0  0  0  0  0  0  # atno 6909 bound_to 6896
  146.1028  139.5719  142.9403 H   0  0  0  0  0  0  0  0  0  0  0  0  # atno 7974 bound_to 7965
  154.4078  140.1636  156.2339 H   0  0  0  0  0  0  0  0  0  0  0  0  # atno 8008 bound_to 7997
  155.9259  140.3418  155.6187 H   0  0  0  0  0  0  0  0  0  0  0  0  # atno 8009 bound_to 7997
  155.7165  140.0763  157.2339 H   0  0  0  0  0  0  0  0  0  0  0  0  # atno 8010 bound_to 7997
  140.0747  144.5122  150.7203 H   0  0  0  0  0  0  0  0  0  0  0  0  # atno 10167 bound_to 10162
  157.2634  131.0802  151.1650 H   0  0  0  0  0  0  0  0  0  0  0  0  # atno 10718 bound_to 10713
  153.5887  135.7003  153.5432 H   0  0  0  0  0  0  0  0  0  0  0  0  # atno 10763 bound_to 10752
  153.3197  135.4077  155.1406 H   0  0  0  0  0  0  0  0  0  0  0  0  # atno 10764 bound_to 10752
  154.8604  135.3692  154.5418 H   0  0  0  0  0  0  0  0  0  0  0  0  # atno 10765 bound_to 10752
  140.9567  134.0993  157.4009 H   0  0  0  0  0  0  0  0  0  0  0  0  # atno 11005 bound_to 11000
  145.5821  141.0381  143.2116 LP  0  0  0  0  0  0  0  0  0  0  0  0  # atno 17320 bound_to 7965
  144.7446  139.7354  143.7297 LP  0  0  0  0  0  0  0  0  0  0  0  0  # atno 17321 bound_to 7965
  140.7108  143.2503  151.4588 LP  0  0  0  0  0  0  0  0  0  0  0  0  # atno 17342 bound_to 10162
  139.5815  144.1700  152.1974 LP  0  0  0  0  0  0  0  0  0  0  0  0  # atno 17343 bound_to 10162
  157.3150  130.6909  149.6237 LP  0  0  0  0  0  0  0  0  0  0  0  0  # atno 17370 bound_to 10713
  155.9664  130.4352  150.5082 LP  0  0  0  0  0  0  0  0  0  0  0  0  # atno 17371 bound_to 10713
  139.8864  135.0081  156.6498 LP  0  0  0  0  0  0  0  0  0  0  0  0  # atno 17394 bound_to 11000
  140.7526  133.8884  155.8358 LP  0  0  0  0  0  0  0  0  0  0  0  0  # atno 17395 bound_to 11000

$$$$
