AV-unprocessed.smi:1439|AV-procd|sdf|5869|dock6
  -GOLD-   22720 5543D 1   1.00000     0.00000
 Structure written by MMmdl.
 36 37  0  0  0  0  0  0  0  0  1 V2000
  144.6968  135.7419  149.6033 N   0  0  0  0  0  0  0  0  0  0  0  0
  144.3354  135.1053  150.7208 C   0  0  0  0  0  0  0  0  0  0  0  0
  143.9918  135.7053  151.7370 O   0  0  0  0  0  0  0  0  0  0  0  0
  144.3693  133.5758  150.6971 C   0  0  0  0  0  0  0  0  0  0  0  0
  145.5030  133.0643  151.5387 C   0  0  0  0  0  0  0  0  0  0  0  0
  145.7170  131.7640  151.9297 C   0  0  0  0  0  0  0  0  0  0  0  0
  147.1536  131.5992  152.9018 S   0  0  0  0  0  0  0  0  0  0  0  0
  147.4080  133.3382  152.7440 C   0  0  0  0  0  0  0  0  0  0  0  0
  148.4601  134.1087  153.2986 N   0  0  0  0  0  0  0  0  0  0  0  0
  149.1679  133.8608  154.4144 C   0  0  0  0  0  0  0  0  0  0  0  0
  148.9964  132.8867  155.1472 O   0  0  0  0  0  0  0  0  0  0  0  0
  150.2455  134.8935  154.7592 C   0  0  0  0  0  0  0  0  0  0  0  0
  149.8671  135.7745  155.9638 C   0  0  0  0  0  0  0  0  0  0  0  0
  150.5878  137.1304  155.9525 C   0  0  2  0  0  0  0  0  0  0  0  0
  150.1779  138.0406  154.7988 C   0  0  0  0  0  0  0  0  0  0  0  0
  151.3529  138.9958  154.6922 C   0  0  0  0  0  0  0  0  0  0  0  0
  152.5164  138.2213  155.3212 C   0  0  0  0  0  0  0  0  0  0  0  0
  151.9787  136.9666  155.7238 O   0  0  0  0  0  0  0  0  0  0  0  0
  146.4745  133.9525  152.0153 N   0  0  0  0  0  0  0  0  0  0  0  0
  144.6811  136.7510  149.5745 H   0  0  0  0  0  0  0  0  0  0  0  0
  144.9768  135.2133  148.7898 H   0  0  0  0  0  0  0  0  0  0  0  0
  143.4119  133.1883  151.0489 H   0  0  0  0  0  0  0  0  0  0  0  0
  144.4766  133.2353  149.6667 H   0  0  0  0  0  0  0  0  0  0  0  0
  145.1187  130.8947  151.6998 H   0  0  0  0  0  0  0  0  0  0  0  0
  148.7055  134.9430  152.7859 H   0  0  0  0  0  0  0  0  0  0  0  0
  151.1876  134.3823  154.9636 H   0  0  0  0  0  0  0  0  0  0  0  0
  150.4138  135.5165  153.8801 H   0  0  0  0  0  0  0  0  0  0  0  0
  148.7890  135.9397  155.9853 H   0  0  0  0  0  0  0  0  0  0  0  0
  150.1172  135.2484  156.8863 H   0  0  0  0  0  0  0  0  0  0  0  0
  150.4418  137.6493  156.9017 H   0  0  0  0  0  0  0  0  0  0  0  0
  150.0890  137.4649  153.8764 H   0  0  0  0  0  0  0  0  0  0  0  0
  149.2292  138.5489  154.9742 H   0  0  0  0  0  0  0  0  0  0  0  0
  151.5522  139.2781  153.6580 H   0  0  0  0  0  0  0  0  0  0  0  0
  151.1590  139.9075  155.2585 H   0  0  0  0  0  0  0  0  0  0  0  0
  153.3390  138.0719  154.6215 H   0  0  0  0  0  0  0  0  0  0  0  0
  152.9043  138.7500  156.1927 H   0  0  0  0  0  0  0  0  0  0  0  0
  1  2  1  0  0  0  0
  1 20  1  0  0  0  0
  1 21  1  0  0  0  0
  2  3  2  0  0  0  0
  2  4  1  0  0  0  0
  4  5  1  0  0  0  0
  4 22  1  0  0  0  0
  4 23  1  0  0  0  0
  5 19  1  0  0  0  0
  5  6  2  0  0  0  0
  6  7  1  0  0  0  0
  6 24  1  0  0  0  0
  7  8  1  0  0  0  0
  8  9  1  0  0  0  0
  8 19  2  0  0  0  0
  9 10  1  0  0  0  0
  9 25  1  0  0  0  0
 10 11  2  0  0  0  0
 10 12  1  0  0  0  0
 12 13  1  0  0  0  0
 12 26  1  0  0  0  0
 12 27  1  0  0  0  0
 13 14  1  0  0  0  0
 13 28  1  0  0  0  0
 13 29  1  0  0  0  0
 14 18  1  0  0  0  0
 14 15  1  0  0  0  0
 14 30  1  0  0  0  0
 15 16  1  0  0  0  0
 15 31  1  0  0  0  0
 15 32  1  0  0  0  0
 16 17  1  0  0  0  0
 16 33  1  0  0  0  0
 16 34  1  0  0  0  0
 17 18  1  0  0  0  0
 17 35  1  0  0  0  0
 17 36  1  0  0  0  0
M  END
> <s_m_source_file>
AV-unprocessed.smi

> <i_m_source_file_index>
1439

> <i_lp_mmshare_version>
43012

> <i_f3d_flags>
0

> <s_epik_input>
W05IMl1DKD1PKVtDSDJdYzFbY0hdc2MobjEpW05IXUMoPU8pW0NIMl1bQ0gyXVtDQEBIXTJbQ0gyXVtDSDJdW0NIMl1PMg==

> <s_epik_cmdline>
J2VwaWtfcHl0aG9uJywgJy1waCcsICc3LjAnLCAnLXRuJywgJzgnLCAnLW1hJywgJzIwMCcsICctbWV0YWxfYmluZGluZycsICctaW1hZScsICc8aW5maWxlLm1hZT4nLCAnLW9tYWUnLCAnPG91dGZpbGUubWFlPic=

> <r_lp_tautomer_probability>
1

> <r_epik_Ionization_Penalty>
0.000300833

> <r_epik_Ionization_Penalty_Charging>
0

> <r_epik_Ionization_Penalty_Neutral>
0.000300833

> <r_epik_State_Penalty>
-0

> <r_epik_Charging_Adjusted_Penalty>
0

> <i_epik_Tot_Q>
0

> <i_epik_Tot_abs_Q>
0

> <r_epik_Metal_State_Penalty>
0.167159

> <b_epik_Metal_Only>
0

> <s_lp_Force_Field>
OPLS_2005

> <r_lp_Energy>
15.8288

> <b_lp_Chiralities_Consistent>
1

> <s_lp_Variant>
AV-unprocessed.smi:1439-1

> <Gold.Version>
5.8.1

> <Gold.Id.Protein>
6NUR|6NUR_protein|mol2

> <Gold.PLP.Fitness>
42.8195

> <Gold.PLP.PLP>
-32.1833

> <Gold.PLP.part.hbond>
-4.0000

> <Gold.PLP.part.metal>
0.0000

> <Gold.PLP.part.buried>
-4.9049

> <Gold.PLP.part.nonpolar>
-23.9448

> <Gold.PLP.part.repulsive>
0.4895

> <Gold.PLP.ligand.clash>
0.0000

> <Gold.PLP.ligand.torsion>
0.7062

> <Gold.PLP.Chemscore.Hbond>
4.0000

> <Gold.PLP.Chemscore.CHOScore>
0.0000

> <Gold.PLP.Chemscore.Metal>
0.0000

> <Gold.Chemscore.Hbonds>
donor molecule, donor type, donor heavy atom, donor atom, acceptor molecule, acceptor atom, score
      L1  H     1    20       P1 10171  1.00
      L1  H     1    21       P1  7921  1.00
      L1  H     9    25       P1  7948  0.95
      P1  H 10752 10764       L1    18  1.00

> <Gold.PLP.Chemscore.Internal.Correction>
0.0486

> <Gold.Rescore>
     Score         DG    S(hbond)    S(metal)    S(lipo)     H(rot)  DE(clash)    DE(int)     intcor
     15.23     -16.15       3.21        0.00      55.51       2.56       0.26       0.67       ----

> <Gold.Chemscore.Fitness>
15.2302

> <Gold.Chemscore.DG>
-16.1539

> <Gold.Chemscore.ZeroCoef>
-5.4800

> <Gold.Chemscore.Hbond>
3.2133

> <Gold.Chemscore.Metal>
0.0000

> <Gold.Chemscore.Lipo>
55.5097

> <Gold.Chemscore.Internal_Hbond>
0.0000

> <Gold.Chemscore.DEClash>
0.2575

> <Gold.Chemscore.DEInternal>
0.6662

> <Gold.Chemscore.Rot>
2.5598

> <Gold.Chemscore.Internal.Correction>
   9.000000E+99

> <Gold.Chemscore.Hbonds>
donor molecule, donor type, donor heavy atom, donor atom, acceptor molecule, acceptor atom, score
      L1  H     1    20       P1 10171  0.95
      L1  H     1    21       P1  7921  0.94
      L1  H     9    25       P1  7948  0.21
      P1  H 10752 10764       L1    18  0.62

> <Gold.Chemscore.Hbond.Weighted>
-10.7325

> <Gold.Chemscore.Metal.Weighted>
-0.0000

> <Gold.Chemscore.Lipo.Weighted>
-6.4946

> <Gold.Chemscore.Internal_Hbond.Weighted>
0.0000

> <Gold.Chemscore.DEClash.Weighted>
0.2575

> <Gold.Chemscore.DEInternal.Weighted>
0.6662

> <Gold.Chemscore.Rot.Weighted>
6.5532

> <Gold.Chemscore.Internal.Correction.Weighted>
   9.000000E+99

> <Gold.Protein.RotatedTorsions>
[ 6907 6896 6895 6894 ] final   58.45 input  -60.11 | X-H torsion
[ 7974 7965 7964 7962 ] final -148.23 input  175.53 | X-H torsion
[ 8008 7997 7996 7995 ] final -117.13 input   59.86 | X-H torsion
[ 10167 10162 10161 10158 ] final -130.69 input  -65.29 | X-H torsion
[ 10718 10713 10712 10709 ] final  -81.29 input   66.30 | X-H torsion
[ 10763 10752 10751 10750 ] final  -43.82 input  -60.55 | X-H torsion
[ 11005 11000 10999 10996 ] final -100.75 input  -57.11 | X-H torsion

> <Gold.Protein.ActiveResidues>
 VAL166  LYS551  ARG553  GLY616  TRP617  ASP618  TYR619  PRO620  LYS621  CYS622 
 ASP623  PHE694  ASN695  SER759  ASP760  ASP761  ALA762  ILE779  LEU786  VAL792 
 PHE793  MET794  SER795  GLU796  ALA797  LYS798  CYS799  TRP800  GLU811  SER814 

> <Gold.Protein.RotatedAtoms>
  152.3825  134.6568  160.0137 H   0  0  0  0  0  0  0  0  0  0  0  0  # atno 6907 bound_to 6896
  151.6827  133.3306  159.3231 H   0  0  0  0  0  0  0  0  0  0  0  0  # atno 6908 bound_to 6896
  150.7759  134.6703  159.6432 H   0  0  0  0  0  0  0  0  0  0  0  0  # atno 6909 bound_to 6896
  144.8042  140.5223  143.5686 H   0  0  0  0  0  0  0  0  0  0  0  0  # atno 7974 bound_to 7965
  155.0788  140.0394  157.2632 H   0  0  0  0  0  0  0  0  0  0  0  0  # atno 8008 bound_to 7997
  154.6923  140.2656  155.6776 H   0  0  0  0  0  0  0  0  0  0  0  0  # atno 8009 bound_to 7997
  156.2733  140.2757  156.1505 H   0  0  0  0  0  0  0  0  0  0  0  0  # atno 8010 bound_to 7997
  139.9267  143.6319  152.2540 H   0  0  0  0  0  0  0  0  0  0  0  0  # atno 10167 bound_to 10162
  156.0053  130.4599  150.3929 H   0  0  0  0  0  0  0  0  0  0  0  0  # atno 10718 bound_to 10713
  154.0018  135.6692  153.4759 H   0  0  0  0  0  0  0  0  0  0  0  0  # atno 10763 bound_to 10752
  153.0659  135.5001  154.8194 H   0  0  0  0  0  0  0  0  0  0  0  0  # atno 10764 bound_to 10752
  154.7048  135.3086  154.9250 H   0  0  0  0  0  0  0  0  0  0  0  0  # atno 10765 bound_to 10752
  141.1258  133.8424  157.1143 H   0  0  0  0  0  0  0  0  0  0  0  0  # atno 11005 bound_to 11000
  145.5478  139.1476  143.3411 LP  0  0  0  0  0  0  0  0  0  0  0  0  # atno 17320 bound_to 7965
  146.2330  140.5616  142.8967 LP  0  0  0  0  0  0  0  0  0  0  0  0  # atno 17321 bound_to 7965
  139.6816  144.7655  151.1598 LP  0  0  0  0  0  0  0  0  0  0  0  0  # atno 17342 bound_to 10162
  140.7648  143.5717  150.8989 LP  0  0  0  0  0  0  0  0  0  0  0  0  # atno 17343 bound_to 10162
  157.2003  131.0436  151.2654 LP  0  0  0  0  0  0  0  0  0  0  0  0  # atno 17370 bound_to 10713
  157.3982  130.7319  149.6747 LP  0  0  0  0  0  0  0  0  0  0  0  0  # atno 17371 bound_to 10713
  140.0255  134.9926  157.0678 LP  0  0  0  0  0  0  0  0  0  0  0  0  # atno 17394 bound_to 11000
  140.4369  134.1722  155.7171 LP  0  0  0  0  0  0  0  0  0  0  0  0  # atno 17395 bound_to 11000

$$$$
