AV-unprocessed.smi:2076|AV-procd|sdf|8458|dock5
  -GOLD-   2272011153D 1   1.00000     0.00000
 Structure written by MMmdl.
 44 45  0  0  0  0  0  0  0  0  1 V2000
  146.4776  128.8821  152.3872 C   0  0  0  0  0  0  0  0  0  0  0  0
  146.0885  130.2787  152.0019 C   0  0  0  0  0  0  0  0  0  0  0  0
  145.1000  130.6922  151.0656 C   0  0  0  0  0  0  0  0  0  0  0  0
  145.1532  132.0572  151.0985 C   0  0  0  0  0  0  0  0  0  0  0  0
  144.3577  133.0696  150.3418 C   0  0  0  0  0  0  0  0  0  0  0  0
  146.1325  132.3987  152.0149 N   0  0  0  0  0  0  0  0  0  0  0  0
  146.5810  133.7184  152.4314 C   0  0  0  0  0  0  0  0  0  0  0  0
  147.4014  133.6432  153.7198 C   0  0  0  0  0  0  0  0  0  0  0  0
  147.1052  132.8282  154.5931 O   0  0  0  0  0  0  0  0  0  0  0  0
  148.4286  134.4985  153.8241 N   0  0  0  0  0  0  0  0  0  0  0  0
  149.3300  134.5810  154.9673 C   0  0  0  0  0  0  0  0  0  0  0  0
  149.2333  135.9492  155.6971 C   0  0  1  0  0  0  0  0  0  0  0  0
  149.8510  135.8044  157.1116 C   0  0  0  0  0  0  0  0  0  0  0  0
  149.8257  137.0695  154.9292 N   0  0  0  0  0  0  0  0  0  0  0  0
  151.2615  137.2297  155.1880 C   0  0  0  0  0  0  0  0  0  0  0  0
  151.8818  138.4074  154.4165 C   0  0  0  0  0  0  0  0  0  0  0  0
  151.1908  139.6069  154.7359 O   0  0  0  0  0  0  0  0  0  0  0  0
  149.8071  139.5228  154.4254 C   0  0  0  0  0  0  0  0  0  0  0  0
  149.1718  138.3552  155.2000 C   0  0  0  0  0  0  0  0  0  0  0  0
  146.7035  131.3049  152.5665 N   0  0  0  0  0  0  0  0  0  0  0  0
  145.8549  128.1454  151.8793 H   0  0  0  0  0  0  0  0  0  0  0  0
  146.3675  128.7251  153.4606 H   0  0  0  0  0  0  0  0  0  0  0  0
  147.5153  128.6774  152.1235 H   0  0  0  0  0  0  0  0  0  0  0  0
  144.4483  130.0787  150.4614 H   0  0  0  0  0  0  0  0  0  0  0  0
  143.7114  132.5872  149.6086 H   0  0  0  0  0  0  0  0  0  0  0  0
  145.0102  133.7599  149.8075 H   0  0  0  0  0  0  0  0  0  0  0  0
  143.7269  133.6495  151.0155 H   0  0  0  0  0  0  0  0  0  0  0  0
  147.1779  134.1683  151.6361 H   0  0  0  0  0  0  0  0  0  0  0  0
  145.7131  134.3625  152.5761 H   0  0  0  0  0  0  0  0  0  0  0  0
  148.6023  135.1296  153.0550 H   0  0  0  0  0  0  0  0  0  0  0  0
  149.1196  133.7703  155.6674 H   0  0  0  0  0  0  0  0  0  0  0  0
  150.3274  134.4084  154.5660 H   0  0  0  0  0  0  0  0  0  0  0  0
  148.1715  136.1608  155.8332 H   0  0  0  0  0  0  0  0  0  0  0  0
  149.4587  134.9451  157.6544 H   0  0  0  0  0  0  0  0  0  0  0  0
  149.6344  136.6622  157.7467 H   0  0  0  0  0  0  0  0  0  0  0  0
  150.9339  135.6887  157.0575 H   0  0  0  0  0  0  0  0  0  0  0  0
  151.4316  137.3682  156.2567 H   0  0  0  0  0  0  0  0  0  0  0  0
  151.8073  136.3350  154.8941 H   0  0  0  0  0  0  0  0  0  0  0  0
  152.9326  138.5219  154.6826 H   0  0  0  0  0  0  0  0  0  0  0  0
  151.8414  138.2294  153.3408 H   0  0  0  0  0  0  0  0  0  0  0  0
  149.3244  140.4624  154.6945 H   0  0  0  0  0  0  0  0  0  0  0  0
  149.6739  139.3915  153.3503 H   0  0  0  0  0  0  0  0  0  0  0  0
  148.1228  138.3230  154.9132 H   0  0  0  0  0  0  0  0  0  0  0  0
  149.2039  138.5691  156.2694 H   0  0  0  0  0  0  0  0  0  0  0  0
  1  2  1  0  0  0  0
  1 21  1  0  0  0  0
  1 22  1  0  0  0  0
  1 23  1  0  0  0  0
  2 20  2  0  0  0  0
  2  3  1  0  0  0  0
  3  4  2  0  0  0  0
  3 24  1  0  0  0  0
  4  5  1  0  0  0  0
  4  6  1  0  0  0  0
  5 25  1  0  0  0  0
  5 26  1  0  0  0  0
  5 27  1  0  0  0  0
  6  7  1  0  0  0  0
  6 20  1  0  0  0  0
  7  8  1  0  0  0  0
  7 28  1  0  0  0  0
  7 29  1  0  0  0  0
  8  9  2  0  0  0  0
  8 10  1  0  0  0  0
 10 11  1  0  0  0  0
 10 30  1  0  0  0  0
 11 12  1  0  0  0  0
 11 31  1  0  0  0  0
 11 32  1  0  0  0  0
 12 13  1  0  0  0  0
 12 14  1  0  0  0  0
 12 33  1  0  0  0  0
 13 34  1  0  0  0  0
 13 35  1  0  0  0  0
 13 36  1  0  0  0  0
 14 19  1  0  0  0  0
 14 15  1  0  0  0  0
 15 16  1  0  0  0  0
 15 37  1  0  0  0  0
 15 38  1  0  0  0  0
 16 17  1  0  0  0  0
 16 39  1  0  0  0  0
 16 40  1  0  0  0  0
 17 18  1  0  0  0  0
 18 19  1  0  0  0  0
 18 41  1  0  0  0  0
 18 42  1  0  0  0  0
 19 43  1  0  0  0  0
 19 44  1  0  0  0  0
M  END
> <s_m_source_file>
AV-unprocessed.smi

> <i_m_source_file_index>
2076

> <i_lp_mmshare_version>
43012

> <i_f3d_flags>
0

> <s_epik_input>
W0NIM11jMVtjSF1jKFtDSDNdKW4objEpW0NIMl1DKD1PKVtOSF1bQ0gyXVtDQEhdKFtDSDNdKU4yW0NIMl1bQ0gyXU9bQ0gyXVtDSDJdMg==

> <s_epik_cmdline>
J2VwaWtfcHl0aG9uJywgJy1waCcsICc3LjAnLCAnLXRuJywgJzgnLCAnLW1hJywgJzIwMCcsICctbWV0YWxfYmluZGluZycsICctaW1hZScsICc8aW5maWxlLm1hZT4nLCAnLW9tYWUnLCAnPG91dGZpbGUubWFlPic=

> <r_lp_tautomer_probability>
1

> <r_epik_Ionization_Penalty>
0.197284

> <r_epik_Ionization_Penalty_Charging>
0

> <r_epik_Ionization_Penalty_Neutral>
0.197284

> <r_epik_State_Penalty>
0.186684

> <r_epik_Charging_Adjusted_Penalty>
0.186684

> <i_epik_Tot_Q>
0

> <i_epik_Tot_abs_Q>
0

> <r_epik_Metal_State_Penalty>
0.186636

> <b_epik_Metal_Only>
0

> <s_lp_Force_Field>
OPLS_2005

> <r_lp_Energy>
27.1724

> <b_lp_Chiralities_Consistent>
1

> <s_lp_Variant>
AV-unprocessed.smi:2076-2

> <Gold.Version>
5.8.1

> <Gold.Id.Protein>
6NUR|6NUR_protein|mol2

> <Gold.PLP.Fitness>
36.5801

> <Gold.PLP.PLP>
-33.0673

> <Gold.PLP.part.hbond>
-2.0000

> <Gold.PLP.part.metal>
0.0000

> <Gold.PLP.part.buried>
-6.5777

> <Gold.PLP.part.nonpolar>
-24.8319

> <Gold.PLP.part.repulsive>
0.4011

> <Gold.PLP.ligand.clash>
0.0000

> <Gold.PLP.ligand.torsion>
1.2777

> <Gold.PLP.Chemscore.Hbond>
2.0000

> <Gold.PLP.Chemscore.CHOScore>
0.0000

> <Gold.PLP.Chemscore.Metal>
0.0000

> <Gold.Chemscore.Hbonds>
donor molecule, donor type, donor heavy atom, donor atom, acceptor molecule, acceptor atom, score
      L1  H    10    30       P1  7948  1.00
      P1  H  7989  7998       L1    17  0.90

> <Gold.PLP.Chemscore.Internal.Correction>
0.0682

> <Gold.Rescore>
     Score         DG    S(hbond)    S(metal)    S(lipo)     H(rot)  DE(clash)    DE(int)     intcor
     11.47     -14.34       0.96        0.00      85.50       1.70       0.02       2.85       ----

> <Gold.Chemscore.Fitness>
11.4659

> <Gold.Chemscore.DG>
-14.3426

> <Gold.Chemscore.ZeroCoef>
-5.4800

> <Gold.Chemscore.Hbond>
0.9608

> <Gold.Chemscore.Metal>
0.0000

> <Gold.Chemscore.Lipo>
85.5021

> <Gold.Chemscore.Internal_Hbond>
0.0000

> <Gold.Chemscore.DEClash>
0.0239

> <Gold.Chemscore.DEInternal>
2.8528

> <Gold.Chemscore.Rot>
1.6993

> <Gold.Chemscore.Internal.Correction>
   9.000000E+99

> <Gold.Chemscore.Hbonds>
donor molecule, donor type, donor heavy atom, donor atom, acceptor molecule, acceptor atom, score
      L1  H    10    30       P1  7948  0.70
      P1  H  7989  7998       L1    17  0.12

> <Gold.Chemscore.Hbond.Weighted>
-3.2091

> <Gold.Chemscore.Metal.Weighted>
-0.0000

> <Gold.Chemscore.Lipo.Weighted>
-10.0037

> <Gold.Chemscore.Internal_Hbond.Weighted>
0.0000

> <Gold.Chemscore.DEClash.Weighted>
0.0239

> <Gold.Chemscore.DEInternal.Weighted>
2.8528

> <Gold.Chemscore.Rot.Weighted>
4.3502

> <Gold.Chemscore.Internal.Correction.Weighted>
   9.000000E+99

> <Gold.Protein.RotatedTorsions>
[ 6907 6896 6895 6894 ] final  -34.35 input  -60.11 | X-H torsion
[ 7974 7965 7964 7962 ] final   50.27 input  175.53 | X-H torsion
[ 8008 7997 7996 7995 ] final -148.81 input   59.86 | X-H torsion
[ 10167 10162 10161 10158 ] final  -69.82 input  -65.29 | X-H torsion
[ 10718 10713 10712 10709 ] final -159.00 input   66.30 | X-H torsion
[ 10763 10752 10751 10750 ] final  132.45 input  -60.55 | X-H torsion
[ 11005 11000 10999 10996 ] final  -45.27 input  -57.11 | X-H torsion

> <Gold.Protein.ActiveResidues>
 VAL166  LYS551  ARG553  GLY616  TRP617  ASP618  TYR619  PRO620  LYS621  CYS622 
 ASP623  PHE694  ASN695  SER759  ASP760  ASP761  ALA762  ILE779  LEU786  VAL792 
 PHE793  MET794  SER795  GLU796  ALA797  LYS798  CYS799  TRP800  GLU811  SER814 

> <Gold.Protein.RotatedAtoms>
  151.0538  134.9691  159.8224 H   0  0  0  0  0  0  0  0  0  0  0  0  # atno 6907 bound_to 6896
  152.5385  134.2504  159.8906 H   0  0  0  0  0  0  0  0  0  0  0  0  # atno 6908 bound_to 6896
  151.2520  133.4302  159.2646 H   0  0  0  0  0  0  0  0  0  0  0  0  # atno 6909 bound_to 6896
  146.0028  139.4458  143.0004 H   0  0  0  0  0  0  0  0  0  0  0  0  # atno 7974 bound_to 7965
  155.5976  140.0659  157.2742 H   0  0  0  0  0  0  0  0  0  0  0  0  # atno 8008 bound_to 7997
  154.4287  140.1824  156.1187 H   0  0  0  0  0  0  0  0  0  0  0  0  # atno 8009 bound_to 7997
  156.0184  140.3319  155.7016 H   0  0  0  0  0  0  0  0  0  0  0  0  # atno 8010 bound_to 7997
  140.5401  143.2315  151.7105 H   0  0  0  0  0  0  0  0  0  0  0  0  # atno 10167 bound_to 10162
  156.5620  130.8651  151.2812 H   0  0  0  0  0  0  0  0  0  0  0  0  # atno 10718 bound_to 10713
  153.7910  135.3155  155.3378 H   0  0  0  0  0  0  0  0  0  0  0  0  # atno 10763 bound_to 10752
  154.8126  135.4657  154.0559 H   0  0  0  0  0  0  0  0  0  0  0  0  # atno 10764 bound_to 10752
  153.1877  135.6903  153.8480 H   0  0  0  0  0  0  0  0  0  0  0  0  # atno 10765 bound_to 10752
  141.0504  133.6745  156.2989 H   0  0  0  0  0  0  0  0  0  0  0  0  # atno 11005 bound_to 11000
  145.7461  140.9990  143.1275 LP  0  0  0  0  0  0  0  0  0  0  0  0  # atno 17320 bound_to 7965
  144.6925  139.9157  143.7465 LP  0  0  0  0  0  0  0  0  0  0  0  0  # atno 17321 bound_to 7965
  139.4985  144.3982  152.0209 LP  0  0  0  0  0  0  0  0  0  0  0  0  # atno 17342 bound_to 10162
  140.3091  144.3559  150.6039 LP  0  0  0  0  0  0  0  0  0  0  0  0  # atno 17343 bound_to 10162
  157.7366  130.9782  150.2148 LP  0  0  0  0  0  0  0  0  0  0  0  0  # atno 17370 bound_to 10713
  156.2791  130.3731  149.7954 LP  0  0  0  0  0  0  0  0  0  0  0  0  # atno 17371 bound_to 10713
  140.6066  134.5501  157.5526 LP  0  0  0  0  0  0  0  0  0  0  0  0  # atno 17394 bound_to 11000
  139.9346  134.7899  156.0838 LP  0  0  0  0  0  0  0  0  0  0  0  0  # atno 17395 bound_to 11000

$$$$
