AV-unprocessed.smi:391|AV-procd|sdf|2479|dock9
  -GOLD-   2262022423D 1   1.00000     0.00000
 Structure written by MMmdl.
 36 37  0  0  0  0  0  0  0  0  1 V2000
  152.0076  144.3880  160.6444 C   0  0  0  0  0  0  0  0  0  0  0  0
  151.8837  142.9659  160.0819 C   0  0  0  0  0  0  0  0  0  0  0  0
  153.2118  142.1988  160.1817 C   0  0  0  0  0  0  0  0  0  0  0  0
  151.4355  143.0308  158.6941 N   0  0  0  0  0  0  0  0  0  0  0  0
  151.0685  141.9811  157.9432 C   0  0  0  0  0  0  0  0  0  0  0  0
  151.0594  140.8221  158.3607 O   0  0  0  0  0  0  0  0  0  0  0  0
  150.6455  142.3076  156.5029 C   0  0  0  0  0  0  0  0  0  0  0  0
  150.2311  141.1198  155.7244 N   0  0  0  0  0  0  0  0  0  0  0  0
  151.1716  140.0806  155.5073 C   0  0  0  0  0  0  0  0  0  0  0  0
  152.3113  140.1476  155.9704 O   0  0  0  0  0  0  0  0  0  0  0  0
  150.6955  138.9606  154.6984 C   0  0  0  0  0  0  0  0  0  0  0  0
  151.6204  137.9087  154.4344 C   0  0  0  0  0  0  0  0  0  0  0  0
  152.3664  137.0565  154.1957 N   0  0  0  0  0  0  0  0  0  0  0  0
  149.4339  138.9340  154.2220 C   0  0  0  0  0  0  0  0  0  0  0  0
  148.5244  139.9375  154.4751 N   0  0  0  0  0  0  0  0  0  0  0  0
  147.2429  139.9654  153.8286 C   0  0  0  0  0  0  0  0  0  0  0  0
  146.8289  138.8444  152.8950 C   0  0  0  0  0  0  0  0  0  0  0  0
  147.1807  140.2011  152.3355 C   0  0  0  0  0  0  0  0  0  0  0  0
  148.9187  141.0875  155.1933 C   0  0  0  0  0  0  0  0  0  0  0  0
  148.1500  142.0404  155.3461 O   0  0  0  0  0  0  0  0  0  0  0  0
  152.3139  144.3699  161.6907 H   0  0  0  0  0  0  0  0  0  0  0  0
  151.0549  144.9157  160.5899 H   0  0  0  0  0  0  0  0  0  0  0  0
  152.7450  144.9719  160.0924 H   0  0  0  0  0  0  0  0  0  0  0  0
  151.1326  142.4396  160.6737 H   0  0  0  0  0  0  0  0  0  0  0  0
  153.5532  142.1403  161.2155 H   0  0  0  0  0  0  0  0  0  0  0  0
  153.9957  142.6852  159.6001 H   0  0  0  0  0  0  0  0  0  0  0  0
  153.1089  141.1777  159.8132 H   0  0  0  0  0  0  0  0  0  0  0  0
  151.4081  143.9463  158.2687 H   0  0  0  0  0  0  0  0  0  0  0  0
  149.8526  143.0559  156.5433 H   0  0  0  0  0  0  0  0  0  0  0  0
  151.4675  142.8212  156.0009 H   0  0  0  0  0  0  0  0  0  0  0  0
  149.1191  138.0919  153.6222 H   0  0  0  0  0  0  0  0  0  0  0  0
  146.4407  140.4148  154.4113 H   0  0  0  0  0  0  0  0  0  0  0  0
  147.5344  138.0353  152.7149 H   0  0  0  0  0  0  0  0  0  0  0  0
  145.7801  138.5554  152.8952 H   0  0  0  0  0  0  0  0  0  0  0  0
  146.3662  140.8165  151.9592 H   0  0  0  0  0  0  0  0  0  0  0  0
  148.1186  140.2856  151.7896 H   0  0  0  0  0  0  0  0  0  0  0  0
  1  2  1  0  0  0  0
  1 21  1  0  0  0  0
  1 22  1  0  0  0  0
  1 23  1  0  0  0  0
  2  3  1  0  0  0  0
  2  4  1  0  0  0  0
  2 24  1  0  0  0  0
  3 25  1  0  0  0  0
  3 26  1  0  0  0  0
  3 27  1  0  0  0  0
  4  5  1  0  0  0  0
  4 28  1  0  0  0  0
  5  6  2  0  0  0  0
  5  7  1  0  0  0  0
  7  8  1  0  0  0  0
  7 29  1  0  0  0  0
  7 30  1  0  0  0  0
  8 19  1  0  0  0  0
  8  9  1  0  0  0  0
  9 10  2  0  0  0  0
  9 11  1  0  0  0  0
 11 12  1  0  0  0  0
 11 14  2  0  0  0  0
 12 13  3  0  0  0  0
 14 15  1  0  0  0  0
 14 31  1  0  0  0  0
 15 16  1  0  0  0  0
 15 19  1  0  0  0  0
 16 18  1  0  0  0  0
 16 17  1  0  0  0  0
 16 32  1  0  0  0  0
 17 18  1  0  0  0  0
 17 33  1  0  0  0  0
 17 34  1  0  0  0  0
 18 35  1  0  0  0  0
 18 36  1  0  0  0  0
 19 20  2  0  0  0  0
M  END
> <s_m_source_file>
AV-unprocessed.smi

> <i_m_source_file_index>
391

> <i_lp_mmshare_version>
43012

> <i_f3d_flags>
0

> <s_epik_input>
W0NIM11bQ0hdKFtDSDNdKVtOSF1DKD1PKVtDSDJdbjFjKD1PKWMoQyNOKVtjSF1uKGMxPU8pW0NIXTJbQ0gyXVtDSDJdMg==

> <s_epik_cmdline>
J2VwaWtfcHl0aG9uJywgJy1waCcsICc3LjAnLCAnLXRuJywgJzgnLCAnLW1hJywgJzIwMCcsICctbWV0YWxfYmluZGluZycsICctaW1hZScsICc8aW5maWxlLm1hZT4nLCAnLW9tYWUnLCAnPG91dGZpbGUubWFlPic=

> <r_lp_tautomer_probability>
1

> <r_epik_Ionization_Penalty>
2.07526e-08

> <r_epik_Ionization_Penalty_Charging>
8.22213e-11

> <r_epik_Ionization_Penalty_Neutral>
2.06703e-08

> <r_epik_State_Penalty>
-0

> <r_epik_Charging_Adjusted_Penalty>
8.22213e-11

> <i_epik_Tot_Q>
0

> <i_epik_Tot_abs_Q>
0

> <r_epik_Metal_State_Penalty>
-0

> <b_epik_Metal_Only>
0

> <s_lp_Force_Field>
OPLS_2005

> <r_lp_Energy>
27.641

> <b_lp_Chiralities_Consistent>
1

> <s_lp_Variant>
AV-unprocessed.smi:391-1

> <Gold.Version>
5.8.1

> <Gold.Id.Protein>
6NUR|6NUR_protein|mol2

> <Gold.PLP.Fitness>
45.9962

> <Gold.PLP.PLP>
-37.6961

> <Gold.PLP.part.hbond>
-1.8022

> <Gold.PLP.part.metal>
0.0000

> <Gold.PLP.part.buried>
-0.2461

> <Gold.PLP.part.nonpolar>
-38.3733

> <Gold.PLP.part.repulsive>
3.0228

> <Gold.PLP.ligand.clash>
0.0000

> <Gold.PLP.ligand.torsion>
0.2312

> <Gold.PLP.Chemscore.Hbond>
1.8480

> <Gold.PLP.Chemscore.CHOScore>
1.0000

> <Gold.PLP.Chemscore.Metal>
0.0000

> <Gold.Chemscore.Hbonds>
donor molecule, donor type, donor heavy atom, donor atom, acceptor molecule, acceptor atom, score
      P1  H  7997  8009       L1    10  0.93
      P1  H 10752 10765       L1    13  0.76
      L1  C    14    31       P1  7948  0.97

> <Gold.PLP.Chemscore.Internal.Correction>
0.2184

> <Gold.Rescore>
     Score         DG    S(hbond)    S(metal)    S(lipo)     H(rot)  DE(clash)    DE(int)     intcor
     12.87     -15.01       1.67        0.00      73.78       1.82       1.75       0.39       ----

> <Gold.Chemscore.Fitness>
12.8653

> <Gold.Chemscore.DG>
-15.0076

> <Gold.Chemscore.ZeroCoef>
-5.4800

> <Gold.Chemscore.Hbond>
1.6658

> <Gold.Chemscore.Metal>
0.0000

> <Gold.Chemscore.Lipo>
73.7758

> <Gold.Chemscore.Internal_Hbond>
0.0000

> <Gold.Chemscore.DEClash>
1.7539

> <Gold.Chemscore.DEInternal>
0.3884

> <Gold.Chemscore.Rot>
1.8234

> <Gold.Chemscore.Internal.Correction>
   9.000000E+99

> <Gold.Chemscore.Hbonds>
donor molecule, donor type, donor heavy atom, donor atom, acceptor molecule, acceptor atom, score
      P1  H  7997  8009       L1    10  0.87
      P1  H 10752 10765       L1    13  0.71

> <Gold.Chemscore.Hbond.Weighted>
-5.5638

> <Gold.Chemscore.Metal.Weighted>
-0.0000

> <Gold.Chemscore.Lipo.Weighted>
-8.6318

> <Gold.Chemscore.Internal_Hbond.Weighted>
0.0000

> <Gold.Chemscore.DEClash.Weighted>
1.7539

> <Gold.Chemscore.DEInternal.Weighted>
0.3884

> <Gold.Chemscore.Rot.Weighted>
4.6680

> <Gold.Chemscore.Internal.Correction.Weighted>
   9.000000E+99

> <Gold.Protein.RotatedTorsions>
[ 6907 6896 6895 6894 ] final  123.49 input  -60.11 | X-H torsion
[ 7974 7965 7964 7962 ] final   16.74 input  175.53 | X-H torsion
[ 8008 7997 7996 7995 ] final -146.33 input   59.86 | X-H torsion
[ 10167 10162 10161 10158 ] final  136.75 input  -65.29 | X-H torsion
[ 10718 10713 10712 10709 ] final  108.00 input   66.30 | X-H torsion
[ 10763 10752 10751 10750 ] final  148.15 input  -60.55 | X-H torsion
[ 11005 11000 10999 10996 ] final   13.46 input  -57.11 | X-H torsion

> <Gold.Protein.ActiveResidues>
 VAL166  LYS551  ARG553  GLY616  TRP617  ASP618  TYR619  PRO620  LYS621  CYS622 
 ASP623  PHE694  ASN695  SER759  ASP760  ASP761  ALA762  ILE779  LEU786  VAL792 
 PHE793  MET794  SER795  GLU796  ALA797  LYS798  CYS799  TRP800  GLU811  SER814 

> <Gold.Protein.RotatedAtoms>
  152.4157  133.7035  159.6436 H   0  0  0  0  0  0  0  0  0  0  0  0  # atno 6907 bound_to 6896
  150.8035  133.8544  159.3223 H   0  0  0  0  0  0  0  0  0  0  0  0  # atno 6908 bound_to 6896
  151.6274  135.1028  160.0166 H   0  0  0  0  0  0  0  0  0  0  0  0  # atno 6909 bound_to 6896
  146.2240  139.8704  142.8588 H   0  0  0  0  0  0  0  0  0  0  0  0  # atno 7974 bound_to 7965
  155.5576  140.0622  157.2836 H   0  0  0  0  0  0  0  0  0  0  0  0  # atno 8008 bound_to 7997
  154.4400  140.1891  156.0795 H   0  0  0  0  0  0  0  0  0  0  0  0  # atno 8009 bound_to 7997
  156.0470  140.3289  155.7312 H   0  0  0  0  0  0  0  0  0  0  0  0  # atno 8010 bound_to 7997
  139.5169  144.6448  151.5471 H   0  0  0  0  0  0  0  0  0  0  0  0  # atno 10167 bound_to 10162
  157.6605  131.0884  150.6240 H   0  0  0  0  0  0  0  0  0  0  0  0  # atno 10718 bound_to 10713
  154.0501  135.2882  155.3342 H   0  0  0  0  0  0  0  0  0  0  0  0  # atno 10763 bound_to 10752
  154.6874  135.5239  153.8349 H   0  0  0  0  0  0  0  0  0  0  0  0  # atno 10764 bound_to 10752
  153.0564  135.6597  154.0698 H   0  0  0  0  0  0  0  0  0  0  0  0  # atno 10765 bound_to 10752
  140.4805  134.0940  155.7750 H   0  0  0  0  0  0  0  0  0  0  0  0  # atno 11005 bound_to 11000
  145.2614  141.0078  143.3824 LP  0  0  0  0  0  0  0  0  0  0  0  0  # atno 17320 bound_to 7965
  144.9296  139.4315  143.6502 LP  0  0  0  0  0  0  0  0  0  0  0  0  # atno 17321 bound_to 7965
  140.6228  143.9225  150.6540 LP  0  0  0  0  0  0  0  0  0  0  0  0  # atno 17342 bound_to 10162
  140.2504  143.3597  152.1410 LP  0  0  0  0  0  0  0  0  0  0  0  0  # atno 17343 bound_to 10162
  156.6544  130.4494  149.5708 LP  0  0  0  0  0  0  0  0  0  0  0  0  # atno 17370 bound_to 10713
  156.2114  130.6681  151.1273 LP  0  0  0  0  0  0  0  0  0  0  0  0  # atno 17371 bound_to 10713
  141.1533  133.8928  157.2041 LP  0  0  0  0  0  0  0  0  0  0  0  0  # atno 17394 bound_to 11000
  139.9829  135.0092  156.9794 LP  0  0  0  0  0  0  0  0  0  0  0  0  # atno 17395 bound_to 11000

$$$$
