AV-unprocessed.smi:3335|AV-procd|sdf|12847|dock1
  -GOLD-   2272019233D 1   1.00000     0.00000
 Structure written by MMmdl.
 46 47  0  0  0  0  0  0  0  0  1 V2000
  147.0703  133.9735  162.2251 C   0  0  0  0  0  0  0  0  0  0  0  0
  147.5622  135.1710  161.4646 C   0  0  0  0  0  0  0  0  0  0  0  0
  147.5756  136.5295  161.8880 C   0  0  0  0  0  0  0  0  0  0  0  0
  148.0720  137.3469  160.9747 N   0  0  0  0  0  0  0  0  0  0  0  0
  148.4011  136.5443  159.9370 N   0  0  0  0  0  0  0  0  0  0  0  0
  148.9595  137.1025  158.7070 C   0  0  2  0  0  0  0  0  0  0  0  0
  149.2645  136.0162  157.6559 C   0  0  0  0  0  0  0  0  0  0  0  0
  150.1531  138.0648  158.9565 C   0  0  1  0  0  0  0  0  0  0  0  0
  151.2524  137.4119  159.8192 C   0  0  0  0  0  0  0  0  0  0  0  0
  150.6790  138.5404  157.6736 N   0  0  0  0  0  0  0  0  0  0  0  0
  150.8091  140.0035  157.5428 C   0  0  2  0  0  0  0  0  0  0  0  0
  151.2068  140.3489  156.0996 C   0  0  0  0  0  0  0  0  0  0  0  0
  151.8558  140.5876  158.5162 C   0  0  0  0  0  0  0  0  0  0  0  0
  152.5194  139.8146  159.2099 O   0  0  0  0  0  0  0  0  0  0  0  0
  152.0177  141.9265  158.5933 N   0  0  0  0  0  0  0  0  0  0  0  0
  151.2698  142.8705  157.7639 C   0  0  0  0  0  0  0  0  0  0  0  0
  151.9236  144.2337  157.9898 C   0  0  0  0  0  0  0  0  0  0  0  0
  152.5492  144.1187  159.3718 C   0  0  0  0  0  0  0  0  0  0  0  0
  152.9270  142.6421  159.4880 C   0  0  0  0  0  0  0  0  0  0  0  0
  148.0967  135.2258  160.2087 C   0  0  0  0  0  0  0  0  0  0  0  0
  146.2830  134.2390  162.9309 H   0  0  0  0  0  0  0  0  0  0  0  0
  147.8710  133.5052  162.7975 H   0  0  0  0  0  0  0  0  0  0  0  0
  146.6608  133.2126  161.5603 H   0  0  0  0  0  0  0  0  0  0  0  0
  147.2380  136.9441  162.8264 H   0  0  0  0  0  0  0  0  0  0  0  0
  148.1636  137.7090  158.2719 H   0  0  0  0  0  0  0  0  0  0  0  0
  149.5866  136.4636  156.7154 H   0  0  0  0  0  0  0  0  0  0  0  0
  148.3777  135.4172  157.4468 H   0  0  0  0  0  0  0  0  0  0  0  0
  150.0519  135.3365  157.9831 H   0  0  0  0  0  0  0  0  0  0  0  0
  149.7570  138.9225  159.5022 H   0  0  0  0  0  0  0  0  0  0  0  0
  150.8233  136.9337  160.6999 H   0  0  0  0  0  0  0  0  0  0  0  0
  151.9692  138.1475  160.1830 H   0  0  0  0  0  0  0  0  0  0  0  0
  151.8034  136.6514  159.2648 H   0  0  0  0  0  0  0  0  0  0  0  0
  150.1098  138.1590  156.9317 H   0  0  0  0  0  0  0  0  0  0  0  0
  149.8289  140.4461  157.7149 H   0  0  0  0  0  0  0  0  0  0  0  0
  151.2838  141.4275  155.9563 H   0  0  0  0  0  0  0  0  0  0  0  0
  150.4645  139.9798  155.3911 H   0  0  0  0  0  0  0  0  0  0  0  0
  152.1678  139.9080  155.8305 H   0  0  0  0  0  0  0  0  0  0  0  0
  151.2884  142.5936  156.7085 H   0  0  0  0  0  0  0  0  0  0  0  0
  150.2295  142.8849  158.0927 H   0  0  0  0  0  0  0  0  0  0  0  0
  152.7070  144.3912  157.2472 H   0  0  0  0  0  0  0  0  0  0  0  0
  151.2175  145.0608  157.9112 H   0  0  0  0  0  0  0  0  0  0  0  0
  153.4008  144.7859  159.5084 H   0  0  0  0  0  0  0  0  0  0  0  0
  151.8054  144.3665  160.1304 H   0  0  0  0  0  0  0  0  0  0  0  0
  152.8472  142.2991  160.5204 H   0  0  0  0  0  0  0  0  0  0  0  0
  153.9530  142.4859  159.1514 H   0  0  0  0  0  0  0  0  0  0  0  0
  148.2806  134.4418  159.4888 H   0  0  0  0  0  0  0  0  0  0  0  0
  1  2  1  0  0  0  0
  1 21  1  0  0  0  0
  1 22  1  0  0  0  0
  1 23  1  0  0  0  0
  2 20  2  0  0  0  0
  2  3  1  0  0  0  0
  3  4  2  0  0  0  0
  3 24  1  0  0  0  0
  4  5  1  0  0  0  0
  5  6  1  0  0  0  0
  5 20  1  0  0  0  0
  6  7  1  0  0  0  0
  6  8  1  0  0  0  0
  6 25  1  0  0  0  0
  7 26  1  0  0  0  0
  7 27  1  0  0  0  0
  7 28  1  0  0  0  0
  8  9  1  0  0  0  0
  8 10  1  0  0  0  0
  8 29  1  0  0  0  0
  9 30  1  0  0  0  0
  9 31  1  0  0  0  0
  9 32  1  0  0  0  0
 10 11  1  0  0  0  0
 10 33  1  0  0  0  0
 11 12  1  0  0  0  0
 11 13  1  0  0  0  0
 11 34  1  0  0  0  0
 12 35  1  0  0  0  0
 12 36  1  0  0  0  0
 12 37  1  0  0  0  0
 13 14  2  0  0  0  0
 13 15  1  0  0  0  0
 15 19  1  0  0  0  0
 15 16  1  0  0  0  0
 16 17  1  0  0  0  0
 16 38  1  0  0  0  0
 16 39  1  0  0  0  0
 17 18  1  0  0  0  0
 17 40  1  0  0  0  0
 17 41  1  0  0  0  0
 18 19  1  0  0  0  0
 18 42  1  0  0  0  0
 18 43  1  0  0  0  0
 19 44  1  0  0  0  0
 19 45  1  0  0  0  0
 20 46  1  0  0  0  0
M  END
> <s_m_source_file>
AV-unprocessed.smi

> <i_m_source_file_index>
3335

> <i_lp_mmshare_version>
43012

> <i_f3d_flags>
0

> <s_epik_input>
W0NIM11jMVtjSF1ubihbY0hdMSlbQ0BIXShbQ0gzXSlbQ0BIXShbQ0gzXSlbTkhdW0NASF0oW0NIM10pQyg9TylOMltDSDJdW0NIMl1bQ0gyXVtDSDJdMg==

> <s_epik_cmdline>
J2VwaWtfcHl0aG9uJywgJy1waCcsICc3LjAnLCAnLXRuJywgJzgnLCAnLW1hJywgJzIwMCcsICctbWV0YWxfYmluZGluZycsICctaW1hZScsICc8aW5maWxlLm1hZT4nLCAnLW9tYWUnLCAnPG91dGZpbGUubWFlPic=

> <r_lp_tautomer_probability>
1

> <r_epik_Ionization_Penalty>
0.918803

> <r_epik_Ionization_Penalty_Charging>
0

> <r_epik_Ionization_Penalty_Neutral>
0.918803

> <r_epik_State_Penalty>
0.958258

> <r_epik_Charging_Adjusted_Penalty>
0.958258

> <i_epik_Tot_Q>
0

> <i_epik_Tot_abs_Q>
0

> <r_epik_Metal_State_Penalty>
0.956786

> <b_epik_Metal_Only>
0

> <s_lp_Force_Field>
OPLS_2005

> <r_lp_Energy>
40.8069

> <b_lp_Chiralities_Consistent>
1

> <s_lp_Variant>
AV-unprocessed.smi:3335-11

> <Gold.Version>
5.8.1

> <Gold.Id.Protein>
6NUR|6NUR_protein|mol2

> <Gold.PLP.Fitness>
44.9122

> <Gold.PLP.PLP>
-41.9177

> <Gold.PLP.part.hbond>
-2.0000

> <Gold.PLP.part.metal>
0.0000

> <Gold.PLP.part.buried>
-3.2014

> <Gold.PLP.part.nonpolar>
-37.7538

> <Gold.PLP.part.repulsive>
0.0000

> <Gold.PLP.ligand.clash>
0.0000

> <Gold.PLP.ligand.torsion>
0.9683

> <Gold.PLP.Chemscore.Hbond>
1.5623

> <Gold.PLP.Chemscore.CHOScore>
0.0000

> <Gold.PLP.Chemscore.Metal>
0.0000

> <Gold.Chemscore.Hbonds>
donor molecule, donor type, donor heavy atom, donor atom, acceptor molecule, acceptor atom, score
      P1  H  6931  6943       L1     4  0.86
      P1  H  6934  6947       L1     4  0.66

> <Gold.PLP.Chemscore.Internal.Correction>
0.2443

> <Gold.Rescore>
     Score         DG    S(hbond)    S(metal)    S(lipo)     H(rot)  DE(clash)    DE(int)     intcor
     16.08     -17.37       1.19        0.00     103.24       1.62       0.06       1.22       ----

> <Gold.Chemscore.Fitness>
16.0848

> <Gold.Chemscore.DG>
-17.3694

> <Gold.Chemscore.ZeroCoef>
-5.4800

> <Gold.Chemscore.Hbond>
1.1852

> <Gold.Chemscore.Metal>
0.0000

> <Gold.Chemscore.Lipo>
103.2387

> <Gold.Chemscore.Internal_Hbond>
0.0000

> <Gold.Chemscore.DEClash>
0.0626

> <Gold.Chemscore.DEInternal>
1.2220

> <Gold.Chemscore.Rot>
1.6204

> <Gold.Chemscore.Internal.Correction>
   9.000000E+99

> <Gold.Chemscore.Hbonds>
donor molecule, donor type, donor heavy atom, donor atom, acceptor molecule, acceptor atom, score
      P1  H  6931  6943       L1     4  0.25
      P1  H  6934  6947       L1     4  0.56

> <Gold.Chemscore.Hbond.Weighted>
-3.9587

> <Gold.Chemscore.Metal.Weighted>
-0.0000

> <Gold.Chemscore.Lipo.Weighted>
-12.0789

> <Gold.Chemscore.Internal_Hbond.Weighted>
0.0000

> <Gold.Chemscore.DEClash.Weighted>
0.0626

> <Gold.Chemscore.DEInternal.Weighted>
1.2220

> <Gold.Chemscore.Rot.Weighted>
4.1482

> <Gold.Chemscore.Internal.Correction.Weighted>
   9.000000E+99

> <Gold.Protein.RotatedTorsions>
[ 6907 6896 6895 6894 ] final  -66.79 input  -60.11 | X-H torsion
[ 7974 7965 7964 7962 ] final  -36.87 input  175.53 | X-H torsion
[ 8008 7997 7996 7995 ] final  146.96 input   59.86 | X-H torsion
[ 10167 10162 10161 10158 ] final  -93.09 input  -65.29 | X-H torsion
[ 10718 10713 10712 10709 ] final  -92.82 input   66.30 | X-H torsion
[ 10763 10752 10751 10750 ] final  -28.94 input  -60.55 | X-H torsion
[ 11005 11000 10999 10996 ] final   23.10 input  -57.11 | X-H torsion

> <Gold.Protein.ActiveResidues>
 VAL166  LYS551  ARG553  GLY616  TRP617  ASP618  TYR619  PRO620  LYS621  CYS622 
 ASP623  PHE694  ASN695  SER759  ASP760  ASP761  ALA762  ILE779  LEU786  VAL792 
 PHE793  MET794  SER795  GLU796  ALA797  LYS798  CYS799  TRP800  GLU811  SER814 

> <Gold.Protein.RotatedAtoms>
  150.7445  134.5972  159.6017 H   0  0  0  0  0  0  0  0  0  0  0  0  # atno 6907 bound_to 6896
  152.3343  134.7215  160.0290 H   0  0  0  0  0  0  0  0  0  0  0  0  # atno 6908 bound_to 6896
  151.7688  133.3303  159.3475 H   0  0  0  0  0  0  0  0  0  0  0  0  # atno 6909 bound_to 6896
  146.0624  140.6329  142.8990 H   0  0  0  0  0  0  0  0  0  0  0  0  # atno 7974 bound_to 7965
  156.2839  140.2168  156.5460 H   0  0  0  0  0  0  0  0  0  0  0  0  # atno 8008 bound_to 7997
  154.7330  140.0494  157.0766 H   0  0  0  0  0  0  0  0  0  0  0  0  # atno 8009 bound_to 7997
  155.0329  140.3137  155.4755 H   0  0  0  0  0  0  0  0  0  0  0  0  # atno 8010 bound_to 7997
  140.3282  143.3010  151.9971 H   0  0  0  0  0  0  0  0  0  0  0  0  # atno 10167 bound_to 10162
  156.0006  130.5002  150.5682 H   0  0  0  0  0  0  0  0  0  0  0  0  # atno 10718 bound_to 10713
  153.7566  135.6922  153.4934 H   0  0  0  0  0  0  0  0  0  0  0  0  # atno 10763 bound_to 10752
  153.1967  135.4451  155.0215 H   0  0  0  0  0  0  0  0  0  0  0  0  # atno 10764 bound_to 10752
  154.8168  135.3403  154.7084 H   0  0  0  0  0  0  0  0  0  0  0  0  # atno 10765 bound_to 10752
  140.3733  134.1999  155.7666 H   0  0  0  0  0  0  0  0  0  0  0  0  # atno 11005 bound_to 11000
  144.7183  140.4285  143.7028 LP  0  0  0  0  0  0  0  0  0  0  0  0  # atno 17320 bound_to 7965
  145.6536  139.1569  143.2848 LP  0  0  0  0  0  0  0  0  0  0  0  0  # atno 17321 bound_to 7965
  139.4861  144.6256  151.7171 LP  0  0  0  0  0  0  0  0  0  0  0  0  # atno 17342 bound_to 10162
  140.5421  144.0562  150.6092 LP  0  0  0  0  0  0  0  0  0  0  0  0  # atno 17343 bound_to 10162
  157.3581  131.0745  151.1658 LP  0  0  0  0  0  0  0  0  0  0  0  0  # atno 17370 bound_to 10713
  157.2452  130.6588  149.5907 LP  0  0  0  0  0  0  0  0  0  0  0  0  # atno 17371 bound_to 10713
  141.1947  133.8121  157.0744 LP  0  0  0  0  0  0  0  0  0  0  0  0  # atno 17394 bound_to 11000
  140.0535  134.9793  157.1179 LP  0  0  0  0  0  0  0  0  0  0  0  0  # atno 17395 bound_to 11000

$$$$
