AV-unprocessed.smi:1275|AV-procd|sdf|5342|dock10
  -GOLD-   22720 4473D 1   1.00000     0.00000
 Structure written by MMmdl.
 42 43  0  0  0  0  0  0  0  0  1 V2000
  146.4405  135.0527  162.2384 C   0  0  0  0  0  0  0  0  0  0  0  0
  147.4090  134.6467  161.2877 O   0  0  0  0  0  0  0  0  0  0  0  0
  147.0250  134.9518  159.9575 C   0  0  0  0  0  0  0  0  0  0  0  0
  148.0222  134.3119  158.9873 C   0  0  0  0  0  0  0  0  0  0  0  0
  148.2363  135.2005  157.8946 O   0  0  0  0  0  0  0  0  0  0  0  0
  148.9956  136.3330  158.1050 C   0  0  0  0  0  0  0  0  0  0  0  0
  148.9425  137.3664  157.1487 C   0  0  0  0  0  0  0  0  0  0  0  0
  149.7085  138.5290  157.3583 C   0  0  0  0  0  0  0  0  0  0  0  0
  150.5006  138.6243  158.5270 C   0  0  0  0  0  0  0  0  0  0  0  0
  151.3290  139.7348  158.8423 N   0  0  0  0  0  0  0  0  0  0  0  0
  151.3602  140.9529  158.2666 C   0  0  0  0  0  0  0  0  0  0  0  0
  150.6355  141.2736  157.3242 O   0  0  0  0  0  0  0  0  0  0  0  0
  152.2669  141.8029  158.8122 N   0  0  0  0  0  0  0  0  0  0  0  0
  153.1573  141.5348  159.9511 C   0  0  0  0  0  0  0  0  0  0  0  0
  152.6886  142.3930  161.1394 C   0  0  0  0  0  0  0  0  0  0  0  0
  152.6990  143.7701  160.7701 O   0  0  0  0  0  0  0  0  0  0  0  0
  151.8732  144.0633  159.6439 C   0  0  1  0  0  0  0  0  0  0  0  0
  151.9580  145.5680  159.3658 C   0  0  0  0  0  0  0  0  0  0  0  0
  152.3437  143.2192  158.4418 C   0  0  0  0  0  0  0  0  0  0  0  0
  150.4994  137.5266  159.4119 C   0  0  0  0  0  0  0  0  0  0  0  0
  149.7659  136.4104  159.2184 N   0  0  0  0  0  0  0  0  0  0  0  0
  146.7831  134.7984  163.2411 H   0  0  0  0  0  0  0  0  0  0  0  0
  145.4876  134.5495  162.0700 H   0  0  0  0  0  0  0  0  0  0  0  0
  146.2788  136.1308  162.2013 H   0  0  0  0  0  0  0  0  0  0  0  0
  146.0124  134.6019  159.7509 H   0  0  0  0  0  0  0  0  0  0  0  0
  147.0317  136.0344  159.8226 H   0  0  0  0  0  0  0  0  0  0  0  0
  148.9670  134.1436  159.5066 H   0  0  0  0  0  0  0  0  0  0  0  0
  147.6485  133.3446  158.6475 H   0  0  0  0  0  0  0  0  0  0  0  0
  148.3265  137.2680  156.2671 H   0  0  0  0  0  0  0  0  0  0  0  0
  149.6836  139.3123  156.6169 H   0  0  0  0  0  0  0  0  0  0  0  0
  151.9177  139.6187  159.6543 H   0  0  0  0  0  0  0  0  0  0  0  0
  153.2003  140.4880  160.2505 H   0  0  0  0  0  0  0  0  0  0  0  0
  154.1786  141.8034  159.6779 H   0  0  0  0  0  0  0  0  0  0  0  0
  151.6880  142.1001  161.4611 H   0  0  0  0  0  0  0  0  0  0  0  0
  153.3528  142.2524  161.9919 H   0  0  0  0  0  0  0  0  0  0  0  0
  150.8395  143.8115  159.8874 H   0  0  0  0  0  0  0  0  0  0  0  0
  151.3314  145.8463  158.5180 H   0  0  0  0  0  0  0  0  0  0  0  0
  152.9807  145.8710  159.1404 H   0  0  0  0  0  0  0  0  0  0  0  0
  151.6227  146.1432  160.2291 H   0  0  0  0  0  0  0  0  0  0  0  0
  153.3732  143.4695  158.1810 H   0  0  0  0  0  0  0  0  0  0  0  0
  151.7467  143.4585  157.5606 H   0  0  0  0  0  0  0  0  0  0  0  0
  151.1008  137.5456  160.3092 H   0  0  0  0  0  0  0  0  0  0  0  0
  1  2  1  0  0  0  0
  1 22  1  0  0  0  0
  1 23  1  0  0  0  0
  1 24  1  0  0  0  0
  2  3  1  0  0  0  0
  3  4  1  0  0  0  0
  3 25  1  0  0  0  0
  3 26  1  0  0  0  0
  4  5  1  0  0  0  0
  4 27  1  0  0  0  0
  4 28  1  0  0  0  0
  5  6  1  0  0  0  0
  6 21  1  0  0  0  0
  6  7  2  0  0  0  0
  7  8  1  0  0  0  0
  7 29  1  0  0  0  0
  8  9  2  0  0  0  0
  8 30  1  0  0  0  0
  9 10  1  0  0  0  0
  9 20  1  0  0  0  0
 10 11  1  0  0  0  0
 10 31  1  0  0  0  0
 11 12  2  0  0  0  0
 11 13  1  0  0  0  0
 13 19  1  0  0  0  0
 13 14  1  0  0  0  0
 14 15  1  0  0  0  0
 14 32  1  0  0  0  0
 14 33  1  0  0  0  0
 15 16  1  0  0  0  0
 15 34  1  0  0  0  0
 15 35  1  0  0  0  0
 16 17  1  0  0  0  0
 17 18  1  0  0  0  0
 17 19  1  0  0  0  0
 17 36  1  0  0  0  0
 18 37  1  0  0  0  0
 18 38  1  0  0  0  0
 18 39  1  0  0  0  0
 19 40  1  0  0  0  0
 19 41  1  0  0  0  0
 20 21  2  0  0  0  0
 20 42  1  0  0  0  0
M  END
> <s_m_source_file>
AV-unprocessed.smi

> <i_m_source_file_index>
1275

> <i_lp_mmshare_version>
43012

> <i_f3d_flags>
0

> <s_epik_input>
W0NIM11PW0NIMl1bQ0gyXU9jMVtjSF1bY0hdYyhbY0hdbjEpW05IXUMoPU8pTjJbQ0gyXVtDSDJdT1tDQEBIXShbQ0gzXSlbQ0gyXTI=

> <s_epik_cmdline>
J2VwaWtfcHl0aG9uJywgJy1waCcsICc3LjAnLCAnLXRuJywgJzgnLCAnLW1hJywgJzIwMCcsICctbWV0YWxfYmluZGluZycsICctaW1hZScsICc8aW5maWxlLm1hZT4nLCAnLW9tYWUnLCAnPG91dGZpbGUubWFlPic=

> <r_lp_tautomer_probability>
1

> <r_epik_Ionization_Penalty>
5.69099e-05

> <r_epik_Ionization_Penalty_Charging>
0

> <r_epik_Ionization_Penalty_Neutral>
5.69099e-05

> <r_epik_State_Penalty>
-0

> <r_epik_Charging_Adjusted_Penalty>
0

> <i_epik_Tot_Q>
0

> <i_epik_Tot_abs_Q>
0

> <r_epik_Metal_State_Penalty>
-0

> <b_epik_Metal_Only>
0

> <s_lp_Force_Field>
OPLS_2005

> <r_lp_Energy>
32.9839

> <b_lp_Chiralities_Consistent>
1

> <s_lp_Variant>
AV-unprocessed.smi:1275-1

> <Gold.Version>
5.8.1

> <Gold.Id.Protein>
6NUR|6NUR_protein|mol2

> <Gold.PLP.Fitness>
37.8752

> <Gold.PLP.PLP>
-35.9143

> <Gold.PLP.part.hbond>
-1.0000

> <Gold.PLP.part.metal>
0.0000

> <Gold.PLP.part.buried>
-3.6951

> <Gold.PLP.part.nonpolar>
-31.1259

> <Gold.PLP.part.repulsive>
0.2730

> <Gold.PLP.ligand.clash>
0.0000

> <Gold.PLP.ligand.torsion>
0.5624

> <Gold.PLP.Chemscore.Hbond>
1.0000

> <Gold.PLP.Chemscore.CHOScore>
0.0000

> <Gold.PLP.Chemscore.Metal>
0.0000

> <Gold.Chemscore.Hbonds>
donor molecule, donor type, donor heavy atom, donor atom, acceptor molecule, acceptor atom, score
      P1  H  6896  6909       L1    21  1.00

> <Gold.PLP.Chemscore.Internal.Correction>
0.0857

> <Gold.Rescore>
     Score         DG    S(hbond)    S(metal)    S(lipo)     H(rot)  DE(clash)    DE(int)     intcor
     12.55     -14.58       0.89        0.00      87.86       1.62       0.25       1.78       ----

> <Gold.Chemscore.Fitness>
12.5536

> <Gold.Chemscore.DG>
-14.5825

> <Gold.Chemscore.ZeroCoef>
-5.4800

> <Gold.Chemscore.Hbond>
0.8875

> <Gold.Chemscore.Metal>
0.0000

> <Gold.Chemscore.Lipo>
87.8618

> <Gold.Chemscore.Internal_Hbond>
0.0000

> <Gold.Chemscore.DEClash>
0.2471

> <Gold.Chemscore.DEInternal>
1.7817

> <Gold.Chemscore.Rot>
1.6178

> <Gold.Chemscore.Internal.Correction>
   9.000000E+99

> <Gold.Chemscore.Hbonds>
donor molecule, donor type, donor heavy atom, donor atom, acceptor molecule, acceptor atom, score
      P1  H  6896  6909       L1    21  0.54

> <Gold.Chemscore.Hbond.Weighted>
-2.9643

> <Gold.Chemscore.Metal.Weighted>
-0.0000

> <Gold.Chemscore.Lipo.Weighted>
-10.2798

> <Gold.Chemscore.Internal_Hbond.Weighted>
0.0000

> <Gold.Chemscore.DEClash.Weighted>
0.2471

> <Gold.Chemscore.DEInternal.Weighted>
1.7817

> <Gold.Chemscore.Rot.Weighted>
4.1416

> <Gold.Chemscore.Internal.Correction.Weighted>
   9.000000E+99

> <Gold.Protein.RotatedTorsions>
[ 6907 6896 6895 6894 ] final   76.74 input  -60.11 | X-H torsion
[ 7974 7965 7964 7962 ] final  -95.19 input  175.53 | X-H torsion
[ 8008 7997 7996 7995 ] final  179.66 input   59.86 | X-H torsion
[ 10167 10162 10161 10158 ] final  -52.34 input  -65.29 | X-H torsion
[ 10718 10713 10712 10709 ] final -105.43 input   66.30 | X-H torsion
[ 10763 10752 10751 10750 ] final  148.32 input  -60.55 | X-H torsion
[ 11005 11000 10999 10996 ] final   37.16 input  -57.11 | X-H torsion

> <Gold.Protein.ActiveResidues>
 VAL166  LYS551  ARG553  GLY616  TRP617  ASP618  TYR619  PRO620  LYS621  CYS622 
 ASP623  PHE694  ASN695  SER759  ASP760  ASP761  ALA762  ILE779  LEU786  VAL792 
 PHE793  MET794  SER795  GLU796  ALA797  LYS798  CYS799  TRP800  GLU811  SER814 

> <Gold.Protein.RotatedAtoms>
  152.5087  134.3922  159.9387 H   0  0  0  0  0  0  0  0  0  0  0  0  # atno 6907 bound_to 6896
  151.3883  133.3791  159.2725 H   0  0  0  0  0  0  0  0  0  0  0  0  # atno 6908 bound_to 6896
  150.9452  134.8878  159.7696 H   0  0  0  0  0  0  0  0  0  0  0  0  # atno 6909 bound_to 6896
  145.3633  140.9495  143.2488 H   0  0  0  0  0  0  0  0  0  0  0  0  # atno 7974 bound_to 7965
  156.0408  140.1303  157.0157 H   0  0  0  0  0  0  0  0  0  0  0  0  # atno 8008 bound_to 7997
  154.4390  140.1030  156.6305 H   0  0  0  0  0  0  0  0  0  0  0  0  # atno 8009 bound_to 7997
  155.5669  140.3466  155.4507 H   0  0  0  0  0  0  0  0  0  0  0  0  # atno 8010 bound_to 7997
  140.6542  143.2587  151.4633 H   0  0  0  0  0  0  0  0  0  0  0  0  # atno 10167 bound_to 10162
  156.0346  130.5563  150.7538 H   0  0  0  0  0  0  0  0  0  0  0  0  # atno 10718 bound_to 10713
  154.0528  135.2880  155.3337 H   0  0  0  0  0  0  0  0  0  0  0  0  # atno 10763 bound_to 10752
  154.6858  135.5246  153.8328 H   0  0  0  0  0  0  0  0  0  0  0  0  # atno 10764 bound_to 10752
  153.0554  135.6593  154.0723 H   0  0  0  0  0  0  0  0  0  0  0  0  # atno 10765 bound_to 10752
  140.2253  134.3592  155.7987 H   0  0  0  0  0  0  0  0  0  0  0  0  # atno 11005 bound_to 11000
  144.8630  139.5149  143.6803 LP  0  0  0  0  0  0  0  0  0  0  0  0  # atno 17320 bound_to 7965
  146.2917  139.7160  142.9156 LP  0  0  0  0  0  0  0  0  0  0  0  0  # atno 17321 bound_to 7965
  139.5762  144.1813  152.1906 LP  0  0  0  0  0  0  0  0  0  0  0  0  # atno 17342 bound_to 10162
  140.1125  144.5445  150.6916 LP  0  0  0  0  0  0  0  0  0  0  0  0  # atno 17343 bound_to 10162
  157.5076  131.0923  151.0238 LP  0  0  0  0  0  0  0  0  0  0  0  0  # atno 17370 bound_to 10713
  157.0602  130.5822  149.5384 LP  0  0  0  0  0  0  0  0  0  0  0  0  # atno 17371 bound_to 10713
  141.2221  133.7216  156.8643 LP  0  0  0  0  0  0  0  0  0  0  0  0  # atno 17394 bound_to 11000
  140.1807  134.9035  157.2944 LP  0  0  0  0  0  0  0  0  0  0  0  0  # atno 17395 bound_to 11000

$$$$
