AV-unprocessed.smi:1796|AV-procd|sdf|7252|dock2
  -GOLD-   22720 8503D 1   1.00000     0.00000
 Structure written by MMmdl.
 42 43  0  0  0  0  0  0  0  0  1 V2000
  150.9650  137.6079  154.4769 C   0  0  0  0  0  0  0  0  0  0  0  0
  150.6104  139.0786  154.7073 C   0  0  0  0  0  0  0  0  0  0  0  0
  151.5308  139.8955  154.7456 O   0  0  0  0  0  0  0  0  0  0  0  0
  149.3113  139.4310  154.8626 N   0  0  0  0  0  0  0  0  0  0  0  0
  148.8154  140.8053  155.0155 C   0  0  0  0  0  0  0  0  0  0  0  0
  148.0595  141.2047  153.7355 C   0  0  0  0  0  0  0  0  0  0  0  0
  146.9261  140.2068  153.4303 C   0  0  0  0  0  0  0  0  0  0  0  0
  147.4321  138.7456  153.4444 C   0  0  2  0  0  0  0  0  0  0  0  0
  146.2703  137.7599  153.2702 C   0  0  0  0  0  0  0  0  0  0  0  0
  145.1991  137.9534  153.8461 O   0  0  0  0  0  0  0  0  0  0  0  0
  146.4980  136.7101  152.4666 N   0  0  0  0  0  0  0  0  0  0  0  0
  145.5223  135.6839  152.1061 C   0  0  2  0  0  0  0  0  0  0  0  0
  145.0908  134.9162  153.3641 C   0  0  0  0  0  0  0  0  0  0  0  0
  146.1165  134.7428  151.0404 C   0  0  0  0  0  0  0  0  0  0  0  0
  145.2835  133.5743  150.8133 N   0  0  0  0  0  0  0  0  0  0  0  0
  145.6513  132.2453  150.8230 C   0  0  0  0  0  0  0  0  0  0  0  0
  144.5274  131.5111  150.5734 C   0  0  0  0  0  0  0  0  0  0  0  0
  143.5085  132.4930  150.4224 C   0  0  0  0  0  0  0  0  0  0  0  0
  143.9642  133.7269  150.5652 N   0  0  0  0  0  0  0  0  0  0  0  0
  148.2099  138.4661  154.7501 C   0  0  0  0  0  0  0  0  0  0  0  0
  150.6134  136.9906  155.3040 H   0  0  0  0  0  0  0  0  0  0  0  0
  152.0457  137.4810  154.4045 H   0  0  0  0  0  0  0  0  0  0  0  0
  150.5239  137.2448  153.5483 H   0  0  0  0  0  0  0  0  0  0  0  0
  148.1430  140.8485  155.8736 H   0  0  0  0  0  0  0  0  0  0  0  0
  149.5986  141.5324  155.2250 H   0  0  0  0  0  0  0  0  0  0  0  0
  147.6527  142.2112  153.8370 H   0  0  0  0  0  0  0  0  0  0  0  0
  148.7556  141.2351  152.8961 H   0  0  0  0  0  0  0  0  0  0  0  0
  146.1382  140.3341  154.1747 H   0  0  0  0  0  0  0  0  0  0  0  0
  146.4771  140.4424  152.4646 H   0  0  0  0  0  0  0  0  0  0  0  0
  148.1213  138.6165  152.6072 H   0  0  0  0  0  0  0  0  0  0  0  0
  147.4089  136.6376  152.0365 H   0  0  0  0  0  0  0  0  0  0  0  0
  144.6349  136.1537  151.6776 H   0  0  0  0  0  0  0  0  0  0  0  0
  144.3519  134.1518  153.1224 H   0  0  0  0  0  0  0  0  0  0  0  0
  144.6422  135.5853  154.0992 H   0  0  0  0  0  0  0  0  0  0  0  0
  145.9393  134.4213  153.8378 H   0  0  0  0  0  0  0  0  0  0  0  0
  146.2599  135.2709  150.0961 H   0  0  0  0  0  0  0  0  0  0  0  0
  147.1013  134.3955  151.3550 H   0  0  0  0  0  0  0  0  0  0  0  0
  146.6697  131.9367  151.0085 H   0  0  0  0  0  0  0  0  0  0  0  0
  144.4449  130.4362  150.5099 H   0  0  0  0  0  0  0  0  0  0  0  0
  142.4588  132.3470  150.2148 H   0  0  0  0  0  0  0  0  0  0  0  0
  148.5573  137.4316  154.7677 H   0  0  0  0  0  0  0  0  0  0  0  0
  147.5568  138.5715  155.6183 H   0  0  0  0  0  0  0  0  0  0  0  0
  1  2  1  0  0  0  0
  1 21  1  0  0  0  0
  1 22  1  0  0  0  0
  1 23  1  0  0  0  0
  2  3  2  0  0  0  0
  2  4  1  0  0  0  0
  4 20  1  0  0  0  0
  4  5  1  0  0  0  0
  5  6  1  0  0  0  0
  5 24  1  0  0  0  0
  5 25  1  0  0  0  0
  6  7  1  0  0  0  0
  6 26  1  0  0  0  0
  6 27  1  0  0  0  0
  7  8  1  0  0  0  0
  7 28  1  0  0  0  0
  7 29  1  0  0  0  0
  8  9  1  0  0  0  0
  8 20  1  0  0  0  0
  8 30  1  0  0  0  0
  9 10  2  0  0  0  0
  9 11  1  0  0  0  0
 11 12  1  0  0  0  0
 11 31  1  0  0  0  0
 12 13  1  0  0  0  0
 12 14  1  0  0  0  0
 12 32  1  0  0  0  0
 13 33  1  0  0  0  0
 13 34  1  0  0  0  0
 13 35  1  0  0  0  0
 14 15  1  0  0  0  0
 14 36  1  0  0  0  0
 14 37  1  0  0  0  0
 15 19  1  0  0  0  0
 15 16  1  0  0  0  0
 16 17  2  0  0  0  0
 16 38  1  0  0  0  0
 17 18  1  0  0  0  0
 17 39  1  0  0  0  0
 18 19  2  0  0  0  0
 18 40  1  0  0  0  0
 20 41  1  0  0  0  0
 20 42  1  0  0  0  0
M  END
> <s_m_source_file>
AV-unprocessed.smi

> <i_m_source_file_index>
1796

> <i_lp_mmshare_version>
43012

> <i_f3d_flags>
0

> <s_epik_input>
W0NIM11DKD1PKU4xW0NIMl1bQ0gyXVtDSDJdW0NASF0oW0NIMl0xKUMoPU8pW05IXVtDQEhdKFtDSDNdKVtDSDJdbjJbY0hdW2NIXVtjSF1uMg==

> <s_epik_cmdline>
J2VwaWtfcHl0aG9uJywgJy1waCcsICc3LjAnLCAnLXRuJywgJzgnLCAnLW1hJywgJzIwMCcsICctbWV0YWxfYmluZGluZycsICctaW1hZScsICc8aW5maWxlLm1hZT4nLCAnLW9tYWUnLCAnPG91dGZpbGUubWFlPic=

> <r_lp_tautomer_probability>
1

> <r_epik_Ionization_Penalty>
0.000315051

> <r_epik_Ionization_Penalty_Charging>
0

> <r_epik_Ionization_Penalty_Neutral>
0.000315051

> <r_epik_State_Penalty>
-0

> <r_epik_Charging_Adjusted_Penalty>
0

> <i_epik_Tot_Q>
0

> <i_epik_Tot_abs_Q>
0

> <r_epik_Metal_State_Penalty>
-0

> <b_epik_Metal_Only>
0

> <s_lp_Force_Field>
OPLS_2005

> <r_lp_Energy>
23.6711

> <b_lp_Chiralities_Consistent>
1

> <s_lp_Variant>
AV-unprocessed.smi:1796-2

> <Gold.Version>
5.8.1

> <Gold.Id.Protein>
6NUR|6NUR_protein|mol2

> <Gold.PLP.Fitness>
45.4631

> <Gold.PLP.PLP>
-34.7893

> <Gold.PLP.part.hbond>
-1.9191

> <Gold.PLP.part.metal>
0.0000

> <Gold.PLP.part.buried>
-6.9561

> <Gold.PLP.part.nonpolar>
-28.9210

> <Gold.PLP.part.repulsive>
0.4287

> <Gold.PLP.ligand.clash>
0.0000

> <Gold.PLP.ligand.torsion>
0.7450

> <Gold.PLP.Chemscore.Hbond>
2.0000

> <Gold.PLP.Chemscore.CHOScore>
2.0430

> <Gold.PLP.Chemscore.Metal>
0.0000

> <Gold.Chemscore.Hbonds>
donor molecule, donor type, donor heavy atom, donor atom, acceptor molecule, acceptor atom, score
      L1  H    11    31       P1  7948  1.00
      P1  H  7989  7998       L1     3  1.00
      L1  C    16    38       P1 10747  0.70
      L1  C    18    40       P1 10186  0.63
      L1  C    18    40       P1 10952  0.69

> <Gold.PLP.Chemscore.Internal.Correction>
0.0348

> <Gold.Rescore>
     Score         DG    S(hbond)    S(metal)    S(lipo)     H(rot)  DE(clash)    DE(int)     intcor
     16.72     -17.30       1.94        0.00      81.26       1.63       0.08       0.50       ----

> <Gold.Chemscore.Fitness>
16.7185

> <Gold.Chemscore.DG>
-17.3004

> <Gold.Chemscore.ZeroCoef>
-5.4800

> <Gold.Chemscore.Hbond>
1.9445

> <Gold.Chemscore.Metal>
0.0000

> <Gold.Chemscore.Lipo>
81.2631

> <Gold.Chemscore.Internal_Hbond>
0.0000

> <Gold.Chemscore.DEClash>
0.0797

> <Gold.Chemscore.DEInternal>
0.5022

> <Gold.Chemscore.Rot>
1.6336

> <Gold.Chemscore.Internal.Correction>
   9.000000E+99

> <Gold.Chemscore.Hbonds>
donor molecule, donor type, donor heavy atom, donor atom, acceptor molecule, acceptor atom, score
      L1  H    11    31       P1  7948  0.97
      P1  H  7989  7998       L1     3  0.90

> <Gold.Chemscore.Hbond.Weighted>
-6.4947

> <Gold.Chemscore.Metal.Weighted>
-0.0000

> <Gold.Chemscore.Lipo.Weighted>
-9.5078

> <Gold.Chemscore.Internal_Hbond.Weighted>
0.0000

> <Gold.Chemscore.DEClash.Weighted>
0.0797

> <Gold.Chemscore.DEInternal.Weighted>
0.5022

> <Gold.Chemscore.Rot.Weighted>
4.1821

> <Gold.Chemscore.Internal.Correction.Weighted>
   9.000000E+99

> <Gold.Protein.RotatedTorsions>
[ 6907 6896 6895 6894 ] final -135.06 input  -60.11 | X-H torsion
[ 7974 7965 7964 7962 ] final   -4.91 input  175.53 | X-H torsion
[ 8008 7997 7996 7995 ] final  -74.48 input   59.86 | X-H torsion
[ 10167 10162 10161 10158 ] final -106.07 input  -65.29 | X-H torsion
[ 10718 10713 10712 10709 ] final   79.27 input   66.30 | X-H torsion
[ 10763 10752 10751 10750 ] final  -35.85 input  -60.55 | X-H torsion
[ 11005 11000 10999 10996 ] final -149.18 input  -57.11 | X-H torsion

> <Gold.Protein.ActiveResidues>
 VAL166  LYS551  ARG553  GLY616  TRP617  ASP618  TYR619  PRO620  LYS621  CYS622 
 ASP623  PHE694  ASN695  SER759  ASP760  ASP761  ALA762  ILE779  LEU786  VAL792 
 PHE793  MET794  SER795  GLU796  ALA797  LYS798  CYS799  TRP800  GLU811  SER814 

> <Gold.Protein.RotatedAtoms>
  150.9933  133.6128  159.2705 H   0  0  0  0  0  0  0  0  0  0  0  0  # atno 6907 bound_to 6896
  151.3341  135.0847  159.9358 H   0  0  0  0  0  0  0  0  0  0  0  0  # atno 6908 bound_to 6896
  152.5252  133.9557  159.7747 H   0  0  0  0  0  0  0  0  0  0  0  0  # atno 6909 bound_to 6896
  146.2363  140.1942  142.8333 H   0  0  0  0  0  0  0  0  0  0  0  0  # atno 7974 bound_to 7965
  154.5335  140.0760  156.8386 H   0  0  0  0  0  0  0  0  0  0  0  0  # atno 8008 bound_to 7997
  155.3327  140.3402  155.4221 H   0  0  0  0  0  0  0  0  0  0  0  0  # atno 8009 bound_to 7997
  156.1804  140.1650  156.8270 H   0  0  0  0  0  0  0  0  0  0  0  0  # atno 8010 bound_to 7997
  140.1918  143.3886  152.1200 H   0  0  0  0  0  0  0  0  0  0  0  0  # atno 10167 bound_to 10162
  157.6771  130.9907  150.1908 H   0  0  0  0  0  0  0  0  0  0  0  0  # atno 10718 bound_to 10713
  153.8700  135.6832  153.4775 H   0  0  0  0  0  0  0  0  0  0  0  0  # atno 10763 bound_to 10752
  153.1292  135.4705  154.9320 H   0  0  0  0  0  0  0  0  0  0  0  0  # atno 10764 bound_to 10752
  154.7718  135.3241  154.8124 H   0  0  0  0  0  0  0  0  0  0  0  0  # atno 10765 bound_to 10752
  140.7535  134.3379  157.5120 H   0  0  0  0  0  0  0  0  0  0  0  0  # atno 11005 bound_to 11000
  144.9833  140.8480  143.5384 LP  0  0  0  0  0  0  0  0  0  0  0  0  # atno 17320 bound_to 7965
  145.1938  139.2287  143.5229 LP  0  0  0  0  0  0  0  0  0  0  0  0  # atno 17321 bound_to 7965
  139.5253  144.7094  151.5253 LP  0  0  0  0  0  0  0  0  0  0  0  0  # atno 17342 bound_to 10162
  140.6451  143.8811  150.6729 LP  0  0  0  0  0  0  0  0  0  0  0  0  # atno 17343 bound_to 10162
  156.2620  130.3712  149.8120 LP  0  0  0  0  0  0  0  0  0  0  0  0  # atno 17370 bound_to 10713
  156.5863  130.8487  151.3396 LP  0  0  0  0  0  0  0  0  0  0  0  0  # atno 17371 bound_to 10713
  139.8783  134.9157  156.3137 LP  0  0  0  0  0  0  0  0  0  0  0  0  # atno 17394 bound_to 11000
  140.9729  133.7316  156.0560 LP  0  0  0  0  0  0  0  0  0  0  0  0  # atno 17395 bound_to 11000

$$$$
