AV-unprocessed.smi:1005|AV-procd|sdf|4376|dock3
  -GOLD-   22720 2293D 1   1.00000     0.00000
 Structure written by MMmdl.
 57 59  0  0  0  0  0  0  0  0  3 V2000
  152.4658  143.4307  160.4203 C   0  0  0  0  0  0  0  0  0  0  0  0
  152.1154  142.5797  159.2115 C   0  0  0  0  0  0  0  0  0  0  0  0
  151.1921  143.0905  158.2719 C   0  0  0  0  0  0  0  0  0  0  0  0
  150.8961  142.2913  157.1742 C   0  0  0  0  0  0  0  0  0  0  0  0
  150.0448  142.5089  156.0889 N   0  3  0  0  0  0  0  0  0  0  0  0
  150.0872  141.4333  155.2551 C   0  0  0  0  0  0  0  0  0  0  0  0
  150.9543  140.5319  155.7909 N   0  0  0  0  0  0  0  0  0  0  0  0
  151.3550  139.2103  155.2884 C   0  0  0  0  0  0  0  0  0  0  0  0
  150.1536  138.3052  154.9504 C   0  0  2  0  0  0  0  0  0  0  0  0
  149.9263  138.4117  153.5608 O   0  0  0  0  0  0  0  0  0  0  0  0
  148.8564  138.7030  155.6876 C   0  0  0  0  0  0  0  0  0  0  0  0
  147.6907  137.8596  155.4195 N   0  0  0  0  0  0  0  0  0  0  0  0
  146.7957  137.8386  156.5714 C   0  0  0  0  0  0  0  0  0  0  0  0
  145.5610  136.9578  156.3237 C   0  0  0  0  0  0  0  0  0  0  0  0
  145.9829  135.6409  155.9872 O   0  0  0  0  0  0  0  0  0  0  0  0
  146.8151  135.5997  154.8305 C   0  0  2  0  0  0  0  0  0  0  0  0
  147.2023  134.1318  154.5783 C   0  0  0  0  0  0  0  0  0  0  0  0
  147.8589  133.9358  153.2606 N   0  3  0  0  0  0  0  0  0  0  0  0
  148.9111  132.8934  153.2773 C   0  0  0  0  0  0  0  0  0  0  0  0
  146.8787  133.7014  152.1772 C   0  0  0  0  0  0  0  0  0  0  0  0
  148.0544  136.4849  155.0793 C   0  0  0  0  0  0  0  0  0  0  0  0
  151.4798  141.0222  156.9930 C   0  0  0  0  0  0  0  0  0  0  0  0
  152.3884  140.5025  157.9125 C   0  0  0  0  0  0  0  0  0  0  0  0
  152.7073  141.3026  159.0329 C   0  0  0  0  0  0  0  0  0  0  0  0
  153.7033  140.7648  160.0463 C   0  0  0  0  0  0  0  0  0  0  0  0
  151.8842  144.3529  160.4410 H   0  0  0  0  0  0  0  0  0  0  0  0
  153.5216  143.7022  160.4021 H   0  0  0  0  0  0  0  0  0  0  0  0
  152.2626  142.8890  161.3443 H   0  0  0  0  0  0  0  0  0  0  0  0
  150.7385  144.0626  158.4006 H   0  0  0  0  0  0  0  0  0  0  0  0
  149.5330  141.3161  154.3349 H   0  0  0  0  0  0  0  0  0  0  0  0
  152.0152  139.3331  154.4294 H   0  0  0  0  0  0  0  0  0  0  0  0
  151.9590  138.7466  156.0697 H   0  0  0  0  0  0  0  0  0  0  0  0
  150.4278  137.2747  155.1733 H   0  0  0  0  0  0  0  0  0  0  0  0
  149.6844  137.5596  153.2310 H   0  0  0  0  0  0  0  0  0  0  0  0
  149.0342  138.7123  156.7631 H   0  0  0  0  0  0  0  0  0  0  0  0
  148.6234  139.7346  155.4186 H   0  0  0  0  0  0  0  0  0  0  0  0
  147.3297  137.4709  157.4493 H   0  0  0  0  0  0  0  0  0  0  0  0
  146.4708  138.8528  156.8073 H   0  0  0  0  0  0  0  0  0  0  0  0
  144.9389  136.9161  157.2179 H   0  0  0  0  0  0  0  0  0  0  0  0
  144.9451  137.3684  155.5220 H   0  0  0  0  0  0  0  0  0  0  0  0
  146.2660  135.9982  153.9767 H   0  0  0  0  0  0  0  0  0  0  0  0
  147.8570  133.7639  155.3699 H   0  0  0  0  0  0  0  0  0  0  0  0
  146.2946  133.5281  154.6261 H   0  0  0  0  0  0  0  0  0  0  0  0
  148.4927  131.9198  153.5359 H   0  0  0  0  0  0  0  0  0  0  0  0
  149.6976  133.1284  153.9934 H   0  0  0  0  0  0  0  0  0  0  0  0
  149.3821  132.8097  152.2973 H   0  0  0  0  0  0  0  0  0  0  0  0
  146.3275  132.7745  152.3423 H   0  0  0  0  0  0  0  0  0  0  0  0
  147.3802  133.6345  151.2111 H   0  0  0  0  0  0  0  0  0  0  0  0
  146.1617  134.5212  152.1181 H   0  0  0  0  0  0  0  0  0  0  0  0
  148.6755  136.4686  154.1848 H   0  0  0  0  0  0  0  0  0  0  0  0
  148.6535  136.0535  155.8829 H   0  0  0  0  0  0  0  0  0  0  0  0
  152.8425  139.5319  157.7786 H   0  0  0  0  0  0  0  0  0  0  0  0
  154.1153  139.8058  159.7311 H   0  0  0  0  0  0  0  0  0  0  0  0
  153.2225  140.6203  161.0139 H   0  0  0  0  0  0  0  0  0  0  0  0
  154.5361  141.4573  160.1725 H   0  0  0  0  0  0  0  0  0  0  0  0
  148.3141  134.8101  153.0377 H   0  0  0  0  0  0  0  0  0  0  0  0
  149.4748  143.3295  155.9272 H   0  0  0  0  0  0  0  0  0  0  0  0
  1  2  1  0  0  0  0
  1 26  1  0  0  0  0
  1 27  1  0  0  0  0
  1 28  1  0  0  0  0
  2 24  1  0  0  0  0
  2  3  2  0  0  0  0
  3  4  1  0  0  0  0
  3 29  1  0  0  0  0
  4 22  2  0  0  0  0
  4  5  1  0  0  0  0
  5  6  2  0  0  0  0
  5 57  1  0  0  0  0
  6  7  1  0  0  0  0
  6 30  1  0  0  0  0
  7  8  1  0  0  0  0
  7 22  1  0  0  0  0
  8  9  1  0  0  0  0
  8 31  1  0  0  0  0
  8 32  1  0  0  0  0
  9 10  1  0  0  0  0
  9 11  1  0  0  0  0
  9 33  1  0  0  0  0
 10 34  1  0  0  0  0
 11 12  1  0  0  0  0
 11 35  1  0  0  0  0
 11 36  1  0  0  0  0
 12 21  1  0  0  0  0
 12 13  1  0  0  0  0
 13 14  1  0  0  0  0
 13 37  1  0  0  0  0
 13 38  1  0  0  0  0
 14 15  1  0  0  0  0
 14 39  1  0  0  0  0
 14 40  1  0  0  0  0
 15 16  1  0  0  0  0
 16 17  1  0  0  0  0
 16 21  1  0  0  0  0
 16 41  1  0  0  0  0
 17 18  1  0  0  0  0
 17 42  1  0  0  0  0
 17 43  1  0  0  0  0
 18 19  1  0  0  0  0
 18 20  1  0  0  0  0
 18 56  1  0  0  0  0
 19 44  1  0  0  0  0
 19 45  1  0  0  0  0
 19 46  1  0  0  0  0
 20 47  1  0  0  0  0
 20 48  1  0  0  0  0
 20 49  1  0  0  0  0
 21 50  1  0  0  0  0
 21 51  1  0  0  0  0
 22 23  1  0  0  0  0
 23 24  2  0  0  0  0
 23 52  1  0  0  0  0
 24 25  1  0  0  0  0
 25 53  1  0  0  0  0
 25 54  1  0  0  0  0
 25 55  1  0  0  0  0
M  CHG  1   5   1
M  CHG  1  18   1
M  END
> <s_m_source_file>
AV-unprocessed.smi

> <i_m_source_file_index>
1005

> <i_lp_mmshare_version>
43012

> <i_f3d_flags>
0

> <s_epik_input>
W0NIM11jKFtjSF0xKWMoW0NIM10pW2NIXWMoYzEyKW4oW2NIXW4yKVtDSDJdW0NASF0oW09IXSlbQ0gyXU4zW0NIMl1bQ0gyXU9bQ0BIXShbQ0gyXTMpW0NIMl1OKFtDSDNdKVtDSDNd

> <s_epik_cmdline>
J2VwaWtfcHl0aG9uJywgJy1waCcsICc3LjAnLCAnLXRuJywgJzgnLCAnLW1hJywgJzIwMCcsICctbWV0YWxfYmluZGluZycsICctaW1hZScsICc8aW5maWxlLm1hZT4nLCAnLW9tYWUnLCAnPG91dGZpbGUubWFlPic=

> <r_epik_Ionization_Penalty>
1.3281

> <r_epik_Ionization_Penalty_Charging>
1.21988

> <r_epik_Ionization_Penalty_Neutral>
0.10822

> <r_epik_State_Penalty>
1.32886

> <r_epik_Charging_Adjusted_Penalty>
2.54875

> <i_epik_Tot_Q>
2

> <i_epik_Tot_abs_Q>
2

> <r_epik_Metal_State_Penalty>
5.33912

> <b_epik_Metal_Only>
0

> <s_lp_Force_Field>
OPLS_2005

> <r_lp_Energy>
45.8235

> <b_lp_Chiralities_Consistent>
1

> <s_lp_Variant>
AV-unprocessed.smi:1005-15

> <Gold.Version>
5.8.1

> <Gold.Id.Protein>
6NUR|6NUR_protein|mol2

> <Gold.PLP.Fitness>
53.2192

> <Gold.PLP.PLP>
-40.9806

> <Gold.PLP.part.hbond>
-4.0000

> <Gold.PLP.part.metal>
0.0000

> <Gold.PLP.part.buried>
-4.1201

> <Gold.PLP.part.nonpolar>
-32.5369

> <Gold.PLP.part.repulsive>
0.1592

> <Gold.PLP.ligand.clash>
0.0000

> <Gold.PLP.ligand.torsion>
1.4169

> <Gold.PLP.Chemscore.Hbond>
5.0000

> <Gold.PLP.Chemscore.CHOScore>
0.0000

> <Gold.PLP.Chemscore.Metal>
0.0000

> <Gold.Chemscore.Hbonds>
donor molecule, donor type, donor heavy atom, donor atom, acceptor molecule, acceptor atom, score
      L1  H     5    57       P1  8028  2.00
      L1  H    10    34       P1  7948  1.00
      L1  H    18    56       P1  7948  2.00

> <Gold.PLP.Chemscore.Internal.Correction>
0.0725

> <Gold.Rescore>
     Score         DG    S(hbond)    S(metal)    S(lipo)     H(rot)  DE(clash)    DE(int)     intcor
     18.84     -20.28       2.88        0.00      98.61       2.49       0.16       1.28       ----

> <Gold.Chemscore.Fitness>
18.8361

> <Gold.Chemscore.DG>
-20.2787

> <Gold.Chemscore.ZeroCoef>
-5.4800

> <Gold.Chemscore.Hbond>
2.8847

> <Gold.Chemscore.Metal>
0.0000

> <Gold.Chemscore.Lipo>
98.6119

> <Gold.Chemscore.Internal_Hbond>
0.0000

> <Gold.Chemscore.DEClash>
0.1609

> <Gold.Chemscore.DEInternal>
1.2817

> <Gold.Chemscore.Rot>
2.4897

> <Gold.Chemscore.Internal.Correction>
   9.000000E+99

> <Gold.Chemscore.Hbonds>
donor molecule, donor type, donor heavy atom, donor atom, acceptor molecule, acceptor atom, score
      L1  H     5    57       P1  8028  0.93
      L1  H    10    34       P1  7948  0.70
      L1  H    18    56       P1  7948  0.68

> <Gold.Chemscore.Hbond.Weighted>
-9.6348

> <Gold.Chemscore.Metal.Weighted>
-0.0000

> <Gold.Chemscore.Lipo.Weighted>
-11.5376

> <Gold.Chemscore.Internal_Hbond.Weighted>
0.0000

> <Gold.Chemscore.DEClash.Weighted>
0.1609

> <Gold.Chemscore.DEInternal.Weighted>
1.2817

> <Gold.Chemscore.Rot.Weighted>
6.3737

> <Gold.Chemscore.Internal.Correction.Weighted>
   9.000000E+99

> <Gold.Protein.RotatedTorsions>
[ 6907 6896 6895 6894 ] final    0.63 input  -60.11 | X-H torsion
[ 7974 7965 7964 7962 ] final  141.67 input  175.53 | X-H torsion
[ 8008 7997 7996 7995 ] final  -60.07 input   59.86 | X-H torsion
[ 10167 10162 10161 10158 ] final    8.76 input  -65.29 | X-H torsion
[ 10718 10713 10712 10709 ] final   -8.29 input   66.30 | X-H torsion
[ 10763 10752 10751 10750 ] final  158.83 input  -60.55 | X-H torsion
[ 11005 11000 10999 10996 ] final  -63.54 input  -57.11 | X-H torsion

> <Gold.Protein.ActiveResidues>
 VAL166  LYS551  ARG553  GLY616  TRP617  ASP618  TYR619  PRO620  LYS621  CYS622 
 ASP623  PHE694  ASN695  SER759  ASP760  ASP761  ALA762  ILE779  LEU786  VAL792 
 PHE793  MET794  SER795  GLU796  ALA797  LYS798  CYS799  TRP800  GLU811  SER814 

> <Gold.Protein.RotatedAtoms>
  151.5796  135.1059  160.0013 H   0  0  0  0  0  0  0  0  0  0  0  0  # atno 6907 bound_to 6896
  152.4360  133.7358  159.6624 H   0  0  0  0  0  0  0  0  0  0  0  0  # atno 6908 bound_to 6896
  150.8258  133.8104  159.3142 H   0  0  0  0  0  0  0  0  0  0  0  0  # atno 6909 bound_to 6896
  144.9075  139.5338  143.5724 H   0  0  0  0  0  0  0  0  0  0  0  0  # atno 7974 bound_to 7965
  154.4381  140.1047  156.6216 H   0  0  0  0  0  0  0  0  0  0  0  0  # atno 8008 bound_to 7997
  155.5701  140.3489  155.4494 H   0  0  0  0  0  0  0  0  0  0  0  0  # atno 8009 bound_to 7997
  156.0396  140.1279  157.0160 H   0  0  0  0  0  0  0  0  0  0  0  0  # atno 8010 bound_to 7997
  140.6295  143.8026  150.7277 H   0  0  0  0  0  0  0  0  0  0  0  0  # atno 10167 bound_to 10162
  156.7048  130.5104  149.5907 H   0  0  0  0  0  0  0  0  0  0  0  0  # atno 10718 bound_to 10713
  154.2222  135.2781  155.2920 H   0  0  0  0  0  0  0  0  0  0  0  0  # atno 10763 bound_to 10752
  154.5693  135.5623  153.7083 H   0  0  0  0  0  0  0  0  0  0  0  0  # atno 10764 bound_to 10752
  153.0039  135.6317  154.2362 H   0  0  0  0  0  0  0  0  0  0  0  0  # atno 10765 bound_to 10752
  141.1396  133.6653  156.5695 H   0  0  0  0  0  0  0  0  0  0  0  0  # atno 11005 bound_to 11000
  146.3141  139.7855  142.8997 LP  0  0  0  0  0  0  0  0  0  0  0  0  # atno 17320 bound_to 7965
  145.3510  141.0307  143.3338 LP  0  0  0  0  0  0  0  0  0  0  0  0  # atno 17321 bound_to 7965
  140.1634  143.4256  152.2051 LP  0  0  0  0  0  0  0  0  0  0  0  0  # atno 17342 bound_to 10162
  139.5511  144.7338  151.4433 LP  0  0  0  0  0  0  0  0  0  0  0  0  # atno 17343 bound_to 10162
  156.1703  130.6432  151.0829 LP  0  0  0  0  0  0  0  0  0  0  0  0  # atno 17370 bound_to 10713
  157.6959  131.0794  150.6970 LP  0  0  0  0  0  0  0  0  0  0  0  0  # atno 17371 bound_to 10713
  140.3924  134.7428  157.4730 LP  0  0  0  0  0  0  0  0  0  0  0  0  # atno 17394 bound_to 11000
  140.0556  134.6068  155.8809 LP  0  0  0  0  0  0  0  0  0  0  0  0  # atno 17395 bound_to 11000

$$$$
