AV-unprocessed.smi:22|AV-procd|sdf|169|dock7
  -GOLD-   2262015423D 1   1.00000     0.00000
 Structure written by MMmdl.
 56 59  0  0  0  0  0  0  0  0  2 V2000
  144.4748  135.0045  150.5013 C   0  0  0  0  0  0  0  0  0  0  0  0
  144.8177  133.5929  150.2009 N   0  3  2  0  0  0  0  0  0  0  0  0
  143.6946  132.8498  149.5664 C   0  0  0  0  0  0  0  0  0  0  0  0
  143.8915  132.6829  148.0505 C   0  0  0  0  0  0  0  0  0  0  0  0
  143.6893  133.9196  147.4000 O   0  0  0  0  0  0  0  0  0  0  0  0
  145.4615  132.9042  151.3575 C   0  0  0  0  0  0  0  0  0  0  0  0
  146.8033  133.5603  151.7446 C   0  0  0  0  0  0  0  0  0  0  0  0
  147.4180  132.8673  152.9714 C   0  0  0  0  0  0  0  0  0  0  0  0
  147.5418  131.4270  152.7476 N   0  0  0  0  0  0  0  0  0  0  0  0
  148.3976  130.7915  153.5882 C   0  0  0  0  0  0  0  0  0  0  0  0
  148.3940  129.4333  153.6616 N   0  0  0  0  0  0  0  0  0  0  0  0
  149.2278  128.7999  154.4918 C   0  0  0  0  0  0  0  0  0  0  0  0
  150.1328  129.3202  155.3227 N   0  0  0  0  0  0  0  0  0  0  0  0
  150.1462  130.6818  155.2504 C   0  0  0  0  0  0  0  0  0  0  0  0
  149.3212  131.4892  154.4171 C   0  0  0  0  0  0  0  0  0  0  0  0
  149.6307  132.8313  154.6039 N   0  0  0  0  0  0  0  0  0  0  0  0
  150.5760  132.8183  155.5037 C   0  0  0  0  0  0  0  0  0  0  0  0
  150.9432  131.5695  155.9520 N   0  0  0  0  0  0  0  0  0  0  0  0
  151.9633  131.2667  156.9441 C   0  0  0  0  0  0  0  0  0  0  0  0
  152.8600  130.0686  156.5556 C   0  0  1  0  0  0  0  0  0  0  0  0
  152.1861  128.8648  156.8817 O   0  0  0  0  0  0  0  0  0  0  0  0
  153.2414  130.0257  155.0785 C   0  0  0  0  0  0  0  0  0  0  0  0
  154.6207  129.3824  155.1036 C   0  0  0  0  0  0  0  0  0  0  0  0
  155.2143  129.9712  156.2482 O   0  0  0  0  0  0  0  0  0  0  0  0
  154.2268  130.0703  157.2696 C   0  0  0  0  0  0  0  0  0  0  0  0
  146.2959  130.7433  152.3961 C   0  0  0  0  0  0  0  0  0  0  0  0
  145.6513  131.3830  151.1552 C   0  0  0  0  0  0  0  0  0  0  0  0
  143.6874  135.0687  151.2528 H   0  0  0  0  0  0  0  0  0  0  0  0
  144.1317  135.5280  149.6098 H   0  0  0  0  0  0  0  0  0  0  0  0
  145.3452  135.5456  150.8736 H   0  0  0  0  0  0  0  0  0  0  0  0
  143.5848  131.8571  150.0012 H   0  0  0  0  0  0  0  0  0  0  0  0
  142.7568  133.3695  149.7679 H   0  0  0  0  0  0  0  0  0  0  0  0
  144.9102  132.3532  147.8458 H   0  0  0  0  0  0  0  0  0  0  0  0
  143.2256  131.9311  147.6282 H   0  0  0  0  0  0  0  0  0  0  0  0
  144.5328  134.3058  147.2161 H   0  0  0  0  0  0  0  0  0  0  0  0
  144.8028  133.0416  152.2168 H   0  0  0  0  0  0  0  0  0  0  0  0
  147.5164  133.5072  150.9224 H   0  0  0  0  0  0  0  0  0  0  0  0
  146.6569  134.6198  151.9578 H   0  0  0  0  0  0  0  0  0  0  0  0
  148.3817  133.3229  153.1967 H   0  0  0  0  0  0  0  0  0  0  0  0
  146.7864  133.0307  153.8455 H   0  0  0  0  0  0  0  0  0  0  0  0
  149.1591  127.7221  154.4911 H   0  0  0  0  0  0  0  0  0  0  0  0
  151.0332  133.7258  155.8708 H   0  0  0  0  0  0  0  0  0  0  0  0
  152.5736  132.1592  157.0887 H   0  0  0  0  0  0  0  0  0  0  0  0
  151.4696  131.0774  157.8984 H   0  0  0  0  0  0  0  0  0  0  0  0
  151.5818  128.6621  156.1839 H   0  0  0  0  0  0  0  0  0  0  0  0
  152.5259  129.4915  154.4518 H   0  0  0  0  0  0  0  0  0  0  0  0
  153.3376  131.0378  154.6838 H   0  0  0  0  0  0  0  0  0  0  0  0
  154.5494  128.3019  155.2385 H   0  0  0  0  0  0  0  0  0  0  0  0
  155.1980  129.5827  154.2007 H   0  0  0  0  0  0  0  0  0  0  0  0
  154.3966  130.9846  157.8392 H   0  0  0  0  0  0  0  0  0  0  0  0
  154.3311  129.2329  157.9614 H   0  0  0  0  0  0  0  0  0  0  0  0
  146.4891  129.6880  152.1985 H   0  0  0  0  0  0  0  0  0  0  0  0
  145.6080  130.7924  153.2416 H   0  0  0  0  0  0  0  0  0  0  0  0
  144.6960  130.8982  150.9542 H   0  0  0  0  0  0  0  0  0  0  0  0
  146.2882  131.1840  150.2931 H   0  0  0  0  0  0  0  0  0  0  0  0
  145.5404  133.6356  149.4961 H   0  0  0  0  0  0  0  0  0  0  0  0
  1  2  1  0  0  0  0
  1 28  1  0  0  0  0
  1 29  1  0  0  0  0
  1 30  1  0  0  0  0
  2  3  1  0  0  0  0
  2  6  1  0  0  0  0
  2 56  1  0  0  0  0
  3  4  1  0  0  0  0
  3 31  1  0  0  0  0
  3 32  1  0  0  0  0
  4  5  1  0  0  0  0
  4 33  1  0  0  0  0
  4 34  1  0  0  0  0
  5 35  1  0  0  0  0
  6 27  1  0  0  0  0
  6  7  1  0  0  0  0
  6 36  1  0  0  0  0
  7  8  1  0  0  0  0
  7 37  1  0  0  0  0
  7 38  1  0  0  0  0
  8  9  1  0  0  0  0
  8 39  1  0  0  0  0
  8 40  1  0  0  0  0
  9 10  1  0  0  0  0
  9 26  1  0  0  0  0
 10 15  1  0  0  0  0
 10 11  2  0  0  0  0
 11 12  1  0  0  0  0
 12 13  2  0  0  0  0
 12 41  1  0  0  0  0
 13 14  1  0  0  0  0
 14 18  1  0  0  0  0
 14 15  2  0  0  0  0
 15 16  1  0  0  0  0
 16 17  2  0  0  0  0
 17 18  1  0  0  0  0
 17 42  1  0  0  0  0
 18 19  1  0  0  0  0
 19 20  1  0  0  0  0
 19 43  1  0  0  0  0
 19 44  1  0  0  0  0
 20 25  1  0  0  0  0
 20 21  1  0  0  0  0
 20 22  1  0  0  0  0
 21 45  1  0  0  0  0
 22 23  1  0  0  0  0
 22 46  1  0  0  0  0
 22 47  1  0  0  0  0
 23 24  1  0  0  0  0
 23 48  1  0  0  0  0
 23 49  1  0  0  0  0
 24 25  1  0  0  0  0
 25 50  1  0  0  0  0
 25 51  1  0  0  0  0
 26 27  1  0  0  0  0
 26 52  1  0  0  0  0
 26 53  1  0  0  0  0
 27 54  1  0  0  0  0
 27 55  1  0  0  0  0
M  CHG  1   2   1
M  END
> <s_m_source_file>
AV-unprocessed.smi

> <i_m_source_file_index>
22

> <i_lp_mmshare_version>
43012

> <i_f3d_flags>
0

> <s_epik_input>
W09IXVtDSDJdW0NIMl1OKFtDSDNdKVtDSF0xW0NIMl1bQ0gyXU4oW0NIMl1bQ0gyXTEpYyhuW2NIXW4yKWMoYzIzKW5bY0hdbjNbQ0gyXVtDQEBdNChbT0hdKVtDSDJdW0NIMl1PW0NIMl00

> <s_epik_cmdline>
J2VwaWtfcHl0aG9uJywgJy1waCcsICc3LjAnLCAnLXRuJywgJzgnLCAnLW1hJywgJzIwMCcsICctbWV0YWxfYmluZGluZycsICctaW1hZScsICc8aW5maWxlLm1hZT4nLCAnLW9tYWUnLCAnPG91dGZpbGUubWFlPic=

> <r_lp_tautomer_probability>
1

> <r_epik_Ionization_Penalty>
0.00317524

> <r_epik_Ionization_Penalty_Charging>
0.00191487

> <r_epik_Ionization_Penalty_Neutral>
0.00126037

> <r_epik_State_Penalty>
-0

> <r_epik_Charging_Adjusted_Penalty>
0.00191487

> <i_epik_Tot_Q>
1

> <i_epik_Tot_abs_Q>
1

> <r_epik_Metal_State_Penalty>
-0

> <b_epik_Metal_Only>
0

> <s_lp_Force_Field>
OPLS_2005

> <r_lp_Energy>
45.1339

> <b_lp_Chiralities_Consistent>
1

> <s_lp_Variant>
AV-unprocessed.smi:22-1

> <Gold.Version>
5.8.1

> <Gold.Id.Protein>
6NUR|6NUR_protein|mol2

> <Gold.PLP.Fitness>
48.4001

> <Gold.PLP.PLP>
-44.6486

> <Gold.PLP.part.hbond>
-4.3024

> <Gold.PLP.part.metal>
0.0000

> <Gold.PLP.part.buried>
-4.3768

> <Gold.PLP.part.nonpolar>
-36.0958

> <Gold.PLP.part.repulsive>
2.1722

> <Gold.PLP.ligand.clash>
0.0014

> <Gold.PLP.ligand.torsion>
1.9171

> <Gold.PLP.Chemscore.Hbond>
2.3370

> <Gold.PLP.Chemscore.CHOScore>
0.0000

> <Gold.PLP.Chemscore.Metal>
0.0000

> <Gold.Chemscore.Hbonds>
donor molecule, donor type, donor heavy atom, donor atom, acceptor molecule, acceptor atom, score
      L1  H     2    56       P1  7921  0.32
      L1  H     5    35       P1  7921  1.00
      P1  H 10192 10197       L1     5  0.84

> <Gold.PLP.Chemscore.Internal.Correction>
0.5762

> <Gold.Rescore>
     Score         DG    S(hbond)    S(metal)    S(lipo)     H(rot)  DE(clash)    DE(int)     intcor
      9.67     -14.15       2.12        0.00      95.72       3.76       1.23       3.25       ----

> <Gold.Chemscore.Fitness>
9.6705

> <Gold.Chemscore.DG>
-14.1527

> <Gold.Chemscore.ZeroCoef>
-5.4800

> <Gold.Chemscore.Hbond>
2.1241

> <Gold.Chemscore.Metal>
0.0000

> <Gold.Chemscore.Lipo>
95.7207

> <Gold.Chemscore.Internal_Hbond>
0.0000

> <Gold.Chemscore.DEClash>
1.2297

> <Gold.Chemscore.DEInternal>
3.2525

> <Gold.Chemscore.Rot>
3.7583

> <Gold.Chemscore.Internal.Correction>
   9.000000E+99

> <Gold.Chemscore.Hbonds>
donor molecule, donor type, donor heavy atom, donor atom, acceptor molecule, acceptor atom, score
      L1  H     2    56       P1  7921  0.13
      L1  H     5    35       P1  7921  0.98
      P1  H 10192 10197       L1     5  0.76

> <Gold.Chemscore.Hbond.Weighted>
-7.0946

> <Gold.Chemscore.Metal.Weighted>
-0.0000

> <Gold.Chemscore.Lipo.Weighted>
-11.1993

> <Gold.Chemscore.Internal_Hbond.Weighted>
0.0000

> <Gold.Chemscore.DEClash.Weighted>
1.2297

> <Gold.Chemscore.DEInternal.Weighted>
3.2525

> <Gold.Chemscore.Rot.Weighted>
9.6213

> <Gold.Chemscore.Internal.Correction.Weighted>
   9.000000E+99

> <Gold.Protein.RotatedTorsions>
[ 6907 6896 6895 6894 ] final   70.90 input  -60.11 | X-H torsion
[ 7974 7965 7964 7962 ] final  -20.13 input  175.53 | X-H torsion
[ 8008 7997 7996 7995 ] final   56.48 input   59.86 | X-H torsion
[ 10167 10162 10161 10158 ] final  -33.43 input  -65.29 | X-H torsion
[ 10718 10713 10712 10709 ] final   10.65 input   66.30 | X-H torsion
[ 10763 10752 10751 10750 ] final  -52.07 input  -60.55 | X-H torsion
[ 11005 11000 10999 10996 ] final -122.84 input  -57.11 | X-H torsion

> <Gold.Protein.ActiveResidues>
 VAL166  LYS551  ARG553  GLY616  TRP617  ASP618  TYR619  PRO620  LYS621  CYS622 
 ASP623  PHE694  ASN695  SER759  ASP760  ASP761  ALA762  ILE779  LEU786  VAL792 
 PHE793  MET794  SER795  GLU796  ALA797  LYS798  CYS799  TRP800  GLU811  SER814 

> <Gold.Protein.RotatedAtoms>
  152.4777  134.4800  159.9662 H   0  0  0  0  0  0  0  0  0  0  0  0  # atno 6907 bound_to 6896
  151.4813  133.3540  159.2846 H   0  0  0  0  0  0  0  0  0  0  0  0  # atno 6908 bound_to 6896
  150.8828  134.8247  159.7298 H   0  0  0  0  0  0  0  0  0  0  0  0  # atno 6909 bound_to 6896
  146.1805  140.4158  142.8496 H   0  0  0  0  0  0  0  0  0  0  0  0  # atno 7974 bound_to 7965
  155.5182  140.3479  155.4401 H   0  0  0  0  0  0  0  0  0  0  0  0  # atno 8008 bound_to 7997
  156.0803  140.1385  156.9748 H   0  0  0  0  0  0  0  0  0  0  0  0  # atno 8009 bound_to 7997
  154.4576  140.0947  156.6777 H   0  0  0  0  0  0  0  0  0  0  0  0  # atno 8010 bound_to 7997
  140.7204  143.3621  151.1942 H   0  0  0  0  0  0  0  0  0  0  0  0  # atno 10167 bound_to 10162
  156.9841  130.6017  149.5679 H   0  0  0  0  0  0  0  0  0  0  0  0  # atno 10718 bound_to 10713
  154.1367  135.6511  153.4933 H   0  0  0  0  0  0  0  0  0  0  0  0  # atno 10763 bound_to 10752
  153.0178  135.5306  154.6946 H   0  0  0  0  0  0  0  0  0  0  0  0  # atno 10764 bound_to 10752
  154.6196  135.2963  155.0312 H   0  0  0  0  0  0  0  0  0  0  0  0  # atno 10765 bound_to 10752
  140.9964  134.0465  157.3591 H   0  0  0  0  0  0  0  0  0  0  0  0  # atno 11005 bound_to 11000
  144.8307  140.6702  143.6293 LP  0  0  0  0  0  0  0  0  0  0  0  0  # atno 17320 bound_to 7965
  145.4090  139.1583  143.4136 LP  0  0  0  0  0  0  0  0  0  0  0  0  # atno 17321 bound_to 7965
  139.7175  143.9276  152.2972 LP  0  0  0  0  0  0  0  0  0  0  0  0  # atno 17342 bound_to 10162
  139.9022  144.6905  150.8653 LP  0  0  0  0  0  0  0  0  0  0  0  0  # atno 17343 bound_to 10162
  156.0233  130.5327  150.8336 LP  0  0  0  0  0  0  0  0  0  0  0  0  # atno 17370 bound_to 10713
  157.5505  131.0943  150.9701 LP  0  0  0  0  0  0  0  0  0  0  0  0  # atno 17371 bound_to 10713
  139.9017  135.0167  156.7299 LP  0  0  0  0  0  0  0  0  0  0  0  0  # atno 17394 bound_to 11000
  140.6958  133.9349  155.7994 LP  0  0  0  0  0  0  0  0  0  0  0  0  # atno 17395 bound_to 11000

$$$$
