AV-unprocessed.smi:2100|AV-procd|sdf|8575|dock3
  -GOLD-   2272011303D 1   1.00000     0.00000
 Structure written by MMmdl.
 41 42  0  0  0  0  0  0  0  0  1 V2000
  148.1893  136.5135  159.3689 C   0  0  0  0  0  0  0  0  0  0  0  0
  148.8959  136.6982  158.0217 C   0  0  1  0  0  0  0  0  0  0  0  0
  149.7918  137.9488  158.0092 C   0  0  0  0  0  0  0  0  0  0  0  0
  150.5595  138.0316  156.7590 N   0  0  0  0  0  0  0  0  0  0  0  0
  151.3390  139.5398  156.4151 S   0  0  0  0  0  0  0  0  0  0  0  0
  152.6404  139.5665  157.1005 O   0  0  0  0  0  0  0  0  0  0  0  0
  151.2304  139.7929  154.9705 O   0  0  0  0  0  0  0  0  0  0  0  0
  150.2721  140.6124  157.2426 N   0  0  0  0  0  0  0  0  0  0  0  0
  150.6106  142.0323  157.3538 C   0  0  0  0  0  0  0  0  0  0  0  0
  152.0276  142.2229  157.9199 C   0  0  0  0  0  0  0  0  0  0  0  0
  152.0678  143.0630  159.1867 C   0  0  0  0  0  0  0  0  0  0  0  0
  151.9008  144.4631  159.1230 C   0  0  0  0  0  0  0  0  0  0  0  0
  151.9421  145.2006  160.3222 C   0  0  0  0  0  0  0  0  0  0  0  0
  152.1543  144.5143  161.5332 C   0  0  0  0  0  0  0  0  0  0  0  0
  152.3103  143.1147  161.4917 C   0  0  0  0  0  0  0  0  0  0  0  0
  152.2667  142.3981  160.3480 N   0  0  0  0  0  0  0  0  0  0  0  0
  151.3002  136.7952  156.4542 C   0  0  0  0  0  0  0  0  0  0  0  0
  150.3920  135.5540  156.5419 C   0  0  2  0  0  0  0  0  0  0  0  0
  149.4570  135.3991  155.3303 C   0  0  0  0  0  0  0  0  0  0  0  0
  149.6811  135.5372  157.7768 O   0  0  0  0  0  0  0  0  0  0  0  0
  147.5603  137.3727  159.6033 H   0  0  0  0  0  0  0  0  0  0  0  0
  148.9089  136.3937  160.1793 H   0  0  0  0  0  0  0  0  0  0  0  0
  147.5519  135.6291  159.3561 H   0  0  0  0  0  0  0  0  0  0  0  0
  148.1289  136.7931  157.2531 H   0  0  0  0  0  0  0  0  0  0  0  0
  149.1766  138.8415  158.1230 H   0  0  0  0  0  0  0  0  0  0  0  0
  150.4886  137.9311  158.8485 H   0  0  0  0  0  0  0  0  0  0  0  0
  149.8933  140.2116  158.1010 H   0  0  0  0  0  0  0  0  0  0  0  0
  150.5292  142.5103  156.3770 H   0  0  0  0  0  0  0  0  0  0  0  0
  149.8795  142.5107  158.0059 H   0  0  0  0  0  0  0  0  0  0  0  0
  152.4598  141.2454  158.1369 H   0  0  0  0  0  0  0  0  0  0  0  0
  152.6754  142.6752  157.1673 H   0  0  0  0  0  0  0  0  0  0  0  0
  151.7451  144.9632  158.1784 H   0  0  0  0  0  0  0  0  0  0  0  0
  151.8184  146.2734  160.3123 H   0  0  0  0  0  0  0  0  0  0  0  0
  152.1958  145.0474  162.4714 H   0  0  0  0  0  0  0  0  0  0  0  0
  152.4744  142.5557  162.4010 H   0  0  0  0  0  0  0  0  0  0  0  0
  151.7542  136.8569  155.4657 H   0  0  0  0  0  0  0  0  0  0  0  0
  152.1195  136.7009  157.1680 H   0  0  0  0  0  0  0  0  0  0  0  0
  151.0355  134.6739  156.5545 H   0  0  0  0  0  0  0  0  0  0  0  0
  150.0356  135.2463  154.4206 H   0  0  0  0  0  0  0  0  0  0  0  0
  148.8340  136.2789  155.1718 H   0  0  0  0  0  0  0  0  0  0  0  0
  148.8008  134.5373  155.4510 H   0  0  0  0  0  0  0  0  0  0  0  0
  1  2  1  0  0  0  0
  1 21  1  0  0  0  0
  1 22  1  0  0  0  0
  1 23  1  0  0  0  0
  2 20  1  0  0  0  0
  2  3  1  0  0  0  0
  2 24  1  0  0  0  0
  3  4  1  0  0  0  0
  3 25  1  0  0  0  0
  3 26  1  0  0  0  0
  4  5  1  0  0  0  0
  4 17  1  0  0  0  0
  5  6  2  0  0  0  0
  5  7  2  0  0  0  0
  5  8  1  0  0  0  0
  8  9  1  0  0  0  0
  8 27  1  0  0  0  0
  9 10  1  0  0  0  0
  9 28  1  0  0  0  0
  9 29  1  0  0  0  0
 10 11  1  0  0  0  0
 10 30  1  0  0  0  0
 10 31  1  0  0  0  0
 11 16  1  0  0  0  0
 11 12  2  0  0  0  0
 12 13  1  0  0  0  0
 12 32  1  0  0  0  0
 13 14  2  0  0  0  0
 13 33  1  0  0  0  0
 14 15  1  0  0  0  0
 14 34  1  0  0  0  0
 15 16  2  0  0  0  0
 15 35  1  0  0  0  0
 17 18  1  0  0  0  0
 17 36  1  0  0  0  0
 17 37  1  0  0  0  0
 18 19  1  0  0  0  0
 18 20  1  0  0  0  0
 18 38  1  0  0  0  0
 19 39  1  0  0  0  0
 19 40  1  0  0  0  0
 19 41  1  0  0  0  0
M  END
> <s_m_source_file>
AV-unprocessed.smi

> <i_m_source_file_index>
2100

> <i_lp_mmshare_version>
43012

> <i_f3d_flags>
0

> <s_epik_input>
W0NIM11bQ0BASF0xW0NIMl1OKFtDSDJdW0NASF0oTzEpW0NIM10pUyg9TykoPU8pW05IXVtDSDJdW0NIMl1jMltjSF1bY0hdW2NIXVtjSF1uMg==

> <s_epik_cmdline>
J2VwaWtfcHl0aG9uJywgJy1waCcsICc3LjAnLCAnLXRuJywgJzgnLCAnLW1hJywgJzIwMCcsICctbWV0YWxfYmluZGluZycsICctaW1hZScsICc8aW5maWxlLm1hZT4nLCAnLW9tYWUnLCAnPG91dGZpbGUubWFlPic=

> <r_epik_Ionization_Penalty>
0.085378

> <r_epik_Ionization_Penalty_Charging>
0

> <r_epik_Ionization_Penalty_Neutral>
0.085378

> <r_epik_State_Penalty>
0.0441186

> <r_epik_Charging_Adjusted_Penalty>
0.0441186

> <i_epik_Tot_Q>
0

> <i_epik_Tot_abs_Q>
0

> <r_epik_Metal_State_Penalty>
0.24397

> <b_epik_Metal_Only>
0

> <s_lp_Force_Field>
OPLS_2005

> <r_lp_Energy>
8.75792

> <b_lp_Chiralities_Consistent>
1

> <s_lp_Variant>
AV-unprocessed.smi:2100-3

> <Gold.Version>
5.8.1

> <Gold.Id.Protein>
6NUR|6NUR_protein|mol2

> <Gold.PLP.Fitness>
42.0363

> <Gold.PLP.PLP>
-35.7918

> <Gold.PLP.part.hbond>
-3.0000

> <Gold.PLP.part.metal>
0.0000

> <Gold.PLP.part.buried>
-6.3160

> <Gold.PLP.part.nonpolar>
-26.1667

> <Gold.PLP.part.repulsive>
0.0545

> <Gold.PLP.ligand.clash>
0.0000

> <Gold.PLP.ligand.torsion>
1.3962

> <Gold.PLP.Chemscore.Hbond>
2.7680

> <Gold.PLP.Chemscore.CHOScore>
0.0000

> <Gold.PLP.Chemscore.Metal>
0.0000

> <Gold.Chemscore.Hbonds>
donor molecule, donor type, donor heavy atom, donor atom, acceptor molecule, acceptor atom, score
      P1  H  6896  6908       L1    20  0.48
      P1  H  7989  7998       L1     7  1.00
      P1  H  7997  8010       L1     6  1.00

> <Gold.PLP.Chemscore.Internal.Correction>
0.7330

> <Gold.Rescore>
     Score         DG    S(hbond)    S(metal)    S(lipo)     H(rot)  DE(clash)    DE(int)     intcor
     18.52     -21.76       2.82        0.00      96.02       1.71       0.54       2.69       ----

> <Gold.Chemscore.Fitness>
18.5209

> <Gold.Chemscore.DG>
-21.7552

> <Gold.Chemscore.ZeroCoef>
-5.4800

> <Gold.Chemscore.Hbond>
2.8169

> <Gold.Chemscore.Metal>
0.0000

> <Gold.Chemscore.Lipo>
96.0173

> <Gold.Chemscore.Internal_Hbond>
0.0000

> <Gold.Chemscore.DEClash>
0.5434

> <Gold.Chemscore.DEInternal>
2.6909

> <Gold.Chemscore.Rot>
1.7060

> <Gold.Chemscore.Internal.Correction>
   9.000000E+99

> <Gold.Chemscore.Hbonds>
donor molecule, donor type, donor heavy atom, donor atom, acceptor molecule, acceptor atom, score
      P1  H  6896  6908       L1    20  0.42
      P1  H  7989  7998       L1     7  1.00
      P1  H  7997  8010       L1     6  1.00

> <Gold.Chemscore.Hbond.Weighted>
-9.4085

> <Gold.Chemscore.Metal.Weighted>
-0.0000

> <Gold.Chemscore.Lipo.Weighted>
-11.2340

> <Gold.Chemscore.Internal_Hbond.Weighted>
0.0000

> <Gold.Chemscore.DEClash.Weighted>
0.5434

> <Gold.Chemscore.DEInternal.Weighted>
2.6909

> <Gold.Chemscore.Rot.Weighted>
4.3674

> <Gold.Chemscore.Internal.Correction.Weighted>
   9.000000E+99

> <Gold.Protein.RotatedTorsions>
[ 6907 6896 6895 6894 ] final  162.90 input  -60.11 | X-H torsion
[ 7974 7965 7964 7962 ] final  -13.72 input  175.53 | X-H torsion
[ 8008 7997 7996 7995 ] final   50.38 input   59.86 | X-H torsion
[ 10167 10162 10161 10158 ] final -150.29 input  -65.29 | X-H torsion
[ 10718 10713 10712 10709 ] final  139.56 input   66.30 | X-H torsion
[ 10763 10752 10751 10750 ] final  130.52 input  -60.55 | X-H torsion
[ 11005 11000 10999 10996 ] final    7.29 input  -57.11 | X-H torsion

> <Gold.Protein.ActiveResidues>
 VAL166  LYS551  ARG553  GLY616  TRP617  ASP618  TYR619  PRO620  LYS621  CYS622 
 ASP623  PHE694  ASN695  SER759  ASP760  ASP761  ALA762  ILE779  LEU786  VAL792 
 PHE793  MET794  SER795  GLU796  ALA797  LYS798  CYS799  TRP800  GLU811  SER814 

> <Gold.Protein.RotatedAtoms>
  151.9334  133.3617  159.3938 H   0  0  0  0  0  0  0  0  0  0  0  0  # atno 6907 bound_to 6896
  150.7012  134.4514  159.5347 H   0  0  0  0  0  0  0  0  0  0  0  0  # atno 6908 bound_to 6896
  152.2158  134.8459  160.0543 H   0  0  0  0  0  0  0  0  0  0  0  0  # atno 6909 bound_to 6896
  146.2103  140.3244  142.8393 H   0  0  0  0  0  0  0  0  0  0  0  0  # atno 7974 bound_to 7965
  155.4178  140.3445  155.4269 H   0  0  0  0  0  0  0  0  0  0  0  0  # atno 8008 bound_to 7997
  156.1411  140.1542  156.8951 H   0  0  0  0  0  0  0  0  0  0  0  0  # atno 8009 bound_to 7997
  154.4971  140.0825  156.7701 H   0  0  0  0  0  0  0  0  0  0  0  0  # atno 8010 bound_to 7997
  139.7368  143.8724  152.2551 H   0  0  0  0  0  0  0  0  0  0  0  0  # atno 10167 bound_to 10162
  157.4130  131.1030  151.0434 H   0  0  0  0  0  0  0  0  0  0  0  0  # atno 10718 bound_to 10713
  153.7594  135.3198  155.3334 H   0  0  0  0  0  0  0  0  0  0  0  0  # atno 10763 bound_to 10752
  154.8235  135.4586  154.0852 H   0  0  0  0  0  0  0  0  0  0  0  0  # atno 10764 bound_to 10752
  153.2079  135.6931  153.8233 H   0  0  0  0  0  0  0  0  0  0  0  0  # atno 10765 bound_to 10752
  140.5499  134.0293  155.7933 H   0  0  0  0  0  0  0  0  0  0  0  0  # atno 11005 bound_to 11000
  144.8897  140.7507  143.5935 LP  0  0  0  0  0  0  0  0  0  0  0  0  # atno 17320 bound_to 7965
  145.3167  139.1801  143.4610 LP  0  0  0  0  0  0  0  0  0  0  0  0  # atno 17321 bound_to 7965
  139.8663  144.7091  150.9040 LP  0  0  0  0  0  0  0  0  0  0  0  0  # atno 17342 bound_to 10162
  140.7780  143.3775  151.1536 LP  0  0  0  0  0  0  0  0  0  0  0  0  # atno 17343 bound_to 10162
  157.1391  130.6135  149.5550 LP  0  0  0  0  0  0  0  0  0  0  0  0  # atno 17370 bound_to 10713
  155.9856  130.4887  150.7042 LP  0  0  0  0  0  0  0  0  0  0  0  0  # atno 17371 bound_to 10713
  141.1178  133.9512  157.2789 LP  0  0  0  0  0  0  0  0  0  0  0  0  # atno 17394 bound_to 11000
  139.9460  135.0184  156.8855 LP  0  0  0  0  0  0  0  0  0  0  0  0  # atno 17395 bound_to 11000

$$$$
