AV-unprocessed.smi:193|AV-procd|sdf|1512|dock8
  -GOLD-   2262019343D 1   1.00000     0.00000
 Structure written by MMmdl.
 61 65  0  0  0  0  0  0  0  0  1 V2000
  146.5737  136.0540  156.2400 C   0  0  0  0  0  0  0  0  0  0  0  0
  147.8915  135.5663  155.6173 C   0  0  2  0  0  0  0  0  0  0  0  0
  148.6372  136.7640  154.9898 C   0  0  0  0  0  0  0  0  0  0  0  0
  150.0645  136.5338  154.7534 N   0  0  0  0  0  0  0  0  0  0  0  0
  150.9226  137.5484  155.0445 C   0  0  0  0  0  0  0  0  0  0  0  0
  152.2593  137.2977  155.0707 N   0  0  0  0  0  0  0  0  0  0  0  0
  153.1275  138.2689  155.3660 C   0  0  0  0  0  0  0  0  0  0  0  0
  152.8810  139.5460  155.6600 N   0  0  0  0  0  0  0  0  0  0  0  0
  151.5443  139.8118  155.6273 C   0  0  0  0  0  0  0  0  0  0  0  0
  150.5060  138.8818  155.3333 C   0  0  0  0  0  0  0  0  0  0  0  0
  149.2739  139.5246  155.3896 N   0  0  0  0  0  0  0  0  0  0  0  0
  149.5659  140.7546  155.7112 C   0  0  0  0  0  0  0  0  0  0  0  0
  150.9082  141.0189  155.8616 N   0  0  0  0  0  0  0  0  0  0  0  0
  151.5093  142.2976  156.2125 C   0  0  0  0  0  0  0  0  0  0  0  0
  151.2971  142.7162  157.6933 C   0  0  0  0  0  0  0  0  0  0  0  0
  149.9027  142.7371  157.9373 O   0  0  0  0  0  0  0  0  0  0  0  0
  151.9158  141.6955  158.6691 C   0  0  0  0  0  0  0  0  0  0  0  0
  153.4498  141.8148  158.7191 C   0  0  0  0  0  0  0  0  0  0  0  0
  153.8250  143.1447  159.0611 O   0  0  0  0  0  0  0  0  0  0  0  0
  153.3875  144.1097  158.1106 C   0  0  0  0  0  0  0  0  0  0  0  0
  151.8502  144.1156  158.0390 C   0  0  0  0  0  0  0  0  0  0  0  0
  150.6002  135.1840  154.5759 C   0  0  0  0  0  0  0  0  0  0  0  0
  149.7816  134.3415  153.5881 C   0  0  0  0  0  0  0  0  0  0  0  0
  148.7342  133.6020  154.2861 N   0  0  0  0  0  0  0  0  0  0  0  0
  148.2748  132.5292  153.4169 C   0  0  2  0  0  0  0  0  0  0  0  0
  147.1363  132.8368  152.4706 C   0  0  0  0  0  0  0  0  0  0  0  0
  146.8964  131.9587  153.6760 C   0  0  1  0  0  0  0  0  0  0  0  0
  146.6293  130.4789  153.5073 C   0  0  0  0  0  0  0  0  0  0  0  0
  147.5890  134.4621  154.5801 C   0  0  0  0  0  0  0  0  0  0  0  0
  145.9196  136.4959  155.4877 H   0  0  0  0  0  0  0  0  0  0  0  0
  146.7546  136.8066  157.0078 H   0  0  0  0  0  0  0  0  0  0  0  0
  146.0321  135.2337  156.7120 H   0  0  0  0  0  0  0  0  0  0  0  0
  148.4848  135.1512  156.4336 H   0  0  0  0  0  0  0  0  0  0  0  0
  148.1623  137.0584  154.0535 H   0  0  0  0  0  0  0  0  0  0  0  0
  148.5306  137.6123  155.6672 H   0  0  0  0  0  0  0  0  0  0  0  0
  154.1685  137.9805  155.3678 H   0  0  0  0  0  0  0  0  0  0  0  0
  148.8046  141.5100  155.8424 H   0  0  0  0  0  0  0  0  0  0  0  0
  152.5761  142.2360  155.9923 H   0  0  0  0  0  0  0  0  0  0  0  0
  151.1115  143.0528  155.5352 H   0  0  0  0  0  0  0  0  0  0  0  0
  149.4860  142.1324  157.3426 H   0  0  0  0  0  0  0  0  0  0  0  0
  151.5281  141.8680  159.6745 H   0  0  0  0  0  0  0  0  0  0  0  0
  151.6245  140.6793  158.4008 H   0  0  0  0  0  0  0  0  0  0  0  0
  153.8502  141.1361  159.4722 H   0  0  0  0  0  0  0  0  0  0  0  0
  153.9031  141.5295  157.7692 H   0  0  0  0  0  0  0  0  0  0  0  0
  153.7489  145.0914  158.4171 H   0  0  0  0  0  0  0  0  0  0  0  0
  153.8322  143.9020  157.1374 H   0  0  0  0  0  0  0  0  0  0  0  0
  151.5046  144.8681  157.3304 H   0  0  0  0  0  0  0  0  0  0  0  0
  151.4686  144.4270  159.0128 H   0  0  0  0  0  0  0  0  0  0  0  0
  151.6080  135.2612  154.1659 H   0  0  0  0  0  0  0  0  0  0  0  0
  150.7001  134.6839  155.5403 H   0  0  0  0  0  0  0  0  0  0  0  0
  149.3878  134.9358  152.7617 H   0  0  0  0  0  0  0  0  0  0  0  0
  150.4649  133.6146  153.1466 H   0  0  0  0  0  0  0  0  0  0  0  0
  149.0100  131.8204  153.0387 H   0  0  0  0  0  0  0  0  0  0  0  0
  146.7120  133.8389  152.4900 H   0  0  0  0  0  0  0  0  0  0  0  0
  147.1598  132.3619  151.4919 H   0  0  0  0  0  0  0  0  0  0  0  0
  146.3303  132.4125  154.4875 H   0  0  0  0  0  0  0  0  0  0  0  0
  147.2150  130.0703  152.6834 H   0  0  0  0  0  0  0  0  0  0  0  0
  145.5725  130.3107  153.3000 H   0  0  0  0  0  0  0  0  0  0  0  0
  146.8944  129.9455  154.4203 H   0  0  0  0  0  0  0  0  0  0  0  0
  146.8020  133.8229  154.9828 H   0  0  0  0  0  0  0  0  0  0  0  0
  147.1887  134.8958  153.6623 H   0  0  0  0  0  0  0  0  0  0  0  0
  1  2  1  0  0  0  0
  1 30  1  0  0  0  0
  1 31  1  0  0  0  0
  1 32  1  0  0  0  0
  2 29  1  0  0  0  0
  2  3  1  0  0  0  0
  2 33  1  0  0  0  0
  3  4  1  0  0  0  0
  3 34  1  0  0  0  0
  3 35  1  0  0  0  0
  4  5  1  0  0  0  0
  4 22  1  0  0  0  0
  5 10  1  0  0  0  0
  5  6  2  0  0  0  0
  6  7  1  0  0  0  0
  7  8  2  0  0  0  0
  7 36  1  0  0  0  0
  8  9  1  0  0  0  0
  9 13  1  0  0  0  0
  9 10  2  0  0  0  0
 10 11  1  0  0  0  0
 11 12  2  0  0  0  0
 12 13  1  0  0  0  0
 12 37  1  0  0  0  0
 13 14  1  0  0  0  0
 14 15  1  0  0  0  0
 14 38  1  0  0  0  0
 14 39  1  0  0  0  0
 15 21  1  0  0  0  0
 15 16  1  0  0  0  0
 15 17  1  0  0  0  0
 16 40  1  0  0  0  0
 17 18  1  0  0  0  0
 17 41  1  0  0  0  0
 17 42  1  0  0  0  0
 18 19  1  0  0  0  0
 18 43  1  0  0  0  0
 18 44  1  0  0  0  0
 19 20  1  0  0  0  0
 20 21  1  0  0  0  0
 20 45  1  0  0  0  0
 20 46  1  0  0  0  0
 21 47  1  0  0  0  0
 21 48  1  0  0  0  0
 22 23  1  0  0  0  0
 22 49  1  0  0  0  0
 22 50  1  0  0  0  0
 23 24  1  0  0  0  0
 23 51  1  0  0  0  0
 23 52  1  0  0  0  0
 24 25  1  0  0  0  0
 24 29  1  0  0  0  0
 25 27  1  0  0  0  0
 25 26  1  0  0  0  0
 25 53  1  0  0  0  0
 26 27  1  0  0  0  0
 26 54  1  0  0  0  0
 26 55  1  0  0  0  0
 27 28  1  0  0  0  0
 27 56  1  0  0  0  0
 28 57  1  0  0  0  0
 28 58  1  0  0  0  0
 28 59  1  0  0  0  0
 29 60  1  0  0  0  0
 29 61  1  0  0  0  0
M  END
> <s_m_source_file>
AV-unprocessed.smi

> <i_m_source_file_index>
193

> <i_lp_mmshare_version>
43012

> <i_f3d_flags>
0

> <s_epik_input>
W0NIM11bQ0BASF0xW0NIMl1bQ0BIXTFOKFtDSDJdMilbQ0gyXVtDSDJdTihbQ0gyXVtDQEhdMltDSDNdKWMobltjSF1uMyljKGMzNCluW2NIXW40W0NIMl1DNShbT0hdKVtDSDJdW0NIMl1PW0NIMl1bQ0gyXTU=

> <s_epik_cmdline>
J2VwaWtfcHl0aG9uJywgJy1waCcsICc3LjAnLCAnLXRuJywgJzgnLCAnLW1hJywgJzIwMCcsICctbWV0YWxfYmluZGluZycsICctaW1hZScsICc8aW5maWxlLm1hZT4nLCAnLW9tYWUnLCAnPG91dGZpbGUubWFlPic=

> <r_lp_tautomer_probability>
1

> <r_epik_Ionization_Penalty>
1.45227

> <r_epik_Ionization_Penalty_Charging>
0

> <r_epik_Ionization_Penalty_Neutral>
1.45227

> <r_epik_State_Penalty>
2.02377

> <r_epik_Charging_Adjusted_Penalty>
2.02377

> <i_epik_Tot_Q>
0

> <i_epik_Tot_abs_Q>
0

> <r_epik_Metal_State_Penalty>
2.01937

> <b_epik_Metal_Only>
0

> <s_lp_Force_Field>
OPLS_2005

> <r_lp_Energy>
48.8748

> <b_lp_Chiralities_Consistent>
1

> <s_lp_Variant>
AV-unprocessed.smi:193-17

> <Gold.Version>
5.8.1

> <Gold.Id.Protein>
6NUR|6NUR_protein|mol2

> <Gold.PLP.Fitness>
46.3373

> <Gold.PLP.PLP>
-42.6755

> <Gold.PLP.part.hbond>
-3.0000

> <Gold.PLP.part.metal>
0.0000

> <Gold.PLP.part.buried>
-6.3299

> <Gold.PLP.part.nonpolar>
-33.2577

> <Gold.PLP.part.repulsive>
0.1495

> <Gold.PLP.ligand.clash>
1.7631

> <Gold.PLP.ligand.torsion>
0.7729

> <Gold.PLP.Chemscore.Hbond>
1.9040

> <Gold.PLP.Chemscore.CHOScore>
0.0000

> <Gold.PLP.Chemscore.Metal>
0.0000

> <Gold.Chemscore.Hbonds>
donor molecule, donor type, donor heavy atom, donor atom, acceptor molecule, acceptor atom, score
      P1  H  7997  8009       L1     8  1.00
      P1  H 10752 10764       L1     6  0.59

> <Gold.PLP.Chemscore.Internal.Correction>
1.2587

> <Gold.Rescore>
     Score         DG    S(hbond)    S(metal)    S(lipo)     H(rot)  DE(clash)    DE(int)     intcor
     14.17     -18.29       1.50        0.00     108.40       1.91       1.77       2.36       ----

> <Gold.Chemscore.Fitness>
14.1678

> <Gold.Chemscore.DG>
-18.2943

> <Gold.Chemscore.ZeroCoef>
-5.4800

> <Gold.Chemscore.Hbond>
1.5007

> <Gold.Chemscore.Metal>
0.0000

> <Gold.Chemscore.Lipo>
108.4048

> <Gold.Chemscore.Internal_Hbond>
0.0000

> <Gold.Chemscore.DEClash>
1.7669

> <Gold.Chemscore.DEInternal>
2.3595

> <Gold.Chemscore.Rot>
1.9068

> <Gold.Chemscore.Internal.Correction>
   9.000000E+99

> <Gold.Chemscore.Hbonds>
donor molecule, donor type, donor heavy atom, donor atom, acceptor molecule, acceptor atom, score
      P1  H  7997  8009       L1     8  0.45
      P1  H 10752 10764       L1     6  0.50

> <Gold.Chemscore.Hbond.Weighted>
-5.0123

> <Gold.Chemscore.Metal.Weighted>
-0.0000

> <Gold.Chemscore.Lipo.Weighted>
-12.6834

> <Gold.Chemscore.Internal_Hbond.Weighted>
0.0000

> <Gold.Chemscore.DEClash.Weighted>
1.7669

> <Gold.Chemscore.DEInternal.Weighted>
2.3595

> <Gold.Chemscore.Rot.Weighted>
4.8814

> <Gold.Chemscore.Internal.Correction.Weighted>
   9.000000E+99

> <Gold.Protein.RotatedTorsions>
[ 6907 6896 6895 6894 ] final  166.26 input  -60.11 | X-H torsion
[ 7974 7965 7964 7962 ] final -163.44 input  175.53 | X-H torsion
[ 8008 7997 7996 7995 ] final -147.58 input   59.86 | X-H torsion
[ 10167 10162 10161 10158 ] final -127.36 input  -65.29 | X-H torsion
[ 10718 10713 10712 10709 ] final -112.18 input   66.30 | X-H torsion
[ 10763 10752 10751 10750 ] final  -36.44 input  -60.55 | X-H torsion
[ 11005 11000 10999 10996 ] final  153.89 input  -57.11 | X-H torsion

> <Gold.Protein.ActiveResidues>
 VAL166  LYS551  ARG553  GLY616  TRP617  ASP618  TYR619  PRO620  LYS621  CYS622 
 ASP623  PHE694  ASN695  SER759  ASP760  ASP761  ALA762  ILE779  LEU786  VAL792 
 PHE793  MET794  SER795  GLU796  ALA797  LYS798  CYS799  TRP800  GLU811  SER814 

> <Gold.Protein.RotatedAtoms>
  151.8817  133.3496  159.3768 H   0  0  0  0  0  0  0  0  0  0  0  0  # atno 6907 bound_to 6896
  150.7126  134.5012  159.5571 H   0  0  0  0  0  0  0  0  0  0  0  0  # atno 6908 bound_to 6896
  152.2565  134.8079  160.0488 H   0  0  0  0  0  0  0  0  0  0  0  0  # atno 6909 bound_to 6896
  144.7326  140.3106  143.6188 H   0  0  0  0  0  0  0  0  0  0  0  0  # atno 7974 bound_to 7965
  155.5778  140.0640  157.2791 H   0  0  0  0  0  0  0  0  0  0  0  0  # atno 8008 bound_to 7997
  154.4341  140.1857  156.0991 H   0  0  0  0  0  0  0  0  0  0  0  0  # atno 8009 bound_to 7997
  156.0328  140.3304  155.7162 H   0  0  0  0  0  0  0  0  0  0  0  0  # atno 8010 bound_to 7997
  139.9617  143.5943  152.2443 H   0  0  0  0  0  0  0  0  0  0  0  0  # atno 10167 bound_to 10162
  156.0691  130.5906  150.8474 H   0  0  0  0  0  0  0  0  0  0  0  0  # atno 10718 bound_to 10713
  153.8798  135.6823  153.4768 H   0  0  0  0  0  0  0  0  0  0  0  0  # atno 10763 bound_to 10752
  153.1240  135.4727  154.9240 H   0  0  0  0  0  0  0  0  0  0  0  0  # atno 10764 bound_to 10752
  154.7674  135.3228  154.8210 H   0  0  0  0  0  0  0  0  0  0  0  0  # atno 10765 bound_to 10752
  140.1439  134.8721  157.2366 H   0  0  0  0  0  0  0  0  0  0  0  0  # atno 11005 bound_to 11000
  145.7668  139.1843  143.2235 LP  0  0  0  0  0  0  0  0  0  0  0  0  # atno 17320 bound_to 7965
  146.0942  140.7620  142.9580 LP  0  0  0  0  0  0  0  0  0  0  0  0  # atno 17321 bound_to 7965
  139.6549  144.7662  151.2075 LP  0  0  0  0  0  0  0  0  0  0  0  0  # atno 17342 bound_to 10162
  140.7551  143.6102  150.8613 LP  0  0  0  0  0  0  0  0  0  0  0  0  # atno 17343 bound_to 10162
  157.5750  131.0946  150.9359 LP  0  0  0  0  0  0  0  0  0  0  0  0  # atno 17370 bound_to 10713
  156.9567  130.5440  149.5284 LP  0  0  0  0  0  0  0  0  0  0  0  0  # atno 17371 bound_to 10713
  140.2688  134.3484  155.7380 LP  0  0  0  0  0  0  0  0  0  0  0  0  # atno 17394 bound_to 11000
  141.2190  133.7411  156.9192 LP  0  0  0  0  0  0  0  0  0  0  0  0  # atno 17395 bound_to 11000

$$$$
