AV-unprocessed.smi:43|AV-procd|sdf|392|dock3
  -GOLD-   2262016243D 1   1.00000     0.00000
 Structure written by MMmdl.
 25 26  0  0  0  0  0  0  0  0  2 V2000
  150.6790  142.7427  157.8094 C   0  0  0  0  0  0  0  0  0  0  0  0
  151.5135  141.5582  157.8948 N   0  0  0  0  0  0  0  0  0  0  0  0
  152.4005  141.4335  158.9138 N   0  0  0  0  0  0  0  0  0  0  0  0
  153.0376  140.3141  158.7279 N   0  0  0  0  0  0  0  0  0  0  0  0
  152.5968  139.6695  157.5895 N   0  0  0  0  0  0  0  0  0  0  0  0
  151.6494  140.4703  157.1159 C   0  0  0  0  0  0  0  0  0  0  0  0
  150.8921  140.2371  155.9612 N   0  0  0  0  0  0  0  0  0  0  0  0
  149.9814  141.1457  155.2717 C   0  0  0  0  0  0  0  0  0  0  0  0
  148.9134  140.2780  154.6193 C   0  0  1  0  0  0  0  0  0  0  0  0
  148.2497  140.9368  153.5610 O   0  0  0  0  0  0  0  0  0  0  0  0
  149.7257  139.0868  154.1515 C   0  0  0  0  0  0  0  0  0  0  0  0
  150.7994  138.9567  155.2460 C   0  0  1  0  0  0  0  0  0  0  0  0
  152.1556  138.5272  154.6660 C   0  0  0  0  0  0  0  0  0  0  0  0
  152.1948  137.4235  154.0801 O   0  0  0  0  0  0  0  0  0  0  0  0
  153.1245  139.3053  154.8147 O   0  5  0  0  0  0  0  0  0  0  0  0
  148.1856  139.9597  155.3671 H   0  0  0  0  0  0  0  0  0  0  0  0
  150.4736  138.2087  155.9704 H   0  0  0  0  0  0  0  0  0  0  0  0
  150.6736  143.1214  156.7876 H   0  0  0  0  0  0  0  0  0  0  0  0
  151.0645  143.5261  158.4631 H   0  0  0  0  0  0  0  0  0  0  0  0
  149.6618  142.5022  158.1175 H   0  0  0  0  0  0  0  0  0  0  0  0
  149.5211  141.8569  155.9564 H   0  0  0  0  0  0  0  0  0  0  0  0
  150.5453  141.7051  154.5234 H   0  0  0  0  0  0  0  0  0  0  0  0
  148.7042  140.7418  152.7559 H   0  0  0  0  0  0  0  0  0  0  0  0
  149.1224  138.1846  154.0478 H   0  0  0  0  0  0  0  0  0  0  0  0
  150.1743  139.3008  153.1791 H   0  0  0  0  0  0  0  0  0  0  0  0
  1  2  1  0  0  0  0
  1 18  1  0  0  0  0
  1 19  1  0  0  0  0
  1 20  1  0  0  0  0
  2  6  1  0  0  0  0
  2  3  1  0  0  0  0
  3  4  2  0  0  0  0
  4  5  1  0  0  0  0
  5  6  2  0  0  0  0
  6  7  1  0  0  0  0
  7 12  1  0  0  0  0
  7  8  1  0  0  0  0
  8  9  1  0  0  0  0
  8 21  1  0  0  0  0
  8 22  1  0  0  0  0
  9 16  1  0  0  0  0
  9 10  1  0  0  0  0
  9 11  1  0  0  0  0
 10 23  1  0  0  0  0
 11 12  1  0  0  0  0
 11 24  1  0  0  0  0
 11 25  1  0  0  0  0
 12 17  1  0  0  0  0
 12 13  1  0  0  0  0
 13 14  2  0  0  0  0
 13 15  1  0  0  0  0
M  CHG  1  15  -1
M  END
> <s_m_source_file>
AV-unprocessed.smi

> <i_m_source_file_index>
43

> <i_lp_mmshare_version>
43012

> <i_f3d_flags>
0

> <s_epik_input>
W0NIM11uMW5ubmMxTjJbQ0gyXVtDQEhdKFtPSF0pW0NIMl1bQ0BIXTJDKD1PKVtPSF0=

> <s_epik_cmdline>
J2VwaWtfcHl0aG9uJywgJy1waCcsICc3LjAnLCAnLXRuJywgJzgnLCAnLW1hJywgJzIwMCcsICctbWV0YWxfYmluZGluZycsICctaW1hZScsICc8aW5maWxlLm1hZT4nLCAnLW9tYWUnLCAnPG91dGZpbGUubWFlPic=

> <r_lp_tautomer_probability>
1

> <r_epik_Ionization_Penalty>
0.000193127

> <r_epik_Ionization_Penalty_Charging>
0.000192933

> <r_epik_Ionization_Penalty_Neutral>
1.93728e-07

> <r_epik_State_Penalty>
-0

> <r_epik_Charging_Adjusted_Penalty>
0.000192933

> <i_epik_Tot_Q>
-1

> <i_epik_Tot_abs_Q>
1

> <r_epik_Metal_State_Penalty>
-0

> <b_epik_Metal_Only>
0

> <s_lp_Force_Field>
OPLS_2005

> <r_lp_Energy>
21.006

> <b_lp_Chiralities_Consistent>
1

> <s_lp_Variant>
AV-unprocessed.smi:43-2

> <Gold.Version>
5.8.1

> <Gold.Id.Protein>
6NUR|6NUR_protein|mol2

> <Gold.PLP.Fitness>
42.5016

> <Gold.PLP.PLP>
-28.1692

> <Gold.PLP.part.hbond>
-5.6721

> <Gold.PLP.part.metal>
0.0000

> <Gold.PLP.part.buried>
-4.0092

> <Gold.PLP.part.nonpolar>
-20.3039

> <Gold.PLP.part.repulsive>
0.3564

> <Gold.PLP.ligand.clash>
0.0000

> <Gold.PLP.ligand.torsion>
0.0739

> <Gold.PLP.Chemscore.Hbond>
4.8240

> <Gold.PLP.Chemscore.CHOScore>
0.0000

> <Gold.PLP.Chemscore.Metal>
0.0000

> <Gold.Chemscore.Hbonds>
donor molecule, donor type, donor heavy atom, donor atom, acceptor molecule, acceptor atom, score
      L1  H    10    23       P1  7957  1.00
      P1  H  7997  8009       L1    15  2.00
      P1  H 10752 10765       L1    14  1.73

> <Gold.PLP.Chemscore.Internal.Correction>
0.0081

> <Gold.Rescore>
     Score         DG    S(hbond)    S(metal)    S(lipo)     H(rot)  DE(clash)    DE(int)     intcor
     13.36     -15.25       2.85        0.00      39.06       1.69       0.14       1.75       ----

> <Gold.Chemscore.Fitness>
13.3550

> <Gold.Chemscore.DG>
-15.2477

> <Gold.Chemscore.ZeroCoef>
-5.4800

> <Gold.Chemscore.Hbond>
2.8505

> <Gold.Chemscore.Metal>
0.0000

> <Gold.Chemscore.Lipo>
39.0607

> <Gold.Chemscore.Internal_Hbond>
0.0000

> <Gold.Chemscore.DEClash>
0.1440

> <Gold.Chemscore.DEInternal>
1.7487

> <Gold.Chemscore.Rot>
1.6887

> <Gold.Chemscore.Internal.Correction>
   9.000000E+99

> <Gold.Chemscore.Hbonds>
donor molecule, donor type, donor heavy atom, donor atom, acceptor molecule, acceptor atom, score
      L1  H    10    23       P1  7957  0.99
      P1  H  7997  8009       L1    15  1.00
      P1  H 10752 10765       L1    14  0.85

> <Gold.Chemscore.Hbond.Weighted>
-9.5207

> <Gold.Chemscore.Metal.Weighted>
-0.0000

> <Gold.Chemscore.Lipo.Weighted>
-4.5701

> <Gold.Chemscore.Internal_Hbond.Weighted>
0.0000

> <Gold.Chemscore.DEClash.Weighted>
0.1440

> <Gold.Chemscore.DEInternal.Weighted>
1.7487

> <Gold.Chemscore.Rot.Weighted>
4.3232

> <Gold.Chemscore.Internal.Correction.Weighted>
   9.000000E+99

> <Gold.Protein.RotatedTorsions>
[ 6907 6896 6895 6894 ] final -110.41 input  -60.11 | X-H torsion
[ 7974 7965 7964 7962 ] final -100.22 input  175.53 | X-H torsion
[ 8008 7997 7996 7995 ] final -138.54 input   59.86 | X-H torsion
[ 10167 10162 10161 10158 ] final  -31.50 input  -65.29 | X-H torsion
[ 10718 10713 10712 10709 ] final  174.72 input   66.30 | X-H torsion
[ 10763 10752 10751 10750 ] final  152.43 input  -60.55 | X-H torsion
[ 11005 11000 10999 10996 ] final -117.56 input  -57.11 | X-H torsion

> <Gold.Protein.ActiveResidues>
 VAL166  LYS551  ARG553  GLY616  TRP617  ASP618  TYR619  PRO620  LYS621  CYS622 
 ASP623  PHE694  ASN695  SER759  ASP760  ASP761  ALA762  ILE779  LEU786  VAL792 
 PHE793  MET794  SER795  GLU796  ALA797  LYS798  CYS799  TRP800  GLU811  SER814 

> <Gold.Protein.RotatedAtoms>
  150.7623  133.9385  159.3448 H   0  0  0  0  0  0  0  0  0  0  0  0  # atno 6907 bound_to 6896
  151.7291  135.0876  160.0306 H   0  0  0  0  0  0  0  0  0  0  0  0  # atno 6908 bound_to 6896
  152.3601  133.6248  159.6044 H   0  0  0  0  0  0  0  0  0  0  0  0  # atno 6909 bound_to 6896
  145.2974  140.9368  143.2843 H   0  0  0  0  0  0  0  0  0  0  0  0  # atno 7974 bound_to 7965
  155.4300  140.0524  157.3019 H   0  0  0  0  0  0  0  0  0  0  0  0  # atno 8008 bound_to 7997
  154.4864  140.2102  155.9604 H   0  0  0  0  0  0  0  0  0  0  0  0  # atno 8009 bound_to 7997
  156.1280  140.3176  155.8312 H   0  0  0  0  0  0  0  0  0  0  0  0  # atno 8010 bound_to 7997
  140.7235  143.3766  151.1678 H   0  0  0  0  0  0  0  0  0  0  0  0  # atno 10167 bound_to 10162
  156.9454  131.0014  151.2960 H   0  0  0  0  0  0  0  0  0  0  0  0  # atno 10718 bound_to 10713
  154.1199  135.2833  155.3211 H   0  0  0  0  0  0  0  0  0  0  0  0  # atno 10763 bound_to 10752
  154.6430  135.5395  153.7815 H   0  0  0  0  0  0  0  0  0  0  0  0  # atno 10764 bound_to 10752
  153.0316  135.6491  154.1354 H   0  0  0  0  0  0  0  0  0  0  0  0  # atno 10765 bound_to 10752
  141.0346  133.9929  157.3090 H   0  0  0  0  0  0  0  0  0  0  0  0  # atno 11005 bound_to 11000
  144.9122  139.4515  143.6581 LP  0  0  0  0  0  0  0  0  0  0  0  0  # atno 17320 bound_to 7965
  146.3164  139.7936  142.8980 LP  0  0  0  0  0  0  0  0  0  0  0  0  # atno 17321 bound_to 7965
  139.7347  143.9017  152.3031 LP  0  0  0  0  0  0  0  0  0  0  0  0  # atno 17342 bound_to 10162
  139.8818  144.7013  150.8869 LP  0  0  0  0  0  0  0  0  0  0  0  0  # atno 17343 bound_to 10162
  157.5757  130.8341  149.8453 LP  0  0  0  0  0  0  0  0  0  0  0  0  # atno 17370 bound_to 10713
  156.0386  130.3745  150.1494 LP  0  0  0  0  0  0  0  0  0  0  0  0  # atno 17371 bound_to 10713
  139.9232  135.0201  156.8139 LP  0  0  0  0  0  0  0  0  0  0  0  0  # atno 17394 bound_to 11000
  140.6345  133.9875  155.7677 LP  0  0  0  0  0  0  0  0  0  0  0  0  # atno 17395 bound_to 11000

$$$$
