#       Name:                AV-unprocessed.smi:1762
#       Creating user name   scv26
#       Creation time:       Fri Mar 27 08:35:59 2020


#       File generated by GOLD software.
#

@<TRIPOS>MOLECULE
AV-unprocessed.smi:1762
    58    59     1
SMALL
NO_CHARGES


@<TRIPOS>ATOM
      1 ****        -2.5645   3.7353  -2.0473 C.3            1 S1                 0.0000
      2 ****        -2.9027   2.9090  -0.7934 C.3            1 S1                 0.0000
      3 ****        -2.4699   1.4333  -0.8995 C.3            1 S1                 0.0000
      4 ****        -0.9929   1.2851  -0.7776 N.4            1 S1                 1.0000
      5 ****        -0.4774  -0.1164  -0.9371 C.3            1 S1                 0.0000
      6 ****         1.0706  -0.1293  -0.9811 C.2            1 S1                 0.0000
      7 ****         1.6443   0.5652  -1.8271 O.2            1 S1                 0.0000
      8 ****         1.5831  -0.9247  -0.0037 N.pl3          1 S1                -1.0000
      9 ****         3.0114  -1.1416   0.2179 C.3            1 S1                 0.0000
     10 ****         3.2923  -1.3718   1.7210 C.3            1 S1                 0.0000
     11 ****         2.6853  -2.6421   2.3137 C.ar           1 S1                 0.0000
     12 ****         1.4418  -2.5986   2.9853 C.ar           1 S1                 0.0000
     13 ****         0.9250  -3.7900   3.5287 C.ar           1 S1                 0.0000
     14 ****         1.6685  -4.9773   3.3895 C.ar           1 S1                 0.0000
     15 ****         2.9018  -4.9192   2.7107 C.ar           1 S1                 0.0000
     16 ****         3.4077  -3.7824   2.1865 N.ar           1 S1                 0.0000
     17 ****        -1.0826  -0.9032  -2.1494 C.3            1 S1                 0.0000
     18 ****        -0.6062  -2.3679  -2.2112 C.3            1 S1                 0.0000
     19 ****        -0.8837  -0.2225  -3.5203 C.3            1 S1                 0.0000
     20 ****        -0.5509   1.9309   0.4911 C.3            1 S1                 0.0000
     21 ****        -0.9731   3.4082   0.5347 C.3            1 S1                 0.0000
     22 ****        -0.5831   4.0757   1.8583 C.3            1 S1                 0.0000
     23 ****        -2.3866   3.4976   0.3982 O.3            1 S1                 0.0000
     24 ****        -3.0903   3.3455  -2.9192 H              1 S1                 0.0000
     25 ****        -1.5000   3.7190  -2.2801 H              1 S1                 0.0000
     26 ****        -2.8645   4.7757  -1.9208 H              1 S1                 0.0000
     27 ****        -3.9880   2.9281  -0.6896 H              1 S1                 0.0000
     28 ****        -2.9504   0.8487  -0.1134 H              1 S1                 0.0000
     29 ****        -2.8412   1.0515  -1.8482 H              1 S1                 0.0000
     30 ****        -0.8134  -0.6464  -0.0420 H              1 S1                 0.0000
     31 ****         3.3816  -1.9920  -0.3551 H              1 S1                 0.0000
     32 ****         3.6065  -0.2871  -0.1080 H              1 S1                 0.0000
     33 ****         4.3714  -1.4084   1.8758 H              1 S1                 0.0000
     34 ****         2.9446  -0.5120   2.2956 H              1 S1                 0.0000
     35 ****         0.8928  -1.6724   3.0726 H              1 S1                 0.0000
     36 ****        -0.0245  -3.7925   4.0433 H              1 S1                 0.0000
     37 ****         1.3024  -5.9095   3.7932 H              1 S1                 0.0000
     38 ****         3.4993  -5.8103   2.5876 H              1 S1                 0.0000
     39 ****        -2.1560  -0.9842  -1.9837 H              1 S1                 0.0000
     40 ****         0.4507  -2.4442  -2.4694 H              1 S1                 0.0000
     41 ****        -1.1639  -2.9284  -2.9619 H              1 S1                 0.0000
     42 ****        -0.7509  -2.8691  -1.2536 H              1 S1                 0.0000
     43 ****         0.1606  -0.2366  -3.8317 H              1 S1                 0.0000
     44 ****        -1.2127   0.8160  -3.5157 H              1 S1                 0.0000
     45 ****        -1.4542  -0.7390  -4.2926 H              1 S1                 0.0000
     46 ****        -0.9750   1.3901   1.3390 H              1 S1                 0.0000
     47 ****         0.5318   1.8895   0.6055 H              1 S1                 0.0000
     48 ****        -0.4852   3.9531  -0.2739 H              1 S1                 0.0000
     49 ****         0.4961   4.0434   2.0109 H              1 S1                 0.0000
     50 ****        -1.0556   3.5784   2.7060 H              1 S1                 0.0000
     51 ****        -0.8886   5.1221   1.8726 H              1 S1                 0.0000
     52 ****        -0.5835   1.8155  -1.5333 H              1 S1                 0.0000
     53 ****         1.1097   1.1199  -2.4647 LP             1 S1                 0.0000
     54 ****         2.6432   0.5726  -1.8740 LP             1 S1                 0.0000
     55 ****         0.9402  -1.3918   0.6033 LP             1 S1                 0.0000
     56 ****         4.2909  -3.7815   1.7174 LP             1 S1                 0.0000
     57 ****        -2.8059   3.0378   1.1810 LP             1 S1                 0.0000
     58 ****        -2.6406   4.4648   0.4045 LP             1 S1                 0.0000
@<TRIPOS>BOND
    1    1    2 1     
    2    1   24 1     
    3    1   25 1     
    4    1   26 1     
    5    2   23 1     
    6    2    3 1     
    7    2   27 1     
    8    3    4 1     
    9    3   28 1     
   10    3   29 1     
   11    4    5 1     
   12    4   20 1     
   13    4   52 1     
   14    5    6 1     
   15    5   17 1     
   16    5   30 1     
   17    6    7 2     
   18    6    8 1     
   19    8    9 1     
   20    9   10 1     
   21    9   31 1     
   22    9   32 1     
   23   10   11 1     
   24   10   33 1     
   25   10   34 1     
   26   11   16 ar    
   27   11   12 ar    
   28   12   13 ar    
   29   12   35 1     
   30   13   14 ar    
   31   13   36 1     
   32   14   15 ar    
   33   14   37 1     
   34   15   16 ar    
   35   15   38 1     
   36   17   18 1     
   37   17   19 1     
   38   17   39 1     
   39   18   40 1     
   40   18   41 1     
   41   18   42 1     
   42   19   43 1     
   43   19   44 1     
   44   19   45 1     
   45   20   21 1     
   46   20   46 1     
   47   20   47 1     
   48   21   22 1     
   49   21   23 1     
   50   21   48 1     
   51   22   49 1     
   52   22   50 1     
   53   22   51 1     
   54    7   53 1     
   55    7   54 1     
   56    8   55 1     
   57   16   56 1     
   58   23   57 1     
   59   23   58 1     
@<TRIPOS>SUBSTRUCTURE
      1 S1             1
@<TRIPOS>SET
LONE_PAIRS      STATIC     ATOMS    <user>   **** ""
6 53 54 55 56 57 58
DONOR_HYDROGENS      STATIC     ATOMS    <user>   **** ""
1 52
ATOM$BLUE        STATIC     ATOMS    COLORGROUP SYSTEM
6 53 54 55 56 57 58
ATOM$RED        STATIC     ATOMS    COLORGROUP SYSTEM
1 52
