AV-unprocessed.smi:836|AV-procd|sdf|3891|dock1
  -GOLD-   22720 1343D 1   1.00000     0.00000
 Structure written by MMmdl.
 38 39  0  0  0  0  0  0  0  0  1 V2000
  146.1375  139.8248  154.5108 C   0  0  0  0  0  0  0  0  0  0  0  0
  147.6330  139.7446  154.1730 C   0  0  2  0  0  0  0  0  0  0  0  0
  148.2787  138.4800  154.7707 C   0  0  0  0  0  0  0  0  0  0  0  0
  149.7788  138.3961  154.4365 C   0  0  0  0  0  0  0  0  0  0  0  0
  150.5460  139.6600  154.8765 C   0  0  2  0  0  0  0  0  0  0  0  0
  150.6273  139.7488  156.3321 N   0  0  0  0  0  0  0  0  0  0  0  0
  151.7347  139.5764  157.0710 C   0  0  0  0  0  0  0  0  0  0  0  0
  152.8336  139.2967  156.5927 O   0  0  0  0  0  0  0  0  0  0  0  0
  151.5774  139.7336  158.5856 C   0  0  0  0  0  0  0  0  0  0  0  0
  152.1668  140.9752  159.0582 N   0  0  0  0  0  0  0  0  0  0  0  0
  153.2115  141.1468  159.9407 C   0  0  0  0  0  0  0  0  0  0  0  0
  153.4212  142.4902  160.0642 C   0  0  0  0  0  0  0  0  0  0  0  0
  152.4435  143.0746  159.2074 C   0  0  0  0  0  0  0  0  0  0  0  0
  152.1939  144.5340  158.9314 C   0  0  0  0  0  0  0  0  0  0  0  0
  152.1687  145.2230  160.0722 F   0  0  0  0  0  0  0  0  0  0  0  0
  153.1624  145.0223  158.1565 F   0  0  0  0  0  0  0  0  0  0  0  0
  151.0232  144.6853  158.3123 F   0  0  0  0  0  0  0  0  0  0  0  0
  151.6932  142.1582  158.6104 N   0  0  0  0  0  0  0  0  0  0  0  0
  149.8851  140.9293  154.3060 C   0  0  0  0  0  0  0  0  0  0  0  0
  148.3845  141.0058  154.6406 C   0  0  0  0  0  0  0  0  0  0  0  0
  145.9771  139.8876  155.5875 H   0  0  0  0  0  0  0  0  0  0  0  0
  145.6045  138.9469  154.1448 H   0  0  0  0  0  0  0  0  0  0  0  0
  145.6783  140.7019  154.0538 H   0  0  0  0  0  0  0  0  0  0  0  0
  147.7210  139.6850  153.0872 H   0  0  0  0  0  0  0  0  0  0  0  0
  148.1430  138.4714  155.8533 H   0  0  0  0  0  0  0  0  0  0  0  0
  147.7735  137.5905  154.3931 H   0  0  0  0  0  0  0  0  0  0  0  0
  150.2145  137.5072  154.8943 H   0  0  0  0  0  0  0  0  0  0  0  0
  149.8948  138.2672  153.3596 H   0  0  0  0  0  0  0  0  0  0  0  0
  151.5614  139.6069  154.4795 H   0  0  0  0  0  0  0  0  0  0  0  0
  149.7709  139.9714  156.8193 H   0  0  0  0  0  0  0  0  0  0  0  0
  150.5189  139.7057  158.8488 H   0  0  0  0  0  0  0  0  0  0  0  0
  152.0594  138.9016  159.1007 H   0  0  0  0  0  0  0  0  0  0  0  0
  153.7154  140.3077  160.3977 H   0  0  0  0  0  0  0  0  0  0  0  0
  154.1642  142.9829  160.6737 H   0  0  0  0  0  0  0  0  0  0  0  0
  150.3958  141.8193  154.6761 H   0  0  0  0  0  0  0  0  0  0  0  0
  150.0084  140.9394  153.2223 H   0  0  0  0  0  0  0  0  0  0  0  0
  147.9531  141.8909  154.1720 H   0  0  0  0  0  0  0  0  0  0  0  0
  148.2544  141.1361  155.7158 H   0  0  0  0  0  0  0  0  0  0  0  0
  1  2  1  0  0  0  0
  1 21  1  0  0  0  0
  1 22  1  0  0  0  0
  1 23  1  0  0  0  0
  2 20  1  0  0  0  0
  2  3  1  0  0  0  0
  2 24  1  0  0  0  0
  3  4  1  0  0  0  0
  3 25  1  0  0  0  0
  3 26  1  0  0  0  0
  4  5  1  0  0  0  0
  4 27  1  0  0  0  0
  4 28  1  0  0  0  0
  5  6  1  0  0  0  0
  5 19  1  0  0  0  0
  5 29  1  0  0  0  0
  6  7  1  0  0  0  0
  6 30  1  0  0  0  0
  7  8  2  0  0  0  0
  7  9  1  0  0  0  0
  9 10  1  0  0  0  0
  9 31  1  0  0  0  0
  9 32  1  0  0  0  0
 10 18  1  0  0  0  0
 10 11  1  0  0  0  0
 11 12  2  0  0  0  0
 11 33  1  0  0  0  0
 12 13  1  0  0  0  0
 12 34  1  0  0  0  0
 13 14  1  0  0  0  0
 13 18  2  0  0  0  0
 14 15  1  0  0  0  0
 14 16  1  0  0  0  0
 14 17  1  0  0  0  0
 19 20  1  0  0  0  0
 19 35  1  0  0  0  0
 19 36  1  0  0  0  0
 20 37  1  0  0  0  0
 20 38  1  0  0  0  0
M  END
> <s_m_source_file>
AV-unprocessed.smi

> <i_m_source_file_index>
836

> <i_lp_mmshare_version>
43012

> <i_f3d_flags>
0

> <s_epik_input>
W0NIM11bQ0BASF0xW0NIMl1bQ0gyXVtDQEhdKFtDSDJdW0NIMl0xKVtOSF1DKD1PKVtDSDJdbjJbY0hdW2NIXWMobjIpQyhGKShGKUY=

> <s_epik_cmdline>
J2VwaWtfcHl0aG9uJywgJy1waCcsICc3LjAnLCAnLXRuJywgJzgnLCAnLW1hJywgJzIwMCcsICctbWV0YWxfYmluZGluZycsICctaW1hZScsICc8aW5maWxlLm1hZT4nLCAnLW9tYWUnLCAnPG91dGZpbGUubWFlPic=

> <r_lp_tautomer_probability>
1

> <r_epik_Ionization_Penalty>
8.28749e-08

> <r_epik_Ionization_Penalty_Charging>
0

> <r_epik_Ionization_Penalty_Neutral>
8.28749e-08

> <r_epik_State_Penalty>
-0

> <r_epik_Charging_Adjusted_Penalty>
0

> <i_epik_Tot_Q>
0

> <i_epik_Tot_abs_Q>
0

> <r_epik_Metal_State_Penalty>
-0

> <b_epik_Metal_Only>
0

> <s_lp_Force_Field>
OPLS_2005

> <r_lp_Energy>
10.0253

> <b_lp_Chiralities_Consistent>
1

> <s_lp_Variant>
AV-unprocessed.smi:836-2

> <Gold.Version>
5.8.1

> <Gold.Id.Protein>
6NUR|6NUR_protein|mol2

> <Gold.PLP.Fitness>
43.6229

> <Gold.PLP.PLP>
-42.0122

> <Gold.PLP.part.hbond>
-1.0000

> <Gold.PLP.part.metal>
0.0000

> <Gold.PLP.part.buried>
-3.3559

> <Gold.PLP.part.nonpolar>
-37.4447

> <Gold.PLP.part.repulsive>
0.0584

> <Gold.PLP.ligand.clash>
0.0000

> <Gold.PLP.ligand.torsion>
0.7053

> <Gold.PLP.Chemscore.Hbond>
1.0000

> <Gold.PLP.Chemscore.CHOScore>
0.0000

> <Gold.PLP.Chemscore.Metal>
0.0000

> <Gold.Chemscore.Hbonds>
donor molecule, donor type, donor heavy atom, donor atom, acceptor molecule, acceptor atom, score
      P1  H  7997  8008       L1     8  1.00

> <Gold.PLP.Chemscore.Internal.Correction>
0.0212

> <Gold.Rescore>
     Score         DG    S(hbond)    S(metal)    S(lipo)     H(rot)  DE(clash)    DE(int)     intcor
     13.82     -14.26       1.00        0.00      80.34       1.54       0.07       0.37       ----

> <Gold.Chemscore.Fitness>
13.8211

> <Gold.Chemscore.DG>
-14.2627

> <Gold.Chemscore.ZeroCoef>
-5.4800

> <Gold.Chemscore.Hbond>
0.9973

> <Gold.Chemscore.Metal>
0.0000

> <Gold.Chemscore.Lipo>
80.3405

> <Gold.Chemscore.Internal_Hbond>
0.0000

> <Gold.Chemscore.DEClash>
0.0696

> <Gold.Chemscore.DEInternal>
0.3720

> <Gold.Chemscore.Rot>
1.5422

> <Gold.Chemscore.Internal.Correction>
   9.000000E+99

> <Gold.Chemscore.Hbonds>
donor molecule, donor type, donor heavy atom, donor atom, acceptor molecule, acceptor atom, score
      P1  H  7997  8008       L1     8  0.97

> <Gold.Chemscore.Hbond.Weighted>
-3.3309

> <Gold.Chemscore.Metal.Weighted>
-0.0000

> <Gold.Chemscore.Lipo.Weighted>
-9.3998

> <Gold.Chemscore.Internal_Hbond.Weighted>
0.0000

> <Gold.Chemscore.DEClash.Weighted>
0.0696

> <Gold.Chemscore.DEInternal.Weighted>
0.3720

> <Gold.Chemscore.Rot.Weighted>
3.9479

> <Gold.Chemscore.Internal.Correction.Weighted>
   9.000000E+99

> <Gold.Protein.RotatedTorsions>
[ 6907 6896 6895 6894 ] final   76.12 input  -60.11 | X-H torsion
[ 7974 7965 7964 7962 ] final   20.51 input  175.53 | X-H torsion
[ 8008 7997 7996 7995 ] final  -33.35 input   59.86 | X-H torsion
[ 10167 10162 10161 10158 ] final  117.28 input  -65.29 | X-H torsion
[ 10718 10713 10712 10709 ] final   39.33 input   66.30 | X-H torsion
[ 10763 10752 10751 10750 ] final -106.86 input  -60.55 | X-H torsion
[ 11005 11000 10999 10996 ] final -163.84 input  -57.11 | X-H torsion

> <Gold.Protein.ActiveResidues>
 VAL166  LYS551  ARG553  GLY616  TRP617  ASP618  TYR619  PRO620  LYS621  CYS622 
 ASP623  PHE694  ASN695  SER759  ASP760  ASP761  ALA762  ILE779  LEU786  VAL792 
 PHE793  MET794  SER795  GLU796  ALA797  LYS798  CYS799  TRP800  GLU811  SER814 

> <Gold.Protein.RotatedAtoms>
  152.5058  134.4017  159.9418 H   0  0  0  0  0  0  0  0  0  0  0  0  # atno 6907 bound_to 6896
  151.3982  133.3760  159.2737 H   0  0  0  0  0  0  0  0  0  0  0  0  # atno 6908 bound_to 6896
  150.9382  134.8814  159.7654 H   0  0  0  0  0  0  0  0  0  0  0  0  # atno 6909 bound_to 6896
  146.2108  139.8159  142.8690 H   0  0  0  0  0  0  0  0  0  0  0  0  # atno 7974 bound_to 7965
  154.4152  140.1713  156.1873 H   0  0  0  0  0  0  0  0  0  0  0  0  # atno 8008 bound_to 7997
  155.9632  140.3392  155.6485 H   0  0  0  0  0  0  0  0  0  0  0  0  # atno 8009 bound_to 7997
  155.6721  140.0713  157.2507 H   0  0  0  0  0  0  0  0  0  0  0  0  # atno 8010 bound_to 7997
  139.6189  144.7097  151.2678 H   0  0  0  0  0  0  0  0  0  0  0  0  # atno 10167 bound_to 10162
  157.3693  130.7692  149.7107 H   0  0  0  0  0  0  0  0  0  0  0  0  # atno 10718 bound_to 10713
  154.8039  135.4696  154.0344 H   0  0  0  0  0  0  0  0  0  0  0  0  # atno 10763 bound_to 10752
  153.1828  135.6843  153.8462 H   0  0  0  0  0  0  0  0  0  0  0  0  # atno 10764 bound_to 10752
  153.8006  135.3230  155.3367 H   0  0  0  0  0  0  0  0  0  0  0  0  # atno 10765 bound_to 10752
  140.5936  134.5019  157.5196 H   0  0  0  0  0  0  0  0  0  0  0  0  # atno 11005 bound_to 11000
  145.3146  141.0228  143.3535 LP  0  0  0  0  0  0  0  0  0  0  0  0  # atno 17320 bound_to 7965
  144.8910  139.4774  143.6677 LP  0  0  0  0  0  0  0  0  0  0  0  0  # atno 17321 bound_to 7965
  140.7369  143.6693  150.8095 LP  0  0  0  0  0  0  0  0  0  0  0  0  # atno 17342 bound_to 10162
  140.0301  143.5452  152.2764 LP  0  0  0  0  0  0  0  0  0  0  0  0  # atno 17343 bound_to 10162
  155.9752  130.4092  150.3864 LP  0  0  0  0  0  0  0  0  0  0  0  0  # atno 17370 bound_to 10713
  157.1953  131.0425  151.2679 LP  0  0  0  0  0  0  0  0  0  0  0  0  # atno 17371 bound_to 10713
  139.9263  134.8050  156.1060 LP  0  0  0  0  0  0  0  0  0  0  0  0  # atno 17394 bound_to 11000
  141.0918  133.6711  156.2558 LP  0  0  0  0  0  0  0  0  0  0  0  0  # atno 17395 bound_to 11000

$$$$
