#       Name:                AV-unprocessed.smi:478
#       Creating user name   scv26
#       Creation time:       Thu Mar 26 23:08:46 2020


#       File generated by GOLD software.
#

@<TRIPOS>MOLECULE
AV-unprocessed.smi:478
    48    49     1
SMALL
NO_CHARGES


@<TRIPOS>ATOM
      1 ****        -5.1007   2.4948   2.4385 C.3            1 S1                 0.0000
      2 ****        -3.6790   2.1902   2.6304 N.3            1 S1                 0.0000
      3 ****        -3.1592   2.6807   3.9118 C.3            1 S1                 0.0000
      4 ****        -3.1497   0.6236   2.1153 S.o2           1 S1                 0.0000
      5 ****        -3.5027  -0.3313   3.1775 O.2            1 S1                 0.0000
      6 ****        -3.6519   0.4128   0.7483 O.2            1 S1                 0.0000
      7 ****        -1.3404   0.7019   2.0206 C.2            1 S1                 0.0000
      8 ****        -0.5246   0.2235   3.1134 C.2            1 S1                 0.0000
      9 ****         0.8145   0.1507   2.9785 C.2            1 S1                 0.0000
     10 ****         1.4860   0.5451   1.7344 C.2            1 S1                 0.0000
     11 ****         2.7097   0.4956   1.6080 O.2            1 S1                 0.0000
     12 ****         0.6667   0.9652   0.7214 N.am           1 S1                 0.0000
     13 ****         1.2237   1.3654  -0.5809 C.3            1 S1                 0.0000
     14 ****         1.5352   0.1583  -1.4768 C.2            1 S1                 0.0000
     15 ****         0.6785  -0.7164  -1.6249 O.2            1 S1                 0.0000
     16 ****         2.7638   0.1646  -2.0445 N.am           1 S1                 0.0000
     17 ****         3.3691  -0.7229  -2.8696 C.2            1 S1                 0.0000
     18 ****         4.5049  -0.5084  -3.2903 O.2            1 S1                 0.0000
     19 ****         2.6743  -1.8286  -3.1962 N.am           1 S1                 0.0000
     20 ****         3.1227  -2.8722  -4.0598 C.3            1 S1                 0.0000
     21 ****         2.0746  -3.6079  -4.8665 C.3            1 S1                 0.0000
     22 ****         2.7410  -4.2932  -3.7061 C.3            1 S1                 0.0000
     23 ****        -0.7340   1.0184   0.8645 C.2            1 S1                 0.0000
     24 ****        -5.3030   3.5464   2.6442 H              1 S1                 0.0000
     25 ****        -5.7111   1.8829   3.1035 H              1 S1                 0.0000
     26 ****        -5.3984   2.2918   1.4098 H              1 S1                 0.0000
     27 ****        -3.4228   3.7285   4.0590 H              1 S1                 0.0000
     28 ****        -2.0730   2.6030   3.9402 H              1 S1                 0.0000
     29 ****        -3.5708   2.0972   4.7363 H              1 S1                 0.0000
     30 ****        -0.9861  -0.0739   4.0435 H              1 S1                 0.0000
     31 ****         1.4102  -0.2069   3.8055 H              1 S1                 0.0000
     32 ****         0.5274   2.0130  -1.1156 H              1 S1                 0.0000
     33 ****         2.1200   1.9719  -0.4353 H              1 S1                 0.0000
     34 ****         3.3282   0.9699  -1.8161 H              1 S1                 0.0000
     35 ****         1.7489  -1.9320  -2.8038 H              1 S1                 0.0000
     36 ****         4.0904  -2.7421  -4.5424 H              1 S1                 0.0000
     37 ****         1.0347  -3.3116  -4.7425 H              1 S1                 0.0000
     38 ****         2.3494  -3.9329  -5.8679 H              1 S1                 0.0000
     39 ****         3.4619  -5.0764  -3.9321 H              1 S1                 0.0000
     40 ****         2.1468  -4.4524  -2.8082 H              1 S1                 0.0000
     41 ****        -1.2736   1.3127  -0.0241 H              1 S1                 0.0000
     42 ****        -3.2044   2.7461   1.9479 LP             1 S1                 0.0000
     43 ****         3.2783   0.1791   2.3672 LP             1 S1                 0.0000
     44 ****         3.1349   0.7720   0.7461 LP             1 S1                 0.0000
     45 ****        -0.2053  -0.6338  -1.1643 LP             1 S1                 0.0000
     46 ****         0.8676  -1.5082  -2.2056 LP             1 S1                 0.0000
     47 ****         4.9877   0.3257  -3.0235 LP             1 S1                 0.0000
     48 ****         4.9454  -1.1681  -3.8991 LP             1 S1                 0.0000
@<TRIPOS>BOND
    1    1    2 1     
    2    1   24 1     
    3    1   25 1     
    4    1   26 1     
    5    2    3 1     
    6    2    4 1     
    7    3   27 1     
    8    3   28 1     
    9    3   29 1     
   10    4    5 2     
   11    4    6 2     
   12    4    7 1     
   13    7   23 2     
   14    7    8 1     
   15    8    9 2     
   16    8   30 1     
   17    9   10 1     
   18    9   31 1     
   19   10   11 2     
   20   10   12 am    
   21   12   13 1     
   22   12   23 1     
   23   13   14 1     
   24   13   32 1     
   25   13   33 1     
   26   14   15 2     
   27   14   16 1     
   28   16   17 1     
   29   16   34 1     
   30   17   18 2     
   31   17   19 1     
   32   19   20 1     
   33   19   35 1     
   34   20   22 1     
   35   20   21 1     
   36   20   36 1     
   37   21   22 1     
   38   21   37 1     
   39   21   38 1     
   40   22   39 1     
   41   22   40 1     
   42   23   41 1     
   43    2   42 1     
   44   11   43 1     
   45   11   44 1     
   46   15   45 1     
   47   15   46 1     
   48   18   47 1     
   49   18   48 1     
@<TRIPOS>SUBSTRUCTURE
      1 S1             1
@<TRIPOS>SET
LONE_PAIRS      STATIC     ATOMS    <user>   **** ""
9 42 5 6 43 44 45 46 47 48
DONOR_HYDROGENS      STATIC     ATOMS    <user>   **** ""
2 34 35
ATOM$BLUE        STATIC     ATOMS    COLORGROUP SYSTEM
9 42 5 6 43 44 45 46 47 48
ATOM$RED        STATIC     ATOMS    COLORGROUP SYSTEM
2 34 35
