AV-unprocessed.smi:441|AV-procd|sdf|2582|dock8
  -GOLD-   2262022573D 1   1.00000     0.00000
 Structure written by MMmdl.
 34 35  0  0  0  0  0  0  0  0  1 V2000
  151.9542  139.7632  154.8599 O   0  0  0  0  0  0  0  0  0  0  0  0
  151.2176  139.8869  155.8396 C   0  0  0  0  0  0  0  0  0  0  0  0
  151.7808  139.7896  157.2652 C   0  0  0  0  0  0  0  0  0  0  0  0
  151.8326  141.0836  157.9619 N   0  0  0  0  0  0  0  0  0  0  0  0
  151.2677  142.1294  157.2528 N   0  0  0  0  0  0  0  0  0  0  0  0
  151.2406  143.3075  157.7738 C   0  0  0  0  0  0  0  0  0  0  0  0
  151.7877  143.5834  159.0837 C   0  0  0  0  0  0  0  0  0  0  0  0
  151.7224  145.1848  159.7307 Cl  0  0  0  0  0  0  0  0  0  0  0  0
  152.3447  142.5527  159.7678 C   0  0  0  0  0  0  0  0  0  0  0  0
  153.0220  142.8050  161.3400 Cl  0  0  0  0  0  0  0  0  0  0  0  0
  152.3932  141.1958  159.2055 C   0  0  0  0  0  0  0  0  0  0  0  0
  152.8912  140.2348  159.7934 O   0  0  0  0  0  0  0  0  0  0  0  0
  149.8947  140.0895  155.7435 N   0  0  0  0  0  0  0  0  0  0  0  0
  149.1472  140.2105  154.4953 C   0  0  0  0  0  0  0  0  0  0  0  0
  148.2750  141.4796  154.5375 C   0  0  0  0  0  0  0  0  0  0  0  0
  147.4215  141.6190  153.2664 C   0  0  0  0  0  0  0  0  0  0  0  0
  146.5589  140.3688  153.0341 C   0  0  0  0  0  0  0  0  0  0  0  0
  147.4242  139.0998  152.9862 C   0  0  0  0  0  0  0  0  0  0  0  0
  148.2787  138.9577  154.2562 C   0  0  0  0  0  0  0  0  0  0  0  0
  151.1892  139.0780  157.8444 H   0  0  0  0  0  0  0  0  0  0  0  0
  152.7799  139.3547  157.2027 H   0  0  0  0  0  0  0  0  0  0  0  0
  150.8036  144.1603  157.2541 H   0  0  0  0  0  0  0  0  0  0  0  0
  149.3657  140.1739  156.5995 H   0  0  0  0  0  0  0  0  0  0  0  0
  149.8525  140.3138  153.6683 H   0  0  0  0  0  0  0  0  0  0  0  0
  147.6201  141.4496  155.4097 H   0  0  0  0  0  0  0  0  0  0  0  0
  148.9048  142.3624  154.6538 H   0  0  0  0  0  0  0  0  0  0  0  0
  146.7852  142.5012  153.3404 H   0  0  0  0  0  0  0  0  0  0  0  0
  148.0724  141.7788  152.4059 H   0  0  0  0  0  0  0  0  0  0  0  0
  145.8223  140.2794  153.8336 H   0  0  0  0  0  0  0  0  0  0  0  0
  145.9971  140.4715  152.1055 H   0  0  0  0  0  0  0  0  0  0  0  0
  146.7899  138.2215  152.8652 H   0  0  0  0  0  0  0  0  0  0  0  0
  148.0746  139.1340  152.1112 H   0  0  0  0  0  0  0  0  0  0  0  0
  148.9087  138.0715  154.1725 H   0  0  0  0  0  0  0  0  0  0  0  0
  147.6255  138.7916  155.1139 H   0  0  0  0  0  0  0  0  0  0  0  0
  1  2  2  0  0  0  0
  2  3  1  0  0  0  0
  2 13  1  0  0  0  0
  3  4  1  0  0  0  0
  3 20  1  0  0  0  0
  3 21  1  0  0  0  0
  4 11  1  0  0  0  0
  4  5  1  0  0  0  0
  5  6  2  0  0  0  0
  6  7  1  0  0  0  0
  6 22  1  0  0  0  0
  7  8  1  0  0  0  0
  7  9  2  0  0  0  0
  9 10  1  0  0  0  0
  9 11  1  0  0  0  0
 11 12  2  0  0  0  0
 13 14  1  0  0  0  0
 13 23  1  0  0  0  0
 14 19  1  0  0  0  0
 14 15  1  0  0  0  0
 14 24  1  0  0  0  0
 15 16  1  0  0  0  0
 15 25  1  0  0  0  0
 15 26  1  0  0  0  0
 16 17  1  0  0  0  0
 16 27  1  0  0  0  0
 16 28  1  0  0  0  0
 17 18  1  0  0  0  0
 17 29  1  0  0  0  0
 17 30  1  0  0  0  0
 18 19  1  0  0  0  0
 18 31  1  0  0  0  0
 18 32  1  0  0  0  0
 19 33  1  0  0  0  0
 19 34  1  0  0  0  0
M  END
> <s_m_source_file>
AV-unprocessed.smi

> <i_m_source_file_index>
441

> <i_lp_mmshare_version>
43012

> <i_f3d_flags>
0

> <s_epik_input>
W0NIMl0xW0NIMl1bQ0gyXVtDSDJdW0NIMl1bQ0hdMVtOSF1DKD1PKVtDSDJdbjJuW2NIXWMoQ2wpYyhDbCljMj1P

> <s_epik_cmdline>
J2VwaWtfcHl0aG9uJywgJy1waCcsICc3LjAnLCAnLXRuJywgJzgnLCAnLW1hJywgJzIwMCcsICctbWV0YWxfYmluZGluZycsICctaW1hZScsICc8aW5maWxlLm1hZT4nLCAnLW9tYWUnLCAnPG91dGZpbGUubWFlPic=

> <r_lp_tautomer_probability>
1

> <r_epik_Ionization_Penalty>
1.90776e-08

> <r_epik_Ionization_Penalty_Charging>
3.07389e-11

> <r_epik_Ionization_Penalty_Neutral>
1.90469e-08

> <r_epik_State_Penalty>
-0

> <r_epik_Charging_Adjusted_Penalty>
3.07389e-11

> <i_epik_Tot_Q>
0

> <i_epik_Tot_abs_Q>
0

> <r_epik_Metal_State_Penalty>
-0

> <b_epik_Metal_Only>
0

> <s_lp_Force_Field>
OPLS_2005

> <r_lp_Energy>
22.7857

> <b_lp_Chiralities_Consistent>
1

> <s_lp_Variant>
AV-unprocessed.smi:441-1

> <Gold.Version>
5.8.1

> <Gold.Id.Protein>
6NUR|6NUR_protein|mol2

> <Gold.PLP.Fitness>
43.6973

> <Gold.PLP.PLP>
-38.4490

> <Gold.PLP.part.hbond>
-1.0000

> <Gold.PLP.part.metal>
0.0000

> <Gold.PLP.part.buried>
-2.3364

> <Gold.PLP.part.nonpolar>
-35.2170

> <Gold.PLP.part.repulsive>
0.1716

> <Gold.PLP.ligand.clash>
0.0000

> <Gold.PLP.ligand.torsion>
0.2702

> <Gold.PLP.Chemscore.Hbond>
0.9280

> <Gold.PLP.Chemscore.CHOScore>
1.0000

> <Gold.PLP.Chemscore.Metal>
0.0000

> <Gold.Chemscore.Hbonds>
donor molecule, donor type, donor heavy atom, donor atom, acceptor molecule, acceptor atom, score
      P1  H  7989  7998       L1     1  0.93
      L1  C     6    22       P1  8028  1.00

> <Gold.PLP.Chemscore.Internal.Correction>
0.0047

> <Gold.Rescore>
     Score         DG    S(hbond)    S(metal)    S(lipo)     H(rot)  DE(clash)    DE(int)     intcor
     14.59     -16.56       0.95        0.00     100.76       1.51       1.66       0.30       ----

> <Gold.Chemscore.Fitness>
14.5899

> <Gold.Chemscore.DG>
-16.5585

> <Gold.Chemscore.ZeroCoef>
-5.4800

> <Gold.Chemscore.Hbond>
0.9460

> <Gold.Chemscore.Metal>
0.0000

> <Gold.Chemscore.Lipo>
100.7616

> <Gold.Chemscore.Internal_Hbond>
0.0000

> <Gold.Chemscore.DEClash>
1.6646

> <Gold.Chemscore.DEInternal>
0.3039

> <Gold.Chemscore.Rot>
1.5118

> <Gold.Chemscore.Internal.Correction>
   9.000000E+99

> <Gold.Chemscore.Hbonds>
donor molecule, donor type, donor heavy atom, donor atom, acceptor molecule, acceptor atom, score
      P1  H  7989  7998       L1     1  0.85

> <Gold.Chemscore.Hbond.Weighted>
-3.1596

> <Gold.Chemscore.Metal.Weighted>
-0.0000

> <Gold.Chemscore.Lipo.Weighted>
-11.7891

> <Gold.Chemscore.Internal_Hbond.Weighted>
0.0000

> <Gold.Chemscore.DEClash.Weighted>
1.6646

> <Gold.Chemscore.DEInternal.Weighted>
0.3039

> <Gold.Chemscore.Rot.Weighted>
3.8702

> <Gold.Chemscore.Internal.Correction.Weighted>
   9.000000E+99

> <Gold.Protein.RotatedTorsions>
[ 6907 6896 6895 6894 ] final  130.65 input  -60.11 | X-H torsion
[ 7974 7965 7964 7962 ] final  137.74 input  175.53 | X-H torsion
[ 8008 7997 7996 7995 ] final  -86.62 input   59.86 | X-H torsion
[ 10167 10162 10161 10158 ] final -140.61 input  -65.29 | X-H torsion
[ 10718 10713 10712 10709 ] final  166.64 input   66.30 | X-H torsion
[ 10763 10752 10751 10750 ] final   15.15 input  -60.55 | X-H torsion
[ 11005 11000 10999 10996 ] final  -65.33 input  -57.11 | X-H torsion

> <Gold.Protein.ActiveResidues>
 VAL166  LYS551  ARG553  GLY616  TRP617  ASP618  TYR619  PRO620  LYS621  CYS622 
 ASP623  PHE694  ASN695  SER759  ASP760  ASP761  ALA762  ILE779  LEU786  VAL792 
 PHE793  MET794  SER795  GLU796  ALA797  LYS798  CYS799  TRP800  GLU811  SER814 

> <Gold.Protein.RotatedAtoms>
  152.3505  133.6174  159.5941 H   0  0  0  0  0  0  0  0  0  0  0  0  # atno 6907 bound_to 6896
  150.7535  133.9581  159.3516 H   0  0  0  0  0  0  0  0  0  0  0  0  # atno 6908 bound_to 6896
  151.7434  135.0850  160.0370 H   0  0  0  0  0  0  0  0  0  0  0  0  # atno 6909 bound_to 6896
  144.9439  139.4898  143.5558 H   0  0  0  0  0  0  0  0  0  0  0  0  # atno 7974 bound_to 7965
  154.6539  140.0576  156.9987 H   0  0  0  0  0  0  0  0  0  0  0  0  # atno 8008 bound_to 7997
  155.1329  140.3258  155.4451 H   0  0  0  0  0  0  0  0  0  0  0  0  # atno 8009 bound_to 7997
  156.2588  140.1977  156.6448 H   0  0  0  0  0  0  0  0  0  0  0  0  # atno 8010 bound_to 7997
  139.8265  143.7504  152.2666 H   0  0  0  0  0  0  0  0  0  0  0  0  # atno 10167 bound_to 10162
  157.0630  131.0345  151.2640 H   0  0  0  0  0  0  0  0  0  0  0  0  # atno 10718 bound_to 10713
  153.1553  135.6786  153.8822 H   0  0  0  0  0  0  0  0  0  0  0  0  # atno 10763 bound_to 10752
  153.8235  135.3127  155.3413 H   0  0  0  0  0  0  0  0  0  0  0  0  # atno 10764 bound_to 10752
  154.7893  135.4844  154.0103 H   0  0  0  0  0  0  0  0  0  0  0  0  # atno 10765 bound_to 10752
  141.1451  133.6680  156.5969 H   0  0  0  0  0  0  0  0  0  0  0  0  # atno 11005 bound_to 11000
  146.3296  139.8477  142.8878 LP  0  0  0  0  0  0  0  0  0  0  0  0  # atno 17320 bound_to 7965
  145.2948  141.0177  143.3642 LP  0  0  0  0  0  0  0  0  0  0  0  0  # atno 17321 bound_to 7965
  139.7699  144.7480  151.0240 LP  0  0  0  0  0  0  0  0  0  0  0  0  # atno 17342 bound_to 10162
  140.7810  143.4657  151.0216 LP  0  0  0  0  0  0  0  0  0  0  0  0  # atno 17343 bound_to 10162
  157.4939  130.7839  149.7535 LP  0  0  0  0  0  0  0  0  0  0  0  0  # atno 17370 bound_to 10713
  155.9973  130.3901  150.2747 LP  0  0  0  0  0  0  0  0  0  0  0  0  # atno 17371 bound_to 10713
  140.3719  134.7598  157.4604 LP  0  0  0  0  0  0  0  0  0  0  0  0  # atno 17394 bound_to 11000
  140.0704  134.5870  155.8648 LP  0  0  0  0  0  0  0  0  0  0  0  0  # atno 17395 bound_to 11000

$$$$
