AV-unprocessed.smi:2007|AV-procd|sdf|8140|dock8
  -GOLD-   2272010373D 1   1.00000     0.00000
 Structure written by MMmdl.
 36 37  0  0  0  0  0  0  0  0  3 V2000
  147.1009  140.6474  153.2282 C   0  0  0  0  0  0  0  0  0  0  0  0
  147.0975  139.1133  153.1983 C   0  0  1  0  0  0  0  0  0  0  0  0
  147.6062  138.5184  154.5316 C   0  0  0  0  0  0  0  0  0  0  0  0
  148.8993  137.8051  154.3810 N   0  3  0  0  0  0  0  0  0  0  0  0
  150.0824  138.6960  154.4333 C   0  0  0  0  0  0  0  0  0  0  0  0
  151.3569  137.8873  154.1411 C   0  0  0  0  0  0  0  0  0  0  0  0
  151.4709  136.8252  155.0817 O   0  0  0  0  0  0  0  0  0  0  0  0
  150.3731  135.9224  155.0041 C   0  0  0  0  0  0  0  0  0  0  0  0
  149.0641  136.6684  155.3148 C   0  0  0  0  0  0  0  0  0  0  0  0
  145.7446  138.6366  152.9026 N   0  0  0  0  0  0  0  0  0  0  0  0
  145.3361  137.3589  152.8658 C   0  0  0  0  0  0  0  0  0  0  0  0
  146.1501  136.4450  153.0150 O   0  0  0  0  0  0  0  0  0  0  0  0
  144.0038  137.2204  152.6920 N   0  5  0  0  0  0  0  0  0  0  0  0
  143.4714  135.9943  152.5629 C   0  0  0  0  0  0  0  0  0  0  0  0
  144.0983  134.9905  151.9381 N   0  0  0  0  0  0  0  0  0  0  0  0
  143.3640  133.8032  151.9209 C   0  0  0  0  0  0  0  0  0  0  0  0
  142.1528  133.9046  152.5524 C   0  0  0  0  0  0  0  0  0  0  0  0
  141.8969  135.5032  153.1918 S   0  0  0  0  0  0  0  0  0  0  0  0
  148.1025  141.0329  153.4207 H   0  0  0  0  0  0  0  0  0  0  0  0
  146.4405  141.0324  154.0061 H   0  0  0  0  0  0  0  0  0  0  0  0
  146.7677  141.0591  152.2749 H   0  0  0  0  0  0  0  0  0  0  0  0
  147.7729  138.8120  152.3966 H   0  0  0  0  0  0  0  0  0  0  0  0
  147.6917  139.2908  155.2976 H   0  0  0  0  0  0  0  0  0  0  0  0
  146.8557  137.8137  154.8934 H   0  0  0  0  0  0  0  0  0  0  0  0
  149.9846  139.5004  153.7046 H   0  0  0  0  0  0  0  0  0  0  0  0
  150.1501  139.1627  155.4170 H   0  0  0  0  0  0  0  0  0  0  0  0
  151.3417  137.4908  153.1242 H   0  0  0  0  0  0  0  0  0  0  0  0
  152.2358  138.5271  154.2209 H   0  0  0  0  0  0  0  0  0  0  0  0
  150.3338  135.4650  154.0139 H   0  0  0  0  0  0  0  0  0  0  0  0
  150.5262  135.1160  155.7213 H   0  0  0  0  0  0  0  0  0  0  0  0
  149.0687  137.0335  156.3430 H   0  0  0  0  0  0  0  0  0  0  0  0
  148.2216  135.9825  155.2180 H   0  0  0  0  0  0  0  0  0  0  0  0
  145.0384  139.3442  152.7594 H   0  0  0  0  0  0  0  0  0  0  0  0
  143.7819  132.9328  151.4374 H   0  0  0  0  0  0  0  0  0  0  0  0
  141.3999  133.1418  152.6814 H   0  0  0  0  0  0  0  0  0  0  0  0
  148.8812  137.4013  153.4541 H   0  0  0  0  0  0  0  0  0  0  0  0
  1  2  1  0  0  0  0
  1 19  1  0  0  0  0
  1 20  1  0  0  0  0
  1 21  1  0  0  0  0
  2  3  1  0  0  0  0
  2 10  1  0  0  0  0
  2 22  1  0  0  0  0
  3  4  1  0  0  0  0
  3 23  1  0  0  0  0
  3 24  1  0  0  0  0
  4  9  1  0  0  0  0
  4  5  1  0  0  0  0
  4 36  1  0  0  0  0
  5  6  1  0  0  0  0
  5 25  1  0  0  0  0
  5 26  1  0  0  0  0
  6  7  1  0  0  0  0
  6 27  1  0  0  0  0
  6 28  1  0  0  0  0
  7  8  1  0  0  0  0
  8  9  1  0  0  0  0
  8 29  1  0  0  0  0
  8 30  1  0  0  0  0
  9 31  1  0  0  0  0
  9 32  1  0  0  0  0
 10 11  1  0  0  0  0
 10 33  1  0  0  0  0
 11 12  2  0  0  0  0
 11 13  1  0  0  0  0
 13 14  1  0  0  0  0
 14 18  1  0  0  0  0
 14 15  2  0  0  0  0
 15 16  1  0  0  0  0
 16 17  2  0  0  0  0
 16 34  1  0  0  0  0
 17 18  1  0  0  0  0
 17 35  1  0  0  0  0
M  CHG  1   4   1
M  CHG  1  13  -1
M  END
> <s_m_source_file>
AV-unprocessed.smi

> <i_m_source_file_index>
2007

> <i_lp_mmshare_version>
43012

> <i_f3d_flags>
0

> <s_epik_input>
W0NIMl0xW0NIMl1PW0NIMl1bQ0gyXU4xW0NIMl1bQ0BASF0oW0NIM10pW05IXUMoPU8pW05IXWMybltjSF1bY0hdczI=

> <s_epik_cmdline>
J2VwaWtfcHl0aG9uJywgJy1waCcsICc3LjAnLCAnLXRuJywgJzgnLCAnLW1hJywgJzIwMCcsICctbWV0YWxfYmluZGluZycsICctaW1hZScsICc8aW5maWxlLm1hZT4nLCAnLW9tYWUnLCAnPG91dGZpbGUubWFlPic=

> <r_lp_tautomer_probability>
0.999

> <r_epik_Ionization_Penalty>
6.49226

> <r_epik_Ionization_Penalty_Charging>
5.74393

> <r_epik_Ionization_Penalty_Neutral>
0.748321

> <r_epik_State_Penalty>
5.94164

> <r_epik_Charging_Adjusted_Penalty>
11.6856

> <i_epik_Tot_Q>
0

> <i_epik_Tot_abs_Q>
2

> <r_epik_Metal_State_Penalty>
1.97606

> <b_epik_Metal_Only>
1

> <s_lp_Force_Field>
OPLS_2005

> <r_lp_Energy>
10.1675

> <b_lp_Chiralities_Consistent>
1

> <s_lp_Variant>
AV-unprocessed.smi:2007-8

> <Gold.Version>
5.8.1

> <Gold.Id.Protein>
6NUR|6NUR_protein|mol2

> <Gold.PLP.Fitness>
37.2810

> <Gold.PLP.PLP>
-27.3092

> <Gold.PLP.part.hbond>
-3.0000

> <Gold.PLP.part.metal>
0.0000

> <Gold.PLP.part.buried>
-4.3961

> <Gold.PLP.part.nonpolar>
-21.2944

> <Gold.PLP.part.repulsive>
1.1783

> <Gold.PLP.ligand.clash>
0.0000

> <Gold.PLP.ligand.torsion>
1.3495

> <Gold.PLP.Chemscore.Hbond>
4.0000

> <Gold.PLP.Chemscore.CHOScore>
0.1944

> <Gold.PLP.Chemscore.Metal>
0.0000

> <Gold.Chemscore.Hbonds>
donor molecule, donor type, donor heavy atom, donor atom, acceptor molecule, acceptor atom, score
      L1  H     4    36       P1  7948  2.00
      L1  H    10    33       P1 10175  1.00
      P1  H 10752 10764       L1     7  1.00
      L1  C    17    35       P1 10957  0.14

> <Gold.PLP.Chemscore.Internal.Correction>
0.0876

> <Gold.Rescore>
     Score         DG    S(hbond)    S(metal)    S(lipo)     H(rot)  DE(clash)    DE(int)     intcor
     13.20     -17.63       2.76        0.00      60.03       1.60       0.38       4.05       ----

> <Gold.Chemscore.Fitness>
13.2008

> <Gold.Chemscore.DG>
-17.6346

> <Gold.Chemscore.ZeroCoef>
-5.4800

> <Gold.Chemscore.Hbond>
2.7620

> <Gold.Chemscore.Metal>
0.0000

> <Gold.Chemscore.Lipo>
60.0276

> <Gold.Chemscore.Internal_Hbond>
0.0000

> <Gold.Chemscore.DEClash>
0.3824

> <Gold.Chemscore.DEInternal>
4.0514

> <Gold.Chemscore.Rot>
1.5991

> <Gold.Chemscore.Internal.Correction>
   9.000000E+99

> <Gold.Chemscore.Hbonds>
donor molecule, donor type, donor heavy atom, donor atom, acceptor molecule, acceptor atom, score
      L1  H     4    36       P1  7948  0.99
      L1  H    10    33       P1 10175  1.00
      P1  H 10752 10764       L1     7  0.22

> <Gold.Chemscore.Hbond.Weighted>
-9.2250

> <Gold.Chemscore.Metal.Weighted>
-0.0000

> <Gold.Chemscore.Lipo.Weighted>
-7.0232

> <Gold.Chemscore.Internal_Hbond.Weighted>
0.0000

> <Gold.Chemscore.DEClash.Weighted>
0.3824

> <Gold.Chemscore.DEInternal.Weighted>
4.0514

> <Gold.Chemscore.Rot.Weighted>
4.0936

> <Gold.Chemscore.Internal.Correction.Weighted>
   9.000000E+99

> <Gold.Protein.RotatedTorsions>
[ 6907 6896 6895 6894 ] final   12.82 input  -60.11 | X-H torsion
[ 7974 7965 7964 7962 ] final  131.99 input  175.53 | X-H torsion
[ 8008 7997 7996 7995 ] final  -44.16 input   59.86 | X-H torsion
[ 10167 10162 10161 10158 ] final -142.74 input  -65.29 | X-H torsion
[ 10718 10713 10712 10709 ] final  134.84 input   66.30 | X-H torsion
[ 10763 10752 10751 10750 ] final  -43.86 input  -60.55 | X-H torsion
[ 11005 11000 10999 10996 ] final -176.43 input  -57.11 | X-H torsion

> <Gold.Protein.ActiveResidues>
 VAL166  LYS551  ARG553  GLY616  TRP617  ASP618  TYR619  PRO620  LYS621  CYS622 
 ASP623  PHE694  ASN695  SER759  ASP760  ASP761  ALA762  ILE779  LEU786  VAL792 
 PHE793  MET794  SER795  GLU796  ALA797  LYS798  CYS799  TRP800  GLU811  SER814 

> <Gold.Protein.RotatedAtoms>
  151.7764  135.0773  160.0367 H   0  0  0  0  0  0  0  0  0  0  0  0  # atno 6907 bound_to 6896
  152.3253  133.5894  159.5781 H   0  0  0  0  0  0  0  0  0  0  0  0  # atno 6908 bound_to 6896
  150.7392  133.9865  159.3635 H   0  0  0  0  0  0  0  0  0  0  0  0  # atno 6909 bound_to 6896
  145.0015  139.4307  143.5290 H   0  0  0  0  0  0  0  0  0  0  0  0  # atno 7974 bound_to 7965
  154.3997  140.1429  156.3638 H   0  0  0  0  0  0  0  0  0  0  0  0  # atno 8008 bound_to 7997
  155.8157  140.3471  155.5463 H   0  0  0  0  0  0  0  0  0  0  0  0  # atno 8009 bound_to 7997
  155.8341  140.0916  157.1765 H   0  0  0  0  0  0  0  0  0  0  0  0  # atno 8010 bound_to 7997
  139.8059  143.7769  152.2661 H   0  0  0  0  0  0  0  0  0  0  0  0  # atno 10167 bound_to 10162
  157.4631  131.1075  150.9895 H   0  0  0  0  0  0  0  0  0  0  0  0  # atno 10718 bound_to 10713
  154.0025  135.6691  153.4760 H   0  0  0  0  0  0  0  0  0  0  0  0  # atno 10763 bound_to 10752
  153.0656  135.5003  154.8188 H   0  0  0  0  0  0  0  0  0  0  0  0  # atno 10764 bound_to 10752
  154.7044  135.3085  154.9256 H   0  0  0  0  0  0  0  0  0  0  0  0  # atno 10765 bound_to 10752
  140.4522  134.6333  157.4806 H   0  0  0  0  0  0  0  0  0  0  0  0  # atno 11005 bound_to 11000
  146.3453  139.9406  142.8741 LP  0  0  0  0  0  0  0  0  0  0  0  0  # atno 17320 bound_to 7965
  145.2147  140.9910  143.4080 LP  0  0  0  0  0  0  0  0  0  0  0  0  # atno 17321 bound_to 7965
  139.7903  144.7412  150.9964 LP  0  0  0  0  0  0  0  0  0  0  0  0  # atno 17342 bound_to 10162
  140.7819  143.4449  151.0497 LP  0  0  0  0  0  0  0  0  0  0  0  0  # atno 17343 bound_to 10162
  157.0685  130.5854  149.5398 LP  0  0  0  0  0  0  0  0  0  0  0  0  # atno 17370 bound_to 10713
  156.0038  130.5121  150.7757 LP  0  0  0  0  0  0  0  0  0  0  0  0  # atno 17371 bound_to 10713
  139.9999  134.6852  155.9547 LP  0  0  0  0  0  0  0  0  0  0  0  0  # atno 17394 bound_to 11000
  141.1659  133.6537  156.4478 LP  0  0  0  0  0  0  0  0  0  0  0  0  # atno 17395 bound_to 11000

$$$$
