AV-unprocessed.smi:2144|AV-procd|sdf|8730|dock7
  -GOLD-   2272011503D 1   1.00000     0.00000
 Structure written by MMmdl.
 40 42  0  0  0  0  0  0  0  0  1 V2000
  153.5285  139.7044  154.8598 O   0  0  0  0  0  0  0  0  0  0  0  0
  152.4900  139.6306  155.8118 C   0  0  0  0  0  0  0  0  0  0  0  0
  151.1387  139.9026  155.2236 C   0  0  0  0  0  0  0  0  0  0  0  0
  150.5756  139.0645  154.3524 N   0  0  0  0  0  0  0  0  0  0  0  0
  149.3614  139.6668  154.0899 C   0  0  0  0  0  0  0  0  0  0  0  0
  148.3008  139.2658  153.2463 C   0  0  0  0  0  0  0  0  0  0  0  0
  147.1345  140.0520  153.1431 C   0  0  0  0  0  0  0  0  0  0  0  0
  147.0119  141.2470  153.8811 C   0  0  0  0  0  0  0  0  0  0  0  0
  148.0579  141.6655  154.7258 C   0  0  0  0  0  0  0  0  0  0  0  0
  149.2215  140.8788  154.8228 C   0  0  0  0  0  0  0  0  0  0  0  0
  150.4083  141.0039  155.5389 N   0  0  0  0  0  0  0  0  0  0  0  0
  150.7445  142.0964  156.4440 C   0  0  0  0  0  0  0  0  0  0  0  0
  150.0244  141.9882  157.8040 C   0  0  2  0  0  0  0  0  0  0  0  0
  148.7149  142.5090  157.7015 O   0  0  0  0  0  0  0  0  0  0  0  0
  150.7624  142.7460  158.9168 C   0  0  0  0  0  0  0  0  0  0  0  0
  152.0814  142.2276  159.0254 O   0  0  0  0  0  0  0  0  0  0  0  0
  152.6558  142.1539  160.2763 C   0  0  0  0  0  0  0  0  0  0  0  0
  152.2700  142.9602  161.3776 C   0  0  0  0  0  0  0  0  0  0  0  0
  152.9108  142.8189  162.6240 C   0  0  0  0  0  0  0  0  0  0  0  0
  153.9408  141.8744  162.7863 C   0  0  0  0  0  0  0  0  0  0  0  0
  154.3304  141.0706  161.6994 C   0  0  0  0  0  0  0  0  0  0  0  0
  153.6908  141.2107  160.4527 C   0  0  0  0  0  0  0  0  0  0  0  0
  154.0753  140.4306  159.4142 F   0  0  0  0  0  0  0  0  0  0  0  0
  153.1695  140.0305  154.0490 H   0  0  0  0  0  0  0  0  0  0  0  0
  152.4962  138.6324  156.2507 H   0  0  0  0  0  0  0  0  0  0  0  0
  152.6865  140.3255  156.6281 H   0  0  0  0  0  0  0  0  0  0  0  0
  148.3843  138.3505  152.6793 H   0  0  0  0  0  0  0  0  0  0  0  0
  146.3297  139.7356  152.4958 H   0  0  0  0  0  0  0  0  0  0  0  0
  146.1143  141.8423  153.7986 H   0  0  0  0  0  0  0  0  0  0  0  0
  147.9664  142.5798  155.2929 H   0  0  0  0  0  0  0  0  0  0  0  0
  151.8247  142.0809  156.5934 H   0  0  0  0  0  0  0  0  0  0  0  0
  150.5198  143.0537  155.9762 H   0  0  0  0  0  0  0  0  0  0  0  0
  149.9345  140.9408  158.0930 H   0  0  0  0  0  0  0  0  0  0  0  0
  148.2938  142.4293  158.5440 H   0  0  0  0  0  0  0  0  0  0  0  0
  150.7812  143.8140  158.6928 H   0  0  0  0  0  0  0  0  0  0  0  0
  150.2407  142.6072  159.8655 H   0  0  0  0  0  0  0  0  0  0  0  0
  151.4837  143.6946  161.2930 H   0  0  0  0  0  0  0  0  0  0  0  0
  152.6105  143.4371  163.4572 H   0  0  0  0  0  0  0  0  0  0  0  0
  154.4310  141.7669  163.7429 H   0  0  0  0  0  0  0  0  0  0  0  0
  155.1210  140.3448  161.8212 H   0  0  0  0  0  0  0  0  0  0  0  0
  1  2  1  0  0  0  0
  1 24  1  0  0  0  0
  2  3  1  0  0  0  0
  2 25  1  0  0  0  0
  2 26  1  0  0  0  0
  3 11  1  0  0  0  0
  3  4  2  0  0  0  0
  4  5  1  0  0  0  0
  5 10  2  0  0  0  0
  5  6  1  0  0  0  0
  6  7  2  0  0  0  0
  6 27  1  0  0  0  0
  7  8  1  0  0  0  0
  7 28  1  0  0  0  0
  8  9  2  0  0  0  0
  8 29  1  0  0  0  0
  9 10  1  0  0  0  0
  9 30  1  0  0  0  0
 10 11  1  0  0  0  0
 11 12  1  0  0  0  0
 12 13  1  0  0  0  0
 12 31  1  0  0  0  0
 12 32  1  0  0  0  0
 13 14  1  0  0  0  0
 13 15  1  0  0  0  0
 13 33  1  0  0  0  0
 14 34  1  0  0  0  0
 15 16  1  0  0  0  0
 15 35  1  0  0  0  0
 15 36  1  0  0  0  0
 16 17  1  0  0  0  0
 17 22  1  0  0  0  0
 17 18  2  0  0  0  0
 18 19  1  0  0  0  0
 18 37  1  0  0  0  0
 19 20  2  0  0  0  0
 19 38  1  0  0  0  0
 20 21  1  0  0  0  0
 20 39  1  0  0  0  0
 21 22  2  0  0  0  0
 21 40  1  0  0  0  0
 22 23  1  0  0  0  0
M  END
> <s_m_source_file>
AV-unprocessed.smi

> <i_m_source_file_index>
2144

> <i_lp_mmshare_version>
43012

> <i_f3d_flags>
0

> <s_epik_input>
W2NIXTFbY0hdW2NIXVtjSF1jKGMxMiluKGMobjIpW0NIMl1bT0hdKVtDSDJdW0NASF0oW09IXSlbQ0gyXU9jM1tjSF1bY0hdW2NIXVtjSF1jM0Y=

> <s_epik_cmdline>
J2VwaWtfcHl0aG9uJywgJy1waCcsICc3LjAnLCAnLXRuJywgJzgnLCAnLW1hJywgJzIwMCcsICctbWV0YWxfYmluZGluZycsICctaW1hZScsICc8aW5maWxlLm1hZT4nLCAnLW9tYWUnLCAnPG91dGZpbGUubWFlPic=

> <r_lp_tautomer_probability>
1

> <r_epik_Ionization_Penalty>
0.0547315

> <r_epik_Ionization_Penalty_Charging>
0

> <r_epik_Ionization_Penalty_Neutral>
0.0547315

> <r_epik_State_Penalty>
0.047032

> <r_epik_Charging_Adjusted_Penalty>
0.047032

> <i_epik_Tot_Q>
0

> <i_epik_Tot_abs_Q>
0

> <r_epik_Metal_State_Penalty>
4.89471e-05

> <b_epik_Metal_Only>
0

> <s_lp_Force_Field>
OPLS_2005

> <r_lp_Energy>
15.0425

> <b_lp_Chiralities_Consistent>
1

> <s_lp_Variant>
AV-unprocessed.smi:2144-1

> <Gold.Version>
5.8.1

> <Gold.Id.Protein>
6NUR|6NUR_protein|mol2

> <Gold.PLP.Fitness>
55.7641

> <Gold.PLP.PLP>
-54.9207

> <Gold.PLP.part.hbond>
-2.5747

> <Gold.PLP.part.metal>
0.0000

> <Gold.PLP.part.buried>
-1.0260

> <Gold.PLP.part.nonpolar>
-50.6356

> <Gold.PLP.part.repulsive>
0.1402

> <Gold.PLP.ligand.clash>
0.0000

> <Gold.PLP.ligand.torsion>
1.0945

> <Gold.PLP.Chemscore.Hbond>
1.0000

> <Gold.PLP.Chemscore.CHOScore>
0.0000

> <Gold.PLP.Chemscore.Metal>
0.0000

> <Gold.Chemscore.Hbonds>
donor molecule, donor type, donor heavy atom, donor atom, acceptor molecule, acceptor atom, score
      P1  H  7997  8008       L1     1  0.36

> <Gold.PLP.Chemscore.Internal.Correction>
0.0325

> <Gold.Rescore>
     Score         DG    S(hbond)    S(metal)    S(lipo)     H(rot)  DE(clash)    DE(int)     intcor
     11.98     -13.06       0.05        0.00     133.92       3.22       0.09       0.99       ----

> <Gold.Chemscore.Fitness>
11.9783

> <Gold.Chemscore.DG>
-13.0620

> <Gold.Chemscore.ZeroCoef>
-5.4800

> <Gold.Chemscore.Hbond>
0.0467

> <Gold.Chemscore.Metal>
0.0000

> <Gold.Chemscore.Lipo>
133.9150

> <Gold.Chemscore.Internal_Hbond>
0.0000

> <Gold.Chemscore.DEClash>
0.0949

> <Gold.Chemscore.DEInternal>
0.9888

> <Gold.Chemscore.Rot>
3.2196

> <Gold.Chemscore.Internal.Correction>
   9.000000E+99

> <Gold.Chemscore.Hbonds>
donor molecule, donor type, donor heavy atom, donor atom, acceptor molecule, acceptor atom, score
      P1  H  7997  8008       L1     1  0.01

> <Gold.Chemscore.Hbond.Weighted>
-0.1561

> <Gold.Chemscore.Metal.Weighted>
-0.0000

> <Gold.Chemscore.Lipo.Weighted>
-15.6681

> <Gold.Chemscore.Internal_Hbond.Weighted>
0.0000

> <Gold.Chemscore.DEClash.Weighted>
0.0949

> <Gold.Chemscore.DEInternal.Weighted>
0.9888

> <Gold.Chemscore.Rot.Weighted>
8.2422

> <Gold.Chemscore.Internal.Correction.Weighted>
   9.000000E+99

> <Gold.Protein.RotatedTorsions>
[ 6907 6896 6895 6894 ] final  140.47 input  -60.11 | X-H torsion
[ 7974 7965 7964 7962 ] final  162.99 input  175.53 | X-H torsion
[ 8008 7997 7996 7995 ] final  -21.30 input   59.86 | X-H torsion
[ 10167 10162 10161 10158 ] final  -34.07 input  -65.29 | X-H torsion
[ 10718 10713 10712 10709 ] final   -6.06 input   66.30 | X-H torsion
[ 10763 10752 10751 10750 ] final  -72.50 input  -60.55 | X-H torsion
[ 11005 11000 10999 10996 ] final  -88.91 input  -57.11 | X-H torsion

> <Gold.Protein.ActiveResidues>
 VAL166  LYS551  ARG553  GLY616  TRP617  ASP618  TYR619  PRO620  LYS621  CYS622 
 ASP623  PHE694  ASN695  SER759  ASP760  ASP761  ALA762  ILE779  LEU786  VAL792 
 PHE793  MET794  SER795  GLU796  ALA797  LYS798  CYS799  TRP800  GLU811  SER814 

> <Gold.Protein.RotatedAtoms>
  152.2426  133.5148  159.5278 H   0  0  0  0  0  0  0  0  0  0  0  0  # atno 6907 bound_to 6896
  150.7069  134.1068  159.3994 H   0  0  0  0  0  0  0  0  0  0  0  0  # atno 6908 bound_to 6896
  151.8989  135.0386  160.0555 H   0  0  0  0  0  0  0  0  0  0  0  0  # atno 6909 bound_to 6896
  144.7610  139.8119  143.6332 H   0  0  0  0  0  0  0  0  0  0  0  0  # atno 7974 bound_to 7965
  154.4714  140.2038  155.9985 H   0  0  0  0  0  0  0  0  0  0  0  0  # atno 8008 bound_to 7997
  156.1017  140.3243  155.7922 H   0  0  0  0  0  0  0  0  0  0  0  0  # atno 8009 bound_to 7997
  155.4786  140.0537  157.2961 H   0  0  0  0  0  0  0  0  0  0  0  0  # atno 8010 bound_to 7997
  140.7192  143.3574  151.2032 H   0  0  0  0  0  0  0  0  0  0  0  0  # atno 10167 bound_to 10162
  156.7374  130.5199  149.5832 H   0  0  0  0  0  0  0  0  0  0  0  0  # atno 10718 bound_to 10713
  154.4465  135.5928  153.6163 H   0  0  0  0  0  0  0  0  0  0  0  0  # atno 10763 bound_to 10752
  152.9810  135.6010  154.3658 H   0  0  0  0  0  0  0  0  0  0  0  0  # atno 10764 bound_to 10752
  154.3514  135.2841  155.2349 H   0  0  0  0  0  0  0  0  0  0  0  0  # atno 10765 bound_to 10752
  141.1594  133.7598  156.9520 H   0  0  0  0  0  0  0  0  0  0  0  0  # atno 11005 bound_to 11000
  146.1673  139.4810  142.9950 LP  0  0  0  0  0  0  0  0  0  0  0  0  # atno 17320 bound_to 7965
  145.6619  141.0238  143.1704 LP  0  0  0  0  0  0  0  0  0  0  0  0  # atno 17321 bound_to 7965
  139.7118  143.9364  152.2951 LP  0  0  0  0  0  0  0  0  0  0  0  0  # atno 17342 bound_to 10162
  139.9091  144.6867  150.8581 LP  0  0  0  0  0  0  0  0  0  0  0  0  # atno 17343 bound_to 10162
  156.1488  130.6295  151.0567 LP  0  0  0  0  0  0  0  0  0  0  0  0  # atno 17370 bound_to 10713
  157.6833  131.0832  150.7311 LP  0  0  0  0  0  0  0  0  0  0  0  0  # atno 17371 bound_to 10713
  140.1251  134.9392  157.2258 LP  0  0  0  0  0  0  0  0  0  0  0  0  # atno 17394 bound_to 11000
  140.3023  134.3117  155.7287 LP  0  0  0  0  0  0  0  0  0  0  0  0  # atno 17395 bound_to 11000

$$$$
