#       Name:                AV-unprocessed.smi:1754
#       Creating user name   scv26
#       Creation time:       Fri Mar 27 08:28:42 2020


#       File generated by GOLD software.
#

@<TRIPOS>MOLECULE
AV-unprocessed.smi:1754
    47    48     1
SMALL
NO_CHARGES


@<TRIPOS>ATOM
      1 ****        -4.7769  -2.5128  -0.8159 C.3            1 S1                 0.0000
      2 ****        -4.7737  -1.7433   0.5141 C.3            1 S1                 0.0000
      3 ****        -4.2151  -0.3971   0.3902 N.pl3          1 S1                 0.0000
      4 ****        -5.0392   0.6040  -0.2913 C.3            1 S1                 0.0000
      5 ****        -4.8573   2.0209   0.2763 C.3            1 S1                 0.0000
      6 ****        -2.8113  -0.3433   0.2320 C.ar           1 S1                 0.0000
      7 ****        -1.9282  -1.0348   1.0953 C.ar           1 S1                 0.0000
      8 ****        -0.5367  -0.9606   0.8824 C.ar           1 S1                 0.0000
      9 ****        -0.0338  -0.2086  -0.1986 C.ar           1 S1                 0.0000
     10 ****         1.3749  -0.1428  -0.3647 N.am           1 S1                 0.0000
     11 ****         2.0951   0.0839  -1.4912 C.2            1 S1                 0.0000
     12 ****         1.5038   0.1828  -2.5652 O.2            1 S1                 0.0000
     13 ****         3.4585   0.1715  -1.4202 N.pl3          1 S1                -1.0000
     14 ****         4.3307   0.1021  -0.2370 C.3            1 S1                 0.0000
     15 ****         4.4241   1.4698   0.4707 C.3            1 S1                 0.0000
     16 ****         5.6003   1.4336   1.4567 C.3            1 S1                 0.0000
     17 ****         6.8424   0.3075   0.7107 S.o2           1 S1                 0.0000
     18 ****         7.9332   1.0990   0.1212 O.2            1 S1                 0.0000
     19 ****         7.1294  -0.7806   1.6588 O.2            1 S1                 0.0000
     20 ****         5.7546  -0.3120  -0.6324 C.3            1 S1                 0.0000
     21 ****        -0.9539   0.4789  -1.0237 C.ar           1 S1                 0.0000
     22 ****        -2.2789   0.3825  -0.7819 N.pl3          1 S1                 1.0000
     23 ****        -5.2151  -3.5024  -0.6858 H              1 S1                 0.0000
     24 ****        -3.7658  -2.6485  -1.2010 H              1 S1                 0.0000
     25 ****        -5.3590  -1.9926  -1.5769 H              1 S1                 0.0000
     26 ****        -5.7969  -1.6591   0.8815 H              1 S1                 0.0000
     27 ****        -4.2420  -2.3170   1.2720 H              1 S1                 0.0000
     28 ****        -4.8250   0.5956  -1.3607 H              1 S1                 0.0000
     29 ****        -6.0887   0.3235  -0.1950 H              1 S1                 0.0000
     30 ****        -5.5188   2.7237  -0.2305 H              1 S1                 0.0000
     31 ****        -3.8383   2.3878   0.1552 H              1 S1                 0.0000
     32 ****        -5.0985   2.0499   1.3392 H              1 S1                 0.0000
     33 ****        -2.3005  -1.6114   1.9286 H              1 S1                 0.0000
     34 ****         0.1381  -1.4832   1.5447 H              1 S1                 0.0000
     35 ****         1.9199  -0.3354   0.4629 H              1 S1                 0.0000
     36 ****         3.9683  -0.6249   0.4918 H              1 S1                 0.0000
     37 ****         4.6146   2.2483  -0.2699 H              1 S1                 0.0000
     38 ****         3.4928   1.7317   0.9735 H              1 S1                 0.0000
     39 ****         6.0388   2.4172   1.6248 H              1 S1                 0.0000
     40 ****         5.2993   1.0197   2.4202 H              1 S1                 0.0000
     41 ****         5.8688  -1.3899  -0.7457 H              1 S1                 0.0000
     42 ****         6.0647   0.1711  -1.5598 H              1 S1                 0.0000
     43 ****        -0.6855   1.1104  -1.8576 H              1 S1                 0.0000
     44 ****        -2.9144   0.8868  -1.3999 H              1 S1                 0.0000
     45 ****         0.5081   0.0960  -2.5976 LP             1 S1                 0.0000
     46 ****         2.0188   0.3499  -3.4059 LP             1 S1                 0.0000
     47 ****         3.9277   0.3006  -2.2938 LP             1 S1                 0.0000
@<TRIPOS>BOND
    1    1    2 1     
    2    1   23 1     
    3    1   24 1     
    4    1   25 1     
    5    2    3 1     
    6    2   26 1     
    7    2   27 1     
    8    3    4 1     
    9    3    6 1     
   10    4    5 1     
   11    4   28 1     
   12    4   29 1     
   13    5   30 1     
   14    5   31 1     
   15    5   32 1     
   16    6   22 ar    
   17    6    7 ar    
   18    7    8 ar    
   19    7   33 1     
   20    8    9 ar    
   21    8   34 1     
   22    9   10 1     
   23    9   21 ar    
   24   10   11 am    
   25   10   35 1     
   26   11   12 2     
   27   11   13 1     
   28   13   14 1     
   29   14   20 1     
   30   14   15 1     
   31   14   36 1     
   32   15   16 1     
   33   15   37 1     
   34   15   38 1     
   35   16   17 1     
   36   16   39 1     
   37   16   40 1     
   38   17   18 2     
   39   17   19 2     
   40   17   20 1     
   41   20   41 1     
   42   20   42 1     
   43   21   22 ar    
   44   21   43 1     
   45   22   44 1     
   46   12   45 1     
   47   12   46 1     
   48   13   47 1     
@<TRIPOS>SUBSTRUCTURE
      1 S1             1
@<TRIPOS>SET
LONE_PAIRS      STATIC     ATOMS    <user>   **** ""
5 45 46 47 18 19
DONOR_HYDROGENS      STATIC     ATOMS    <user>   **** ""
2 35 44
ATOM$BLUE        STATIC     ATOMS    COLORGROUP SYSTEM
5 45 46 47 18 19
ATOM$RED        STATIC     ATOMS    COLORGROUP SYSTEM
2 35 44
