AV-unprocessed.smi:2119|AV-procd|sdf|8637|dock8
  -GOLD-   2272011383D 1   1.00000     0.00000
 Structure written by MMmdl.
 48 50  0  0  0  0  0  0  0  0  2 V2000
  149.2483  141.0878  157.3617 O   0  0  0  0  0  0  0  0  0  0  0  0
  149.7683  141.6824  156.4184 C   0  0  0  0  0  0  0  0  0  0  0  0
  149.4475  141.4522  155.1373 N   0  0  0  0  0  0  0  0  0  0  0  0
  148.4197  140.5163  154.6926 C   0  0  0  0  0  0  0  0  0  0  0  0
  148.9426  139.3971  153.7473 C   0  0  1  0  0  0  0  0  0  0  0  0
  149.9895  138.5060  154.4581 C   0  0  1  0  0  0  0  0  0  0  0  0
  151.3394  139.1698  154.6698 C   0  0  0  0  0  0  0  0  0  0  0  0
  151.9585  138.2952  155.7534 C   0  0  0  0  0  0  0  0  0  0  0  0
  150.8698  137.8679  156.5633 O   0  0  0  0  0  0  0  0  0  0  0  0
  149.6359  138.1288  155.9012 C   0  0  0  0  0  0  0  0  0  0  0  0
  147.8739  138.5368  153.1516 N   0  3  0  0  0  0  0  0  0  0  0  0
  146.9550  137.8714  154.1084 C   0  0  0  0  0  0  0  0  0  0  0  0
  146.0770  136.8510  153.3648 C   0  0  0  0  0  0  0  0  0  0  0  0
  145.3658  137.5059  152.3205 O   0  0  0  0  0  0  0  0  0  0  0  0
  146.2380  138.0828  151.3549 C   0  0  0  0  0  0  0  0  0  0  0  0
  147.1232  139.1457  152.0266 C   0  0  0  0  0  0  0  0  0  0  0  0
  150.7354  142.6100  156.5198 N   0  0  0  0  0  0  0  0  0  0  0  0
  151.3166  143.1546  157.6967 C   0  0  0  0  0  0  0  0  0  0  0  0
  151.9244  144.4242  157.6083 C   0  0  0  0  0  0  0  0  0  0  0  0
  152.4896  144.9972  158.7632 C   0  0  0  0  0  0  0  0  0  0  0  0
  152.4161  144.2782  159.9718 C   0  0  0  0  0  0  0  0  0  0  0  0
  151.8257  143.0694  160.0783 N   0  0  0  0  0  0  0  0  0  0  0  0
  151.2870  142.5247  158.9661 C   0  0  0  0  0  0  0  0  0  0  0  0
  149.9264  141.9810  154.4227 H   0  0  0  0  0  0  0  0  0  0  0  0
  147.9599  140.0763  155.5786 H   0  0  0  0  0  0  0  0  0  0  0  0
  147.6260  141.0862  154.2091 H   0  0  0  0  0  0  0  0  0  0  0  0
  149.4663  139.8789  152.9203 H   0  0  0  0  0  0  0  0  0  0  0  0
  150.1422  137.5861  153.8916 H   0  0  0  0  0  0  0  0  0  0  0  0
  151.9481  139.2074  153.7658 H   0  0  0  0  0  0  0  0  0  0  0  0
  151.2129  140.1887  155.0396 H   0  0  0  0  0  0  0  0  0  0  0  0
  152.4281  137.4159  155.3109 H   0  0  0  0  0  0  0  0  0  0  0  0
  152.7102  138.8238  156.3399 H   0  0  0  0  0  0  0  0  0  0  0  0
  149.1459  138.9593  156.4116 H   0  0  0  0  0  0  0  0  0  0  0  0
  148.9744  137.2638  155.9555 H   0  0  0  0  0  0  0  0  0  0  0  0
  147.5229  137.3666  154.8898 H   0  0  0  0  0  0  0  0  0  0  0  0
  146.3169  138.6094  154.5957 H   0  0  0  0  0  0  0  0  0  0  0  0
  146.6820  136.0395  152.9570 H   0  0  0  0  0  0  0  0  0  0  0  0
  145.3608  136.3999  154.0518 H   0  0  0  0  0  0  0  0  0  0  0  0
  146.8470  137.3067  150.8884 H   0  0  0  0  0  0  0  0  0  0  0  0
  145.6403  138.5366  150.5642 H   0  0  0  0  0  0  0  0  0  0  0  0
  146.4979  139.9640  152.3807 H   0  0  0  0  0  0  0  0  0  0  0  0
  147.8152  139.5611  151.2932 H   0  0  0  0  0  0  0  0  0  0  0  0
  151.1271  142.9434  155.6513 H   0  0  0  0  0  0  0  0  0  0  0  0
  151.9617  144.9539  156.6674 H   0  0  0  0  0  0  0  0  0  0  0  0
  152.9667  145.9654  158.7242 H   0  0  0  0  0  0  0  0  0  0  0  0
  152.8379  144.6875  160.8778 H   0  0  0  0  0  0  0  0  0  0  0  0
  150.8062  141.5715  159.1211 H   0  0  0  0  0  0  0  0  0  0  0  0
  148.3888  137.7847  152.7167 H   0  0  0  0  0  0  0  0  0  0  0  0
  1  2  2  0  0  0  0
  2  3  1  0  0  0  0
  2 17  1  0  0  0  0
  3  4  1  0  0  0  0
  3 24  1  0  0  0  0
  4  5  1  0  0  0  0
  4 25  1  0  0  0  0
  4 26  1  0  0  0  0
  5  6  1  0  0  0  0
  5 11  1  0  0  0  0
  5 27  1  0  0  0  0
  6 10  1  0  0  0  0
  6  7  1  0  0  0  0
  6 28  1  0  0  0  0
  7  8  1  0  0  0  0
  7 29  1  0  0  0  0
  7 30  1  0  0  0  0
  8  9  1  0  0  0  0
  8 31  1  0  0  0  0
  8 32  1  0  0  0  0
  9 10  1  0  0  0  0
 10 33  1  0  0  0  0
 10 34  1  0  0  0  0
 11 16  1  0  0  0  0
 11 12  1  0  0  0  0
 11 48  1  0  0  0  0
 12 13  1  0  0  0  0
 12 35  1  0  0  0  0
 12 36  1  0  0  0  0
 13 14  1  0  0  0  0
 13 37  1  0  0  0  0
 13 38  1  0  0  0  0
 14 15  1  0  0  0  0
 15 16  1  0  0  0  0
 15 39  1  0  0  0  0
 15 40  1  0  0  0  0
 16 41  1  0  0  0  0
 16 42  1  0  0  0  0
 17 18  1  0  0  0  0
 17 43  1  0  0  0  0
 18 23  1  0  0  0  0
 18 19  2  0  0  0  0
 19 20  1  0  0  0  0
 19 44  1  0  0  0  0
 20 21  2  0  0  0  0
 20 45  1  0  0  0  0
 21 22  1  0  0  0  0
 21 46  1  0  0  0  0
 22 23  2  0  0  0  0
 23 47  1  0  0  0  0
M  CHG  1  11   1
M  END
> <s_m_source_file>
AV-unprocessed.smi

> <i_m_source_file_index>
2119

> <i_lp_mmshare_version>
43012

> <i_f3d_flags>
0

> <s_epik_input>
W2NIXTFuW2NIXVtjSF1bY0hdYzFbTkhdQyg9TylbTkhdW0NIMl1bQ0BIXShbQ0BASF0yW0NIMl1bQ0gyXU9bQ0gyXTIpTjNbQ0gyXVtDSDJdT1tDSDJdW0NIMl0z

> <s_epik_cmdline>
J2VwaWtfcHl0aG9uJywgJy1waCcsICc3LjAnLCAnLXRuJywgJzgnLCAnLW1hJywgJzIwMCcsICctbWV0YWxfYmluZGluZycsICctaW1hZScsICc8aW5maWxlLm1hZT4nLCAnLW9tYWUnLCAnPG91dGZpbGUubWFlPic=

> <r_epik_Ionization_Penalty>
0.987463

> <r_epik_Ionization_Penalty_Charging>
0.98326

> <r_epik_Ionization_Penalty_Neutral>
0.00420251

> <r_epik_State_Penalty>
1.01721

> <r_epik_Charging_Adjusted_Penalty>
2.00047

> <i_epik_Tot_Q>
1

> <i_epik_Tot_abs_Q>
1

> <r_epik_Metal_State_Penalty>
1.01439

> <b_epik_Metal_Only>
0

> <s_lp_Force_Field>
OPLS_2005

> <r_lp_Energy>
47.2413

> <b_lp_Chiralities_Consistent>
1

> <s_lp_Variant>
AV-unprocessed.smi:2119-8

> <Gold.Version>
5.8.1

> <Gold.Id.Protein>
6NUR|6NUR_protein|mol2

> <Gold.PLP.Fitness>
43.3744

> <Gold.PLP.PLP>
-38.5796

> <Gold.PLP.part.hbond>
-3.0000

> <Gold.PLP.part.metal>
0.0000

> <Gold.PLP.part.buried>
2.8693

> <Gold.PLP.part.nonpolar>
-39.0208

> <Gold.PLP.part.repulsive>
0.6992

> <Gold.PLP.ligand.clash>
0.0000

> <Gold.PLP.ligand.torsion>
0.7008

> <Gold.PLP.Chemscore.Hbond>
2.0000

> <Gold.PLP.Chemscore.CHOScore>
0.0000

> <Gold.PLP.Chemscore.Metal>
0.0000

> <Gold.Chemscore.Hbonds>
donor molecule, donor type, donor heavy atom, donor atom, acceptor molecule, acceptor atom, score
      L1  H    11    48       P1  7948  2.00

> <Gold.PLP.Chemscore.Internal.Correction>
0.1965

> <Gold.Rescore>
     Score         DG    S(hbond)    S(metal)    S(lipo)     H(rot)  DE(clash)    DE(int)     intcor
     15.43     -18.08       0.99        0.00     116.57       1.70       0.73       1.93       ----

> <Gold.Chemscore.Fitness>
15.4269

> <Gold.Chemscore.DG>
-18.0820

> <Gold.Chemscore.ZeroCoef>
-5.4800

> <Gold.Chemscore.Hbond>
0.9944

> <Gold.Chemscore.Metal>
0.0000

> <Gold.Chemscore.Lipo>
116.5664

> <Gold.Chemscore.Internal_Hbond>
0.0000

> <Gold.Chemscore.DEClash>
0.7259

> <Gold.Chemscore.DEInternal>
1.9291

> <Gold.Chemscore.Rot>
1.7021

> <Gold.Chemscore.Internal.Correction>
   9.000000E+99

> <Gold.Chemscore.Hbonds>
donor molecule, donor type, donor heavy atom, donor atom, acceptor molecule, acceptor atom, score
      L1  H    11    48       P1  7948  1.00

> <Gold.Chemscore.Hbond.Weighted>
-3.3212

> <Gold.Chemscore.Metal.Weighted>
-0.0000

> <Gold.Chemscore.Lipo.Weighted>
-13.6383

> <Gold.Chemscore.Internal_Hbond.Weighted>
0.0000

> <Gold.Chemscore.DEClash.Weighted>
0.7259

> <Gold.Chemscore.DEInternal.Weighted>
1.9291

> <Gold.Chemscore.Rot.Weighted>
4.3575

> <Gold.Chemscore.Internal.Correction.Weighted>
   9.000000E+99

> <Gold.Protein.RotatedTorsions>
[ 6907 6896 6895 6894 ] final  -20.56 input  -60.11 | X-H torsion
[ 7974 7965 7964 7962 ] final   -9.71 input  175.53 | X-H torsion
[ 8008 7997 7996 7995 ] final  115.83 input   59.86 | X-H torsion
[ 10167 10162 10161 10158 ] final   19.81 input  -65.29 | X-H torsion
[ 10718 10713 10712 10709 ] final -103.56 input   66.30 | X-H torsion
[ 10763 10752 10751 10750 ] final   35.04 input  -60.55 | X-H torsion
[ 11005 11000 10999 10996 ] final  -51.17 input  -57.11 | X-H torsion

> <Gold.Protein.ActiveResidues>
 VAL166  LYS551  ARG553  GLY616  TRP617  ASP618  TYR619  PRO620  LYS621  CYS622 
 ASP623  PHE694  ASN695  SER759  ASP760  ASP761  ALA762  ILE779  LEU786  VAL792 
 PHE793  MET794  SER795  GLU796  ALA797  LYS798  CYS799  TRP800  GLU811  SER814 

> <Gold.Protein.RotatedAtoms>
  151.2463  135.0606  159.9044 H   0  0  0  0  0  0  0  0  0  0  0  0  # atno 6907 bound_to 6896
  152.5386  134.0380  159.8065 H   0  0  0  0  0  0  0  0  0  0  0  0  # atno 6908 bound_to 6896
  151.0581  133.5518  159.2668 H   0  0  0  0  0  0  0  0  0  0  0  0  # atno 6909 bound_to 6896
  146.2243  140.2657  142.8354 H   0  0  0  0  0  0  0  0  0  0  0  0  # atno 7974 bound_to 7965
  156.2404  140.2930  156.0430 H   0  0  0  0  0  0  0  0  0  0  0  0  # atno 8008 bound_to 7997
  155.1966  140.0408  157.2927 H   0  0  0  0  0  0  0  0  0  0  0  0  # atno 8009 bound_to 7997
  154.6158  140.2463  155.7618 H   0  0  0  0  0  0  0  0  0  0  0  0  # atno 8010 bound_to 7997
  140.5551  143.9439  150.6604 H   0  0  0  0  0  0  0  0  0  0  0  0  # atno 10167 bound_to 10162
  156.0270  130.5473  150.7271 H   0  0  0  0  0  0  0  0  0  0  0  0  # atno 10718 bound_to 10713
  153.0137  135.6344  154.1763 H   0  0  0  0  0  0  0  0  0  0  0  0  # atno 10763 bound_to 10752
  154.1504  135.2829  155.3138 H   0  0  0  0  0  0  0  0  0  0  0  0  # atno 10764 bound_to 10752
  154.6058  135.5572  153.7482 H   0  0  0  0  0  0  0  0  0  0  0  0  # atno 10765 bound_to 10752
  141.0856  133.6643  156.3838 H   0  0  0  0  0  0  0  0  0  0  0  0  # atno 11005 bound_to 11000
  144.9306  140.7970  143.5692 LP  0  0  0  0  0  0  0  0  0  0  0  0  # atno 17320 bound_to 7965
  145.2600  139.1996  143.4897 LP  0  0  0  0  0  0  0  0  0  0  0  0  # atno 17321 bound_to 7965
  140.2875  143.3347  152.1093 LP  0  0  0  0  0  0  0  0  0  0  0  0  # atno 17342 bound_to 10162
  139.5044  144.6775  151.6092 LP  0  0  0  0  0  0  0  0  0  0  0  0  # atno 17343 bound_to 10162
  157.4872  131.0908  151.0468 LP  0  0  0  0  0  0  0  0  0  0  0  0  # atno 17370 bound_to 10713
  157.0885  130.5932  149.5435 LP  0  0  0  0  0  0  0  0  0  0  0  0  # atno 17371 bound_to 10713
  140.5369  134.6158  157.5368 LP  0  0  0  0  0  0  0  0  0  0  0  0  # atno 17394 bound_to 11000
  139.9674  134.7349  156.0110 LP  0  0  0  0  0  0  0  0  0  0  0  0  # atno 17395 bound_to 11000

$$$$
