#       Name:                AV-unprocessed.smi:290
#       Creating user name   scv26
#       Creation time:       Thu Mar 26 22:11:00 2020


#       File generated by GOLD software.
#

@<TRIPOS>MOLECULE
AV-unprocessed.smi:290
    69    72     1
SMALL
NO_CHARGES


@<TRIPOS>ATOM
      1 ****        -6.6093  -1.6339   0.6077 C.3            1 S1                 0.0000
      2 ****        -5.9423  -1.1030   1.8860 C.3            1 S1                 0.0000
      3 ****        -5.9267  -2.1590   2.8424 O.3            1 S1                 0.0000
      4 ****        -4.8208  -1.9695   3.7063 C.3            1 S1                 0.0000
      5 ****        -3.7273  -1.5380   2.7409 C.3            1 S1                 0.0000
      6 ****        -4.4669  -0.6250   1.7649 C.3            1 S1                 0.0000
      7 ****        -4.4031   0.6959   2.2750 O.3            1 S1                 0.0000
      8 ****        -3.8570  -0.6191   0.3378 C.3            1 S1                 0.0000
      9 ****        -2.4434  -0.2734   0.3127 N.pl3          1 S1                 0.0000
     10 ****        -1.3821  -1.1500   0.3441 C.2            1 S1                 0.0000
     11 ****        -0.2007  -0.5963   0.3142 N.2            1 S1                 0.0000
     12 ****        -0.4672   0.7658   0.2506 C.ar           1 S1                 0.0000
     13 ****         0.3398   1.9372   0.1965 C.ar           1 S1                 0.0000
     14 ****         1.6901   1.9481   0.1939 N.3            1 S1                 0.0000
     15 ****         2.3417   1.3887   1.3744 C.3            1 S1                 0.0000
     16 ****         3.5487   0.5994   0.8636 C.3            1 S1                 0.0000
     17 ****         3.1082   0.1797  -0.5429 C.3            1 S1                 0.0000
     18 ****         4.1987  -0.2725  -1.4572 N.4            1 S1                 1.0000
     19 ****         5.1191  -1.2441  -0.8126 C.3            1 S1                 0.0000
     20 ****         3.6743  -0.7795  -2.7563 C.3            1 S1                 0.0000
     21 ****         4.7239  -0.7666  -3.8834 C.3            1 S1                 0.0000
     22 ****         5.1121   0.5575  -4.1802 O.3            1 S1                 0.0000
     23 ****         2.3269   1.4284  -1.0131 C.3            1 S1                 0.0000
     24 ****         3.2006   2.5305  -1.6414 C.3            1 S1                 0.0000
     25 ****        -0.2837   3.1380   0.1283 N.ar           1 S1                 0.0000
     26 ****        -1.6190   3.1975   0.1212 C.ar           1 S1                 0.0000
     27 ****        -2.4997   2.1954   0.1729 N.ar           1 S1                 0.0000
     28 ****        -1.8732   0.9856   0.2387 C.ar           1 S1                 0.0000
     29 ****         2.4095  -0.6508  -0.4318 H              1 S1                 0.0000
     30 ****         1.5707   1.1347  -1.7433 H              1 S1                 0.0000
     31 ****        -6.6546  -0.8673  -0.1660 H              1 S1                 0.0000
     32 ****        -7.6320  -1.9507   0.8130 H              1 S1                 0.0000
     33 ****        -6.0771  -2.4961   0.2056 H              1 S1                 0.0000
     34 ****        -6.5672  -0.3054   2.2928 H              1 S1                 0.0000
     35 ****        -5.0439  -1.1833   4.4295 H              1 S1                 0.0000
     36 ****        -4.5711  -2.8814   4.2485 H              1 S1                 0.0000
     37 ****        -2.8793  -1.0633   3.2365 H              1 S1                 0.0000
     38 ****        -3.3559  -2.4215   2.2199 H              1 S1                 0.0000
     39 ****        -3.5078   0.9947   2.2260 H              1 S1                 0.0000
     40 ****        -3.9572  -1.6024  -0.1221 H              1 S1                 0.0000
     41 ****        -4.3929   0.0794  -0.3063 H              1 S1                 0.0000
     42 ****        -1.5128  -2.2212   0.3951 H              1 S1                 0.0000
     43 ****         2.6491   2.1826   2.0555 H              1 S1                 0.0000
     44 ****         1.6658   0.7306   1.9221 H              1 S1                 0.0000
     45 ****         4.4232   1.2497   0.8141 H              1 S1                 0.0000
     46 ****         3.7873  -0.2442   1.5120 H              1 S1                 0.0000
     47 ****         4.5788  -2.1339  -0.4866 H              1 S1                 0.0000
     48 ****         5.6148  -0.8090   0.0547 H              1 S1                 0.0000
     49 ****         5.9139  -1.5609  -1.4855 H              1 S1                 0.0000
     50 ****         3.2889  -1.7907  -2.6170 H              1 S1                 0.0000
     51 ****         2.8254  -0.1810  -3.0862 H              1 S1                 0.0000
     52 ****         5.6036  -1.3620  -3.6441 H              1 S1                 0.0000
     53 ****         4.2930  -1.2012  -4.7857 H              1 S1                 0.0000
     54 ****         5.7096   0.5401  -4.9129 H              1 S1                 0.0000
     55 ****         3.6519   2.2028  -2.5763 H              1 S1                 0.0000
     56 ****         4.0033   2.8439  -0.9736 H              1 S1                 0.0000
     57 ****         2.6013   3.4124  -1.8699 H              1 S1                 0.0000
     58 ****        -2.0429   4.1896   0.0680 H              1 S1                 0.0000
     59 ****         4.7457   0.5498  -1.6711 H              1 S1                 0.0000
     60 ****        -5.8408  -3.0377   2.3728 LP             1 S1                 0.0000
     61 ****        -6.7746  -2.1460   3.3726 LP             1 S1                 0.0000
     62 ****        -4.7098   0.7047   3.2268 LP             1 S1                 0.0000
     63 ****        -4.9890   1.2961   1.7305 LP             1 S1                 0.0000
     64 ****         0.6911  -1.0484   0.3328 LP             1 S1                 0.0000
     65 ****         1.8454   2.9357   0.2150 LP             1 S1                 0.0000
     66 ****         5.5652   0.9617  -3.3857 LP             1 S1                 0.0000
     67 ****         4.3058   1.1000  -4.4159 LP             1 S1                 0.0000
     68 ****         0.2547   3.9794   0.0833 LP             1 S1                 0.0000
     69 ****        -3.4924   2.3164   0.1645 LP             1 S1                 0.0000
@<TRIPOS>BOND
    1    1    2 1     
    2    1   31 1     
    3    1   32 1     
    4    1   33 1     
    5    2    6 1     
    6    2    3 1     
    7    2   34 1     
    8    3    4 1     
    9    4    5 1     
   10    4   35 1     
   11    4   36 1     
   12    5    6 1     
   13    5   37 1     
   14    5   38 1     
   15    6    7 1     
   16    6    8 1     
   17    7   39 1     
   18    8    9 1     
   19    8   40 1     
   20    8   41 1     
   21    9   28 1     
   22    9   10 1     
   23   10   11 2     
   24   10   42 1     
   25   11   12 1     
   26   12   28 ar    
   27   12   13 ar    
   28   13   14 1     
   29   13   25 ar    
   30   14   23 1     
   31   14   15 1     
   32   15   16 1     
   33   15   43 1     
   34   15   44 1     
   35   16   17 1     
   36   16   45 1     
   37   16   46 1     
   38   17   29 1     
   39   17   18 1     
   40   17   23 1     
   41   18   19 1     
   42   18   20 1     
   43   18   59 1     
   44   19   47 1     
   45   19   48 1     
   46   19   49 1     
   47   20   21 1     
   48   20   50 1     
   49   20   51 1     
   50   21   22 1     
   51   21   52 1     
   52   21   53 1     
   53   22   54 1     
   54   23   30 1     
   55   23   24 1     
   56   24   55 1     
   57   24   56 1     
   58   24   57 1     
   59   25   26 ar    
   60   26   27 ar    
   61   26   58 1     
   62   27   28 ar    
   63    3   60 1     
   64    3   61 1     
   65    7   62 1     
   66    7   63 1     
   67   11   64 1     
   68   14   65 1     
   69   22   66 1     
   70   22   67 1     
   71   25   68 1     
   72   27   69 1     
@<TRIPOS>SUBSTRUCTURE
      1 S1             1
@<TRIPOS>SET
LONE_PAIRS      STATIC     ATOMS    <user>   **** ""
10 60 61 62 63 64 65 66 67 68 69
DONOR_HYDROGENS      STATIC     ATOMS    <user>   **** ""
3 39 59 54
ATOM$BLUE        STATIC     ATOMS    COLORGROUP SYSTEM
10 60 61 62 63 64 65 66 67 68 69
ATOM$RED        STATIC     ATOMS    COLORGROUP SYSTEM
3 39 59 54
