#       Name:                AV-unprocessed.smi:1492
#       Creating user name   scv26
#       Creation time:       Fri Mar 27 06:14:23 2020


#       File generated by GOLD software.
#

@<TRIPOS>MOLECULE
AV-unprocessed.smi:1492
    60    61     1
SMALL
NO_CHARGES


@<TRIPOS>ATOM
      1 ****        -1.5392   1.0044  -3.7449 C.3            1 S1                 0.0000
      2 ****        -1.6347   0.7956  -2.2217 C.3            1 S1                 0.0000
      3 ****        -0.8211   1.7639  -1.2968 C.3            1 S1                 0.0000
      4 ****        -1.4609   3.1723  -1.3874 C.3            1 S1                 0.0000
      5 ****         0.6329   1.8765  -1.8541 C.3            1 S1                 0.0000
      6 ****         1.3133   0.5855  -1.8157 N.am           1 S1                 0.0000
      7 ****         2.4394   0.3094  -1.1434 C.2            1 S1                 0.0000
      8 ****         3.1654   1.1641  -0.6374 O.2            1 S1                 0.0000
      9 ****         2.7581  -1.1745  -0.9710 C.3            1 S1                 0.0000
     10 ****         1.8248  -1.9024  -0.0042 C.2            1 S1                 0.0000
     11 ****         2.0262  -1.9291   1.3459 C.2            1 S1                 0.0000
     12 ****         3.2103  -1.2550   2.0169 C.3            1 S1                 0.0000
     13 ****         1.1309  -2.5745   2.2101 N.2            1 S1                 0.0000
     14 ****         0.0858  -3.1457   1.7090 C.2            1 S1                 0.0000
     15 ****        -0.9622  -3.8613   2.5343 C.3            1 S1                 0.0000
     16 ****        -0.1811  -3.1517   0.3414 N.am           1 S1                 0.0000
     17 ****         0.6308  -2.5643  -0.5655 C.2            1 S1                 0.0000
     18 ****         0.3486  -2.5931  -1.7624 O.2            1 S1                 0.0000
     19 ****        -0.8101   1.2383   0.1040 N.3            1 S1                 0.0000
     20 ****        -0.0268   2.0264   1.0655 C.3            1 S1                 0.0000
     21 ****         0.0576   1.3461   2.4414 C.3            1 S1                 0.0000
     22 ****        -1.2530   1.1221   2.9442 O.3            1 S1                 0.0000
     23 ****        -2.0336   0.3138   2.0738 C.3            1 S1                 0.0000
     24 ****        -2.1314   0.9775   0.6894 C.3            1 S1                 0.0000
     25 ****        -1.0141  -3.6135   0.0069 H              1 S1                 0.0000
     26 ****        -2.2333   0.3394  -4.2587 H              1 S1                 0.0000
     27 ****        -0.5454   0.7748  -4.1283 H              1 S1                 0.0000
     28 ****        -1.7937   2.0223  -4.0376 H              1 S1                 0.0000
     29 ****        -2.6943   0.8652  -1.9769 H              1 S1                 0.0000
     30 ****        -1.3510  -0.2359  -2.0080 H              1 S1                 0.0000
     31 ****        -1.4354   3.5599  -2.4051 H              1 S1                 0.0000
     32 ****        -0.9349   3.9023  -0.7730 H              1 S1                 0.0000
     33 ****        -2.5051   3.1700  -1.0757 H              1 S1                 0.0000
     34 ****         0.6357   2.2292  -2.8845 H              1 S1                 0.0000
     35 ****         1.1993   2.6416  -1.3234 H              1 S1                 0.0000
     36 ****         0.8065  -0.1947  -2.2086 H              1 S1                 0.0000
     37 ****         2.7481  -1.6573  -1.9490 H              1 S1                 0.0000
     38 ****         3.7871  -1.2711  -0.6246 H              1 S1                 0.0000
     39 ****         3.2219  -0.1882   1.7941 H              1 S1                 0.0000
     40 ****         4.1473  -1.6941   1.6741 H              1 S1                 0.0000
     41 ****         3.1669  -1.3662   3.1012 H              1 S1                 0.0000
     42 ****        -0.5053  -4.6749   3.0978 H              1 S1                 0.0000
     43 ****        -1.7513  -4.2801   1.9087 H              1 S1                 0.0000
     44 ****        -1.4189  -3.1683   3.2413 H              1 S1                 0.0000
     45 ****         0.9915   2.1789   0.7169 H              1 S1                 0.0000
     46 ****        -0.4685   3.0147   1.1925 H              1 S1                 0.0000
     47 ****         0.5964   0.4008   2.3729 H              1 S1                 0.0000
     48 ****         0.6053   1.9761   3.1421 H              1 S1                 0.0000
     49 ****        -1.5900  -0.6791   1.9933 H              1 S1                 0.0000
     50 ****        -3.0269   0.1853   2.5035 H              1 S1                 0.0000
     51 ****        -2.6933   1.9071   0.7804 H              1 S1                 0.0000
     52 ****        -2.7166   0.3118   0.0585 H              1 S1                 0.0000
     53 ****         2.9275   2.1322  -0.7156 LP             1 S1                 0.0000
     54 ****         3.9935   0.8907  -0.1480 LP             1 S1                 0.0000
     55 ****         1.2979  -2.5925   3.1959 LP             1 S1                 0.0000
     56 ****         0.9473  -2.1476  -2.4282 LP             1 S1                 0.0000
     57 ****        -0.4794  -3.0620  -2.0698 LP             1 S1                 0.0000
     58 ****        -0.3489   0.3628  -0.0400 LP             1 S1                 0.0000
     59 ****        -1.7088   2.0048   3.0585 LP             1 S1                 0.0000
     60 ****        -1.1835   0.6655   3.8311 LP             1 S1                 0.0000
@<TRIPOS>BOND
    1    1    2 1     
    2    1   26 1     
    3    1   27 1     
    4    1   28 1     
    5    2    3 1     
    6    2   29 1     
    7    2   30 1     
    8    3    4 1     
    9    3    5 1     
   10    3   19 1     
   11    4   31 1     
   12    4   32 1     
   13    4   33 1     
   14    5    6 1     
   15    5   34 1     
   16    5   35 1     
   17    6    7 am    
   18    6   36 1     
   19    7    8 2     
   20    7    9 1     
   21    9   10 1     
   22    9   37 1     
   23    9   38 1     
   24   10   17 1     
   25   10   11 2     
   26   11   12 1     
   27   11   13 1     
   28   12   39 1     
   29   12   40 1     
   30   12   41 1     
   31   13   14 2     
   32   14   15 1     
   33   14   16 1     
   34   15   42 1     
   35   15   43 1     
   36   15   44 1     
   37   16   25 1     
   38   16   17 am    
   39   17   18 2     
   40   19   24 1     
   41   19   20 1     
   42   20   21 1     
   43   20   45 1     
   44   20   46 1     
   45   21   22 1     
   46   21   47 1     
   47   21   48 1     
   48   22   23 1     
   49   23   24 1     
   50   23   49 1     
   51   23   50 1     
   52   24   51 1     
   53   24   52 1     
   54    8   53 1     
   55    8   54 1     
   56   13   55 1     
   57   18   56 1     
   58   18   57 1     
   59   19   58 1     
   60   22   59 1     
   61   22   60 1     
@<TRIPOS>SUBSTRUCTURE
      1 S1             1
@<TRIPOS>SET
LONE_PAIRS      STATIC     ATOMS    <user>   **** ""
8 53 54 55 56 57 58 59 60
DONOR_HYDROGENS      STATIC     ATOMS    <user>   **** ""
2 36 25
ATOM$BLUE        STATIC     ATOMS    COLORGROUP SYSTEM
8 53 54 55 56 57 58 59 60
ATOM$RED        STATIC     ATOMS    COLORGROUP SYSTEM
2 36 25
