AV-unprocessed.smi:2520|AV-procd|sdf|9909|dock3
  -GOLD-   2272013543D 1   1.00000     0.00000
 Structure written by MMmdl.
 41 44  0  0  0  0  0  0  0  0  1 V2000
  151.1717  141.1883  157.0254 O   0  0  0  0  0  0  0  0  0  0  0  0
  150.3575  142.0779  156.7850 C   0  0  0  0  0  0  0  0  0  0  0  0
  150.2525  143.1608  157.5846 N   0  0  0  0  0  0  0  0  0  0  0  0
  150.9569  143.5308  158.7681 C   0  0  0  0  0  0  0  0  0  0  0  0
  151.2275  144.9109  158.8872 C   0  0  0  0  0  0  0  0  0  0  0  0
  151.9155  145.3631  160.0261 C   0  0  0  0  0  0  0  0  0  0  0  0
  152.2880  144.3988  160.9779 C   0  0  0  0  0  0  0  0  0  0  0  0
  152.0068  143.0869  160.8275 N   0  0  0  0  0  0  0  0  0  0  0  0
  151.3521  142.6659  159.7405 N   0  0  0  0  0  0  0  0  0  0  0  0
  149.5278  142.0398  155.7320 N   0  0  0  0  0  0  0  0  0  0  0  0
  149.4740  140.9902  154.7153 C   0  0  2  0  0  0  0  0  0  0  0  0
  148.2016  141.0706  153.8407 C   0  0  2  0  0  0  0  0  0  0  0  0
  147.2834  142.2696  153.8422 C   0  0  0  0  0  0  0  0  0  0  0  0
  146.1794  141.8523  154.8184 C   0  0  0  0  0  0  0  0  0  0  0  0
  146.7585  140.8135  155.6053 O   0  0  0  0  0  0  0  0  0  0  0  0
  147.5803  140.0221  154.7501 C   0  0  2  0  0  0  0  0  0  0  0  0
  148.9739  139.6464  155.2955 C   0  0  0  0  0  0  0  0  0  0  0  0
  149.0954  139.3564  156.7922 C   0  0  0  0  0  0  0  0  0  0  0  0
  148.8513  137.8575  156.9761 C   0  0  0  0  0  0  0  0  0  0  0  0
  149.2034  137.2165  155.6304 C   0  0  0  0  0  0  0  0  0  0  0  0
  149.5825  138.3762  154.7039 C   0  0  0  0  0  0  0  0  0  0  0  0
  149.5332  143.8130  157.3080 H   0  0  0  0  0  0  0  0  0  0  0  0
  150.9168  145.6098  158.1240 H   0  0  0  0  0  0  0  0  0  0  0  0
  152.1483  146.4085  160.1646 H   0  0  0  0  0  0  0  0  0  0  0  0
  152.8190  144.6829  161.8743 H   0  0  0  0  0  0  0  0  0  0  0  0
  148.8863  142.8115  155.6135 H   0  0  0  0  0  0  0  0  0  0  0  0
  150.3842  140.8853  154.1227 H   0  0  0  0  0  0  0  0  0  0  0  0
  148.3904  140.6629  152.8465 H   0  0  0  0  0  0  0  0  0  0  0  0
  147.7882  143.1748  154.1797 H   0  0  0  0  0  0  0  0  0  0  0  0
  146.8745  142.4770  152.8531 H   0  0  0  0  0  0  0  0  0  0  0  0
  145.8328  142.6781  155.4402 H   0  0  0  0  0  0  0  0  0  0  0  0
  145.3228  141.4493  154.2762 H   0  0  0  0  0  0  0  0  0  0  0  0
  147.0367  139.2369  154.2225 H   0  0  0  0  0  0  0  0  0  0  0  0
  150.1011  139.6017  157.1366 H   0  0  0  0  0  0  0  0  0  0  0  0
  148.4060  139.9469  157.3965 H   0  0  0  0  0  0  0  0  0  0  0  0
  149.4444  137.4507  157.7958 H   0  0  0  0  0  0  0  0  0  0  0  0
  147.8009  137.6754  157.2072 H   0  0  0  0  0  0  0  0  0  0  0  0
  150.0197  136.4991  155.7213 H   0  0  0  0  0  0  0  0  0  0  0  0
  148.3384  136.6818  155.2362 H   0  0  0  0  0  0  0  0  0  0  0  0
  149.2538  138.1915  153.6805 H   0  0  0  0  0  0  0  0  0  0  0  0
  150.6693  138.4677  154.6711 H   0  0  0  0  0  0  0  0  0  0  0  0
  1  2  2  0  0  0  0
  2  3  1  0  0  0  0
  2 10  1  0  0  0  0
  3  4  1  0  0  0  0
  3 22  1  0  0  0  0
  4  9  1  0  0  0  0
  4  5  2  0  0  0  0
  5  6  1  0  0  0  0
  5 23  1  0  0  0  0
  6  7  2  0  0  0  0
  6 24  1  0  0  0  0
  7  8  1  0  0  0  0
  7 25  1  0  0  0  0
  8  9  2  0  0  0  0
 10 11  1  0  0  0  0
 10 26  1  0  0  0  0
 11 17  1  0  0  0  0
 11 12  1  0  0  0  0
 11 27  1  0  0  0  0
 12 16  1  0  0  0  0
 12 13  1  0  0  0  0
 12 28  1  0  0  0  0
 13 14  1  0  0  0  0
 13 29  1  0  0  0  0
 13 30  1  0  0  0  0
 14 15  1  0  0  0  0
 14 31  1  0  0  0  0
 14 32  1  0  0  0  0
 15 16  1  0  0  0  0
 16 17  1  0  0  0  0
 16 33  1  0  0  0  0
 17 21  1  0  0  0  0
 17 18  1  0  0  0  0
 18 19  1  0  0  0  0
 18 34  1  0  0  0  0
 18 35  1  0  0  0  0
 19 20  1  0  0  0  0
 19 36  1  0  0  0  0
 19 37  1  0  0  0  0
 20 21  1  0  0  0  0
 20 38  1  0  0  0  0
 20 39  1  0  0  0  0
 21 40  1  0  0  0  0
 21 41  1  0  0  0  0
M  END
> <s_m_source_file>
AV-unprocessed.smi

> <i_m_source_file_index>
2520

> <i_lp_mmshare_version>
43012

> <i_f3d_flags>
0

> <s_epik_input>
bjFuW2NIXVtjSF1bY0hdYzFbTkhdQyg9TylbTkhdW0NAQEhdMltDQEBIXShbQ0gyXVtDSDJdTzMpW0NASF0zQzI0W0NIMl1bQ0gyXVtDSDJdW0NIMl00

> <s_epik_cmdline>
J2VwaWtfcHl0aG9uJywgJy1waCcsICc3LjAnLCAnLXRuJywgJzgnLCAnLW1hJywgJzIwMCcsICctbWV0YWxfYmluZGluZycsICctaW1hZScsICc8aW5maWxlLm1hZT4nLCAnLW9tYWUnLCAnPG91dGZpbGUubWFlPic=

> <r_lp_tautomer_probability>
1

> <r_epik_Ionization_Penalty>
0.00552561

> <r_epik_Ionization_Penalty_Charging>
0

> <r_epik_Ionization_Penalty_Neutral>
0.00552561

> <r_epik_State_Penalty>
-0

> <r_epik_Charging_Adjusted_Penalty>
0

> <i_epik_Tot_Q>
0

> <i_epik_Tot_abs_Q>
0

> <r_epik_Metal_State_Penalty>
-0

> <b_epik_Metal_Only>
0

> <s_lp_Force_Field>
OPLS_2005

> <r_lp_Energy>
62.4196

> <b_lp_Chiralities_Consistent>
1

> <s_lp_Variant>
AV-unprocessed.smi:2520-3

> <Gold.Version>
5.8.1

> <Gold.Id.Protein>
6NUR|6NUR_protein|mol2

> <Gold.PLP.Fitness>
41.4173

> <Gold.PLP.PLP>
-36.9453

> <Gold.PLP.part.hbond>
-3.1500

> <Gold.PLP.part.metal>
0.0000

> <Gold.PLP.part.buried>
-6.0348

> <Gold.PLP.part.nonpolar>
-27.0789

> <Gold.PLP.part.repulsive>
0.3418

> <Gold.PLP.ligand.clash>
0.0036

> <Gold.PLP.ligand.torsion>
0.3833

> <Gold.PLP.Chemscore.Hbond>
1.6800

> <Gold.PLP.Chemscore.CHOScore>
0.0000

> <Gold.PLP.Chemscore.Metal>
0.0000

> <Gold.Chemscore.Hbonds>
donor molecule, donor type, donor heavy atom, donor atom, acceptor molecule, acceptor atom, score
      L1  H     3    22       P1  8028  0.80
      L1  H    10    26       P1  8028  0.80

> <Gold.PLP.Chemscore.Internal.Correction>
0.2022

> <Gold.Rescore>
     Score         DG    S(hbond)    S(metal)    S(lipo)     H(rot)  DE(clash)    DE(int)     intcor
     13.96     -16.99       1.29        0.00      83.28       1.00       0.18       2.85       ----

> <Gold.Chemscore.Fitness>
13.9599

> <Gold.Chemscore.DG>
-16.9892

> <Gold.Chemscore.ZeroCoef>
-5.4800

> <Gold.Chemscore.Hbond>
1.2950

> <Gold.Chemscore.Metal>
0.0000

> <Gold.Chemscore.Lipo>
83.2823

> <Gold.Chemscore.Internal_Hbond>
0.0000

> <Gold.Chemscore.DEClash>
0.1755

> <Gold.Chemscore.DEInternal>
2.8538

> <Gold.Chemscore.Rot>
1.0000

> <Gold.Chemscore.Internal.Correction>
   9.000000E+99

> <Gold.Chemscore.Hbonds>
donor molecule, donor type, donor heavy atom, donor atom, acceptor molecule, acceptor atom, score
      L1  H     3    22       P1  8028  0.47
      L1  H    10    26       P1  8028  0.79

> <Gold.Chemscore.Hbond.Weighted>
-4.3252

> <Gold.Chemscore.Metal.Weighted>
-0.0000

> <Gold.Chemscore.Lipo.Weighted>
-9.7440

> <Gold.Chemscore.Internal_Hbond.Weighted>
0.0000

> <Gold.Chemscore.DEClash.Weighted>
0.1755

> <Gold.Chemscore.DEInternal.Weighted>
2.8538

> <Gold.Chemscore.Rot.Weighted>
2.5600

> <Gold.Chemscore.Internal.Correction.Weighted>
   9.000000E+99

> <Gold.Protein.RotatedTorsions>
[ 6907 6896 6895 6894 ] final  118.77 input  -60.11 | X-H torsion
[ 7974 7965 7964 7962 ] final  158.07 input  175.53 | X-H torsion
[ 8008 7997 7996 7995 ] final   91.06 input   59.86 | X-H torsion
[ 10167 10162 10161 10158 ] final   19.73 input  -65.29 | X-H torsion
[ 10718 10713 10712 10709 ] final   43.50 input   66.30 | X-H torsion
[ 10763 10752 10751 10750 ] final -129.93 input  -60.55 | X-H torsion
[ 11005 11000 10999 10996 ] final  -89.46 input  -57.11 | X-H torsion

> <Gold.Protein.ActiveResidues>
 VAL166  LYS551  ARG553  GLY616  TRP617  ASP618  TYR619  PRO620  LYS621  CYS622 
 ASP623  PHE694  ASN695  SER759  ASP760  ASP761  ALA762  ILE779  LEU786  VAL792 
 PHE793  MET794  SER795  GLU796  ALA797  LYS798  CYS799  TRP800  GLU811  SER814 

> <Gold.Protein.RotatedAtoms>
  152.4519  133.7646  159.6765 H   0  0  0  0  0  0  0  0  0  0  0  0  # atno 6907 bound_to 6896
  150.8434  133.7890  159.3058 H   0  0  0  0  0  0  0  0  0  0  0  0  # atno 6908 bound_to 6896
  151.5508  135.1070  160.0001 H   0  0  0  0  0  0  0  0  0  0  0  0  # atno 6909 bound_to 6896
  144.7867  139.7428  143.6238 H   0  0  0  0  0  0  0  0  0  0  0  0  # atno 7974 bound_to 7965
  156.0193  140.3342  155.7021 H   0  0  0  0  0  0  0  0  0  0  0  0  # atno 8008 bound_to 7997
  155.6046  140.0659  157.2741 H   0  0  0  0  0  0  0  0  0  0  0  0  # atno 8009 bound_to 7997
  154.4310  140.1804  156.1196 H   0  0  0  0  0  0  0  0  0  0  0  0  # atno 8010 bound_to 7997
  140.5557  143.9429  150.6608 H   0  0  0  0  0  0  0  0  0  0  0  0  # atno 10167 bound_to 10162
  157.4165  130.7944  149.7477 H   0  0  0  0  0  0  0  0  0  0  0  0  # atno 10718 bound_to 10713
  154.8756  135.3879  154.4000 H   0  0  0  0  0  0  0  0  0  0  0  0  # atno 10763 bound_to 10752
  153.4726  135.7030  153.5990 H   0  0  0  0  0  0  0  0  0  0  0  0  # atno 10764 bound_to 10752
  153.4440  135.3849  155.2213 H   0  0  0  0  0  0  0  0  0  0  0  0  # atno 10765 bound_to 10752
  141.1584  133.7631  156.9598 H   0  0  0  0  0  0  0  0  0  0  0  0  # atno 11005 bound_to 11000
  146.2101  139.5452  142.9686 LP  0  0  0  0  0  0  0  0  0  0  0  0  # atno 17320 bound_to 7965
  145.5904  141.0370  143.2073 LP  0  0  0  0  0  0  0  0  0  0  0  0  # atno 17321 bound_to 7965
  140.2866  143.3353  152.1101 LP  0  0  0  0  0  0  0  0  0  0  0  0  # atno 17342 bound_to 10162
  139.5047  144.6780  151.6080 LP  0  0  0  0  0  0  0  0  0  0  0  0  # atno 17343 bound_to 10162
  155.9867  130.3973  150.3201 LP  0  0  0  0  0  0  0  0  0  0  0  0  # atno 17370 bound_to 10713
  157.1344  131.0280  151.2955 LP  0  0  0  0  0  0  0  0  0  0  0  0  # atno 17371 bound_to 10713
  140.1201  134.9422  157.2191 LP  0  0  0  0  0  0  0  0  0  0  0  0  # atno 17394 bound_to 11000
  140.3083  134.3053  155.7273 LP  0  0  0  0  0  0  0  0  0  0  0  0  # atno 17395 bound_to 11000

$$$$
