AV-unprocessed.smi:822|AV-procd|sdf|3843|dock1
  -GOLD-   22720 1293D 1   1.00000     0.00000
 Structure written by MMmdl.
 38 39  0  0  0  0  0  0  0  0  1 V2000
  150.5947  140.6994  157.4602 O   0  0  0  0  0  0  0  0  0  0  0  0
  150.4957  141.7286  156.7921 C   0  0  0  0  0  0  0  0  0  0  0  0
  150.1767  141.6492  155.2951 C   0  0  0  0  0  0  0  0  0  0  0  0
  148.9171  140.8154  154.9685 C   0  0  0  0  0  0  0  0  0  0  0  0
  149.2760  139.3211  154.8309 C   0  0  0  0  0  0  0  0  0  0  0  0
  148.0413  138.4628  154.5118 C   0  0  0  0  0  0  0  0  0  0  0  0
  147.3307  138.9614  153.2449 C   0  0  0  0  0  0  0  0  0  0  0  0
  146.9591  140.4462  153.3706 C   0  0  0  0  0  0  0  0  0  0  0  0
  148.1922  141.3056  153.6931 C   0  0  0  0  0  0  0  0  0  0  0  0
  150.6586  142.9580  157.3043 N   0  0  0  0  0  0  0  0  0  0  0  0
  150.9657  143.2491  158.6994 C   0  0  0  0  0  0  0  0  0  0  0  0
  152.4806  143.2283  158.9584 C   0  0  0  0  0  0  0  0  0  0  0  0
  152.7771  142.9484  160.3484 N   0  0  0  0  0  0  0  0  0  0  0  0
  152.3694  143.6804  161.4557 C   0  0  0  0  0  0  0  0  0  0  0  0
  152.8824  143.0396  162.5607 C   0  0  0  0  0  0  0  0  0  0  0  0
  153.6032  141.9172  162.1595 N   0  0  0  0  0  0  0  0  0  0  0  0
  153.4961  141.9284  160.8368 C   0  0  0  0  0  0  0  0  0  0  0  0
  150.0706  142.6541  154.8836 H   0  0  0  0  0  0  0  0  0  0  0  0
  151.0447  141.2091  154.8027 H   0  0  0  0  0  0  0  0  0  0  0  0
  148.2218  140.9055  155.8050 H   0  0  0  0  0  0  0  0  0  0  0  0
  150.0197  139.1921  154.0434 H   0  0  0  0  0  0  0  0  0  0  0  0
  149.7381  138.9619  155.7511 H   0  0  0  0  0  0  0  0  0  0  0  0
  148.3366  137.4207  154.3858 H   0  0  0  0  0  0  0  0  0  0  0  0
  147.3491  138.4886  155.3544 H   0  0  0  0  0  0  0  0  0  0  0  0
  147.9804  138.8184  152.3805 H   0  0  0  0  0  0  0  0  0  0  0  0
  146.4352  138.3670  153.0612 H   0  0  0  0  0  0  0  0  0  0  0  0
  146.4968  140.7927  152.4458 H   0  0  0  0  0  0  0  0  0  0  0  0
  146.2117  140.5713  154.1551 H   0  0  0  0  0  0  0  0  0  0  0  0
  147.8784  142.3437  153.8049 H   0  0  0  0  0  0  0  0  0  0  0  0
  148.8808  141.2819  152.8474 H   0  0  0  0  0  0  0  0  0  0  0  0
  150.5581  143.7486  156.6841 H   0  0  0  0  0  0  0  0  0  0  0  0
  150.5615  144.2340  158.9354 H   0  0  0  0  0  0  0  0  0  0  0  0
  150.4542  142.5399  159.3528 H   0  0  0  0  0  0  0  0  0  0  0  0
  152.9686  142.4726  158.3410 H   0  0  0  0  0  0  0  0  0  0  0  0
  152.9262  144.1889  158.6965 H   0  0  0  0  0  0  0  0  0  0  0  0
  151.7645  144.5710  161.3683 H   0  0  0  0  0  0  0  0  0  0  0  0
  152.7883  143.2972  163.6055 H   0  0  0  0  0  0  0  0  0  0  0  0
  153.9499  141.1754  160.2090 H   0  0  0  0  0  0  0  0  0  0  0  0
  1  2  2  0  0  0  0
  2  3  1  0  0  0  0
  2 10  1  0  0  0  0
  3  4  1  0  0  0  0
  3 18  1  0  0  0  0
  3 19  1  0  0  0  0
  4  9  1  0  0  0  0
  4  5  1  0  0  0  0
  4 20  1  0  0  0  0
  5  6  1  0  0  0  0
  5 21  1  0  0  0  0
  5 22  1  0  0  0  0
  6  7  1  0  0  0  0
  6 23  1  0  0  0  0
  6 24  1  0  0  0  0
  7  8  1  0  0  0  0
  7 25  1  0  0  0  0
  7 26  1  0  0  0  0
  8  9  1  0  0  0  0
  8 27  1  0  0  0  0
  8 28  1  0  0  0  0
  9 29  1  0  0  0  0
  9 30  1  0  0  0  0
 10 11  1  0  0  0  0
 10 31  1  0  0  0  0
 11 12  1  0  0  0  0
 11 32  1  0  0  0  0
 11 33  1  0  0  0  0
 12 13  1  0  0  0  0
 12 34  1  0  0  0  0
 12 35  1  0  0  0  0
 13 17  1  0  0  0  0
 13 14  1  0  0  0  0
 14 15  2  0  0  0  0
 14 36  1  0  0  0  0
 15 16  1  0  0  0  0
 15 37  1  0  0  0  0
 16 17  2  0  0  0  0
 17 38  1  0  0  0  0
M  END
> <s_m_source_file>
AV-unprocessed.smi

> <i_m_source_file_index>
822

> <i_lp_mmshare_version>
43012

> <i_f3d_flags>
0

> <s_epik_input>
W0NIMl0xW0NIMl1bQ0gyXVtDSDJdW0NIMl1bQ0hdMVtDSDJdQyg9TylbTkhdW0NIMl1bQ0gyXW4yW2NIXVtjSF1uW2NIXTI=

> <s_epik_cmdline>
J2VwaWtfcHl0aG9uJywgJy1waCcsICc3LjAnLCAnLXRuJywgJzgnLCAnLW1hJywgJzIwMCcsICctbWV0YWxfYmluZGluZycsICctaW1hZScsICc8aW5maWxlLm1hZT4nLCAnLW9tYWUnLCAnPG91dGZpbGUubWFlPic=

> <r_lp_tautomer_probability>
1

> <r_epik_Ionization_Penalty>
0.600603

> <r_epik_Ionization_Penalty_Charging>
0.600603

> <r_epik_Ionization_Penalty_Neutral>
2.18922e-08

> <r_epik_State_Penalty>
0.614954

> <r_epik_Charging_Adjusted_Penalty>
1.21556

> <i_epik_Tot_Q>
0

> <i_epik_Tot_abs_Q>
0

> <r_epik_Metal_State_Penalty>
0.301281

> <b_epik_Metal_Only>
0

> <s_lp_Force_Field>
OPLS_2005

> <r_lp_Energy>
10.0857

> <b_lp_Chiralities_Consistent>
1

> <s_lp_Variant>
AV-unprocessed.smi:822-2

> <Gold.Version>
5.8.1

> <Gold.Id.Protein>
6NUR|6NUR_protein|mol2

> <Gold.PLP.Fitness>
42.6082

> <Gold.PLP.PLP>
-41.0162

> <Gold.PLP.part.hbond>
-1.6213

> <Gold.PLP.part.metal>
0.0000

> <Gold.PLP.part.buried>
-3.3357

> <Gold.PLP.part.nonpolar>
-36.1241

> <Gold.PLP.part.repulsive>
0.0302

> <Gold.PLP.ligand.clash>
0.0000

> <Gold.PLP.ligand.torsion>
0.7069

> <Gold.PLP.Chemscore.Hbond>
0.9760

> <Gold.PLP.Chemscore.CHOScore>
0.0000

> <Gold.PLP.Chemscore.Metal>
0.0000

> <Gold.Chemscore.Hbonds>
donor molecule, donor type, donor heavy atom, donor atom, acceptor molecule, acceptor atom, score
      L1  H    10    31       P1  8028  0.47

> <Gold.PLP.Chemscore.Internal.Correction>
0.0778

> <Gold.Rescore>
     Score         DG    S(hbond)    S(metal)    S(lipo)     H(rot)  DE(clash)    DE(int)     intcor
     13.66     -14.40       0.98        0.00      91.34       1.97       0.27       0.46       ----

> <Gold.Chemscore.Fitness>
13.6605

> <Gold.Chemscore.DG>
-14.4000

> <Gold.Chemscore.ZeroCoef>
-5.4800

> <Gold.Chemscore.Hbond>
0.9804

> <Gold.Chemscore.Metal>
0.0000

> <Gold.Chemscore.Lipo>
91.3384

> <Gold.Chemscore.Internal_Hbond>
0.0000

> <Gold.Chemscore.DEClash>
0.2746

> <Gold.Chemscore.DEInternal>
0.4649

> <Gold.Chemscore.Rot>
1.9692

> <Gold.Chemscore.Internal.Correction>
   9.000000E+99

> <Gold.Chemscore.Hbonds>
donor molecule, donor type, donor heavy atom, donor atom, acceptor molecule, acceptor atom, score
      L1  H    10    31       P1  8028  0.46

> <Gold.Chemscore.Hbond.Weighted>
-3.2745

> <Gold.Chemscore.Metal.Weighted>
-0.0000

> <Gold.Chemscore.Lipo.Weighted>
-10.6866

> <Gold.Chemscore.Internal_Hbond.Weighted>
0.0000

> <Gold.Chemscore.DEClash.Weighted>
0.2746

> <Gold.Chemscore.DEInternal.Weighted>
0.4649

> <Gold.Chemscore.Rot.Weighted>
5.0410

> <Gold.Chemscore.Internal.Correction.Weighted>
   9.000000E+99

> <Gold.Protein.RotatedTorsions>
[ 6907 6896 6895 6894 ] final   -5.06 input  -60.11 | X-H torsion
[ 7974 7965 7964 7962 ] final  -64.97 input  175.53 | X-H torsion
[ 8008 7997 7996 7995 ] final  -69.73 input   59.86 | X-H torsion
[ 10167 10162 10161 10158 ] final  -41.90 input  -65.29 | X-H torsion
[ 10718 10713 10712 10709 ] final   34.92 input   66.30 | X-H torsion
[ 10763 10752 10751 10750 ] final   17.45 input  -60.55 | X-H torsion
[ 11005 11000 10999 10996 ] final   73.17 input  -57.11 | X-H torsion

> <Gold.Protein.ActiveResidues>
 VAL166  LYS551  ARG553  GLY616  TRP617  ASP618  TYR619  PRO620  LYS621  CYS622 
 ASP623  PHE694  ASN695  SER759  ASP760  ASP761  ALA762  ILE779  LEU786  VAL792 
 PHE793  MET794  SER795  GLU796  ALA797  LYS798  CYS799  TRP800  GLU811  SER814 

> <Gold.Protein.RotatedAtoms>
  151.4877  135.1056  159.9794 H   0  0  0  0  0  0  0  0  0  0  0  0  # atno 6907 bound_to 6896
  152.4754  133.8122  159.7020 H   0  0  0  0  0  0  0  0  0  0  0  0  # atno 6908 bound_to 6896
  150.8788  133.7339  159.2964 H   0  0  0  0  0  0  0  0  0  0  0  0  # atno 6909 bound_to 6896
  145.7601  140.8865  143.0434 H   0  0  0  0  0  0  0  0  0  0  0  0  # atno 7974 bound_to 7965
  154.4960  140.0848  156.7697 H   0  0  0  0  0  0  0  0  0  0  0  0  # atno 8008 bound_to 7997
  155.4115  140.3441  155.4246 H   0  0  0  0  0  0  0  0  0  0  0  0  # atno 8009 bound_to 7997
  156.1394  140.1525  156.8931 H   0  0  0  0  0  0  0  0  0  0  0  0  # atno 8010 bound_to 7997
  140.6987  143.3068  151.3133 H   0  0  0  0  0  0  0  0  0  0  0  0  # atno 10167 bound_to 10162
  157.3163  130.7425  149.6756 H   0  0  0  0  0  0  0  0  0  0  0  0  # atno 10718 bound_to 10713
  153.1338  135.6746  153.9135 H   0  0  0  0  0  0  0  0  0  0  0  0  # atno 10763 bound_to 10752
  153.8613  135.3081  155.3439 H   0  0  0  0  0  0  0  0  0  0  0  0  # atno 10764 bound_to 10752
  154.7730  135.4929  153.9770 H   0  0  0  0  0  0  0  0  0  0  0  0  # atno 10765 bound_to 10752
  139.9453  134.7324  156.0994 H   0  0  0  0  0  0  0  0  0  0  0  0  # atno 11005 bound_to 11000
  144.6832  139.9711  143.7482 LP  0  0  0  0  0  0  0  0  0  0  0  0  # atno 17320 bound_to 7965
  146.0272  139.3303  143.0777 LP  0  0  0  0  0  0  0  0  0  0  0  0  # atno 17321 bound_to 7965
  139.6476  144.0421  152.2603 LP  0  0  0  0  0  0  0  0  0  0  0  0  # atno 17342 bound_to 10162
  139.9947  144.6336  150.7783 LP  0  0  0  0  0  0  0  0  0  0  0  0  # atno 17343 bound_to 10162
  155.9682  130.4236  150.4571 LP  0  0  0  0  0  0  0  0  0  0  0  0  # atno 17370 bound_to 10713
  157.2579  131.0560  151.2339 LP  0  0  0  0  0  0  0  0  0  0  0  0  # atno 17371 bound_to 10713
  141.1102  133.6646  156.2960 LP  0  0  0  0  0  0  0  0  0  0  0  0  # atno 17394 bound_to 11000
  140.5849  134.5708  157.5487 LP  0  0  0  0  0  0  0  0  0  0  0  0  # atno 17395 bound_to 11000

$$$$
