AV-unprocessed.smi:1570|AV-procd|sdf|6318|dock2
  -GOLD-   22720 6523D 1   1.00000     0.00000
 Structure written by MMmdl.
 52 54  0  0  0  0  0  0  0  0  2 V2000
  153.5772  139.1420  160.1408 C   0  0  0  0  0  0  0  0  0  0  0  0
  153.5278  140.6171  160.5591 C   0  0  0  0  0  0  0  0  0  0  0  0
  152.6065  141.3743  159.7158 N   0  0  0  0  0  0  0  0  0  0  0  0
  152.3278  141.1384  158.4123 C   0  0  0  0  0  0  0  0  0  0  0  0
  152.7992  140.2338  157.7237 O   0  0  0  0  0  0  0  0  0  0  0  0
  151.4697  142.0952  157.9851 N   0  0  0  0  0  0  0  0  0  0  0  0
  150.9443  142.2575  156.6298 C   0  0  0  0  0  0  0  0  0  0  0  0
  150.5430  140.9076  156.0007 C   0  0  2  0  0  0  0  0  0  0  0  0
  151.7073  140.3148  155.4624 O   0  0  0  0  0  0  0  0  0  0  0  0
  149.4973  141.0495  154.8734 C   0  0  0  0  0  0  0  0  0  0  0  0
  148.1941  141.5623  155.3647 N   0  3  1  0  0  0  0  0  0  0  0  0
  147.1426  141.5970  154.3184 C   0  0  0  0  0  0  0  0  0  0  0  0
  145.8338  142.1776  154.8855 C   0  0  1  0  0  0  0  0  0  0  0  0
  144.6990  142.1508  153.8555 C   0  0  0  0  0  0  0  0  0  0  0  0
  145.4305  141.4041  156.0103 O   0  0  0  0  0  0  0  0  0  0  0  0
  146.3870  141.4292  157.0643 C   0  0  1  0  0  0  0  0  0  0  0  0
  145.8117  140.6463  158.2497 C   0  0  0  0  0  0  0  0  0  0  0  0
  147.7102  140.8263  156.5562 C   0  0  0  0  0  0  0  0  0  0  0  0
  151.2009  142.9744  159.0439 C   0  0  0  0  0  0  0  0  0  0  0  0
  150.3936  144.1235  159.1093 C   0  0  0  0  0  0  0  0  0  0  0  0
  150.3436  144.8090  160.3455 C   0  0  0  0  0  0  0  0  0  0  0  0
  151.0841  144.3461  161.4641 C   0  0  0  0  0  0  0  0  0  0  0  0
  151.8892  143.1866  161.3705 C   0  0  0  0  0  0  0  0  0  0  0  0
  151.9182  142.5228  160.1317 C   0  0  0  0  0  0  0  0  0  0  0  0
  154.2662  138.5829  160.7741 H   0  0  0  0  0  0  0  0  0  0  0  0
  153.9136  139.0352  159.1091 H   0  0  0  0  0  0  0  0  0  0  0  0
  152.5956  138.6743  160.2242 H   0  0  0  0  0  0  0  0  0  0  0  0
  153.2250  140.6962  161.6043 H   0  0  0  0  0  0  0  0  0  0  0  0
  154.5240  141.0565  160.4996 H   0  0  0  0  0  0  0  0  0  0  0  0
  150.0963  142.9447  156.6288 H   0  0  0  0  0  0  0  0  0  0  0  0
  151.7163  142.7365  156.0260 H   0  0  0  0  0  0  0  0  0  0  0  0
  150.1761  140.2507  156.7883 H   0  0  0  0  0  0  0  0  0  0  0  0
  151.7754  139.4303  155.7891 H   0  0  0  0  0  0  0  0  0  0  0  0
  149.8524  141.7161  154.0877 H   0  0  0  0  0  0  0  0  0  0  0  0
  149.3613  140.0746  154.4020 H   0  0  0  0  0  0  0  0  0  0  0  0
  147.4682  142.1994  153.4709 H   0  0  0  0  0  0  0  0  0  0  0  0
  146.9709  140.5868  153.9424 H   0  0  0  0  0  0  0  0  0  0  0  0
  145.9937  143.2109  155.1985 H   0  0  0  0  0  0  0  0  0  0  0  0
  144.9532  142.7423  152.9755 H   0  0  0  0  0  0  0  0  0  0  0  0
  143.7806  142.5606  154.2764 H   0  0  0  0  0  0  0  0  0  0  0  0
  144.4887  141.1330  153.5255 H   0  0  0  0  0  0  0  0  0  0  0  0
  146.5498  142.4623  157.3774 H   0  0  0  0  0  0  0  0  0  0  0  0
  146.5049  140.6411  159.0911 H   0  0  0  0  0  0  0  0  0  0  0  0
  145.6075  139.6103  157.9775 H   0  0  0  0  0  0  0  0  0  0  0  0
  144.8769  141.0902  158.5926 H   0  0  0  0  0  0  0  0  0  0  0  0
  147.5750  139.7735  156.3026 H   0  0  0  0  0  0  0  0  0  0  0  0
  148.4613  140.8727  157.3460 H   0  0  0  0  0  0  0  0  0  0  0  0
  149.8341  144.4726  158.2540 H   0  0  0  0  0  0  0  0  0  0  0  0
  149.7352  145.6966  160.4388 H   0  0  0  0  0  0  0  0  0  0  0  0
  151.0333  144.8859  162.3982 H   0  0  0  0  0  0  0  0  0  0  0  0
  152.4568  142.8315  162.2178 H   0  0  0  0  0  0  0  0  0  0  0  0
  148.3548  142.5138  155.6642 H   0  0  0  0  0  0  0  0  0  0  0  0
  1  2  1  0  0  0  0
  1 25  1  0  0  0  0
  1 26  1  0  0  0  0
  1 27  1  0  0  0  0
  2  3  1  0  0  0  0
  2 28  1  0  0  0  0
  2 29  1  0  0  0  0
  3 24  1  0  0  0  0
  3  4  1  0  0  0  0
  4  5  2  0  0  0  0
  4  6  1  0  0  0  0
  6  7  1  0  0  0  0
  6 19  1  0  0  0  0
  7  8  1  0  0  0  0
  7 30  1  0  0  0  0
  7 31  1  0  0  0  0
  8  9  1  0  0  0  0
  8 10  1  0  0  0  0
  8 32  1  0  0  0  0
  9 33  1  0  0  0  0
 10 11  1  0  0  0  0
 10 34  1  0  0  0  0
 10 35  1  0  0  0  0
 11 18  1  0  0  0  0
 11 12  1  0  0  0  0
 11 52  1  0  0  0  0
 12 13  1  0  0  0  0
 12 36  1  0  0  0  0
 12 37  1  0  0  0  0
 13 14  1  0  0  0  0
 13 15  1  0  0  0  0
 13 38  1  0  0  0  0
 14 39  1  0  0  0  0
 14 40  1  0  0  0  0
 14 41  1  0  0  0  0
 15 16  1  0  0  0  0
 16 17  1  0  0  0  0
 16 18  1  0  0  0  0
 16 42  1  0  0  0  0
 17 43  1  0  0  0  0
 17 44  1  0  0  0  0
 17 45  1  0  0  0  0
 18 46  1  0  0  0  0
 18 47  1  0  0  0  0
 19 24  2  0  0  0  0
 19 20  1  0  0  0  0
 20 21  2  0  0  0  0
 20 48  1  0  0  0  0
 21 22  1  0  0  0  0
 21 49  1  0  0  0  0
 22 23  2  0  0  0  0
 22 50  1  0  0  0  0
 23 24  1  0  0  0  0
 23 51  1  0  0  0  0
M  CHG  1  11   1
M  END
> <s_m_source_file>
AV-unprocessed.smi

> <i_m_source_file_index>
1570

> <i_lp_mmshare_version>
43012

> <i_f3d_flags>
0

> <s_epik_input>
W2NIXTFbY0hdW2NIXVtjSF1jKGMxMiluKFtDSDJdW0NIM10pYyg9TyluMltDSDJdW0NASF0oW09IXSlbQ0gyXU4zW0NIMl1bQ0BASF0oW0NIM10pT1tDQEBIXShbQ0gzXSlbQ0gyXTM=

> <s_epik_cmdline>
J2VwaWtfcHl0aG9uJywgJy1waCcsICc3LjAnLCAnLXRuJywgJzgnLCAnLW1hJywgJzIwMCcsICctbWV0YWxfYmluZGluZycsICctaW1hZScsICc8aW5maWxlLm1hZT4nLCAnLW9tYWUnLCAnPG91dGZpbGUubWFlPic=

> <r_epik_Ionization_Penalty>
0.706332

> <r_epik_Ionization_Penalty_Charging>
0.706318

> <r_epik_Ionization_Penalty_Neutral>
1.42224e-05

> <r_epik_State_Penalty>
0.729493

> <r_epik_Charging_Adjusted_Penalty>
1.43581

> <i_epik_Tot_Q>
1

> <i_epik_Tot_abs_Q>
1

> <r_epik_Metal_State_Penalty>
0.729493

> <b_epik_Metal_Only>
0

> <s_lp_Force_Field>
OPLS_2005

> <r_lp_Energy>
50.1879

> <b_lp_Chiralities_Consistent>
1

> <s_lp_Variant>
AV-unprocessed.smi:1570-7

> <Gold.Version>
5.8.1

> <Gold.Id.Protein>
6NUR|6NUR_protein|mol2

> <Gold.PLP.Fitness>
59.9741

> <Gold.PLP.PLP>
-49.6881

> <Gold.PLP.part.hbond>
-3.0000

> <Gold.PLP.part.metal>
0.0000

> <Gold.PLP.part.buried>
-6.6034

> <Gold.PLP.part.nonpolar>
-40.1404

> <Gold.PLP.part.repulsive>
0.2089

> <Gold.PLP.ligand.clash>
0.0000

> <Gold.PLP.ligand.torsion>
0.9307

> <Gold.PLP.Chemscore.Hbond>
4.0000

> <Gold.PLP.Chemscore.CHOScore>
0.0000

> <Gold.PLP.Chemscore.Metal>
0.0000

> <Gold.Chemscore.Hbonds>
donor molecule, donor type, donor heavy atom, donor atom, acceptor molecule, acceptor atom, score
      L1  H    11    52       P1  8028  0.88
      P1  H  7989  7998       L1     9  0.83
      P1  H  7997  8009       L1     5  0.93

> <Gold.PLP.Chemscore.Internal.Correction>
0.1474

> <Gold.Rescore>
     Score         DG    S(hbond)    S(metal)    S(lipo)     H(rot)  DE(clash)    DE(int)     intcor
     19.04     -20.91       1.91        0.00     124.06       2.13       0.03       1.85       ----

> <Gold.Chemscore.Fitness>
19.0377

> <Gold.Chemscore.DG>
-20.9133

> <Gold.Chemscore.ZeroCoef>
-5.4800

> <Gold.Chemscore.Hbond>
1.9078

> <Gold.Chemscore.Metal>
0.0000

> <Gold.Chemscore.Lipo>
124.0594

> <Gold.Chemscore.Internal_Hbond>
0.0000

> <Gold.Chemscore.DEClash>
0.0304

> <Gold.Chemscore.DEInternal>
1.8451

> <Gold.Chemscore.Rot>
2.1303

> <Gold.Chemscore.Internal.Correction>
   9.000000E+99

> <Gold.Chemscore.Hbonds>
donor molecule, donor type, donor heavy atom, donor atom, acceptor molecule, acceptor atom, score
      L1  H    11    52       P1  8028  0.43
      P1  H  7989  7998       L1     9  0.31
      P1  H  7997  8009       L1     5  0.91

> <Gold.Chemscore.Hbond.Weighted>
-6.3719

> <Gold.Chemscore.Metal.Weighted>
-0.0000

> <Gold.Chemscore.Lipo.Weighted>
-14.5149

> <Gold.Chemscore.Internal_Hbond.Weighted>
0.0000

> <Gold.Chemscore.DEClash.Weighted>
0.0304

> <Gold.Chemscore.DEInternal.Weighted>
1.8451

> <Gold.Chemscore.Rot.Weighted>
5.4535

> <Gold.Chemscore.Internal.Correction.Weighted>
   9.000000E+99

> <Gold.Protein.RotatedTorsions>
[ 6907 6896 6895 6894 ] final   -1.36 input  -60.11 | X-H torsion
[ 7974 7965 7964 7962 ] final  111.83 input  175.53 | X-H torsion
[ 8008 7997 7996 7995 ] final  160.13 input   59.86 | X-H torsion
[ 10167 10162 10161 10158 ] final  174.12 input  -65.29 | X-H torsion
[ 10718 10713 10712 10709 ] final -162.14 input   66.30 | X-H torsion
[ 10763 10752 10751 10750 ] final  -48.45 input  -60.55 | X-H torsion
[ 11005 11000 10999 10996 ] final   98.96 input  -57.11 | X-H torsion

> <Gold.Protein.ActiveResidues>
 VAL166  LYS551  ARG553  GLY616  TRP617  ASP618  TYR619  PRO620  LYS621  CYS622 
 ASP623  PHE694  ASN695  SER759  ASP760  ASP761  ALA762  ILE779  LEU786  VAL792 
 PHE793  MET794  SER795  GLU796  ALA797  LYS798  CYS799  TRP800  GLU811  SER814 

> <Gold.Protein.RotatedAtoms>
  151.5473  135.1068  159.9940 H   0  0  0  0  0  0  0  0  0  0  0  0  # atno 6907 bound_to 6896
  152.4508  133.7621  159.6763 H   0  0  0  0  0  0  0  0  0  0  0  0  # atno 6908 bound_to 6896
  150.8436  133.7831  159.3076 H   0  0  0  0  0  0  0  0  0  0  0  0  # atno 6909 bound_to 6896
  145.2373  139.2794  143.4136 H   0  0  0  0  0  0  0  0  0  0  0  0  # atno 7974 bound_to 7965
  156.2193  140.1812  156.7515 H   0  0  0  0  0  0  0  0  0  0  0  0  # atno 8008 bound_to 7997
  154.5840  140.0661  156.9173 H   0  0  0  0  0  0  0  0  0  0  0  0  # atno 8009 bound_to 7997
  155.2452  140.3325  155.4290 H   0  0  0  0  0  0  0  0  0  0  0  0  # atno 8010 bound_to 7997
  139.5131  144.3183  152.0227 H   0  0  0  0  0  0  0  0  0  0  0  0  # atno 10167 bound_to 10162
  156.6062  130.8831  151.2926 H   0  0  0  0  0  0  0  0  0  0  0  0  # atno 10718 bound_to 10713
  154.0780  135.6595  153.4833 H   0  0  0  0  0  0  0  0  0  0  0  0  # atno 10763 bound_to 10752
  153.0366  135.5173  154.7502 H   0  0  0  0  0  0  0  0  0  0  0  0  # atno 10764 bound_to 10752
  154.6588  135.3012  154.9861 H   0  0  0  0  0  0  0  0  0  0  0  0  # atno 10765 bound_to 10752
  139.8771  134.9073  156.4534 H   0  0  0  0  0  0  0  0  0  0  0  0  # atno 11005 bound_to 11000
  146.3338  140.2726  142.8606 LP  0  0  0  0  0  0  0  0  0  0  0  0  # atno 17320 bound_to 7965
  144.9621  140.8286  143.5507 LP  0  0  0  0  0  0  0  0  0  0  0  0  # atno 17321 bound_to 7965
  140.2626  144.4051  150.6180 LP  0  0  0  0  0  0  0  0  0  0  0  0  # atno 17342 bound_to 10162
  140.6146  143.2171  151.6817 LP  0  0  0  0  0  0  0  0  0  0  0  0  # atno 17343 bound_to 10162
  157.7266  130.9632  150.1664 LP  0  0  0  0  0  0  0  0  0  0  0  0  # atno 17370 bound_to 10713
  156.2427  130.3692  149.8319 LP  0  0  0  0  0  0  0  0  0  0  0  0  # atno 17371 bound_to 10713
  140.8915  133.7845  155.9577 LP  0  0  0  0  0  0  0  0  0  0  0  0  # atno 17394 bound_to 11000
  140.8748  134.2683  157.5173 LP  0  0  0  0  0  0  0  0  0  0  0  0  # atno 17395 bound_to 11000

$$$$
