AV-unprocessed.smi:1|AV-procd|sdf|19|dock3
  -GOLD-   2262015123D 1   1.00000     0.00000
 Structure written by MMmdl.
 56 61  0  0  0  0  0  0  0  0  2 V2000
  145.3303  132.2595  151.9891 O   0  0  0  0  0  0  0  0  0  0  0  0
  146.1057  131.8453  152.8536 C   0  0  0  0  0  0  0  0  0  0  0  0
  146.5082  132.4782  153.9846 N   0  5  0  0  0  0  0  0  0  0  0  0
  146.5445  133.8187  154.0239 C   0  0  0  0  0  0  0  0  0  0  0  0
  145.7853  134.5505  153.1682 N   0  0  0  0  0  0  0  0  0  0  0  0
  145.8170  135.8880  153.2086 C   0  0  0  0  0  0  0  0  0  0  0  0
  146.5216  136.6883  154.0149 N   0  0  0  0  0  0  0  0  0  0  0  0
  147.2808  135.9615  154.8853 C   0  0  0  0  0  0  0  0  0  0  0  0
  147.3422  134.5401  154.9540 C   0  0  0  0  0  0  0  0  0  0  0  0
  148.2090  134.1353  155.9591 N   0  0  0  0  0  0  0  0  0  0  0  0
  148.6259  135.3042  156.4432 C   0  0  0  0  0  0  0  0  0  0  0  0
  148.1305  136.4220  155.8732 N   0  0  0  0  0  0  0  0  0  0  0  0
  148.4044  137.8518  156.2019 C   0  0  2  0  0  0  0  0  0  0  0  0
  149.7828  138.0485  156.2314 O   0  0  0  0  0  0  0  0  0  0  0  0
  150.0403  139.1493  157.0886 C   0  0  2  0  0  0  0  0  0  0  0  0
  151.5255  139.2303  157.4653 C   0  0  0  0  0  0  0  0  0  0  0  0
  151.7535  140.4437  158.1643 O   0  0  0  0  0  0  0  0  0  0  0  0
  151.3383  141.6162  157.6479 C   0  0  0  0  0  0  0  0  0  0  0  0
  150.8629  141.7354  156.5169 O   0  0  0  0  0  0  0  0  0  0  0  0
  151.5263  142.7593  158.5872 C   0  0  0  0  0  0  0  0  0  0  0  0
  151.1509  144.0606  158.1796 C   0  0  0  0  0  0  0  0  0  0  0  0
  151.3258  145.1608  159.0417 C   0  0  0  0  0  0  0  0  0  0  0  0
  151.8757  144.9726  160.3230 C   0  0  0  0  0  0  0  0  0  0  0  0
  152.2501  143.6827  160.7416 C   0  0  0  0  0  0  0  0  0  0  0  0
  152.0778  142.5814  159.8803 C   0  0  0  0  0  0  0  0  0  0  0  0
  149.0807  138.9058  158.2570 C   0  0  2  0  0  0  0  0  0  0  0  0
  149.6533  137.9967  159.1825 O   0  0  0  0  0  0  0  0  0  0  0  0
  148.5600  136.7789  159.5096 S   0  0  0  0  0  0  0  0  0  0  0  0
  149.1856  135.4947  159.1601 O   0  0  0  0  0  0  0  0  0  0  0  0
  147.9697  137.0368  160.8319 O   0  0  0  0  0  0  0  0  0  0  0  0
  147.4153  137.1425  158.3499 O   0  0  0  0  0  0  0  0  0  0  0  0
  147.8592  138.2542  157.5870 C   0  0  2  0  0  0  0  0  0  0  0  0
  146.6531  130.4488  152.7281 C   0  0  0  0  0  0  0  0  0  0  0  0
  146.0878  129.5562  151.7887 C   0  0  0  0  0  0  0  0  0  0  0  0
  146.6005  128.2526  151.6408 C   0  0  0  0  0  0  0  0  0  0  0  0
  147.6911  127.8308  152.4240 C   0  0  0  0  0  0  0  0  0  0  0  0
  148.2718  128.7153  153.3522 C   0  0  0  0  0  0  0  0  0  0  0  0
  147.7594  130.0190  153.5010 C   0  0  0  0  0  0  0  0  0  0  0  0
  145.1849  136.3893  152.4910 H   0  0  0  0  0  0  0  0  0  0  0  0
  149.3267  135.3479  157.2640 H   0  0  0  0  0  0  0  0  0  0  0  0
  147.9582  138.4218  155.3854 H   0  0  0  0  0  0  0  0  0  0  0  0
  149.7465  140.0592  156.5614 H   0  0  0  0  0  0  0  0  0  0  0  0
  151.8051  138.3693  158.0743 H   0  0  0  0  0  0  0  0  0  0  0  0
  152.1460  139.2095  156.5690 H   0  0  0  0  0  0  0  0  0  0  0  0
  150.7292  144.2302  157.1992 H   0  0  0  0  0  0  0  0  0  0  0  0
  151.0386  146.1504  158.7181 H   0  0  0  0  0  0  0  0  0  0  0  0
  152.0108  145.8163  160.9835 H   0  0  0  0  0  0  0  0  0  0  0  0
  152.6716  143.5367  161.7253 H   0  0  0  0  0  0  0  0  0  0  0  0
  152.3765  141.6052  160.2332 H   0  0  0  0  0  0  0  0  0  0  0  0
  148.8247  139.8278  158.7796 H   0  0  0  0  0  0  0  0  0  0  0  0
  147.0452  138.9666  157.4499 H   0  0  0  0  0  0  0  0  0  0  0  0
  145.2508  129.8650  151.1790 H   0  0  0  0  0  0  0  0  0  0  0  0
  146.1567  127.5769  150.9248 H   0  0  0  0  0  0  0  0  0  0  0  0
  148.0846  126.8317  152.3103 H   0  0  0  0  0  0  0  0  0  0  0  0
  149.1123  128.3953  153.9499 H   0  0  0  0  0  0  0  0  0  0  0  0
  148.2255  130.6857  154.2122 H   0  0  0  0  0  0  0  0  0  0  0  0
  1  2  2  0  0  0  0
  2  3  1  0  0  0  0
  2 33  1  0  0  0  0
  3  4  1  0  0  0  0
  4  9  1  0  0  0  0
  4  5  2  0  0  0  0
  5  6  1  0  0  0  0
  6  7  2  0  0  0  0
  6 39  1  0  0  0  0
  7  8  1  0  0  0  0
  8 12  1  0  0  0  0
  8  9  2  0  0  0  0
  9 10  1  0  0  0  0
 10 11  2  0  0  0  0
 11 12  1  0  0  0  0
 11 40  1  0  0  0  0
 12 13  1  0  0  0  0
 13 32  1  0  0  0  0
 13 14  1  0  0  0  0
 13 41  1  0  0  0  0
 14 15  1  0  0  0  0
 15 16  1  0  0  0  0
 15 26  1  0  0  0  0
 15 42  1  0  0  0  0
 16 17  1  0  0  0  0
 16 43  1  0  0  0  0
 16 44  1  0  0  0  0
 17 18  1  0  0  0  0
 18 19  2  0  0  0  0
 18 20  1  0  0  0  0
 20 25  1  0  0  0  0
 20 21  2  0  0  0  0
 21 22  1  0  0  0  0
 21 45  1  0  0  0  0
 22 23  2  0  0  0  0
 22 46  1  0  0  0  0
 23 24  1  0  0  0  0
 23 47  1  0  0  0  0
 24 25  2  0  0  0  0
 24 48  1  0  0  0  0
 25 49  1  0  0  0  0
 26 32  1  0  0  0  0
 26 27  1  0  0  0  0
 26 50  1  0  0  0  0
 27 28  1  0  0  0  0
 28 29  2  0  0  0  0
 28 30  2  0  0  0  0
 28 31  1  0  0  0  0
 31 32  1  0  0  0  0
 32 51  1  0  0  0  0
 33 38  1  0  0  0  0
 33 34  2  0  0  0  0
 34 35  1  0  0  0  0
 34 52  1  0  0  0  0
 35 36  2  0  0  0  0
 35 53  1  0  0  0  0
 36 37  1  0  0  0  0
 36 54  1  0  0  0  0
 37 38  2  0  0  0  0
 37 55  1  0  0  0  0
 38 56  1  0  0  0  0
M  CHG  1   3  -1
M  END
> <s_m_source_file>
AV-unprocessed.smi

> <i_m_source_file_index>
1

> <i_lp_mmshare_version>
43012

> <i_f3d_flags>
0

> <s_epik_input>
W2NIXTFbY0hdW2NIXVtjSF1bY0hdYzFDKD1PKVtOSF1jKG5bY0hdbjIpYyhjMjMpbltjSF1uM1tDQEBIXShbQ0BIXShbQ0BIXTQ1KU9TKE81KSg9Tyk9TylPW0NASF00W0NIMl1PQyg9TyljNltjSF1bY0hdW2NIXVtjSF1bY0hdNg==

> <s_epik_cmdline>
J2VwaWtfcHl0aG9uJywgJy1waCcsICc3LjAnLCAnLXRuJywgJzgnLCAnLW1hJywgJzIwMCcsICctbWV0YWxfYmluZGluZycsICctaW1hZScsICc8aW5maWxlLm1hZT4nLCAnLW9tYWUnLCAnPG91dGZpbGUubWFlPic=

> <r_lp_tautomer_probability>
1

> <r_epik_Ionization_Penalty>
4.39121

> <r_epik_Ionization_Penalty_Charging>
3.39398

> <r_epik_Ionization_Penalty_Neutral>
0.997232

> <r_epik_State_Penalty>
3.39839

> <r_epik_Charging_Adjusted_Penalty>
6.79237

> <i_epik_Tot_Q>
-1

> <i_epik_Tot_abs_Q>
1

> <r_epik_Metal_State_Penalty>
0.497663

> <b_epik_Metal_Only>
1

> <s_epik_Chemistry_Notes>
This compound has an ester and may undergo hydrolysis at high or low pH. This compound contains an acetal/aminal-like group ( X-CH(R)-Y where X, Y are N, S, or O) that may be acid/base labile, releasing an aldehyde.

> <s_lp_Force_Field>
OPLS_2005

> <r_lp_Energy>
44.2661

> <b_lp_Chiralities_Consistent>
1

> <s_lp_Variant>
AV-unprocessed.smi:1-19

> <Gold.Version>
5.8.1

> <Gold.Id.Protein>
6NUR|6NUR_protein|mol2

> <Gold.PLP.Fitness>
58.1994

> <Gold.PLP.PLP>
-51.0055

> <Gold.PLP.part.hbond>
-3.7873

> <Gold.PLP.part.metal>
0.0000

> <Gold.PLP.part.buried>
-7.4632

> <Gold.PLP.part.nonpolar>
-40.6312

> <Gold.PLP.part.repulsive>
0.6024

> <Gold.PLP.ligand.clash>
0.0000

> <Gold.PLP.ligand.torsion>
0.5911

> <Gold.PLP.Chemscore.Hbond>
2.6093

> <Gold.PLP.Chemscore.CHOScore>
0.0000

> <Gold.PLP.Chemscore.Metal>
0.0000

> <Gold.Chemscore.Hbonds>
donor molecule, donor type, donor heavy atom, donor atom, acceptor molecule, acceptor atom, score
      P1  H  6896  6908       L1    29  1.00
      P1  H  6931  6943       L1    30  0.94
      P1  H  6934  6947       L1    30  0.60

> <Gold.PLP.Chemscore.Internal.Correction>
0.5483

> <Gold.Rescore>
     Score         DG    S(hbond)    S(metal)    S(lipo)     H(rot)  DE(clash)    DE(int)     intcor
     17.00     -23.46       2.42        0.00     130.90       2.11       0.17       6.29       ----

> <Gold.Chemscore.Fitness>
17.0007

> <Gold.Chemscore.DG>
-23.4613

> <Gold.Chemscore.ZeroCoef>
-5.4800

> <Gold.Chemscore.Hbond>
2.4181

> <Gold.Chemscore.Metal>
0.0000

> <Gold.Chemscore.Lipo>
130.9037

> <Gold.Chemscore.Internal_Hbond>
0.0000

> <Gold.Chemscore.DEClash>
0.1705

> <Gold.Chemscore.DEInternal>
6.2901

> <Gold.Chemscore.Rot>
2.1136

> <Gold.Chemscore.Internal.Correction>
   9.000000E+99

> <Gold.Chemscore.Hbonds>
donor molecule, donor type, donor heavy atom, donor atom, acceptor molecule, acceptor atom, score
      P1  H  6896  6908       L1    29  0.99
      P1  H  6931  6943       L1    30  0.74
      P1  H  6934  6947       L1    30  0.44

> <Gold.Chemscore.Hbond.Weighted>
-8.0763

> <Gold.Chemscore.Metal.Weighted>
-0.0000

> <Gold.Chemscore.Lipo.Weighted>
-15.3157

> <Gold.Chemscore.Internal_Hbond.Weighted>
0.0000

> <Gold.Chemscore.DEClash.Weighted>
0.1705

> <Gold.Chemscore.DEInternal.Weighted>
6.2901

> <Gold.Chemscore.Rot.Weighted>
5.4107

> <Gold.Chemscore.Internal.Correction.Weighted>
   9.000000E+99

> <Gold.Protein.RotatedTorsions>
[ 6907 6896 6895 6894 ] final  158.31 input  -60.11 | X-H torsion
[ 7974 7965 7964 7962 ] final  146.29 input  175.53 | X-H torsion
[ 8008 7997 7996 7995 ] final  138.88 input   59.86 | X-H torsion
[ 10167 10162 10161 10158 ] final    2.34 input  -65.29 | X-H torsion
[ 10718 10713 10712 10709 ] final  147.73 input   66.30 | X-H torsion
[ 10763 10752 10751 10750 ] final -119.06 input  -60.55 | X-H torsion
[ 11005 11000 10999 10996 ] final -108.72 input  -57.11 | X-H torsion

> <Gold.Protein.ActiveResidues>
 VAL166  LYS551  ARG553  GLY616  TRP617  ASP618  TYR619  PRO620  LYS621  CYS622 
 ASP623  PHE694  ASN695  SER759  ASP760  ASP761  ALA762  ILE779  LEU786  VAL792 
 PHE793  MET794  SER795  GLU796  ALA797  LYS798  CYS799  TRP800  GLU811  SER814 

> <Gold.Protein.RotatedAtoms>
  152.0023  133.3830  159.4186 H   0  0  0  0  0  0  0  0  0  0  0  0  # atno 6907 bound_to 6896
  150.6908  134.3820  159.5047 H   0  0  0  0  0  0  0  0  0  0  0  0  # atno 6908 bound_to 6896
  152.1569  134.8943  160.0595 H   0  0  0  0  0  0  0  0  0  0  0  0  # atno 6909 bound_to 6896
  144.8683  139.5887  143.5898 H   0  0  0  0  0  0  0  0  0  0  0  0  # atno 7974 bound_to 7965
  156.2994  140.2382  156.4145 H   0  0  0  0  0  0  0  0  0  0  0  0  # atno 8008 bound_to 7997
  154.8411  140.0428  157.1562 H   0  0  0  0  0  0  0  0  0  0  0  0  # atno 8009 bound_to 7997
  154.9102  140.2989  155.5274 H   0  0  0  0  0  0  0  0  0  0  0  0  # atno 8010 bound_to 7997
  140.6640  143.7229  150.7791 H   0  0  0  0  0  0  0  0  0  0  0  0  # atno 10167 bound_to 10162
  157.3174  131.0898  151.1268 H   0  0  0  0  0  0  0  0  0  0  0  0  # atno 10718 bound_to 10713
  154.8606  135.4251  154.2239 H   0  0  0  0  0  0  0  0  0  0  0  0  # atno 10763 bound_to 10752
  153.3238  135.6984  153.7013 H   0  0  0  0  0  0  0  0  0  0  0  0  # atno 10764 bound_to 10752
  153.6057  135.3528  155.2935 H   0  0  0  0  0  0  0  0  0  0  0  0  # atno 10765 bound_to 10752
  141.0886  133.9094  157.2127 H   0  0  0  0  0  0  0  0  0  0  0  0  # atno 11005 bound_to 11000
  146.2912  139.7144  142.9159 LP  0  0  0  0  0  0  0  0  0  0  0  0  # atno 17320 bound_to 7965
  145.4179  141.0403  143.2980 LP  0  0  0  0  0  0  0  0  0  0  0  0  # atno 17321 bound_to 7965
  140.0903  143.4884  152.2482 LP  0  0  0  0  0  0  0  0  0  0  0  0  # atno 17342 bound_to 10162
  139.5882  144.7540  151.3466 LP  0  0  0  0  0  0  0  0  0  0  0  0  # atno 17343 bound_to 10162
  157.2566  130.6639  149.5955 LP  0  0  0  0  0  0  0  0  0  0  0  0  # atno 17370 bound_to 10713
  155.9683  130.4522  150.5763 LP  0  0  0  0  0  0  0  0  0  0  0  0  # atno 17371 bound_to 10713
  139.9708  135.0128  156.9508 LP  0  0  0  0  0  0  0  0  0  0  0  0  # atno 17394 bound_to 11000
  140.5304  134.0819  155.7314 LP  0  0  0  0  0  0  0  0  0  0  0  0  # atno 17395 bound_to 11000

$$$$
