AV-unprocessed.smi:2491|AV-procd|sdf|9810|dock5
  -GOLD-   2272013443D 1   1.00000     0.00000
 Structure written by MMmdl.
 27 28  0  0  0  0  0  0  0  0  1 V2000
  149.8077  142.4187  155.5456 N   0  0  0  0  0  0  0  0  0  0  0  0
  149.4768  141.3676  156.3034 C   0  0  0  0  0  0  0  0  0  0  0  0
  148.5781  141.4348  157.1390 O   0  0  0  0  0  0  0  0  0  0  0  0
  150.2572  140.0484  156.1189 C   0  0  1  0  0  0  0  0  0  0  0  0
  150.0264  139.5838  154.6596 C   0  0  0  0  0  0  0  0  0  0  0  0
  150.7212  138.3745  154.3900 O   0  0  0  0  0  0  0  0  0  0  0  0
  152.1220  138.5464  154.5325 C   0  0  0  0  0  0  0  0  0  0  0  0
  152.4286  138.8972  155.9934 C   0  0  0  0  0  0  0  0  0  0  0  0
  151.7015  140.0926  156.4218 N   0  0  0  0  0  0  0  0  0  0  0  0
  152.1511  140.6004  157.6398 C   0  0  0  0  0  0  0  0  0  0  0  0
  151.6612  141.7775  158.0531 N   0  0  0  0  0  0  0  0  0  0  0  0
  152.0967  142.2463  159.2424 C   0  0  0  0  0  0  0  0  0  0  0  0
  153.0234  141.5274  160.0227 C   0  0  0  0  0  0  0  0  0  0  0  0
  153.5824  142.1193  161.5435 Cl  0  0  0  0  0  0  0  0  0  0  0  0
  153.4687  140.2990  159.4964 C   0  0  0  0  0  0  0  0  0  0  0  0
  153.0280  139.8388  158.3053 N   0  0  0  0  0  0  0  0  0  0  0  0
  149.3071  143.2894  155.6492 H   0  0  0  0  0  0  0  0  0  0  0  0
  150.5547  142.3366  154.8709 H   0  0  0  0  0  0  0  0  0  0  0  0
  149.8084  139.3064  156.7819 H   0  0  0  0  0  0  0  0  0  0  0  0
  148.9646  139.4089  154.4798 H   0  0  0  0  0  0  0  0  0  0  0  0
  150.3418  140.3489  153.9470 H   0  0  0  0  0  0  0  0  0  0  0  0
  152.6225  137.6182  154.2562 H   0  0  0  0  0  0  0  0  0  0  0  0
  152.4860  139.3206  153.8548 H   0  0  0  0  0  0  0  0  0  0  0  0
  152.1515  138.0639  156.6408 H   0  0  0  0  0  0  0  0  0  0  0  0
  153.5048  139.0365  156.1046 H   0  0  0  0  0  0  0  0  0  0  0  0
  151.7022  143.1964  159.5714 H   0  0  0  0  0  0  0  0  0  0  0  0
  154.1777  139.6832  160.0299 H   0  0  0  0  0  0  0  0  0  0  0  0
  1  2  1  0  0  0  0
  1 17  1  0  0  0  0
  1 18  1  0  0  0  0
  2  3  2  0  0  0  0
  2  4  1  0  0  0  0
  4  9  1  0  0  0  0
  4  5  1  0  0  0  0
  4 19  1  0  0  0  0
  5  6  1  0  0  0  0
  5 20  1  0  0  0  0
  5 21  1  0  0  0  0
  6  7  1  0  0  0  0
  7  8  1  0  0  0  0
  7 22  1  0  0  0  0
  7 23  1  0  0  0  0
  8  9  1  0  0  0  0
  8 24  1  0  0  0  0
  8 25  1  0  0  0  0
  9 10  1  0  0  0  0
 10 16  1  0  0  0  0
 10 11  2  0  0  0  0
 11 12  1  0  0  0  0
 12 13  2  0  0  0  0
 12 26  1  0  0  0  0
 13 14  1  0  0  0  0
 13 15  1  0  0  0  0
 15 16  2  0  0  0  0
 15 27  1  0  0  0  0
M  END
> <s_m_source_file>
AV-unprocessed.smi

> <i_m_source_file_index>
2491

> <i_lp_mmshare_version>
43012

> <i_f3d_flags>
0

> <s_epik_input>
W05IMl1DKD1PKVtDQEBIXTFbQ0gyXU9bQ0gyXVtDSDJdTjFjMm5bY0hdYyhDbClbY0hdbjI=

> <s_epik_cmdline>
J2VwaWtfcHl0aG9uJywgJy1waCcsICc3LjAnLCAnLXRuJywgJzgnLCAnLW1hJywgJzIwMCcsICctbWV0YWxfYmluZGluZycsICctaW1hZScsICc8aW5maWxlLm1hZT4nLCAnLW9tYWUnLCAnPG91dGZpbGUubWFlPic=

> <r_lp_tautomer_probability>
1

> <r_epik_Ionization_Penalty>
2.68452e-07

> <r_epik_Ionization_Penalty_Charging>
0

> <r_epik_Ionization_Penalty_Neutral>
2.68452e-07

> <r_epik_State_Penalty>
-0

> <r_epik_Charging_Adjusted_Penalty>
0

> <i_epik_Tot_Q>
0

> <i_epik_Tot_abs_Q>
0

> <r_epik_Metal_State_Penalty>
-0

> <b_epik_Metal_Only>
0

> <s_lp_Force_Field>
OPLS_2005

> <r_lp_Energy>
11.1739

> <b_lp_Chiralities_Consistent>
1

> <s_lp_Variant>
AV-unprocessed.smi:2491-2

> <Gold.Version>
5.8.1

> <Gold.Id.Protein>
6NUR|6NUR_protein|mol2

> <Gold.PLP.Fitness>
33.6909

> <Gold.PLP.PLP>
-27.6983

> <Gold.PLP.part.hbond>
-1.9297

> <Gold.PLP.part.metal>
0.0000

> <Gold.PLP.part.buried>
-4.3062

> <Gold.PLP.part.nonpolar>
-21.5944

> <Gold.PLP.part.repulsive>
0.4632

> <Gold.PLP.ligand.clash>
0.0000

> <Gold.PLP.ligand.torsion>
0.1861

> <Gold.PLP.Chemscore.Hbond>
2.0000

> <Gold.PLP.Chemscore.CHOScore>
0.0000

> <Gold.PLP.Chemscore.Metal>
0.0000

> <Gold.Chemscore.Hbonds>
donor molecule, donor type, donor heavy atom, donor atom, acceptor molecule, acceptor atom, score
      L1  H     1    17       P1  8028  0.89
      P1  H  7997  8010       L1    16  0.91

> <Gold.PLP.Chemscore.Internal.Correction>
0.3648

> <Gold.Rescore>
     Score         DG    S(hbond)    S(metal)    S(lipo)     H(rot)  DE(clash)    DE(int)     intcor
     12.53     -14.26       1.45        0.00      66.26       1.49       0.02       1.70       ----

> <Gold.Chemscore.Fitness>
12.5318

> <Gold.Chemscore.DG>
-14.2559

> <Gold.Chemscore.ZeroCoef>
-5.4800

> <Gold.Chemscore.Hbond>
1.4465

> <Gold.Chemscore.Metal>
0.0000

> <Gold.Chemscore.Lipo>
66.2585

> <Gold.Chemscore.Internal_Hbond>
0.0000

> <Gold.Chemscore.DEClash>
0.0237

> <Gold.Chemscore.DEInternal>
1.7004

> <Gold.Chemscore.Rot>
1.4874

> <Gold.Chemscore.Internal.Correction>
   9.000000E+99

> <Gold.Chemscore.Hbonds>
donor molecule, donor type, donor heavy atom, donor atom, acceptor molecule, acceptor atom, score
      L1  H     1    17       P1  8028  0.87
      P1  H  7997  8010       L1    16  0.09

> <Gold.Chemscore.Hbond.Weighted>
-4.8314

> <Gold.Chemscore.Metal.Weighted>
-0.0000

> <Gold.Chemscore.Lipo.Weighted>
-7.7522

> <Gold.Chemscore.Internal_Hbond.Weighted>
0.0000

> <Gold.Chemscore.DEClash.Weighted>
0.0237

> <Gold.Chemscore.DEInternal.Weighted>
1.7004

> <Gold.Chemscore.Rot.Weighted>
3.8077

> <Gold.Chemscore.Internal.Correction.Weighted>
   9.000000E+99

> <Gold.Protein.RotatedTorsions>
[ 6907 6896 6895 6894 ] final -111.04 input  -60.11 | X-H torsion
[ 7974 7965 7964 7962 ] final  -44.56 input  175.53 | X-H torsion
[ 8008 7997 7996 7995 ] final   22.37 input   59.86 | X-H torsion
[ 10167 10162 10161 10158 ] final   70.51 input  -65.29 | X-H torsion
[ 10718 10713 10712 10709 ] final -176.79 input   66.30 | X-H torsion
[ 10763 10752 10751 10750 ] final  -52.24 input  -60.55 | X-H torsion
[ 11005 11000 10999 10996 ] final -112.52 input  -57.11 | X-H torsion

> <Gold.Protein.ActiveResidues>
 VAL166  LYS551  ARG553  GLY616  TRP617  ASP618  TYR619  PRO620  LYS621  CYS622 
 ASP623  PHE694  ASN695  SER759  ASP760  ASP761  ALA762  ILE779  LEU786  VAL792 
 PHE793  MET794  SER795  GLU796  ALA797  LYS798  CYS799  TRP800  GLU811  SER814 

> <Gold.Protein.RotatedAtoms>
  150.7664  133.9294  159.3422 H   0  0  0  0  0  0  0  0  0  0  0  0  # atno 6907 bound_to 6896
  151.7191  135.0896  160.0290 H   0  0  0  0  0  0  0  0  0  0  0  0  # atno 6908 bound_to 6896
  152.3661  133.6321  159.6087 H   0  0  0  0  0  0  0  0  0  0  0  0  # atno 6909 bound_to 6896
  145.9908  140.7183  142.9318 H   0  0  0  0  0  0  0  0  0  0  0  0  # atno 7974 bound_to 7965
  154.9647  140.3082  155.5015 H   0  0  0  0  0  0  0  0  0  0  0  0  # atno 8008 bound_to 7997
  156.2973  140.2295  156.4673 H   0  0  0  0  0  0  0  0  0  0  0  0  # atno 8009 bound_to 7997
  154.7932  140.0438  157.1205 H   0  0  0  0  0  0  0  0  0  0  0  0  # atno 8010 bound_to 7997
  140.0562  144.5271  150.7327 H   0  0  0  0  0  0  0  0  0  0  0  0  # atno 10167 bound_to 10162
  156.8199  130.9616  151.3112 H   0  0  0  0  0  0  0  0  0  0  0  0  # atno 10718 bound_to 10713
  154.1396  135.6507  153.4939 H   0  0  0  0  0  0  0  0  0  0  0  0  # atno 10763 bound_to 10752
  153.0170  135.5312  154.6918 H   0  0  0  0  0  0  0  0  0  0  0  0  # atno 10764 bound_to 10752
  154.6176  135.2961  155.0333 H   0  0  0  0  0  0  0  0  0  0  0  0  # atno 10765 bound_to 10752
  141.0670  133.9442  157.2559 H   0  0  0  0  0  0  0  0  0  0  0  0  # atno 11005 bound_to 11000
  144.6888  140.3067  143.7255 LP  0  0  0  0  0  0  0  0  0  0  0  0  # atno 17320 bound_to 7965
  145.7633  139.1832  143.2254 LP  0  0  0  0  0  0  0  0  0  0  0  0  # atno 17321 bound_to 7965
  140.7193  143.2574  151.4330 LP  0  0  0  0  0  0  0  0  0  0  0  0  # atno 17342 bound_to 10162
  139.5922  144.1474  152.2102 LP  0  0  0  0  0  0  0  0  0  0  0  0  # atno 17343 bound_to 10162
  157.6462  130.8846  149.9544 LP  0  0  0  0  0  0  0  0  0  0  0  0  # atno 17370 bound_to 10713
  156.0995  130.3657  150.0244 LP  0  0  0  0  0  0  0  0  0  0  0  0  # atno 17371 bound_to 10713
  139.9486  135.0179  156.8926 LP  0  0  0  0  0  0  0  0  0  0  0  0  # atno 17394 bound_to 11000
  140.5753  134.0404  155.7444 LP  0  0  0  0  0  0  0  0  0  0  0  0  # atno 17395 bound_to 11000

$$$$
