AV-unprocessed.smi:3158|AV-procd|sdf|12043|dock2
  -GOLD-   2272017463D 1   1.00000     0.00000
 Structure written by MMmdl.
 40 40  0  0  0  0  0  0  0  0  2 V2000
  151.7856  139.5548  155.3620 C   0  0  0  0  0  0  0  0  0  0  0  0
  150.5018  139.3708  154.5390 C   0  0  0  0  0  0  0  0  0  0  0  0
  149.7831  138.0258  154.7734 C   0  0  2  0  0  0  0  0  0  0  0  0
  150.7436  136.8398  154.6092 C   0  0  0  0  0  0  0  0  0  0  0  0
  148.6609  137.8589  153.8506 N   0  0  0  0  0  0  0  0  0  0  0  0
  147.4882  138.5090  153.9163 C   0  0  0  0  0  0  0  0  0  0  0  0
  147.2205  139.3420  154.7833 O   0  0  0  0  0  0  0  0  0  0  0  0
  146.4536  138.1691  152.8352 C   0  0  1  0  0  0  0  0  0  0  0  0
  146.7610  138.9517  151.5497 C   0  0  0  0  0  0  0  0  0  0  0  0
  146.4531  136.7173  152.5530 N   0  3  0  0  0  0  0  0  0  0  0  0
  145.7054  136.3185  151.3402 C   0  0  0  0  0  0  0  0  0  0  0  0
  144.6139  135.2887  151.6734 C   0  0  0  0  0  0  0  0  0  0  0  0
  144.8109  134.0334  150.9683 N   0  0  0  0  0  0  0  0  0  0  0  0
  143.8577  133.1567  150.4939 C   0  0  0  0  0  0  0  0  0  0  0  0
  144.5190  132.1189  149.9018 C   0  0  0  0  0  0  0  0  0  0  0  0
  145.8922  132.4482  150.0764 C   0  0  0  0  0  0  0  0  0  0  0  0
  146.0633  133.5900  150.7223 N   0  0  0  0  0  0  0  0  0  0  0  0
  152.2926  140.4793  155.0852 H   0  0  0  0  0  0  0  0  0  0  0  0
  152.4817  138.7318  155.1969 H   0  0  0  0  0  0  0  0  0  0  0  0
  151.5738  139.6068  156.4295 H   0  0  0  0  0  0  0  0  0  0  0  0
  149.8203  140.1966  154.7476 H   0  0  0  0  0  0  0  0  0  0  0  0
  150.7588  139.4534  153.4822 H   0  0  0  0  0  0  0  0  0  0  0  0
  149.4220  138.0058  155.8032 H   0  0  0  0  0  0  0  0  0  0  0  0
  151.5750  136.9084  155.3113 H   0  0  0  0  0  0  0  0  0  0  0  0
  151.1613  136.8017  153.6026 H   0  0  0  0  0  0  0  0  0  0  0  0
  150.2352  135.8932  154.7957 H   0  0  0  0  0  0  0  0  0  0  0  0
  148.7898  137.1921  153.1033 H   0  0  0  0  0  0  0  0  0  0  0  0
  145.4577  138.4554  153.1784 H   0  0  0  0  0  0  0  0  0  0  0  0
  146.7594  140.0274  151.7306 H   0  0  0  0  0  0  0  0  0  0  0  0
  146.0139  138.7503  150.7816 H   0  0  0  0  0  0  0  0  0  0  0  0
  147.7364  138.6852  151.1397 H   0  0  0  0  0  0  0  0  0  0  0  0
  147.4066  136.4010  152.4517 H   0  0  0  0  0  0  0  0  0  0  0  0
  145.2521  137.1896  150.8656 H   0  0  0  0  0  0  0  0  0  0  0  0
  146.4086  135.9047  150.6172 H   0  0  0  0  0  0  0  0  0  0  0  0
  144.6101  135.0802  152.7439 H   0  0  0  0  0  0  0  0  0  0  0  0
  143.6277  135.6834  151.4253 H   0  0  0  0  0  0  0  0  0  0  0  0
  142.7999  133.3428  150.6106 H   0  0  0  0  0  0  0  0  0  0  0  0
  144.0876  131.2540  149.4197 H   0  0  0  0  0  0  0  0  0  0  0  0
  146.7637  131.8948  149.7582 H   0  0  0  0  0  0  0  0  0  0  0  0
  146.0420  136.2561  153.3526 H   0  0  0  0  0  0  0  0  0  0  0  0
  1  2  1  0  0  0  0
  1 18  1  0  0  0  0
  1 19  1  0  0  0  0
  1 20  1  0  0  0  0
  2  3  1  0  0  0  0
  2 21  1  0  0  0  0
  2 22  1  0  0  0  0
  3  4  1  0  0  0  0
  3  5  1  0  0  0  0
  3 23  1  0  0  0  0
  4 24  1  0  0  0  0
  4 25  1  0  0  0  0
  4 26  1  0  0  0  0
  5  6  1  0  0  0  0
  5 27  1  0  0  0  0
  6  7  2  0  0  0  0
  6  8  1  0  0  0  0
  8  9  1  0  0  0  0
  8 10  1  0  0  0  0
  8 28  1  0  0  0  0
  9 29  1  0  0  0  0
  9 30  1  0  0  0  0
  9 31  1  0  0  0  0
 10 11  1  0  0  0  0
 10 32  1  0  0  0  0
 10 40  1  0  0  0  0
 11 12  1  0  0  0  0
 11 33  1  0  0  0  0
 11 34  1  0  0  0  0
 12 13  1  0  0  0  0
 12 35  1  0  0  0  0
 12 36  1  0  0  0  0
 13 17  1  0  0  0  0
 13 14  1  0  0  0  0
 14 15  2  0  0  0  0
 14 37  1  0  0  0  0
 15 16  1  0  0  0  0
 15 38  1  0  0  0  0
 16 17  2  0  0  0  0
 16 39  1  0  0  0  0
M  CHG  1  10   1
M  END
> <s_m_source_file>
AV-unprocessed.smi

> <i_m_source_file_index>
3158

> <i_lp_mmshare_version>
43012

> <i_f3d_flags>
0

> <s_epik_input>
W0NIM11bQ0gyXVtDQEhdKFtDSDNdKVtOSF1DKD1PKVtDQEhdKFtDSDNdKVtOSF1bQ0gyXVtDSDJdbjFbY0hdW2NIXVtjSF1uMQ==

> <s_epik_cmdline>
J2VwaWtfcHl0aG9uJywgJy1waCcsICc3LjAnLCAnLXRuJywgJzgnLCAnLW1hJywgJzIwMCcsICctbWV0YWxfYmluZGluZycsICctaW1hZScsICc8aW5maWxlLm1hZT4nLCAnLW9tYWUnLCAnPG91dGZpbGUubWFlPic=

> <r_lp_tautomer_probability>
1

> <r_epik_Ionization_Penalty>
0.20724

> <r_epik_Ionization_Penalty_Charging>
0.207237

> <r_epik_Ionization_Penalty_Neutral>
3.33806e-06

> <r_epik_State_Penalty>
0.197234

> <r_epik_Charging_Adjusted_Penalty>
0.404471

> <i_epik_Tot_Q>
1

> <i_epik_Tot_abs_Q>
1

> <r_epik_Metal_State_Penalty>
0.197524

> <b_epik_Metal_Only>
0

> <s_lp_Force_Field>
OPLS_2005

> <r_lp_Energy>
5.46656

> <b_lp_Chiralities_Consistent>
1

> <s_lp_Variant>
AV-unprocessed.smi:3158-3

> <Gold.Version>
5.8.1

> <Gold.Id.Protein>
6NUR|6NUR_protein|mol2

> <Gold.PLP.Fitness>
45.4213

> <Gold.PLP.PLP>
-34.3129

> <Gold.PLP.part.hbond>
-2.0000

> <Gold.PLP.part.metal>
0.0000

> <Gold.PLP.part.buried>
-2.1148

> <Gold.PLP.part.nonpolar>
-31.8236

> <Gold.PLP.part.repulsive>
0.3089

> <Gold.PLP.ligand.clash>
0.0000

> <Gold.PLP.ligand.torsion>
1.9921

> <Gold.PLP.Chemscore.Hbond>
3.0000

> <Gold.PLP.Chemscore.CHOScore>
2.0000

> <Gold.PLP.Chemscore.Metal>
0.0000

> <Gold.Chemscore.Hbonds>
donor molecule, donor type, donor heavy atom, donor atom, acceptor molecule, acceptor atom, score
      L1  H     5    27       P1  7948  1.00
      L1  H    10    32       P1  7948  2.00
      L1  C    14    37       P1 10186  1.00
      L1  C    16    39       P1 10747  1.00

> <Gold.PLP.Chemscore.Internal.Correction>
0.0925

> <Gold.Rescore>
     Score         DG    S(hbond)    S(metal)    S(lipo)     H(rot)  DE(clash)    DE(int)     intcor
     15.16     -16.91       1.99        0.00      89.27       2.21       0.09       1.65       ----

> <Gold.Chemscore.Fitness>
15.1610

> <Gold.Chemscore.DG>
-16.9058

> <Gold.Chemscore.ZeroCoef>
-5.4800

> <Gold.Chemscore.Hbond>
1.9902

> <Gold.Chemscore.Metal>
0.0000

> <Gold.Chemscore.Lipo>
89.2688

> <Gold.Chemscore.Internal_Hbond>
0.0000

> <Gold.Chemscore.DEClash>
0.0907

> <Gold.Chemscore.DEInternal>
1.6541

> <Gold.Chemscore.Rot>
2.2132

> <Gold.Chemscore.Internal.Correction>
   9.000000E+99

> <Gold.Chemscore.Hbonds>
donor molecule, donor type, donor heavy atom, donor atom, acceptor molecule, acceptor atom, score
      L1  H     5    27       P1  7948  0.97
      L1  H    10    32       P1  7948  0.99

> <Gold.Chemscore.Hbond.Weighted>
-6.6472

> <Gold.Chemscore.Metal.Weighted>
-0.0000

> <Gold.Chemscore.Lipo.Weighted>
-10.4445

> <Gold.Chemscore.Internal_Hbond.Weighted>
0.0000

> <Gold.Chemscore.DEClash.Weighted>
0.0907

> <Gold.Chemscore.DEInternal.Weighted>
1.6541

> <Gold.Chemscore.Rot.Weighted>
5.6658

> <Gold.Chemscore.Internal.Correction.Weighted>
   9.000000E+99

> <Gold.Protein.RotatedTorsions>
[ 6907 6896 6895 6894 ] final  105.29 input  -60.11 | X-H torsion
[ 7974 7965 7964 7962 ] final  174.18 input  175.53 | X-H torsion
[ 8008 7997 7996 7995 ] final  -41.23 input   59.86 | X-H torsion
[ 10167 10162 10161 10158 ] final -118.72 input  -65.29 | X-H torsion
[ 10718 10713 10712 10709 ] final  -20.47 input   66.30 | X-H torsion
[ 10763 10752 10751 10750 ] final  -71.64 input  -60.55 | X-H torsion
[ 11005 11000 10999 10996 ] final  -48.11 input  -57.11 | X-H torsion

> <Gold.Protein.ActiveResidues>
 VAL166  LYS551  ARG553  GLY616  TRP617  ASP618  TYR619  PRO620  LYS621  CYS622 
 ASP623  PHE694  ASN695  SER759  ASP760  ASP761  ALA762  ILE779  LEU786  VAL792 
 PHE793  MET794  SER795  GLU796  ALA797  LYS798  CYS799  TRP800  GLU811  SER814 

> <Gold.Protein.RotatedAtoms>
  152.5235  133.9550  159.7689 H   0  0  0  0  0  0  0  0  0  0  0  0  # atno 6907 bound_to 6896
  150.9852  133.6196  159.2723 H   0  0  0  0  0  0  0  0  0  0  0  0  # atno 6908 bound_to 6896
  151.3359  135.0858  159.9408 H   0  0  0  0  0  0  0  0  0  0  0  0  # atno 6909 bound_to 6896
  144.7227  139.9758  143.6438 H   0  0  0  0  0  0  0  0  0  0  0  0  # atno 7974 bound_to 7965
  154.4005  140.1505  156.3156 H   0  0  0  0  0  0  0  0  0  0  0  0  # atno 8008 bound_to 7997
  155.8576  140.3455  155.5713 H   0  0  0  0  0  0  0  0  0  0  0  0  # atno 8009 bound_to 7997
  155.7916  140.0857  157.1996 H   0  0  0  0  0  0  0  0  0  0  0  0  # atno 8010 bound_to 7997
  140.0544  143.5029  152.2065 H   0  0  0  0  0  0  0  0  0  0  0  0  # atno 10167 bound_to 10162
  156.5314  130.4656  149.6545 H   0  0  0  0  0  0  0  0  0  0  0  0  # atno 10718 bound_to 10713
  154.4346  135.5955  153.6090 H   0  0  0  0  0  0  0  0  0  0  0  0  # atno 10763 bound_to 10752
  152.9801  135.5983  154.3797 H   0  0  0  0  0  0  0  0  0  0  0  0  # atno 10764 bound_to 10752
  154.3640  135.2841  155.2283 H   0  0  0  0  0  0  0  0  0  0  0  0  # atno 10765 bound_to 10752
  141.0681  133.6687  156.3394 H   0  0  0  0  0  0  0  0  0  0  0  0  # atno 11005 bound_to 11000
  146.0526  139.3526  143.0630 LP  0  0  0  0  0  0  0  0  0  0  0  0  # atno 17320 bound_to 7965
  145.8195  140.9686  143.0906 LP  0  0  0  0  0  0  0  0  0  0  0  0  # atno 17321 bound_to 7965
  139.5933  144.7558  151.3348 LP  0  0  0  0  0  0  0  0  0  0  0  0  # atno 17342 bound_to 10162
  140.7202  143.7158  150.7734 LP  0  0  0  0  0  0  0  0  0  0  0  0  # atno 17343 bound_to 10162
  156.3056  130.7201  151.2082 LP  0  0  0  0  0  0  0  0  0  0  0  0  # atno 17370 bound_to 10713
  157.7421  131.0494  150.5049 LP  0  0  0  0  0  0  0  0  0  0  0  0  # atno 17371 bound_to 10713
  140.5730  134.5821  157.5462 LP  0  0  0  0  0  0  0  0  0  0  0  0  # atno 17394 bound_to 11000
  139.9496  134.7640  156.0479 LP  0  0  0  0  0  0  0  0  0  0  0  0  # atno 17395 bound_to 11000

$$$$
