AV-unprocessed.smi:3183|AV-procd|sdf|12156|dock10
  -GOLD-   2272017593D 1   1.00000     0.00000
 Structure written by MMmdl.
 43 44  0  0  0  0  0  0  0  0  2 V2000
  151.1945  141.5755  156.9096 C   0  0  0  0  0  0  0  0  0  0  0  0
  150.5497  140.9738  155.6501 C   0  0  1  0  0  0  0  0  0  0  0  0
  150.7539  139.4481  155.5759 C   0  0  0  0  0  0  0  0  0  0  0  0
  150.1827  138.8692  154.2722 C   0  0  0  0  0  0  0  0  0  0  0  0
  148.6957  139.2230  154.0920 C   0  0  2  0  0  0  0  0  0  0  0  0
  148.2069  138.6751  152.8070 N   0  3  0  0  0  0  0  0  0  0  0  0
  146.7382  138.6628  152.6415 C   0  0  0  0  0  0  0  0  0  0  0  0
  146.1304  137.3791  153.2257 C   0  0  0  0  0  0  0  0  0  0  0  0
  145.5205  136.4672  152.2048 C   0  0  0  0  0  0  0  0  0  0  0  0
  146.0293  135.9359  151.0508 C   0  0  0  0  0  0  0  0  0  0  0  0
  144.9630  135.1544  150.5269 C   0  0  0  0  0  0  0  0  0  0  0  0
  143.8838  135.1953  151.2880 N   0  0  0  0  0  0  0  0  0  0  0  0
  144.2239  135.9984  152.3181 N   0  0  0  0  0  0  0  0  0  0  0  0
  143.2497  136.2664  153.3585 C   0  0  0  0  0  0  0  0  0  0  0  0
  148.4970  140.7537  154.1733 C   0  0  0  0  0  0  0  0  0  0  0  0
  149.0575  141.3573  155.4791 C   0  0  1  0  0  0  0  0  0  0  0  0
  148.1717  141.0085  156.6926 C   0  0  0  0  0  0  0  0  0  0  0  0
  150.7885  141.1376  157.8218 H   0  0  0  0  0  0  0  0  0  0  0  0
  151.0384  142.6538  156.9557 H   0  0  0  0  0  0  0  0  0  0  0  0
  152.2705  141.3997  156.9164 H   0  0  0  0  0  0  0  0  0  0  0  0
  151.0831  141.4059  154.8015 H   0  0  0  0  0  0  0  0  0  0  0  0
  151.8171  139.2135  155.6386 H   0  0  0  0  0  0  0  0  0  0  0  0
  150.2854  138.9621  156.4323 H   0  0  0  0  0  0  0  0  0  0  0  0
  150.7583  139.2512  153.4276 H   0  0  0  0  0  0  0  0  0  0  0  0
  150.3130  137.7862  154.2682 H   0  0  0  0  0  0  0  0  0  0  0  0
  148.1356  138.7403  154.8941 H   0  0  0  0  0  0  0  0  0  0  0  0
  148.6238  139.1965  152.0490 H   0  0  0  0  0  0  0  0  0  0  0  0
  146.3125  139.5339  153.1417 H   0  0  0  0  0  0  0  0  0  0  0  0
  146.4878  138.7389  151.5834 H   0  0  0  0  0  0  0  0  0  0  0  0
  146.9021  136.8337  153.7703 H   0  0  0  0  0  0  0  0  0  0  0  0
  145.3702  137.6455  153.9611 H   0  0  0  0  0  0  0  0  0  0  0  0
  147.0163  136.0813  150.6374 H   0  0  0  0  0  0  0  0  0  0  0  0
  144.9412  134.5639  149.6229 H   0  0  0  0  0  0  0  0  0  0  0  0
  143.6957  136.0886  154.3374 H   0  0  0  0  0  0  0  0  0  0  0  0
  142.3795  135.6176  153.2480 H   0  0  0  0  0  0  0  0  0  0  0  0
  142.9257  137.3055  153.2967 H   0  0  0  0  0  0  0  0  0  0  0  0
  148.9934  141.2248  153.3237 H   0  0  0  0  0  0  0  0  0  0  0  0
  147.4421  141.0130  154.0842 H   0  0  0  0  0  0  0  0  0  0  0  0
  149.0112  142.4418  155.3707 H   0  0  0  0  0  0  0  0  0  0  0  0
  148.1971  139.9459  156.9313 H   0  0  0  0  0  0  0  0  0  0  0  0
  147.1319  141.2771  156.5047 H   0  0  0  0  0  0  0  0  0  0  0  0
  148.4819  141.5541  157.5835 H   0  0  0  0  0  0  0  0  0  0  0  0
  148.5225  137.7175  152.7473 H   0  0  0  0  0  0  0  0  0  0  0  0
  1  2  1  0  0  0  0
  1 18  1  0  0  0  0
  1 19  1  0  0  0  0
  1 20  1  0  0  0  0
  2 16  1  0  0  0  0
  2  3  1  0  0  0  0
  2 21  1  0  0  0  0
  3  4  1  0  0  0  0
  3 22  1  0  0  0  0
  3 23  1  0  0  0  0
  4  5  1  0  0  0  0
  4 24  1  0  0  0  0
  4 25  1  0  0  0  0
  5  6  1  0  0  0  0
  5 15  1  0  0  0  0
  5 26  1  0  0  0  0
  6  7  1  0  0  0  0
  6 27  1  0  0  0  0
  6 43  1  0  0  0  0
  7  8  1  0  0  0  0
  7 28  1  0  0  0  0
  7 29  1  0  0  0  0
  8  9  1  0  0  0  0
  8 30  1  0  0  0  0
  8 31  1  0  0  0  0
  9 13  1  0  0  0  0
  9 10  2  0  0  0  0
 10 11  1  0  0  0  0
 10 32  1  0  0  0  0
 11 12  2  0  0  0  0
 11 33  1  0  0  0  0
 12 13  1  0  0  0  0
 13 14  1  0  0  0  0
 14 34  1  0  0  0  0
 14 35  1  0  0  0  0
 14 36  1  0  0  0  0
 15 16  1  0  0  0  0
 15 37  1  0  0  0  0
 15 38  1  0  0  0  0
 16 17  1  0  0  0  0
 16 39  1  0  0  0  0
 17 40  1  0  0  0  0
 17 41  1  0  0  0  0
 17 42  1  0  0  0  0
M  CHG  1   6   1
M  END
> <s_m_source_file>
AV-unprocessed.smi

> <i_m_source_file_index>
3183

> <i_lp_mmshare_version>
43012

> <i_f3d_flags>
0

> <s_epik_input>
W0NIM11bQ0BASF0xW0NIMl1bQ0gyXVtDQEhdKFtDSDJdW0NASF0xW0NIM10pW05IXVtDSDJdW0NIMl1jMltjSF1bY0hdbm4yW0NIM10=

> <s_epik_cmdline>
J2VwaWtfcHl0aG9uJywgJy1waCcsICc3LjAnLCAnLXRuJywgJzgnLCAnLW1hJywgJzIwMCcsICctbWV0YWxfYmluZGluZycsICctaW1hZScsICc8aW5maWxlLm1hZT4nLCAnLW9tYWUnLCAnPG91dGZpbGUubWFlPic=

> <r_lp_tautomer_probability>
1

> <r_epik_Ionization_Penalty>
0.000327718

> <r_epik_Ionization_Penalty_Charging>
0.000294043

> <r_epik_Ionization_Penalty_Neutral>
3.36755e-05

> <r_epik_State_Penalty>
-0

> <r_epik_Charging_Adjusted_Penalty>
0.000294043

> <i_epik_Tot_Q>
1

> <i_epik_Tot_abs_Q>
1

> <r_epik_Metal_State_Penalty>
-0

> <b_epik_Metal_Only>
0

> <s_lp_Force_Field>
OPLS_2005

> <r_lp_Energy>
13.9595

> <b_lp_Chiralities_Consistent>
1

> <s_lp_Variant>
AV-unprocessed.smi:3183-4

> <Gold.Version>
5.8.1

> <Gold.Id.Protein>
6NUR|6NUR_protein|mol2

> <Gold.PLP.Fitness>
44.5773

> <Gold.PLP.PLP>
-33.9417

> <Gold.PLP.part.hbond>
-1.9596

> <Gold.PLP.part.metal>
0.0000

> <Gold.PLP.part.buried>
-2.3405

> <Gold.PLP.part.nonpolar>
-29.6313

> <Gold.PLP.part.repulsive>
0.2958

> <Gold.PLP.ligand.clash>
0.0000

> <Gold.PLP.ligand.torsion>
0.6512

> <Gold.PLP.Chemscore.Hbond>
2.9913

> <Gold.PLP.Chemscore.CHOScore>
0.9856

> <Gold.PLP.Chemscore.Metal>
0.0000

> <Gold.Chemscore.Hbonds>
donor molecule, donor type, donor heavy atom, donor atom, acceptor molecule, acceptor atom, score
      L1  H     6    27       P1  7957  1.00
      L1  H     6    43       P1  7948  2.00
      L1  C    11    33       P1  7921  1.00

> <Gold.PLP.Chemscore.Internal.Correction>
0.0074

> <Gold.Rescore>
     Score         DG    S(hbond)    S(metal)    S(lipo)     H(rot)  DE(clash)    DE(int)     intcor
     17.71     -18.44       1.96        0.00      84.85       1.38       0.10       0.64       ----

> <Gold.Chemscore.Fitness>
17.7055

> <Gold.Chemscore.DG>
-18.4424

> <Gold.Chemscore.ZeroCoef>
-5.4800

> <Gold.Chemscore.Hbond>
1.9641

> <Gold.Chemscore.Metal>
0.0000

> <Gold.Chemscore.Lipo>
84.8466

> <Gold.Chemscore.Internal_Hbond>
0.0000

> <Gold.Chemscore.DEClash>
0.1015

> <Gold.Chemscore.DEInternal>
0.6354

> <Gold.Chemscore.Rot>
1.3768

> <Gold.Chemscore.Internal.Correction>
   9.000000E+99

> <Gold.Chemscore.Hbonds>
donor molecule, donor type, donor heavy atom, donor atom, acceptor molecule, acceptor atom, score
      L1  H     6    27       P1  7957  0.95
      L1  H     6    43       P1  7948  0.97

> <Gold.Chemscore.Hbond.Weighted>
-6.5600

> <Gold.Chemscore.Metal.Weighted>
-0.0000

> <Gold.Chemscore.Lipo.Weighted>
-9.9270

> <Gold.Chemscore.Internal_Hbond.Weighted>
0.0000

> <Gold.Chemscore.DEClash.Weighted>
0.1015

> <Gold.Chemscore.DEInternal.Weighted>
0.6354

> <Gold.Chemscore.Rot.Weighted>
3.5247

> <Gold.Chemscore.Internal.Correction.Weighted>
   9.000000E+99

> <Gold.Protein.RotatedTorsions>
[ 6907 6896 6895 6894 ] final   31.93 input  -60.11 | X-H torsion
[ 7974 7965 7964 7962 ] final   22.85 input  175.53 | X-H torsion
[ 8008 7997 7996 7995 ] final    4.28 input   59.86 | X-H torsion
[ 10167 10162 10161 10158 ] final  146.11 input  -65.29 | X-H torsion
[ 10718 10713 10712 10709 ] final -178.73 input   66.30 | X-H torsion
[ 10763 10752 10751 10750 ] final   28.42 input  -60.55 | X-H torsion
[ 11005 11000 10999 10996 ] final -137.86 input  -57.11 | X-H torsion

> <Gold.Protein.ActiveResidues>
 VAL166  LYS551  ARG553  GLY616  TRP617  ASP618  TYR619  PRO620  LYS621  CYS622 
 ASP623  PHE694  ASN695  SER759  ASP760  ASP761  ALA762  ILE779  LEU786  VAL792 
 PHE793  MET794  SER795  GLU796  ALA797  LYS798  CYS799  TRP800  GLU811  SER814 

> <Gold.Protein.RotatedAtoms>
  152.0673  134.9556  160.0574 H   0  0  0  0  0  0  0  0  0  0  0  0  # atno 6907 bound_to 6896
  152.0896  133.4189  159.4546 H   0  0  0  0  0  0  0  0  0  0  0  0  # atno 6908 bound_to 6896
  150.6836  134.2807  159.4669 H   0  0  0  0  0  0  0  0  0  0  0  0  # atno 6909 bound_to 6896
  146.2011  139.7827  142.8761 H   0  0  0  0  0  0  0  0  0  0  0  0  # atno 7974 bound_to 7965
  154.7139  140.2698  155.6603 H   0  0  0  0  0  0  0  0  0  0  0  0  # atno 8008 bound_to 7997
  156.2804  140.2748  156.1714 H   0  0  0  0  0  0  0  0  0  0  0  0  # atno 8009 bound_to 7997
  155.0597  140.0371  157.2562 H   0  0  0  0  0  0  0  0  0  0  0  0  # atno 8010 bound_to 7997
  139.4913  144.5853  151.6790 H   0  0  0  0  0  0  0  0  0  0  0  0  # atno 10167 bound_to 10162
  156.8486  130.9711  151.3094 H   0  0  0  0  0  0  0  0  0  0  0  0  # atno 10718 bound_to 10713
  153.0493  135.6513  154.0736 H   0  0  0  0  0  0  0  0  0  0  0  0  # atno 10763 bound_to 10752
  154.0427  135.2902  155.3354 H   0  0  0  0  0  0  0  0  0  0  0  0  # atno 10764 bound_to 10752
  154.6771  135.5334  153.8280 H   0  0  0  0  0  0  0  0  0  0  0  0  # atno 10765 bound_to 10752
  140.8670  134.2098  157.4673 H   0  0  0  0  0  0  0  0  0  0  0  0  # atno 11005 bound_to 11000
  145.3481  141.0302  143.3354 LP  0  0  0  0  0  0  0  0  0  0  0  0  # atno 17320 bound_to 7965
  144.8685  139.5073  143.6779 LP  0  0  0  0  0  0  0  0  0  0  0  0  # atno 17321 bound_to 7965
  140.5468  144.0490  150.6110 LP  0  0  0  0  0  0  0  0  0  0  0  0  # atno 17342 bound_to 10162
  140.3531  143.2951  152.0465 LP  0  0  0  0  0  0  0  0  0  0  0  0  # atno 17343 bound_to 10162
  157.6316  130.8734  149.9284 LP  0  0  0  0  0  0  0  0  0  0  0  0  # atno 17370 bound_to 10713
  156.0841  130.3670  150.0522 LP  0  0  0  0  0  0  0  0  0  0  0  0  # atno 17371 bound_to 10713
  139.8710  134.9756  156.4892 LP  0  0  0  0  0  0  0  0  0  0  0  0  # atno 17394 bound_to 11000
  140.8617  133.8055  155.9272 LP  0  0  0  0  0  0  0  0  0  0  0  0  # atno 17395 bound_to 11000

$$$$
