#       Name:                AV-unprocessed.smi:2284
#       Creating user name   scv26
#       Creation time:       Fri Mar 27 12:41:44 2020


#       File generated by GOLD software.
#

@<TRIPOS>MOLECULE
AV-unprocessed.smi:2284
    51    52     1
SMALL
NO_CHARGES


@<TRIPOS>ATOM
      1 ****        -6.1210  -1.6260   0.5258 C.3            1 S1                 0.0000
      2 ****        -5.2386  -0.3953   0.4875 C.ar           1 S1                 0.0000
      3 ****        -5.8045   0.8808   0.3018 C.ar           1 S1                 0.0000
      4 ****        -4.9768   2.0173   0.2648 C.ar           1 S1                 0.0000
      5 ****        -3.5805   1.8860   0.4130 C.ar           1 S1                 0.0000
      6 ****        -2.7020   3.1224   0.3705 C.3            1 S1                 0.0000
      7 ****        -2.9991   0.6105   0.5990 C.ar           1 S1                 0.0000
      8 ****        -1.6275   0.5531   0.7347 O.3            1 S1                 0.0000
      9 ****        -1.0122  -0.7173   0.9088 C.3            1 S1                 0.0000
     10 ****         0.5143  -0.5504   0.9945 C.3            1 S1                 0.0000
     11 ****         0.8238  -0.0605   2.2838 O.3            1 S1                 0.0000
     12 ****         1.0814   0.3897  -0.0932 C.3            1 S1                 0.0000
     13 ****         2.5106   0.1459  -0.3500 N.am           1 S1                 0.0000
     14 ****         3.4131   1.0188   0.2791 C.2            1 S1                 0.0000
     15 ****         4.6915   0.8976   0.1290 N.2            1 S1                 0.0000
     16 ****         5.2057  -0.1252  -0.6731 C.2            1 S1                 0.0000
     17 ****         6.7196  -0.1806  -0.7756 C.3            1 S1                 0.0000
     18 ****         4.3850  -1.0064  -1.3076 C.2            1 S1                 0.0000
     19 ****         4.8883  -2.1455  -2.1856 C.3            1 S1                 0.0000
     20 ****         2.9274  -0.8804  -1.1468 C.2            1 S1                 0.0000
     21 ****         2.1266  -1.6465  -1.6860 O.2            1 S1                 0.0000
     22 ****        -3.8432  -0.5287   0.6348 C.ar           1 S1                 0.0000
     23 ****        -7.1771  -1.3573   0.5658 H              1 S1                 0.0000
     24 ****        -5.8918  -2.2310   1.4034 H              1 S1                 0.0000
     25 ****        -5.9569  -2.2345  -0.3639 H              1 S1                 0.0000
     26 ****        -6.8726   0.9937   0.1864 H              1 S1                 0.0000
     27 ****        -5.4199   2.9918   0.1210 H              1 S1                 0.0000
     28 ****        -2.1442   3.2228   1.3021 H              1 S1                 0.0000
     29 ****        -3.2921   4.0283   0.2293 H              1 S1                 0.0000
     30 ****        -1.9887   3.0508  -0.4512 H              1 S1                 0.0000
     31 ****        -1.3921  -1.2213   1.7993 H              1 S1                 0.0000
     32 ****        -1.2453  -1.3452   0.0472 H              1 S1                 0.0000
     33 ****         0.9603  -1.5421   0.9094 H              1 S1                 0.0000
     34 ****         1.7634  -0.0400   2.3808 H              1 S1                 0.0000
     35 ****         0.5336   0.2330  -1.0245 H              1 S1                 0.0000
     36 ****         0.8808   1.4327   0.1616 H              1 S1                 0.0000
     37 ****         2.9617   1.7944   0.9002 H              1 S1                 0.0000
     38 ****         7.0372  -0.0479  -1.8101 H              1 S1                 0.0000
     39 ****         7.0923  -1.1403  -0.4166 H              1 S1                 0.0000
     40 ****         7.1875   0.6036  -0.1792 H              1 S1                 0.0000
     41 ****         4.5895  -3.1050  -1.7625 H              1 S1                 0.0000
     42 ****         5.9714  -2.1574  -2.2944 H              1 S1                 0.0000
     43 ****         4.4609  -2.0686  -3.1859 H              1 S1                 0.0000
     44 ****        -3.4416  -1.5207   0.7745 H              1 S1                 0.0000
     45 ****        -1.3867   1.1086   1.5306 LP             1 S1                 0.0000
     46 ****        -1.2327   0.9613  -0.0885 LP             1 S1                 0.0000
     47 ****         0.4266  -0.6618   2.9770 LP             1 S1                 0.0000
     48 ****         0.4538   0.8623   2.3914 LP             1 S1                 0.0000
     49 ****         5.3118   1.5349   0.5862 LP             1 S1                 0.0000
     50 ****         1.1444  -1.5239  -1.5442 LP             1 S1                 0.0000
     51 ****         2.4592  -2.3907  -2.2653 LP             1 S1                 0.0000
@<TRIPOS>BOND
    1    1    2 1     
    2    1   23 1     
    3    1   24 1     
    4    1   25 1     
    5    2   22 ar    
    6    2    3 ar    
    7    3    4 ar    
    8    3   26 1     
    9    4    5 ar    
   10    4   27 1     
   11    5    6 1     
   12    5    7 ar    
   13    6   28 1     
   14    6   29 1     
   15    6   30 1     
   16    7    8 1     
   17    7   22 ar    
   18    8    9 1     
   19    9   10 1     
   20    9   31 1     
   21    9   32 1     
   22   10   11 1     
   23   10   12 1     
   24   10   33 1     
   25   11   34 1     
   26   12   13 1     
   27   12   35 1     
   28   12   36 1     
   29   13   20 am    
   30   13   14 1     
   31   14   15 2     
   32   14   37 1     
   33   15   16 1     
   34   16   17 1     
   35   16   18 2     
   36   17   38 1     
   37   17   39 1     
   38   17   40 1     
   39   18   19 1     
   40   18   20 1     
   41   19   41 1     
   42   19   42 1     
   43   19   43 1     
   44   20   21 2     
   45   22   44 1     
   46    8   45 1     
   47    8   46 1     
   48   11   47 1     
   49   11   48 1     
   50   15   49 1     
   51   21   50 1     
   52   21   51 1     
@<TRIPOS>SUBSTRUCTURE
      1 S1             1
@<TRIPOS>SET
LONE_PAIRS      STATIC     ATOMS    <user>   **** ""
7 45 46 47 48 49 50 51
DONOR_HYDROGENS      STATIC     ATOMS    <user>   **** ""
1 34
ATOM$BLUE        STATIC     ATOMS    COLORGROUP SYSTEM
7 45 46 47 48 49 50 51
ATOM$RED        STATIC     ATOMS    COLORGROUP SYSTEM
1 34
