AV-unprocessed.smi:1300|AV-procd|sdf|5419|dock6
  -GOLD-   22720 4573D 1   1.00000     0.00000
 Structure written by MMmdl.
 35 36  0  0  0  0  0  0  0  0  1 V2000
  150.9718  145.1502  160.2298 C   0  0  0  0  0  0  0  0  0  0  0  0
  151.4278  143.8662  159.5911 C   0  0  0  0  0  0  0  0  0  0  0  0
  151.0148  143.6381  158.3881 N   0  0  0  0  0  0  0  0  0  0  0  0
  151.3877  142.4968  157.7034 N   0  0  0  0  0  0  0  0  0  0  0  0
  150.8861  142.4239  156.3223 C   0  0  0  0  0  0  0  0  0  0  0  0
  150.0121  141.1756  156.0232 C   0  0  2  0  0  0  0  0  0  0  0  0
  150.6741  140.3551  155.0802 O   0  0  0  0  0  0  0  0  0  0  0  0
  148.5608  141.4828  155.6562 C   0  0  0  0  0  0  0  0  0  0  0  0
  148.1074  141.3644  154.3220 C   0  0  0  0  0  0  0  0  0  0  0  0
  146.7758  141.6798  153.9913 C   0  0  0  0  0  0  0  0  0  0  0  0
  145.8859  142.1150  154.9909 C   0  0  0  0  0  0  0  0  0  0  0  0
  146.3291  142.2352  156.3214 C   0  0  0  0  0  0  0  0  0  0  0  0
  147.6614  141.9216  156.6541 C   0  0  0  0  0  0  0  0  0  0  0  0
  148.0766  142.0562  157.9365 F   0  0  0  0  0  0  0  0  0  0  0  0
  152.1669  141.5034  158.2172 C   0  0  0  0  0  0  0  0  0  0  0  0
  152.4546  140.4898  157.5796 O   0  0  0  0  0  0  0  0  0  0  0  0
  152.6320  141.7688  159.5804 C   0  0  0  0  0  0  0  0  0  0  0  0
  153.4704  140.7633  160.1486 C   0  0  0  0  0  0  0  0  0  0  0  0
  154.1349  139.9337  160.6070 N   0  0  0  0  0  0  0  0  0  0  0  0
  152.2938  142.8968  160.2539 C   0  0  0  0  0  0  0  0  0  0  0  0
  152.7531  143.2209  161.6688 C   0  0  0  0  0  0  0  0  0  0  0  0
  150.4433  144.9529  161.1626 H   0  0  0  0  0  0  0  0  0  0  0  0
  150.2964  145.7101  159.5812 H   0  0  0  0  0  0  0  0  0  0  0  0
  151.8233  145.7939  160.4517 H   0  0  0  0  0  0  0  0  0  0  0  0
  150.3793  143.3461  156.0311 H   0  0  0  0  0  0  0  0  0  0  0  0
  151.7550  142.3789  155.6626 H   0  0  0  0  0  0  0  0  0  0  0  0
  149.9911  140.5684  156.9290 H   0  0  0  0  0  0  0  0  0  0  0  0
  150.4027  139.4605  155.2179 H   0  0  0  0  0  0  0  0  0  0  0  0
  148.7813  141.0449  153.5406 H   0  0  0  0  0  0  0  0  0  0  0  0
  146.4383  141.5905  152.9693 H   0  0  0  0  0  0  0  0  0  0  0  0
  144.8647  142.3582  154.7369 H   0  0  0  0  0  0  0  0  0  0  0  0
  145.6470  142.5717  157.0880 H   0  0  0  0  0  0  0  0  0  0  0  0
  153.4275  142.4639  162.0677 H   0  0  0  0  0  0  0  0  0  0  0  0
  151.8979  143.2859  162.3424 H   0  0  0  0  0  0  0  0  0  0  0  0
  153.2833  144.1734  161.6919 H   0  0  0  0  0  0  0  0  0  0  0  0
  1  2  1  0  0  0  0
  1 22  1  0  0  0  0
  1 23  1  0  0  0  0
  1 24  1  0  0  0  0
  2 20  1  0  0  0  0
  2  3  2  0  0  0  0
  3  4  1  0  0  0  0
  4  5  1  0  0  0  0
  4 15  1  0  0  0  0
  5  6  1  0  0  0  0
  5 25  1  0  0  0  0
  5 26  1  0  0  0  0
  6  7  1  0  0  0  0
  6  8  1  0  0  0  0
  6 27  1  0  0  0  0
  7 28  1  0  0  0  0
  8 13  1  0  0  0  0
  8  9  2  0  0  0  0
  9 10  1  0  0  0  0
  9 29  1  0  0  0  0
 10 11  2  0  0  0  0
 10 30  1  0  0  0  0
 11 12  1  0  0  0  0
 11 31  1  0  0  0  0
 12 13  2  0  0  0  0
 12 32  1  0  0  0  0
 13 14  1  0  0  0  0
 15 16  2  0  0  0  0
 15 17  1  0  0  0  0
 17 18  1  0  0  0  0
 17 20  2  0  0  0  0
 18 19  3  0  0  0  0
 20 21  1  0  0  0  0
 21 33  1  0  0  0  0
 21 34  1  0  0  0  0
 21 35  1  0  0  0  0
M  END
> <s_m_source_file>
AV-unprocessed.smi

> <i_m_source_file_index>
1300

> <i_lp_mmshare_version>
43012

> <i_f3d_flags>
0

> <s_epik_input>
TiNDYyhjMVtDSDNdKWMoPU8pbihuYzFbQ0gzXSlbQ0gyXVtDQEhdKFtPSF0pYzJbY0hdW2NIXVtjSF1bY0hdYzJG

> <s_epik_cmdline>
J2VwaWtfcHl0aG9uJywgJy1waCcsICc3LjAnLCAnLXRuJywgJzgnLCAnLW1hJywgJzIwMCcsICctbWV0YWxfYmluZGluZycsICctaW1hZScsICc8aW5maWxlLm1hZT4nLCAnLW9tYWUnLCAnPG91dGZpbGUubWFlPic=

> <r_lp_tautomer_probability>
1

> <r_epik_Ionization_Penalty>
7.1854e-08

> <r_epik_Ionization_Penalty_Charging>
1.40848e-10

> <r_epik_Ionization_Penalty_Neutral>
7.17131e-08

> <r_epik_State_Penalty>
-0

> <r_epik_Charging_Adjusted_Penalty>
1.40848e-10

> <i_epik_Tot_Q>
0

> <i_epik_Tot_abs_Q>
0

> <r_epik_Metal_State_Penalty>
-0

> <b_epik_Metal_Only>
0

> <s_lp_Force_Field>
OPLS_2005

> <r_lp_Energy>
27.5545

> <b_lp_Chiralities_Consistent>
1

> <s_lp_Variant>
AV-unprocessed.smi:1300-1

> <Gold.Version>
5.8.1

> <Gold.Id.Protein>
6NUR|6NUR_protein|mol2

> <Gold.PLP.Fitness>
47.5964

> <Gold.PLP.PLP>
-44.2228

> <Gold.PLP.part.hbond>
-2.0000

> <Gold.PLP.part.metal>
0.0000

> <Gold.PLP.part.buried>
-6.8259

> <Gold.PLP.part.nonpolar>
-34.1714

> <Gold.PLP.part.repulsive>
0.1145

> <Gold.PLP.ligand.clash>
0.0000

> <Gold.PLP.ligand.torsion>
1.1828

> <Gold.PLP.Chemscore.Hbond>
1.8882

> <Gold.PLP.Chemscore.CHOScore>
0.0000

> <Gold.PLP.Chemscore.Metal>
0.0000

> <Gold.Chemscore.Hbonds>
donor molecule, donor type, donor heavy atom, donor atom, acceptor molecule, acceptor atom, score
      P1  H  7989  7998       L1     7  1.00
      P1  H  7997  8009       L1    16  0.53

> <Gold.PLP.Chemscore.Internal.Correction>
0.0747

> <Gold.Rescore>
     Score         DG    S(hbond)    S(metal)    S(lipo)     H(rot)  DE(clash)    DE(int)     intcor
     16.01     -17.62       1.78        0.00      96.63       2.00       0.28       1.34       ----

> <Gold.Chemscore.Fitness>
16.0067

> <Gold.Chemscore.DG>
-17.6249

> <Gold.Chemscore.ZeroCoef>
-5.4800

> <Gold.Chemscore.Hbond>
1.7810

> <Gold.Chemscore.Metal>
0.0000

> <Gold.Chemscore.Lipo>
96.6331

> <Gold.Chemscore.Internal_Hbond>
0.0000

> <Gold.Chemscore.DEClash>
0.2767

> <Gold.Chemscore.DEInternal>
1.3415

> <Gold.Chemscore.Rot>
1.9960

> <Gold.Chemscore.Internal.Correction>
   9.000000E+99

> <Gold.Chemscore.Hbonds>
donor molecule, donor type, donor heavy atom, donor atom, acceptor molecule, acceptor atom, score
      P1  H  7989  7998       L1     7  0.97
      P1  H  7997  8009       L1    16  0.51

> <Gold.Chemscore.Hbond.Weighted>
-5.9486

> <Gold.Chemscore.Metal.Weighted>
-0.0000

> <Gold.Chemscore.Lipo.Weighted>
-11.3061

> <Gold.Chemscore.Internal_Hbond.Weighted>
0.0000

> <Gold.Chemscore.DEClash.Weighted>
0.2767

> <Gold.Chemscore.DEInternal.Weighted>
1.3415

> <Gold.Chemscore.Rot.Weighted>
5.1097

> <Gold.Chemscore.Internal.Correction.Weighted>
   9.000000E+99

> <Gold.Protein.RotatedTorsions>
[ 6907 6896 6895 6894 ] final  -54.18 input  -60.11 | X-H torsion
[ 7974 7965 7964 7962 ] final  -17.97 input  175.53 | X-H torsion
[ 8008 7997 7996 7995 ] final  164.86 input   59.86 | X-H torsion
[ 10167 10162 10161 10158 ] final -130.25 input  -65.29 | X-H torsion
[ 10718 10713 10712 10709 ] final  -45.03 input   66.30 | X-H torsion
[ 10763 10752 10751 10750 ] final   26.56 input  -60.55 | X-H torsion
[ 11005 11000 10999 10996 ] final -162.51 input  -57.11 | X-H torsion

> <Gold.Protein.ActiveResidues>
 VAL166  LYS551  ARG553  GLY616  TRP617  ASP618  TYR619  PRO620  LYS621  CYS622 
 ASP623  PHE694  ASN695  SER759  ASP760  ASP761  ALA762  ILE779  LEU786  VAL792 
 PHE793  MET794  SER795  GLU796  ALA797  LYS798  CYS799  TRP800  GLU811  SER814 

> <Gold.Protein.RotatedAtoms>
  150.8361  134.7635  159.6893 H   0  0  0  0  0  0  0  0  0  0  0  0  # atno 6907 bound_to 6896
  152.4457  134.5495  159.9872 H   0  0  0  0  0  0  0  0  0  0  0  0  # atno 6908 bound_to 6896
  151.5645  133.3360  159.3013 H   0  0  0  0  0  0  0  0  0  0  0  0  # atno 6909 bound_to 6896
  146.1915  140.3855  142.8456 H   0  0  0  0  0  0  0  0  0  0  0  0  # atno 7974 bound_to 7965
  156.1847  140.1685  156.8208 H   0  0  0  0  0  0  0  0  0  0  0  0  # atno 8008 bound_to 7997
  154.5400  140.0739  156.8526 H   0  0  0  0  0  0  0  0  0  0  0  0  # atno 8009 bound_to 7997
  155.3234  140.3375  155.4243 H   0  0  0  0  0  0  0  0  0  0  0  0  # atno 8010 bound_to 7997
  139.9313  143.6269  152.2529 H   0  0  0  0  0  0  0  0  0  0  0  0  # atno 10167 bound_to 10162
  156.2325  130.4173  149.8857 H   0  0  0  0  0  0  0  0  0  0  0  0  # atno 10718 bound_to 10713
  153.0614  135.6557  154.0453 H   0  0  0  0  0  0  0  0  0  0  0  0  # atno 10763 bound_to 10752
  154.0120  135.2927  155.3392 H   0  0  0  0  0  0  0  0  0  0  0  0  # atno 10764 bound_to 10752
  154.6954  135.5266  153.8519 H   0  0  0  0  0  0  0  0  0  0  0  0  # atno 10765 bound_to 10752
  140.6084  134.4874  157.5213 H   0  0  0  0  0  0  0  0  0  0  0  0  # atno 11005 bound_to 11000
  144.8496  140.6981  143.6177 LP  0  0  0  0  0  0  0  0  0  0  0  0  # atno 17320 bound_to 7965
  145.3778  139.1644  143.4297 LP  0  0  0  0  0  0  0  0  0  0  0  0  # atno 17321 bound_to 7965
  139.6780  144.7657  151.1661 LP  0  0  0  0  0  0  0  0  0  0  0  0  # atno 17342 bound_to 10162
  140.7636  143.5767  150.8938 LP  0  0  0  0  0  0  0  0  0  0  0  0  # atno 17343 bound_to 10162
  156.6466  130.8727  151.3524 LP  0  0  0  0  0  0  0  0  0  0  0  0  # atno 17370 bound_to 10713
  157.7139  130.9474  150.1187 LP  0  0  0  0  0  0  0  0  0  0  0  0  # atno 17371 bound_to 10713
  139.9202  134.8163  156.1235 LP  0  0  0  0  0  0  0  0  0  0  0  0  # atno 17394 bound_to 11000
  141.0825  133.6748  156.2365 LP  0  0  0  0  0  0  0  0  0  0  0  0  # atno 17395 bound_to 11000

$$$$
