AV-unprocessed.smi:1244|AV-procd|sdf|5238|dock8
  -GOLD-   22720 4343D 1   1.00000     0.00000
 Structure written by MMmdl.
 55 57  0  0  0  0  0  0  0  0  4 V2000
  144.4309  138.0577  161.3794 C   0  0  0  0  0  0  0  0  0  0  0  0
  145.5226  136.9887  161.2580 C   0  0  1  0  0  0  0  0  0  0  0  0
  146.0134  136.8297  159.8080 C   0  0  0  0  0  0  0  0  0  0  0  0
  147.1301  135.8580  159.7419 N   0  3  1  0  0  0  0  0  0  0  0  0
  147.5645  135.5699  158.3490 C   0  0  0  0  0  0  0  0  0  0  0  0
  148.2307  136.7908  157.6823 C   0  0  0  0  0  0  0  0  0  0  0  0
  149.6446  136.8491  158.0510 N   0  5  0  0  0  0  0  0  0  0  0  0
  150.3295  137.9887  158.3358 C   0  0  0  0  0  0  0  0  0  0  0  0
  151.2544  138.1326  159.1431 O   0  0  0  0  0  0  0  0  0  0  0  0
  149.8753  139.0349  157.6247 N   0  0  0  0  0  0  0  0  0  0  0  0
  150.2961  140.3951  157.6446 C   0  0  0  0  0  0  0  0  0  0  0  0
  151.2689  140.8534  158.5698 C   0  0  0  0  0  0  0  0  0  0  0  0
  151.6506  142.2078  158.5774 C   0  0  0  0  0  0  0  0  0  0  0  0
  151.0595  143.0852  157.6531 C   0  0  0  0  0  0  0  0  0  0  0  0
  150.1562  142.6146  156.7689 N   0  3  0  0  0  0  0  0  0  0  0  0
  149.7574  141.3193  156.7014 C   0  0  0  0  0  0  0  0  0  0  0  0
  148.8115  140.9789  155.7058 N   0  0  0  0  0  0  0  0  0  0  0  0
  147.4606  140.5742  156.0766 C   0  0  0  0  0  0  0  0  0  0  0  0
  146.6659  140.6019  154.7739 C   0  0  0  0  0  0  0  0  0  0  0  0
  147.2959  141.7752  154.0299 C   0  0  0  0  0  0  0  0  0  0  0  0
  148.7679  141.7248  154.4518 C   0  0  0  0  0  0  0  0  0  0  0  0
  148.2324  136.2879  160.6421 C   0  0  0  0  0  0  0  0  0  0  0  0
  147.7243  136.4850  162.0829 C   0  0  2  0  0  0  0  0  0  0  0  0
  147.4213  135.1642  162.8132 C   0  0  0  0  0  0  0  0  0  0  0  0
  146.6108  137.3785  162.0922 O   0  0  0  0  0  0  0  0  0  0  0  0
  143.5634  137.8045  160.7697 H   0  0  0  0  0  0  0  0  0  0  0  0
  144.7952  139.0327  161.0545 H   0  0  0  0  0  0  0  0  0  0  0  0
  144.0940  138.1553  162.4117 H   0  0  0  0  0  0  0  0  0  0  0  0
  145.1095  136.0434  161.6104 H   0  0  0  0  0  0  0  0  0  0  0  0
  145.1881  136.4858  159.1828 H   0  0  0  0  0  0  0  0  0  0  0  0
  146.3427  137.7898  159.4069 H   0  0  0  0  0  0  0  0  0  0  0  0
  148.2905  134.7552  158.3568 H   0  0  0  0  0  0  0  0  0  0  0  0
  146.7189  135.2123  157.7592 H   0  0  0  0  0  0  0  0  0  0  0  0
  148.1147  136.7106  156.6014 H   0  0  0  0  0  0  0  0  0  0  0  0
  147.6854  137.6930  157.9635 H   0  0  0  0  0  0  0  0  0  0  0  0
  149.0547  138.8447  157.0689 H   0  0  0  0  0  0  0  0  0  0  0  0
  151.7364  140.1828  159.2744 H   0  0  0  0  0  0  0  0  0  0  0  0
  152.3856  142.5664  159.2831 H   0  0  0  0  0  0  0  0  0  0  0  0
  151.2864  144.1391  157.5865 H   0  0  0  0  0  0  0  0  0  0  0  0
  147.4506  139.5857  156.5365 H   0  0  0  0  0  0  0  0  0  0  0  0
  147.0335  141.2882  156.7819 H   0  0  0  0  0  0  0  0  0  0  0  0
  146.8281  139.6781  154.2169 H   0  0  0  0  0  0  0  0  0  0  0  0
  145.5936  140.7208  154.9316 H   0  0  0  0  0  0  0  0  0  0  0  0
  147.1630  141.7159  152.9495 H   0  0  0  0  0  0  0  0  0  0  0  0
  146.8480  142.7088  154.3728 H   0  0  0  0  0  0  0  0  0  0  0  0
  149.1847  142.7277  154.5536 H   0  0  0  0  0  0  0  0  0  0  0  0
  149.3508  141.1862  153.7043 H   0  0  0  0  0  0  0  0  0  0  0  0
  149.0457  135.5616  160.6340 H   0  0  0  0  0  0  0  0  0  0  0  0
  148.6487  137.2258  160.2706 H   0  0  0  0  0  0  0  0  0  0  0  0
  148.5136  136.9822  162.6475 H   0  0  0  0  0  0  0  0  0  0  0  0
  148.3235  134.5592  162.9068 H   0  0  0  0  0  0  0  0  0  0  0  0
  146.6816  134.5599  162.2887 H   0  0  0  0  0  0  0  0  0  0  0  0
  147.0470  135.3536  163.8195 H   0  0  0  0  0  0  0  0  0  0  0  0
  146.7686  134.9875  160.1053 H   0  0  0  0  0  0  0  0  0  0  0  0
  149.7535  143.2735  156.1027 H   0  0  0  0  0  0  0  0  0  0  0  0
  1  2  1  0  0  0  0
  1 26  1  0  0  0  0
  1 27  1  0  0  0  0
  1 28  1  0  0  0  0
  2 25  1  0  0  0  0
  2  3  1  0  0  0  0
  2 29  1  0  0  0  0
  3  4  1  0  0  0  0
  3 30  1  0  0  0  0
  3 31  1  0  0  0  0
  4  5  1  0  0  0  0
  4 22  1  0  0  0  0
  4 54  1  0  0  0  0
  5  6  1  0  0  0  0
  5 32  1  0  0  0  0
  5 33  1  0  0  0  0
  6  7  1  0  0  0  0
  6 34  1  0  0  0  0
  6 35  1  0  0  0  0
  7  8  1  0  0  0  0
  8  9  2  0  0  0  0
  8 10  1  0  0  0  0
 10 11  1  0  0  0  0
 10 36  1  0  0  0  0
 11 16  1  0  0  0  0
 11 12  2  0  0  0  0
 12 13  1  0  0  0  0
 12 37  1  0  0  0  0
 13 14  2  0  0  0  0
 13 38  1  0  0  0  0
 14 15  1  0  0  0  0
 14 39  1  0  0  0  0
 15 16  2  0  0  0  0
 15 55  1  0  0  0  0
 16 17  1  0  0  0  0
 17 21  1  0  0  0  0
 17 18  1  0  0  0  0
 18 19  1  0  0  0  0
 18 40  1  0  0  0  0
 18 41  1  0  0  0  0
 19 20  1  0  0  0  0
 19 42  1  0  0  0  0
 19 43  1  0  0  0  0
 20 21  1  0  0  0  0
 20 44  1  0  0  0  0
 20 45  1  0  0  0  0
 21 46  1  0  0  0  0
 21 47  1  0  0  0  0
 22 23  1  0  0  0  0
 22 48  1  0  0  0  0
 22 49  1  0  0  0  0
 23 24  1  0  0  0  0
 23 25  1  0  0  0  0
 23 50  1  0  0  0  0
 24 51  1  0  0  0  0
 24 52  1  0  0  0  0
 24 53  1  0  0  0  0
M  CHG  1   4   1
M  CHG  1   7  -1
M  CHG  1  15   1
M  END
> <s_m_source_file>
AV-unprocessed.smi

> <i_m_source_file_index>
1244

> <i_lp_mmshare_version>
43012

> <i_f3d_flags>
0

> <s_epik_input>
W0NIM11bQ0BASF0xW0NIMl1OKFtDSDJdW0NASF0oTzEpW0NIM10pW0NIMl1bQ0gyXVtOSF1DKD1PKVtOSF1jMltjSF1bY0hdW2NIXW5jMk4zW0NIMl1bQ0gyXVtDSDJdW0NIMl0z

> <s_epik_cmdline>
J2VwaWtfcHl0aG9uJywgJy1waCcsICc3LjAnLCAnLXRuJywgJzgnLCAnLW1hJywgJzIwMCcsICctbWV0YWxfYmluZGluZycsICctaW1hZScsICc8aW5maWxlLm1hZT4nLCAnLW9tYWUnLCAnPG91dGZpbGUubWFlPic=

> <r_lp_tautomer_probability>
0.999994

> <r_epik_Ionization_Penalty>
8.60539

> <r_epik_Ionization_Penalty_Charging>
8.60539

> <r_epik_Ionization_Penalty_Neutral>
3.60441e-06

> <r_epik_State_Penalty>
8.59967

> <r_epik_Charging_Adjusted_Penalty>
17.2051

> <i_epik_Tot_Q>
1

> <i_epik_Tot_abs_Q>
3

> <r_epik_Metal_State_Penalty>
4.59489

> <b_epik_Metal_Only>
1

> <s_lp_Force_Field>
OPLS_2005

> <r_lp_Energy>
46.9431

> <b_lp_Chiralities_Consistent>
1

> <s_lp_Variant>
AV-unprocessed.smi:1244-18

> <Gold.Version>
5.8.1

> <Gold.Id.Protein>
6NUR|6NUR_protein|mol2

> <Gold.PLP.Fitness>
43.5950

> <Gold.PLP.PLP>
-37.0318

> <Gold.PLP.part.hbond>
-2.0000

> <Gold.PLP.part.metal>
0.0000

> <Gold.PLP.part.buried>
-5.3567

> <Gold.PLP.part.nonpolar>
-29.8253

> <Gold.PLP.part.repulsive>
0.1773

> <Gold.PLP.ligand.clash>
0.0000

> <Gold.PLP.ligand.torsion>
1.3344

> <Gold.PLP.Chemscore.Hbond>
2.7344

> <Gold.PLP.Chemscore.CHOScore>
0.0000

> <Gold.PLP.Chemscore.Metal>
0.0000

> <Gold.Chemscore.Hbonds>
donor molecule, donor type, donor heavy atom, donor atom, acceptor molecule, acceptor atom, score
      L1  H    15    55       P1  8028  2.00
      P1  H  6934  6947       L1    25  0.56

> <Gold.PLP.Chemscore.Internal.Correction>
1.0288

> <Gold.Rescore>
     Score         DG    S(hbond)    S(metal)    S(lipo)     H(rot)  DE(clash)    DE(int)     intcor
     12.64     -15.46       0.96        0.00      88.87       1.42       0.04       2.78       ----

> <Gold.Chemscore.Fitness>
12.6436

> <Gold.Chemscore.DG>
-15.4583

> <Gold.Chemscore.ZeroCoef>
-5.4800

> <Gold.Chemscore.Hbond>
0.9615

> <Gold.Chemscore.Metal>
0.0000

> <Gold.Chemscore.Lipo>
88.8719

> <Gold.Chemscore.Internal_Hbond>
0.0000

> <Gold.Chemscore.DEClash>
0.0354

> <Gold.Chemscore.DEInternal>
2.7793

> <Gold.Chemscore.Rot>
1.4185

> <Gold.Chemscore.Internal.Correction>
   9.000000E+99

> <Gold.Chemscore.Hbonds>
donor molecule, donor type, donor heavy atom, donor atom, acceptor molecule, acceptor atom, score
      L1  H    15    55       P1  8028  0.98
      P1  H  6934  6947       L1    25  0.05

> <Gold.Chemscore.Hbond.Weighted>
-3.2116

> <Gold.Chemscore.Metal.Weighted>
-0.0000

> <Gold.Chemscore.Lipo.Weighted>
-10.3980

> <Gold.Chemscore.Internal_Hbond.Weighted>
0.0000

> <Gold.Chemscore.DEClash.Weighted>
0.0354

> <Gold.Chemscore.DEInternal.Weighted>
2.7793

> <Gold.Chemscore.Rot.Weighted>
3.6313

> <Gold.Chemscore.Internal.Correction.Weighted>
   9.000000E+99

> <Gold.Protein.RotatedTorsions>
[ 6907 6896 6895 6894 ] final  -56.78 input  -60.11 | X-H torsion
[ 7974 7965 7964 7962 ] final -161.45 input  175.53 | X-H torsion
[ 8008 7997 7996 7995 ] final -133.14 input   59.86 | X-H torsion
[ 10167 10162 10161 10158 ] final  -68.72 input  -65.29 | X-H torsion
[ 10718 10713 10712 10709 ] final   88.73 input   66.30 | X-H torsion
[ 10763 10752 10751 10750 ] final  -29.98 input  -60.55 | X-H torsion
[ 11005 11000 10999 10996 ] final  -32.68 input  -57.11 | X-H torsion

> <Gold.Protein.ActiveResidues>
 VAL166  LYS551  ARG553  GLY616  TRP617  ASP618  TYR619  PRO620  LYS621  CYS622 
 ASP623  PHE694  ASN695  SER759  ASP760  ASP761  ALA762  ILE779  LEU786  VAL792 
 PHE793  MET794  SER795  GLU796  ALA797  LYS798  CYS799  TRP800  GLU811  SER814 

> <Gold.Protein.RotatedAtoms>
  150.8139  134.7310  159.6712 H   0  0  0  0  0  0  0  0  0  0  0  0  # atno 6907 bound_to 6896
  152.4259  134.5866  159.9972 H   0  0  0  0  0  0  0  0  0  0  0  0  # atno 6908 bound_to 6896
  151.6068  133.3313  159.3095 H   0  0  0  0  0  0  0  0  0  0  0  0  # atno 6909 bound_to 6896
  144.7390  140.3395  143.6137 H   0  0  0  0  0  0  0  0  0  0  0  0  # atno 7974 bound_to 7965
  155.3406  140.0472  157.3045 H   0  0  0  0  0  0  0  0  0  0  0  0  # atno 8008 bound_to 7997
  154.5279  140.2247  155.8821 H   0  0  0  0  0  0  0  0  0  0  0  0  # atno 8009 bound_to 7997
  156.1758  140.3085  155.9063 H   0  0  0  0  0  0  0  0  0  0  0  0  # atno 8010 bound_to 7997
  140.5485  143.2312  151.6955 H   0  0  0  0  0  0  0  0  0  0  0  0  # atno 10167 bound_to 10162
  157.6951  131.0306  150.3319 H   0  0  0  0  0  0  0  0  0  0  0  0  # atno 10718 bound_to 10713
  153.7735  135.6910  153.4902 H   0  0  0  0  0  0  0  0  0  0  0  0  # atno 10763 bound_to 10752
  153.1858  135.4489  155.0086 H   0  0  0  0  0  0  0  0  0  0  0  0  # atno 10764 bound_to 10752
  154.8109  135.3377  154.7243 H   0  0  0  0  0  0  0  0  0  0  0  0  # atno 10765 bound_to 10752
  140.9572  133.7186  156.1312 H   0  0  0  0  0  0  0  0  0  0  0  0  # atno 11005 bound_to 11000
  145.7389  139.1758  143.2387 LP  0  0  0  0  0  0  0  0  0  0  0  0  # atno 17320 bound_to 7965
  146.1149  140.7381  142.9485 LP  0  0  0  0  0  0  0  0  0  0  0  0  # atno 17321 bound_to 7965
  139.5017  144.3855  152.0333 LP  0  0  0  0  0  0  0  0  0  0  0  0  # atno 17342 bound_to 10162
  140.2970  144.3689  150.6071 LP  0  0  0  0  0  0  0  0  0  0  0  0  # atno 17343 bound_to 10162
  156.3792  130.3877  149.7115 LP  0  0  0  0  0  0  0  0  0  0  0  0  # atno 17370 bound_to 10713
  156.4503  130.7903  151.2925 LP  0  0  0  0  0  0  0  0  0  0  0  0  # atno 17371 bound_to 10713
  140.7519  134.4035  157.5540 LP  0  0  0  0  0  0  0  0  0  0  0  0  # atno 17394 bound_to 11000
  139.8866  134.8905  156.2575 LP  0  0  0  0  0  0  0  0  0  0  0  0  # atno 17395 bound_to 11000

$$$$
