AV-unprocessed.smi:914|AV-procd|sdf|4152|dock10
  -GOLD-   22720 2 53D 1   1.00000     0.00000
 Structure written by MMmdl.
 32 33  0  0  0  0  0  0  0  0  2 V2000
  151.3711  136.3229  154.2338 O   0  0  0  0  0  0  0  0  0  0  0  0
  150.9186  137.4212  154.5536 C   0  0  0  0  0  0  0  0  0  0  0  0
  149.5820  137.6496  154.7117 N   0  5  0  0  0  0  0  0  0  0  0  0
  149.0596  138.8633  155.0695 C   0  0  0  0  0  0  0  0  0  0  0  0
  147.8485  139.0432  155.1986 O   0  0  0  0  0  0  0  0  0  0  0  0
  149.9133  139.9081  155.2880 N   0  0  0  0  0  0  0  0  0  0  0  0
  149.4469  141.2523  155.6587 C   0  0  0  0  0  0  0  0  0  0  0  0
  149.8497  141.6091  157.0980 C   0  0  0  0  0  0  0  0  0  0  0  0
  151.2613  141.5703  157.2055 O   0  0  0  0  0  0  0  0  0  0  0  0
  151.7235  141.5191  158.5425 C   0  0  0  0  0  0  0  0  0  0  0  0
  151.2698  142.7982  159.2550 C   0  0  2  0  0  0  0  0  0  0  0  0
  152.0000  144.0584  158.7907 C   0  0  0  0  0  0  0  0  0  0  0  0
  151.8659  144.9506  160.0024 C   0  0  0  0  0  0  0  0  0  0  0  0
  152.0365  143.9495  161.1411 C   0  0  0  0  0  0  0  0  0  0  0  0
  151.5250  142.7108  160.6552 O   0  0  0  0  0  0  0  0  0  0  0  0
  151.2978  139.7275  155.1323 C   0  0  0  0  0  0  0  0  0  0  0  0
  151.8297  138.5416  154.7781 C   0  0  0  0  0  0  0  0  0  0  0  0
  153.5366  138.3515  154.5896 Cl  0  0  0  0  0  0  0  0  0  0  0  0
  149.8136  142.0113  154.9659 H   0  0  0  0  0  0  0  0  0  0  0  0
  148.3603  141.2906  155.5697 H   0  0  0  0  0  0  0  0  0  0  0  0
  149.4953  142.6094  157.3492 H   0  0  0  0  0  0  0  0  0  0  0  0
  149.3885  140.9134  157.8011 H   0  0  0  0  0  0  0  0  0  0  0  0
  151.3131  140.6411  159.0431 H   0  0  0  0  0  0  0  0  0  0  0  0
  152.8113  141.4375  158.5699 H   0  0  0  0  0  0  0  0  0  0  0  0
  150.1952  142.9359  159.1256 H   0  0  0  0  0  0  0  0  0  0  0  0
  153.0530  143.8476  158.5979 H   0  0  0  0  0  0  0  0  0  0  0  0
  151.5687  144.4913  157.8871 H   0  0  0  0  0  0  0  0  0  0  0  0
  152.6002  145.7560  160.0272 H   0  0  0  0  0  0  0  0  0  0  0  0
  150.8690  145.3925  160.0331 H   0  0  0  0  0  0  0  0  0  0  0  0
  153.0935  143.8174  161.3750 H   0  0  0  0  0  0  0  0  0  0  0  0
  151.5250  144.2640  162.0510 H   0  0  0  0  0  0  0  0  0  0  0  0
  151.8951  140.6096  155.3114 H   0  0  0  0  0  0  0  0  0  0  0  0
  1  2  2  0  0  0  0
  2 17  1  0  0  0  0
  2  3  1  0  0  0  0
  3  4  1  0  0  0  0
  4  5  2  0  0  0  0
  4  6  1  0  0  0  0
  6  7  1  0  0  0  0
  6 16  1  0  0  0  0
  7  8  1  0  0  0  0
  7 19  1  0  0  0  0
  7 20  1  0  0  0  0
  8  9  1  0  0  0  0
  8 21  1  0  0  0  0
  8 22  1  0  0  0  0
  9 10  1  0  0  0  0
 10 11  1  0  0  0  0
 10 23  1  0  0  0  0
 10 24  1  0  0  0  0
 11 15  1  0  0  0  0
 11 12  1  0  0  0  0
 11 25  1  0  0  0  0
 12 13  1  0  0  0  0
 12 26  1  0  0  0  0
 12 27  1  0  0  0  0
 13 14  1  0  0  0  0
 13 28  1  0  0  0  0
 13 29  1  0  0  0  0
 14 15  1  0  0  0  0
 14 30  1  0  0  0  0
 14 31  1  0  0  0  0
 16 17  2  0  0  0  0
 16 32  1  0  0  0  0
 17 18  1  0  0  0  0
M  CHG  1   3  -1
M  END
> <s_m_source_file>
AV-unprocessed.smi

> <i_m_source_file_index>
914

> <i_lp_mmshare_version>
43012

> <i_f3d_flags>
0

> <s_epik_input>
Tz1jMVtuSF1jKD1PKW4oW2NIXWMxQ2wpW0NIMl1bQ0gyXU9bQ0gyXVtDQEBIXTJbQ0gyXVtDSDJdW0NIMl1PMg==

> <s_epik_cmdline>
J2VwaWtfcHl0aG9uJywgJy1waCcsICc3LjAnLCAnLXRuJywgJzgnLCAnLW1hJywgJzIwMCcsICctbWV0YWxfYmluZGluZycsICctaW1hZScsICc8aW5maWxlLm1hZT4nLCAnLW9tYWUnLCAnPG91dGZpbGUubWFlPic=

> <r_epik_Ionization_Penalty>
1.76812

> <r_epik_Ionization_Penalty_Charging>
1.60097e-08

> <r_epik_Ionization_Penalty_Neutral>
1.76812

> <r_epik_State_Penalty>
1.87929

> <r_epik_Charging_Adjusted_Penalty>
1.87929

> <i_epik_Tot_Q>
-1

> <i_epik_Tot_abs_Q>
1

> <r_epik_Metal_State_Penalty>
0.0133872

> <b_epik_Metal_Only>
0

> <s_lp_Force_Field>
OPLS_2005

> <r_lp_Energy>
30.4793

> <b_lp_Chiralities_Consistent>
1

> <s_lp_Variant>
AV-unprocessed.smi:914-3

> <Gold.Version>
5.8.1

> <Gold.Id.Protein>
6NUR|6NUR_protein|mol2

> <Gold.PLP.Fitness>
38.9717

> <Gold.PLP.PLP>
-36.3091

> <Gold.PLP.part.hbond>
-1.6899

> <Gold.PLP.part.metal>
0.0000

> <Gold.PLP.part.buried>
-1.2556

> <Gold.PLP.part.nonpolar>
-35.6262

> <Gold.PLP.part.repulsive>
1.7097

> <Gold.PLP.ligand.clash>
0.0000

> <Gold.PLP.ligand.torsion>
0.1865

> <Gold.PLP.Chemscore.Hbond>
1.0000

> <Gold.PLP.Chemscore.CHOScore>
0.0000

> <Gold.PLP.Chemscore.Metal>
0.0000

> <Gold.Chemscore.Hbonds>
donor molecule, donor type, donor heavy atom, donor atom, acceptor molecule, acceptor atom, score
      P1  H  6933  6945       L1    15  0.04
      P1  H 10752 10763       L1     1  1.00

> <Gold.PLP.Chemscore.Internal.Correction>
0.0357

> <Gold.Rescore>
     Score         DG    S(hbond)    S(metal)    S(lipo)     H(rot)  DE(clash)    DE(int)     intcor
     12.59     -14.27       1.00        0.00      91.85       2.07       0.02       1.66       ----

> <Gold.Chemscore.Fitness>
12.5891

> <Gold.Chemscore.DG>
-14.2656

> <Gold.Chemscore.ZeroCoef>
-5.4800

> <Gold.Chemscore.Hbond>
0.9979

> <Gold.Chemscore.Metal>
0.0000

> <Gold.Chemscore.Lipo>
91.8487

> <Gold.Chemscore.Internal_Hbond>
0.0000

> <Gold.Chemscore.DEClash>
0.0182

> <Gold.Chemscore.DEInternal>
1.6584

> <Gold.Chemscore.Rot>
2.0678

> <Gold.Chemscore.Internal.Correction>
   9.000000E+99

> <Gold.Chemscore.Hbonds>
donor molecule, donor type, donor heavy atom, donor atom, acceptor molecule, acceptor atom, score
      P1  H  6933  6945       L1    15  0.03
      P1  H 10752 10763       L1     1  1.00

> <Gold.Chemscore.Hbond.Weighted>
-3.3329

> <Gold.Chemscore.Metal.Weighted>
-0.0000

> <Gold.Chemscore.Lipo.Weighted>
-10.7463

> <Gold.Chemscore.Internal_Hbond.Weighted>
0.0000

> <Gold.Chemscore.DEClash.Weighted>
0.0182

> <Gold.Chemscore.DEInternal.Weighted>
1.6584

> <Gold.Chemscore.Rot.Weighted>
5.2935

> <Gold.Chemscore.Internal.Correction.Weighted>
   9.000000E+99

> <Gold.Protein.RotatedTorsions>
[ 6907 6896 6895 6894 ] final -106.99 input  -60.11 | X-H torsion
[ 7974 7965 7964 7962 ] final -170.85 input  175.53 | X-H torsion
[ 8008 7997 7996 7995 ] final   27.77 input   59.86 | X-H torsion
[ 10167 10162 10161 10158 ] final  178.19 input  -65.29 | X-H torsion
[ 10718 10713 10712 10709 ] final  -38.72 input   66.30 | X-H torsion
[ 10763 10752 10751 10750 ] final   39.11 input  -60.55 | X-H torsion
[ 11005 11000 10999 10996 ] final  135.67 input  -57.11 | X-H torsion

> <Gold.Protein.ActiveResidues>
 VAL166  LYS551  ARG553  GLY616  TRP617  ASP618  TYR619  PRO620  LYS621  CYS622 
 ASP623  PHE694  ASN695  SER759  ASP760  ASP761  ALA762  ILE779  LEU786  VAL792 
 PHE793  MET794  SER795  GLU796  ALA797  LYS798  CYS799  TRP800  GLU811  SER814 

> <Gold.Protein.RotatedAtoms>
  150.7419  133.9894  159.3601 H   0  0  0  0  0  0  0  0  0  0  0  0  # atno 6907 bound_to 6896
  151.7841  135.0751  160.0387 H   0  0  0  0  0  0  0  0  0  0  0  0  # atno 6908 bound_to 6896
  152.3254  133.5862  159.5809 H   0  0  0  0  0  0  0  0  0  0  0  0  # atno 6909 bound_to 6896
  144.7164  140.2010  143.6338 H   0  0  0  0  0  0  0  0  0  0  0  0  # atno 7974 bound_to 7965
  155.0482  140.3177  155.4701 H   0  0  0  0  0  0  0  0  0  0  0  0  # atno 8008 bound_to 7997
  156.2840  140.2150  156.5551 H   0  0  0  0  0  0  0  0  0  0  0  0  # atno 8009 bound_to 7997
  154.7232  140.0487  157.0647 H   0  0  0  0  0  0  0  0  0  0  0  0  # atno 8010 bound_to 7997
  139.5284  144.2709  152.0628 H   0  0  0  0  0  0  0  0  0  0  0  0  # atno 10167 bound_to 10162
  156.3006  130.4239  149.8147 H   0  0  0  0  0  0  0  0  0  0  0  0  # atno 10718 bound_to 10713
  152.9978  135.6230  154.2412 H   0  0  0  0  0  0  0  0  0  0  0  0  # atno 10763 bound_to 10752
  154.2153  135.2798  155.2946 H   0  0  0  0  0  0  0  0  0  0  0  0  # atno 10764 bound_to 10752
  154.5573  135.5715  153.7034 H   0  0  0  0  0  0  0  0  0  0  0  0  # atno 10765 bound_to 10752
  139.9995  134.9484  157.0039 H   0  0  0  0  0  0  0  0  0  0  0  0  # atno 11005 bound_to 11000
  145.8680  139.2257  143.1678 LP  0  0  0  0  0  0  0  0  0  0  0  0  # atno 17320 bound_to 7965
  146.0111  140.8434  142.9970 LP  0  0  0  0  0  0  0  0  0  0  0  0  # atno 17321 bound_to 7965
  140.2169  144.4506  150.6360 LP  0  0  0  0  0  0  0  0  0  0  0  0  # atno 17342 bound_to 10162
  140.6444  143.2210  151.6219 LP  0  0  0  0  0  0  0  0  0  0  0  0  # atno 17343 bound_to 10162
  156.5527  130.8349  151.3304 LP  0  0  0  0  0  0  0  0  0  0  0  0  # atno 17370 bound_to 10713
  157.7367  130.9783  150.2149 LP  0  0  0  0  0  0  0  0  0  0  0  0  # atno 17371 bound_to 10713
  140.4755  134.1343  155.7209 LP  0  0  0  0  0  0  0  0  0  0  0  0  # atno 17394 bound_to 11000
  141.1631  133.8756  157.1793 LP  0  0  0  0  0  0  0  0  0  0  0  0  # atno 17395 bound_to 11000

$$$$
