AV-unprocessed.smi:1358|AV-procd|sdf|5549|dock1
  -GOLD-   22720 5143D 1   1.00000     0.00000
 Structure written by MMmdl.
 37 38  0  0  0  0  0  0  0  0  1 V2000
  145.6923  143.7463  154.0851 C   0  0  0  0  0  0  0  0  0  0  0  0
  146.1838  142.3057  154.2645 C   0  0  0  0  0  0  0  0  0  0  0  0
  145.8523  141.7417  155.6527 C   0  0  0  0  0  0  0  0  0  0  0  0
  146.6518  142.4220  156.7756 C   0  0  0  0  0  0  0  0  0  0  0  0
  148.0528  142.5581  156.4006 N   0  0  0  0  0  0  0  0  0  0  0  0
  148.9867  141.6027  156.5300 C   0  0  0  0  0  0  0  0  0  0  0  0
  148.7392  140.4512  156.8881 O   0  0  0  0  0  0  0  0  0  0  0  0
  150.4298  142.0240  156.2441 C   0  0  0  0  0  0  0  0  0  0  0  0
  151.0555  142.5908  157.4876 C   0  0  0  0  0  0  0  0  0  0  0  0
  151.0344  143.9015  157.8982 C   0  0  0  0  0  0  0  0  0  0  0  0
  151.9053  144.1348  159.3906 S   0  0  0  0  0  0  0  0  0  0  0  0
  152.2798  142.4132  159.4021 C   0  0  0  0  0  0  0  0  0  0  0  0
  153.0685  141.7829  160.4092 N   0  0  0  0  0  0  0  0  0  0  0  0
  153.1716  142.3441  161.7504 C   0  0  0  0  0  0  0  0  0  0  0  0
  154.0952  141.3741  162.4820 C   0  0  0  0  0  0  0  0  0  0  0  0
  154.4016  140.4089  161.4521 N   0  0  0  0  0  0  0  0  0  0  0  0
  153.8123  140.6639  160.2819 C   0  0  0  0  0  0  0  0  0  0  0  0
  153.9513  139.9708  159.2747 O   0  0  0  0  0  0  0  0  0  0  0  0
  151.7498  141.7526  158.3676 N   0  0  0  0  0  0  0  0  0  0  0  0
  145.9412  144.1215  153.0923 H   0  0  0  0  0  0  0  0  0  0  0  0
  146.1505  144.4120  154.8170 H   0  0  0  0  0  0  0  0  0  0  0  0
  144.6106  143.8108  154.2040 H   0  0  0  0  0  0  0  0  0  0  0  0
  145.7363  141.6744  153.4962 H   0  0  0  0  0  0  0  0  0  0  0  0
  147.2618  142.2716  154.1040 H   0  0  0  0  0  0  0  0  0  0  0  0
  144.7848  141.8592  155.8455 H   0  0  0  0  0  0  0  0  0  0  0  0
  146.0493  140.6690  155.6624 H   0  0  0  0  0  0  0  0  0  0  0  0
  146.2231  143.3954  157.0200 H   0  0  0  0  0  0  0  0  0  0  0  0
  146.6019  141.8219  157.6845 H   0  0  0  0  0  0  0  0  0  0  0  0
  148.3550  143.4743  156.1016 H   0  0  0  0  0  0  0  0  0  0  0  0
  150.9899  141.1583  155.8884 H   0  0  0  0  0  0  0  0  0  0  0  0
  150.4474  142.7563  155.4357 H   0  0  0  0  0  0  0  0  0  0  0  0
  150.5673  144.7434  157.4091 H   0  0  0  0  0  0  0  0  0  0  0  0
  153.5972  143.3480  161.7163 H   0  0  0  0  0  0  0  0  0  0  0  0
  152.1900  142.3962  162.2235 H   0  0  0  0  0  0  0  0  0  0  0  0
  155.0048  141.8608  162.8358 H   0  0  0  0  0  0  0  0  0  0  0  0
  153.5987  140.8908  163.3242 H   0  0  0  0  0  0  0  0  0  0  0  0
  155.0142  139.6224  161.6121 H   0  0  0  0  0  0  0  0  0  0  0  0
  1  2  1  0  0  0  0
  1 20  1  0  0  0  0
  1 21  1  0  0  0  0
  1 22  1  0  0  0  0
  2  3  1  0  0  0  0
  2 23  1  0  0  0  0
  2 24  1  0  0  0  0
  3  4  1  0  0  0  0
  3 25  1  0  0  0  0
  3 26  1  0  0  0  0
  4  5  1  0  0  0  0
  4 27  1  0  0  0  0
  4 28  1  0  0  0  0
  5  6  1  0  0  0  0
  5 29  1  0  0  0  0
  6  7  2  0  0  0  0
  6  8  1  0  0  0  0
  8  9  1  0  0  0  0
  8 30  1  0  0  0  0
  8 31  1  0  0  0  0
  9 19  1  0  0  0  0
  9 10  2  0  0  0  0
 10 11  1  0  0  0  0
 10 32  1  0  0  0  0
 11 12  1  0  0  0  0
 12 13  1  0  0  0  0
 12 19  2  0  0  0  0
 13 17  1  0  0  0  0
 13 14  1  0  0  0  0
 14 15  1  0  0  0  0
 14 33  1  0  0  0  0
 14 34  1  0  0  0  0
 15 16  1  0  0  0  0
 15 35  1  0  0  0  0
 15 36  1  0  0  0  0
 16 17  1  0  0  0  0
 16 37  1  0  0  0  0
 17 18  2  0  0  0  0
M  END
> <s_m_source_file>
AV-unprocessed.smi

> <i_m_source_file_index>
1358

> <i_lp_mmshare_version>
43012

> <i_f3d_flags>
0

> <s_epik_input>
W0NIM11bQ0gyXVtDSDJdW0NIMl1bTkhdQyg9TylbQ0gyXWMxW2NIXXNjKG4xKU4yW0NIMl1bQ0gyXVtOSF1DMj1P

> <s_epik_cmdline>
J2VwaWtfcHl0aG9uJywgJy1waCcsICc3LjAnLCAnLXRuJywgJzgnLCAnLW1hJywgJzIwMCcsICctbWV0YWxfYmluZGluZycsICctaW1hZScsICc8aW5maWxlLm1hZT4nLCAnLW9tYWUnLCAnPG91dGZpbGUubWFlPic=

> <r_lp_tautomer_probability>
1

> <r_epik_Ionization_Penalty>
0.000120185

> <r_epik_Ionization_Penalty_Charging>
0

> <r_epik_Ionization_Penalty_Neutral>
0.000120185

> <r_epik_State_Penalty>
-0

> <r_epik_Charging_Adjusted_Penalty>
0

> <i_epik_Tot_Q>
0

> <i_epik_Tot_abs_Q>
0

> <r_epik_Metal_State_Penalty>
-0

> <b_epik_Metal_Only>
0

> <s_lp_Force_Field>
OPLS_2005

> <r_lp_Energy>
29.7034

> <b_lp_Chiralities_Consistent>
1

> <s_lp_Variant>
AV-unprocessed.smi:1358-1

> <Gold.Version>
5.8.1

> <Gold.Id.Protein>
6NUR|6NUR_protein|mol2

> <Gold.PLP.Fitness>
47.8695

> <Gold.PLP.PLP>
-41.4437

> <Gold.PLP.part.hbond>
-2.0730

> <Gold.PLP.part.metal>
0.0000

> <Gold.PLP.part.buried>
-2.9315

> <Gold.PLP.part.nonpolar>
-36.2441

> <Gold.PLP.part.repulsive>
0.0535

> <Gold.PLP.ligand.clash>
0.0000

> <Gold.PLP.ligand.torsion>
1.2724

> <Gold.PLP.Chemscore.Hbond>
1.9440

> <Gold.PLP.Chemscore.CHOScore>
1.0000

> <Gold.PLP.Chemscore.Metal>
0.0000

> <Gold.Chemscore.Hbonds>
donor molecule, donor type, donor heavy atom, donor atom, acceptor molecule, acceptor atom, score
      L1  H     5    29       P1  8028  0.70
      P1  H  7997  8010       L1    18  0.52
      L1  C    10    32       P1  8028  0.99

> <Gold.PLP.Chemscore.Internal.Correction>
0.1387

> <Gold.Rescore>
     Score         DG    S(hbond)    S(metal)    S(lipo)     H(rot)  DE(clash)    DE(int)     intcor
     13.72     -16.21       1.91        0.00      80.45       1.97       0.14       2.35       ----

> <Gold.Chemscore.Fitness>
13.7184

> <Gold.Chemscore.DG>
-16.2124

> <Gold.Chemscore.ZeroCoef>
-5.4800

> <Gold.Chemscore.Hbond>
1.9063

> <Gold.Chemscore.Metal>
0.0000

> <Gold.Chemscore.Lipo>
80.4535

> <Gold.Chemscore.Internal_Hbond>
0.0000

> <Gold.Chemscore.DEClash>
0.1425

> <Gold.Chemscore.DEInternal>
2.3514

> <Gold.Chemscore.Rot>
1.9718

> <Gold.Chemscore.Internal.Correction>
   9.000000E+99

> <Gold.Chemscore.Hbonds>
donor molecule, donor type, donor heavy atom, donor atom, acceptor molecule, acceptor atom, score
      L1  H     5    29       P1  8028  0.45
      P1  H  7997  8010       L1    18  0.50

> <Gold.Chemscore.Hbond.Weighted>
-6.3671

> <Gold.Chemscore.Metal.Weighted>
-0.0000

> <Gold.Chemscore.Lipo.Weighted>
-9.4131

> <Gold.Chemscore.Internal_Hbond.Weighted>
0.0000

> <Gold.Chemscore.DEClash.Weighted>
0.1425

> <Gold.Chemscore.DEInternal.Weighted>
2.3514

> <Gold.Chemscore.Rot.Weighted>
5.0478

> <Gold.Chemscore.Internal.Correction.Weighted>
   9.000000E+99

> <Gold.Protein.RotatedTorsions>
[ 6907 6896 6895 6894 ] final -126.76 input  -60.11 | X-H torsion
[ 7974 7965 7964 7962 ] final   38.93 input  175.53 | X-H torsion
[ 8008 7997 7996 7995 ] final    8.35 input   59.86 | X-H torsion
[ 10167 10162 10161 10158 ] final  177.89 input  -65.29 | X-H torsion
[ 10718 10713 10712 10709 ] final   -1.83 input   66.30 | X-H torsion
[ 10763 10752 10751 10750 ] final -109.47 input  -60.55 | X-H torsion
[ 11005 11000 10999 10996 ] final  113.71 input  -57.11 | X-H torsion

> <Gold.Protein.ActiveResidues>
 VAL166  LYS551  ARG553  GLY616  TRP617  ASP618  TYR619  PRO620  LYS621  CYS622 
 ASP623  PHE694  ASN695  SER759  ASP760  ASP761  ALA762  ILE779  LEU786  VAL792 
 PHE793  MET794  SER795  GLU796  ALA797  LYS798  CYS799  TRP800  GLU811  SER814 

> <Gold.Protein.RotatedAtoms>
  150.9003  133.7127  159.2880 H   0  0  0  0  0  0  0  0  0  0  0  0  # atno 6907 bound_to 6896
  151.4648  135.1040  159.9744 H   0  0  0  0  0  0  0  0  0  0  0  0  # atno 6908 bound_to 6896
  152.4873  133.8357  159.7182 H   0  0  0  0  0  0  0  0  0  0  0  0  # atno 6909 bound_to 6896
  146.1024  139.5712  142.9406 H   0  0  0  0  0  0  0  0  0  0  0  0  # atno 7974 bound_to 7965
  154.7657  140.2792  155.6178 H   0  0  0  0  0  0  0  0  0  0  0  0  # atno 8008 bound_to 7997
  156.2924  140.2651  156.2374 H   0  0  0  0  0  0  0  0  0  0  0  0  # atno 8009 bound_to 7997
  154.9962  140.0373  157.2330 H   0  0  0  0  0  0  0  0  0  0  0  0  # atno 8010 bound_to 7997
  139.5271  144.2745  152.0599 H   0  0  0  0  0  0  0  0  0  0  0  0  # atno 10167 bound_to 10162
  156.7997  130.5389  149.5723 H   0  0  0  0  0  0  0  0  0  0  0  0  # atno 10718 bound_to 10713
  154.8195  135.4600  154.0737 H   0  0  0  0  0  0  0  0  0  0  0  0  # atno 10763 bound_to 10752
  153.2103  135.6881  153.8129 H   0  0  0  0  0  0  0  0  0  0  0  0  # atno 10764 bound_to 10752
  153.7583  135.3288  155.3309 H   0  0  0  0  0  0  0  0  0  0  0  0  # atno 10765 bound_to 10752
  139.8960  134.9555  156.6780 H   0  0  0  0  0  0  0  0  0  0  0  0  # atno 11005 bound_to 11000
  145.5829  141.0380  143.2112 LP  0  0  0  0  0  0  0  0  0  0  0  0  # atno 17320 bound_to 7965
  144.7443  139.7363  143.7298 LP  0  0  0  0  0  0  0  0  0  0  0  0  # atno 17321 bound_to 7965
  140.2203  144.4473  150.6345 LP  0  0  0  0  0  0  0  0  0  0  0  0  # atno 17342 bound_to 10162
  140.6423  143.2206  151.6263 LP  0  0  0  0  0  0  0  0  0  0  0  0  # atno 17343 bound_to 10162
  156.1108  130.6039  151.0045 LP  0  0  0  0  0  0  0  0  0  0  0  0  # atno 17370 bound_to 10713
  157.6560  131.0889  150.7947 LP  0  0  0  0  0  0  0  0  0  0  0  0  # atno 17371 bound_to 10713
  140.7321  133.9050  155.8219 LP  0  0  0  0  0  0  0  0  0  0  0  0  # atno 17394 bound_to 11000
  141.0145  134.0975  157.4187 LP  0  0  0  0  0  0  0  0  0  0  0  0  # atno 17395 bound_to 11000

$$$$
