AV-unprocessed.smi:1643|AV-procd|sdf|6581|dock8
  -GOLD-   22720 7273D 1   1.00000     0.00000
 Structure written by MMmdl.
 55 57  0  0  0  0  0  0  0  0  3 V2000
  151.3061  138.7840  157.5278 C   0  0  0  0  0  0  0  0  0  0  0  0
  149.7750  138.8029  157.5658 C   0  0  0  0  0  0  0  0  0  0  0  0
  149.2185  138.4840  158.6166 O   0  0  0  0  0  0  0  0  0  0  0  0
  149.0915  139.1730  156.4548 N   0  0  0  0  0  0  0  0  0  0  0  0
  147.6232  139.2645  156.4655 C   0  0  0  0  0  0  0  0  0  0  0  0
  146.9784  138.0141  155.8413 C   0  0  0  0  0  0  0  0  0  0  0  0
  147.7719  137.4013  154.6674 C   0  0  0  0  0  0  0  0  0  0  0  0
  148.0637  138.3537  153.5615 N   0  3  1  0  0  0  0  0  0  0  0  0
  146.8594  138.6631  152.7439 C   0  0  0  0  0  0  0  0  0  0  0  0
  145.9415  137.4422  152.5346 C   0  0  1  0  0  0  0  0  0  0  0  0
  144.6041  137.8863  152.4107 O   0  0  0  0  0  0  0  0  0  0  0  0
  146.3287  136.6418  151.2754 C   0  0  0  0  0  0  0  0  0  0  0  0
  145.4490  135.4891  151.0415 N   0  0  0  0  0  0  0  0  0  0  0  0
  144.2299  135.4233  150.4397 C   0  0  0  0  0  0  0  0  0  0  0  0
  143.8223  134.1245  150.4800 N   0  3  0  0  0  0  0  0  0  0  0  0
  144.7963  133.3494  151.1132 C   0  0  0  0  0  0  0  0  0  0  0  0
  144.8386  131.9888  151.3925 C   0  0  0  0  0  0  0  0  0  0  0  0
  145.9861  131.5025  152.0591 C   0  0  0  0  0  0  0  0  0  0  0  0
  146.0631  130.0200  152.3815 C   0  0  0  0  0  0  0  0  0  0  0  0
  147.0452  132.3750  152.4215 C   0  0  0  0  0  0  0  0  0  0  0  0
  148.2737  131.8411  153.1387 C   0  0  0  0  0  0  0  0  0  0  0  0
  146.9838  133.7559  152.1266 C   0  0  0  0  0  0  0  0  0  0  0  0
  145.8445  134.2182  151.4725 C   0  0  0  0  0  0  0  0  0  0  0  0
  148.8620  139.5679  153.9200 C   0  0  0  0  0  0  0  0  0  0  0  0
  149.7714  139.4562  155.1729 C   0  0  0  0  0  0  0  0  0  0  0  0
  151.7034  139.7316  157.1628 H   0  0  0  0  0  0  0  0  0  0  0  0
  151.6675  137.9781  156.8888 H   0  0  0  0  0  0  0  0  0  0  0  0
  151.7107  138.6218  158.5277 H   0  0  0  0  0  0  0  0  0  0  0  0
  147.2277  139.4062  157.4724 H   0  0  0  0  0  0  0  0  0  0  0  0
  147.3011  140.1638  155.9434 H   0  0  0  0  0  0  0  0  0  0  0  0
  146.8829  137.2502  156.6139 H   0  0  0  0  0  0  0  0  0  0  0  0
  145.9599  138.2482  155.5307 H   0  0  0  0  0  0  0  0  0  0  0  0
  148.7094  136.9747  155.0256 H   0  0  0  0  0  0  0  0  0  0  0  0
  147.2221  136.5475  154.2696 H   0  0  0  0  0  0  0  0  0  0  0  0
  146.2815  139.4565  153.2206 H   0  0  0  0  0  0  0  0  0  0  0  0
  147.1799  139.0603  151.7794 H   0  0  0  0  0  0  0  0  0  0  0  0
  145.9986  136.7775  153.3959 H   0  0  0  0  0  0  0  0  0  0  0  0
  144.5985  138.8313  152.3860 H   0  0  0  0  0  0  0  0  0  0  0  0
  146.2810  137.2768  150.3894 H   0  0  0  0  0  0  0  0  0  0  0  0
  147.3557  136.2798  151.3419 H   0  0  0  0  0  0  0  0  0  0  0  0
  143.6819  136.2507  150.0124 H   0  0  0  0  0  0  0  0  0  0  0  0
  144.0290  131.3301  151.1136 H   0  0  0  0  0  0  0  0  0  0  0  0
  146.1378  129.8660  153.4582 H   0  0  0  0  0  0  0  0  0  0  0  0
  146.9330  129.5681  151.9041 H   0  0  0  0  0  0  0  0  0  0  0  0
  145.1775  129.4892  152.0304 H   0  0  0  0  0  0  0  0  0  0  0  0
  148.9856  132.6372  153.3591 H   0  0  0  0  0  0  0  0  0  0  0  0
  148.7838  131.0988  152.5241 H   0  0  0  0  0  0  0  0  0  0  0  0
  147.9932  131.3754  154.0837 H   0  0  0  0  0  0  0  0  0  0  0  0
  147.7898  134.4201  152.4008 H   0  0  0  0  0  0  0  0  0  0  0  0
  149.5005  139.7938  153.0656 H   0  0  0  0  0  0  0  0  0  0  0  0
  148.2095  140.4362  154.0133 H   0  0  0  0  0  0  0  0  0  0  0  0
  150.3238  140.3904  155.2814 H   0  0  0  0  0  0  0  0  0  0  0  0
  150.5137  138.6825  154.9721 H   0  0  0  0  0  0  0  0  0  0  0  0
  148.6640  137.8230  152.9459 H   0  0  0  0  0  0  0  0  0  0  0  0
  142.9429  133.7941  150.1030 H   0  0  0  0  0  0  0  0  0  0  0  0
  1  2  1  0  0  0  0
  1 26  1  0  0  0  0
  1 27  1  0  0  0  0
  1 28  1  0  0  0  0
  2  3  2  0  0  0  0
  2  4  1  0  0  0  0
  4 25  1  0  0  0  0
  4  5  1  0  0  0  0
  5  6  1  0  0  0  0
  5 29  1  0  0  0  0
  5 30  1  0  0  0  0
  6  7  1  0  0  0  0
  6 31  1  0  0  0  0
  6 32  1  0  0  0  0
  7  8  1  0  0  0  0
  7 33  1  0  0  0  0
  7 34  1  0  0  0  0
  8  9  1  0  0  0  0
  8 24  1  0  0  0  0
  8 54  1  0  0  0  0
  9 10  1  0  0  0  0
  9 35  1  0  0  0  0
  9 36  1  0  0  0  0
 10 11  1  0  0  0  0
 10 12  1  0  0  0  0
 10 37  1  0  0  0  0
 11 38  1  0  0  0  0
 12 13  1  0  0  0  0
 12 39  1  0  0  0  0
 12 40  1  0  0  0  0
 13 23  1  0  0  0  0
 13 14  1  0  0  0  0
 14 15  2  0  0  0  0
 14 41  1  0  0  0  0
 15 16  1  0  0  0  0
 15 55  1  0  0  0  0
 16 23  2  0  0  0  0
 16 17  1  0  0  0  0
 17 18  2  0  0  0  0
 17 42  1  0  0  0  0
 18 19  1  0  0  0  0
 18 20  1  0  0  0  0
 19 43  1  0  0  0  0
 19 44  1  0  0  0  0
 19 45  1  0  0  0  0
 20 21  1  0  0  0  0
 20 22  2  0  0  0  0
 21 46  1  0  0  0  0
 21 47  1  0  0  0  0
 21 48  1  0  0  0  0
 22 23  1  0  0  0  0
 22 49  1  0  0  0  0
 24 25  1  0  0  0  0
 24 50  1  0  0  0  0
 24 51  1  0  0  0  0
 25 52  1  0  0  0  0
 25 53  1  0  0  0  0
M  CHG  1   8   1
M  CHG  1  15   1
M  END
> <s_m_source_file>
AV-unprocessed.smi

> <i_m_source_file_index>
1643

> <i_lp_mmshare_version>
43012

> <i_f3d_flags>
0

> <s_epik_input>
W0NIM11DKD1PKU4xW0NIMl1bQ0gyXVtDSDJdTihbQ0gyXVtDSDJdMSlbQ0gyXVtDQEhdKFtPSF0pW0NIMl1uKFtjSF1uMiljKGMyMylbY0hdYyhbQ0gzXSljKFtjSF0zKVtDSDNd

> <s_epik_cmdline>
J2VwaWtfcHl0aG9uJywgJy1waCcsICc3LjAnLCAnLXRuJywgJzgnLCAnLW1hJywgJzIwMCcsICctbWV0YWxfYmluZGluZycsICctaW1hZScsICc8aW5maWxlLm1hZT4nLCAnLW9tYWUnLCAnPG91dGZpbGUubWFlPic=

> <r_epik_Ionization_Penalty>
1.2865

> <r_epik_Ionization_Penalty_Charging>
1.2865

> <r_epik_Ionization_Penalty_Neutral>
2.89706e-06

> <r_epik_State_Penalty>
1.3566

> <r_epik_Charging_Adjusted_Penalty>
2.6431

> <i_epik_Tot_Q>
2

> <i_epik_Tot_abs_Q>
2

> <r_epik_Metal_State_Penalty>
5.37339

> <b_epik_Metal_Only>
0

> <s_lp_Force_Field>
OPLS_2005

> <r_lp_Energy>
56.7844

> <b_lp_Chiralities_Consistent>
1

> <s_lp_Variant>
AV-unprocessed.smi:1643-10

> <Gold.Version>
5.8.1

> <Gold.Id.Protein>
6NUR|6NUR_protein|mol2

> <Gold.PLP.Fitness>
52.8465

> <Gold.PLP.PLP>
-36.9752

> <Gold.PLP.part.hbond>
-4.8224

> <Gold.PLP.part.metal>
0.0000

> <Gold.PLP.part.buried>
-0.5047

> <Gold.PLP.part.nonpolar>
-32.0489

> <Gold.PLP.part.repulsive>
0.0270

> <Gold.PLP.ligand.clash>
0.0000

> <Gold.PLP.ligand.torsion>
0.8325

> <Gold.PLP.Chemscore.Hbond>
4.8160

> <Gold.PLP.Chemscore.CHOScore>
1.0000

> <Gold.PLP.Chemscore.Metal>
0.0000

> <Gold.Chemscore.Hbonds>
donor molecule, donor type, donor heavy atom, donor atom, acceptor molecule, acceptor atom, score
      L1  H     8    54       P1  7948  2.00
      L1  H    11    38       P1 10175  0.99
      L1  H    15    55       P1 10186  1.38
      L1  C    14    41       P1 10171  1.00

> <Gold.PLP.Chemscore.Internal.Correction>
0.0884

> <Gold.Rescore>
     Score         DG    S(hbond)    S(metal)    S(lipo)     H(rot)  DE(clash)    DE(int)     intcor
     17.25     -19.85       2.84        0.00      89.48       2.17       1.94       0.66       ----

> <Gold.Chemscore.Fitness>
17.2504

> <Gold.Chemscore.DG>
-19.8526

> <Gold.Chemscore.ZeroCoef>
-5.4800

> <Gold.Chemscore.Hbond>
2.8353

> <Gold.Chemscore.Metal>
0.0000

> <Gold.Chemscore.Lipo>
89.4808

> <Gold.Chemscore.Internal_Hbond>
0.0000

> <Gold.Chemscore.DEClash>
1.9414

> <Gold.Chemscore.DEInternal>
0.6607

> <Gold.Chemscore.Rot>
2.1744

> <Gold.Chemscore.Internal.Correction>
   9.000000E+99

> <Gold.Chemscore.Hbonds>
donor molecule, donor type, donor heavy atom, donor atom, acceptor molecule, acceptor atom, score
      L1  H     8    54       P1  7948  0.94
      L1  H    11    38       P1 10175  0.94
      L1  H    15    55       P1 10186  0.67

> <Gold.Chemscore.Hbond.Weighted>
-9.4699

> <Gold.Chemscore.Metal.Weighted>
-0.0000

> <Gold.Chemscore.Lipo.Weighted>
-10.4693

> <Gold.Chemscore.Internal_Hbond.Weighted>
0.0000

> <Gold.Chemscore.DEClash.Weighted>
1.9414

> <Gold.Chemscore.DEInternal.Weighted>
0.6607

> <Gold.Chemscore.Rot.Weighted>
5.5666

> <Gold.Chemscore.Internal.Correction.Weighted>
   9.000000E+99

> <Gold.Protein.RotatedTorsions>
[ 6907 6896 6895 6894 ] final   62.93 input  -60.11 | X-H torsion
[ 7974 7965 7964 7962 ] final -146.09 input  175.53 | X-H torsion
[ 8008 7997 7996 7995 ] final   91.55 input   59.86 | X-H torsion
[ 10167 10162 10161 10158 ] final  128.80 input  -65.29 | X-H torsion
[ 10718 10713 10712 10709 ] final   28.69 input   66.30 | X-H torsion
[ 10763 10752 10751 10750 ] final -134.70 input  -60.55 | X-H torsion
[ 11005 11000 10999 10996 ] final -150.24 input  -57.11 | X-H torsion

> <Gold.Protein.ActiveResidues>
 VAL166  LYS551  ARG553  GLY616  TRP617  ASP618  TYR619  PRO620  LYS621  CYS622 
 ASP623  PHE694  ASN695  SER759  ASP760  ASP761  ALA762  ILE779  LEU786  VAL792 
 PHE793  MET794  SER795  GLU796  ALA797  LYS798  CYS799  TRP800  GLU811  SER814 

> <Gold.Protein.RotatedAtoms>
  152.4212  134.5951  159.9984 H   0  0  0  0  0  0  0  0  0  0  0  0  # atno 6907 bound_to 6896
  151.6100  133.3342  159.3073 H   0  0  0  0  0  0  0  0  0  0  0  0  # atno 6908 bound_to 6896
  150.8101  134.7288  159.6745 H   0  0  0  0  0  0  0  0  0  0  0  0  # atno 6909 bound_to 6896
  144.8183  140.5501  143.5595 H   0  0  0  0  0  0  0  0  0  0  0  0  # atno 7974 bound_to 7965
  156.0251  140.3336  155.7080 H   0  0  0  0  0  0  0  0  0  0  0  0  # atno 8008 bound_to 7997
  155.5966  140.0651  157.2762 H   0  0  0  0  0  0  0  0  0  0  0  0  # atno 8009 bound_to 7997
  154.4331  140.1817  156.1118 H   0  0  0  0  0  0  0  0  0  0  0  0  # atno 8010 bound_to 7997
  139.5509  144.6812  151.4327 H   0  0  0  0  0  0  0  0  0  0  0  0  # atno 10167 bound_to 10162
  157.2368  130.7050  149.6339 H   0  0  0  0  0  0  0  0  0  0  0  0  # atno 10718 bound_to 10713
  154.8715  135.3726  154.4778 H   0  0  0  0  0  0  0  0  0  0  0  0  # atno 10763 bound_to 10752
  153.5434  135.7026  153.5631 H   0  0  0  0  0  0  0  0  0  0  0  0  # atno 10764 bound_to 10752
  153.3782  135.4003  155.1802 H   0  0  0  0  0  0  0  0  0  0  0  0  # atno 10765 bound_to 10752
  140.7423  134.3501  157.5145 H   0  0  0  0  0  0  0  0  0  0  0  0  # atno 11005 bound_to 11000
  145.5163  139.1478  143.3577 LP  0  0  0  0  0  0  0  0  0  0  0  0  # atno 17320 bound_to 7965
  146.2487  140.5304  142.8902 LP  0  0  0  0  0  0  0  0  0  0  0  0  # atno 17321 bound_to 7965
  140.6771  143.8165  150.7072 LP  0  0  0  0  0  0  0  0  0  0  0  0  # atno 17342 bound_to 10162
  140.1607  143.4277  152.2068 LP  0  0  0  0  0  0  0  0  0  0  0  0  # atno 17343 bound_to 10162
  155.9672  130.4471  150.5567 LP  0  0  0  0  0  0  0  0  0  0  0  0  # atno 17370 bound_to 10713
  157.3421  131.0718  151.1780 LP  0  0  0  0  0  0  0  0  0  0  0  0  # atno 17371 bound_to 10713
  139.8804  134.9088  156.2977 LP  0  0  0  0  0  0  0  0  0  0  0  0  # atno 17394 bound_to 11000
  140.9826  133.7258  156.0694 LP  0  0  0  0  0  0  0  0  0  0  0  0  # atno 17395 bound_to 11000

$$$$
