AV-unprocessed.smi:8|AV-procd|sdf|48|dock6
  -GOLD-   2262015163D 1   1.00000     0.00000
 Structure written by MMmdl.
 34 35  0  0  0  0  0  0  0  0  3 V2000
  152.3089  144.5758  158.7565 C   0  0  0  0  0  0  0  0  0  0  0  0
  152.3704  143.3857  159.7243 C   0  0  0  0  0  0  0  0  0  0  0  0
  152.5019  142.1130  159.0028 N   0  0  0  0  0  0  0  0  0  0  0  0
  151.5973  141.8635  157.9573 C   0  0  0  0  0  0  0  0  0  0  0  0
  151.6325  140.7330  157.2219 C   0  0  0  0  0  0  0  0  0  0  0  0
  150.6363  140.4581  156.1058 C   0  0  0  0  0  0  0  0  0  0  0  0
  149.5640  141.4440  156.0468 N   0  0  0  0  0  0  0  0  0  0  0  0
  148.4738  141.2142  155.1954 C   0  0  0  0  0  0  0  0  0  0  0  0
  148.6947  140.6794  153.9727 N   0  0  0  0  0  0  0  0  0  0  0  0
  147.6601  140.4504  153.1554 C   0  0  0  0  0  0  0  0  0  0  0  0
  146.3910  140.7248  153.4901 N   0  3  0  0  0  0  0  0  0  0  0  0
  146.1217  141.2589  154.7059 C   0  0  0  0  0  0  0  0  0  0  0  0
  147.1635  141.5262  155.6165 C   0  0  0  0  0  0  0  0  0  0  0  0
  146.8707  142.1271  156.9793 C   0  0  0  0  0  0  0  0  0  0  0  0
  152.6553  139.7391  157.5675 C   0  0  0  0  0  0  0  0  0  0  0  0
  152.7151  138.6813  156.9408 O   0  0  0  0  0  0  0  0  0  0  0  0
  153.5161  140.0334  158.5846 N   0  5  0  0  0  0  0  0  0  0  0  0
  153.4670  141.1956  159.3045 C   0  0  0  0  0  0  0  0  0  0  0  0
  154.2621  141.4422  160.2120 O   0  0  0  0  0  0  0  0  0  0  0  0
  152.1967  145.5127  159.3023 H   0  0  0  0  0  0  0  0  0  0  0  0
  151.4641  144.4852  158.0733 H   0  0  0  0  0  0  0  0  0  0  0  0
  153.2179  144.6473  158.1586 H   0  0  0  0  0  0  0  0  0  0  0  0
  153.1953  143.5196  160.4259 H   0  0  0  0  0  0  0  0  0  0  0  0
  151.4719  143.3742  160.3426 H   0  0  0  0  0  0  0  0  0  0  0  0
  150.8763  142.6499  157.7870 H   0  0  0  0  0  0  0  0  0  0  0  0
  151.1691  140.4390  155.1541 H   0  0  0  0  0  0  0  0  0  0  0  0
  150.2047  139.4670  156.2516 H   0  0  0  0  0  0  0  0  0  0  0  0
  149.8406  142.4076  156.1723 H   0  0  0  0  0  0  0  0  0  0  0  0
  147.8241  140.0250  152.1763 H   0  0  0  0  0  0  0  0  0  0  0  0
  145.0791  141.4549  154.9094 H   0  0  0  0  0  0  0  0  0  0  0  0
  145.8031  142.3052  157.1114 H   0  0  0  0  0  0  0  0  0  0  0  0
  147.3901  143.0792  157.0945 H   0  0  0  0  0  0  0  0  0  0  0  0
  147.2026  141.4552  157.7712 H   0  0  0  0  0  0  0  0  0  0  0  0
  145.6273  140.5364  152.8402 H   0  0  0  0  0  0  0  0  0  0  0  0
  1  2  1  0  0  0  0
  1 20  1  0  0  0  0
  1 21  1  0  0  0  0
  1 22  1  0  0  0  0
  2  3  1  0  0  0  0
  2 23  1  0  0  0  0
  2 24  1  0  0  0  0
  3 18  1  0  0  0  0
  3  4  1  0  0  0  0
  4  5  2  0  0  0  0
  4 25  1  0  0  0  0
  5  6  1  0  0  0  0
  5 15  1  0  0  0  0
  6  7  1  0  0  0  0
  6 26  1  0  0  0  0
  6 27  1  0  0  0  0
  7  8  1  0  0  0  0
  7 28  1  0  0  0  0
  8 13  1  0  0  0  0
  8  9  2  0  0  0  0
  9 10  1  0  0  0  0
 10 11  2  0  0  0  0
 10 29  1  0  0  0  0
 11 12  1  0  0  0  0
 11 34  1  0  0  0  0
 12 13  2  0  0  0  0
 12 30  1  0  0  0  0
 13 14  1  0  0  0  0
 14 31  1  0  0  0  0
 14 32  1  0  0  0  0
 14 33  1  0  0  0  0
 15 16  2  0  0  0  0
 15 17  1  0  0  0  0
 17 18  1  0  0  0  0
 18 19  2  0  0  0  0
M  CHG  1  11   1
M  CHG  1  17  -1
M  END
> <s_m_source_file>
AV-unprocessed.smi

> <i_m_source_file_index>
8

> <i_lp_mmshare_version>
43012

> <i_f3d_flags>
0

> <s_epik_input>
W0NIM11bQ0gyXW4xW2NIXWMoYyg9TylbbkhdYzE9TylbQ0gyXVtOSF1jMm5bY0hdbltjSF1jMltDSDNd

> <s_epik_cmdline>
J2VwaWtfcHl0aG9uJywgJy1waCcsICc3LjAnLCAnLXRuJywgJzgnLCAnLW1hJywgJzIwMCcsICctbWV0YWxfYmluZGluZycsICctaW1hZScsICc8aW5maWxlLm1hZT4nLCAnLW9tYWUnLCAnPG91dGZpbGUubWFlPic=

> <r_lp_tautomer_probability>
0.998874

> <r_epik_Ionization_Penalty>
7.33654

> <r_epik_Ionization_Penalty_Charging>
3.33717

> <r_epik_Ionization_Penalty_Neutral>
3.99937

> <r_epik_State_Penalty>
6.31594

> <r_epik_Charging_Adjusted_Penalty>
9.65311

> <i_epik_Tot_Q>
0

> <i_epik_Tot_abs_Q>
2

> <r_epik_Metal_State_Penalty>
2.94778

> <b_epik_Metal_Only>
1

> <s_lp_Force_Field>
OPLS_2005

> <r_lp_Energy>
21.5879

> <b_lp_Chiralities_Consistent>
1

> <s_lp_Variant>
AV-unprocessed.smi:8-4

> <Gold.Version>
5.8.1

> <Gold.Id.Protein>
6NUR|6NUR_protein|mol2

> <Gold.PLP.Fitness>
44.8632

> <Gold.PLP.PLP>
-32.6157

> <Gold.PLP.part.hbond>
-2.7116

> <Gold.PLP.part.metal>
0.0000

> <Gold.PLP.part.buried>
-3.7317

> <Gold.PLP.part.nonpolar>
-26.3112

> <Gold.PLP.part.repulsive>
0.2191

> <Gold.PLP.ligand.clash>
0.0000

> <Gold.PLP.ligand.torsion>
0.5031

> <Gold.PLP.Chemscore.Hbond>
3.5210

> <Gold.PLP.Chemscore.CHOScore>
0.8927

> <Gold.PLP.Chemscore.Metal>
0.0000

> <Gold.Chemscore.Hbonds>
donor molecule, donor type, donor heavy atom, donor atom, acceptor molecule, acceptor atom, score
      L1  H    11    34       P1 10175  1.98
      P1  H  7997  8009       L1    17  0.63
      L1  C    10    29       P1  7957  0.93

> <Gold.PLP.Chemscore.Internal.Correction>
0.0128

> <Gold.Rescore>
     Score         DG    S(hbond)    S(metal)    S(lipo)     H(rot)  DE(clash)    DE(int)     intcor
     12.85     -13.46       1.77        0.00      55.44       1.73       0.02       0.59       ----

> <Gold.Chemscore.Fitness>
12.8525

> <Gold.Chemscore.DG>
-13.4555

> <Gold.Chemscore.ZeroCoef>
-5.4800

> <Gold.Chemscore.Hbond>
1.7709

> <Gold.Chemscore.Metal>
0.0000

> <Gold.Chemscore.Lipo>
55.4449

> <Gold.Chemscore.Internal_Hbond>
0.0000

> <Gold.Chemscore.DEClash>
0.0170

> <Gold.Chemscore.DEInternal>
0.5859

> <Gold.Chemscore.Rot>
1.7290

> <Gold.Chemscore.Internal.Correction>
   9.000000E+99

> <Gold.Chemscore.Hbonds>
donor molecule, donor type, donor heavy atom, donor atom, acceptor molecule, acceptor atom, score
      L1  H    11    34       P1 10175  0.68
      P1  H  7997  8009       L1    17  0.01

> <Gold.Chemscore.Hbond.Weighted>
-5.9147

> <Gold.Chemscore.Metal.Weighted>
-0.0000

> <Gold.Chemscore.Lipo.Weighted>
-6.4871

> <Gold.Chemscore.Internal_Hbond.Weighted>
0.0000

> <Gold.Chemscore.DEClash.Weighted>
0.0170

> <Gold.Chemscore.DEInternal.Weighted>
0.5859

> <Gold.Chemscore.Rot.Weighted>
4.4263

> <Gold.Chemscore.Internal.Correction.Weighted>
   9.000000E+99

> <Gold.Protein.RotatedTorsions>
[ 6907 6896 6895 6894 ] final   53.46 input  -60.11 | X-H torsion
[ 7974 7965 7964 7962 ] final  -44.23 input  175.53 | X-H torsion
[ 8008 7997 7996 7995 ] final  130.77 input   59.86 | X-H torsion
[ 10167 10162 10161 10158 ] final  -84.12 input  -65.29 | X-H torsion
[ 10718 10713 10712 10709 ] final  -66.57 input   66.30 | X-H torsion
[ 10763 10752 10751 10750 ] final   26.14 input  -60.55 | X-H torsion
[ 11005 11000 10999 10996 ] final   33.18 input  -57.11 | X-H torsion

> <Gold.Protein.ActiveResidues>
 VAL166  LYS551  ARG553  GLY616  TRP617  ASP618  TYR619  PRO620  LYS621  CYS622 
 ASP623  PHE694  ASN695  SER759  ASP760  ASP761  ALA762  ILE779  LEU786  VAL792 
 PHE793  MET794  SER795  GLU796  ALA797  LYS798  CYS799  TRP800  GLU811  SER814 

> <Gold.Protein.RotatedAtoms>
  152.3339  134.7224  160.0281 H   0  0  0  0  0  0  0  0  0  0  0  0  # atno 6907 bound_to 6896
  151.7631  133.3330  159.3431 H   0  0  0  0  0  0  0  0  0  0  0  0  # atno 6908 bound_to 6896
  150.7439  134.6019  159.6085 H   0  0  0  0  0  0  0  0  0  0  0  0  # atno 6909 bound_to 6896
  145.9941  140.7148  142.9302 H   0  0  0  0  0  0  0  0  0  0  0  0  # atno 7974 bound_to 7965
  156.2960  140.2588  156.2816 H   0  0  0  0  0  0  0  0  0  0  0  0  # atno 8008 bound_to 7997
  154.9596  140.0393  157.2202 H   0  0  0  0  0  0  0  0  0  0  0  0  # atno 8009 bound_to 7997
  154.7959  140.2820  155.5961 H   0  0  0  0  0  0  0  0  0  0  0  0  # atno 8010 bound_to 7997
  140.4163  143.2602  151.8950 H   0  0  0  0  0  0  0  0  0  0  0  0  # atno 10167 bound_to 10162
  156.0605  130.4264  150.1727 H   0  0  0  0  0  0  0  0  0  0  0  0  # atno 10718 bound_to 10713
  153.0643  135.6567  154.0390 H   0  0  0  0  0  0  0  0  0  0  0  0  # atno 10763 bound_to 10752
  154.0051  135.2933  155.3400 H   0  0  0  0  0  0  0  0  0  0  0  0  # atno 10764 bound_to 10752
  154.6994  135.5250  153.8574 H   0  0  0  0  0  0  0  0  0  0  0  0  # atno 10765 bound_to 10752
  140.2658  134.3139  155.7843 H   0  0  0  0  0  0  0  0  0  0  0  0  # atno 11005 bound_to 11000
  144.6898  140.3120  143.7246 LP  0  0  0  0  0  0  0  0  0  0  0  0  # atno 17320 bound_to 7965
  145.7586  139.1817  143.2280 LP  0  0  0  0  0  0  0  0  0  0  0  0  # atno 17321 bound_to 7965
  139.4782  144.5485  151.8422 LP  0  0  0  0  0  0  0  0  0  0  0  0  # atno 17342 bound_to 10162
  140.4583  144.1758  150.5903 LP  0  0  0  0  0  0  0  0  0  0  0  0  # atno 17343 bound_to 10162
  156.9797  130.9860  151.3440 LP  0  0  0  0  0  0  0  0  0  0  0  0  # atno 17370 bound_to 10713
  157.5610  130.8246  149.8266 LP  0  0  0  0  0  0  0  0  0  0  0  0  # atno 17371 bound_to 10713
  141.2184  133.7437  156.9258 LP  0  0  0  0  0  0  0  0  0  0  0  0  # atno 17394 bound_to 11000
  140.1420  134.9287  157.2480 LP  0  0  0  0  0  0  0  0  0  0  0  0  # atno 17395 bound_to 11000

$$$$
