AV-unprocessed.smi:99|AV-procd|sdf|892|dock1
  -GOLD-   2262017383D 1   1.00000     0.00000
 Structure written by MMmdl.
 52 55  0  0  0  0  0  0  0  0  2 V2000
  151.3842  129.6207  154.9570 O   0  0  0  0  0  0  0  0  0  0  0  0
  151.9707  130.4136  155.6965 C   0  0  0  0  0  0  0  0  0  0  0  0
  151.3417  131.3313  156.4544 O   0  0  0  0  0  0  0  0  0  0  0  0
  150.0360  131.7679  156.1083 C   0  0  0  0  0  0  0  0  0  0  0  0
  149.7987  133.1940  156.6236 C   0  0  1  0  0  0  0  0  0  0  0  0
  150.7328  134.0753  156.0144 O   0  0  0  0  0  0  0  0  0  0  0  0
  150.0942  135.0603  155.2633 C   0  0  2  0  0  0  0  0  0  0  0  0
  150.6137  136.4107  155.7155 N   0  0  0  0  0  0  0  0  0  0  0  0
  151.0341  137.3166  154.7575 C   0  0  0  0  0  0  0  0  0  0  0  0
  151.5340  138.5228  155.0965 C   0  0  0  0  0  0  0  0  0  0  0  0
  151.6449  138.8813  156.5069 C   0  0  0  0  0  0  0  0  0  0  0  0
  152.0861  139.9887  156.8077 O   0  0  0  0  0  0  0  0  0  0  0  0
  151.2522  137.9621  157.4348 N   0  5  0  0  0  0  0  0  0  0  0  0
  150.7549  136.7370  157.0952 C   0  0  0  0  0  0  0  0  0  0  0  0
  150.4250  135.8996  157.9328 O   0  0  0  0  0  0  0  0  0  0  0  0
  148.5685  134.9224  155.4258 C   0  0  1  0  0  0  0  0  0  0  0  0
  147.9278  134.6558  154.1951 O   0  0  0  0  0  0  0  0  0  0  0  0
  148.3837  133.7240  156.3548 C   0  0  2  0  0  0  0  0  0  0  0  0
  147.7763  134.1179  157.5794 O   0  0  0  0  0  0  0  0  0  0  0  0
  147.8362  133.3283  158.6714 C   0  0  0  0  0  0  0  0  0  0  0  0
  148.1442  132.1350  158.6368 O   0  0  0  0  0  0  0  0  0  0  0  0
  147.4871  134.0532  159.9265 C   0  0  0  0  0  0  0  0  0  0  0  0
  147.5569  135.4656  159.9547 C   0  0  0  0  0  0  0  0  0  0  0  0
  147.2348  136.1762  161.1274 C   0  0  0  0  0  0  0  0  0  0  0  0
  146.8415  135.4827  162.2868 C   0  0  0  0  0  0  0  0  0  0  0  0
  146.7709  134.0774  162.2722 C   0  0  0  0  0  0  0  0  0  0  0  0
  147.0912  133.3651  161.1002 C   0  0  0  0  0  0  0  0  0  0  0  0
  153.4542  130.4601  155.8421 C   0  0  0  0  0  0  0  0  0  0  0  0
  154.0314  131.3481  156.7796 C   0  0  0  0  0  0  0  0  0  0  0  0
  155.4292  131.4121  156.9408 C   0  0  0  0  0  0  0  0  0  0  0  0
  156.2669  130.5908  156.1646 C   0  0  0  0  0  0  0  0  0  0  0  0
  155.7050  129.7043  155.2273 C   0  0  0  0  0  0  0  0  0  0  0  0
  154.3075  129.6377  155.0658 C   0  0  0  0  0  0  0  0  0  0  0  0
  149.9197  131.7496  155.0235 H   0  0  0  0  0  0  0  0  0  0  0  0
  149.2951  131.0862  156.5277 H   0  0  0  0  0  0  0  0  0  0  0  0
  150.0057  133.2035  157.6947 H   0  0  0  0  0  0  0  0  0  0  0  0
  150.4093  134.9571  154.2240 H   0  0  0  0  0  0  0  0  0  0  0  0
  150.9608  137.0629  153.7103 H   0  0  0  0  0  0  0  0  0  0  0  0
  151.8531  139.2165  154.3326 H   0  0  0  0  0  0  0  0  0  0  0  0
  148.1407  135.8371  155.8383 H   0  0  0  0  0  0  0  0  0  0  0  0
  148.4838  134.9679  153.4973 H   0  0  0  0  0  0  0  0  0  0  0  0
  147.7817  132.9442  155.8843 H   0  0  0  0  0  0  0  0  0  0  0  0
  147.8574  136.0193  159.0768 H   0  0  0  0  0  0  0  0  0  0  0  0
  147.2906  137.2549  161.1369 H   0  0  0  0  0  0  0  0  0  0  0  0
  146.5959  136.0277  163.1864 H   0  0  0  0  0  0  0  0  0  0  0  0
  146.4724  133.5427  163.1619 H   0  0  0  0  0  0  0  0  0  0  0  0
  147.0309  132.2864  161.1247 H   0  0  0  0  0  0  0  0  0  0  0  0
  153.4084  131.9889  157.3867 H   0  0  0  0  0  0  0  0  0  0  0  0
  155.8584  132.0924  157.6616 H   0  0  0  0  0  0  0  0  0  0  0  0
  157.3387  130.6407  156.2882 H   0  0  0  0  0  0  0  0  0  0  0  0
  156.3466  129.0728  154.6307 H   0  0  0  0  0  0  0  0  0  0  0  0
  153.9090  128.9476  154.3365 H   0  0  0  0  0  0  0  0  0  0  0  0
  1  2  2  0  0  0  0
  2  3  1  0  0  0  0
  2 28  1  0  0  0  0
  3  4  1  0  0  0  0
  4  5  1  0  0  0  0
  4 34  1  0  0  0  0
  4 35  1  0  0  0  0
  5 18  1  0  0  0  0
  5  6  1  0  0  0  0
  5 36  1  0  0  0  0
  6  7  1  0  0  0  0
  7  8  1  0  0  0  0
  7 16  1  0  0  0  0
  7 37  1  0  0  0  0
  8 14  1  0  0  0  0
  8  9  1  0  0  0  0
  9 10  2  0  0  0  0
  9 38  1  0  0  0  0
 10 11  1  0  0  0  0
 10 39  1  0  0  0  0
 11 12  2  0  0  0  0
 11 13  1  0  0  0  0
 13 14  1  0  0  0  0
 14 15  2  0  0  0  0
 16 17  1  0  0  0  0
 16 18  1  0  0  0  0
 16 40  1  0  0  0  0
 17 41  1  0  0  0  0
 18 19  1  0  0  0  0
 18 42  1  0  0  0  0
 19 20  1  0  0  0  0
 20 21  2  0  0  0  0
 20 22  1  0  0  0  0
 22 27  1  0  0  0  0
 22 23  2  0  0  0  0
 23 24  1  0  0  0  0
 23 43  1  0  0  0  0
 24 25  2  0  0  0  0
 24 44  1  0  0  0  0
 25 26  1  0  0  0  0
 25 45  1  0  0  0  0
 26 27  2  0  0  0  0
 26 46  1  0  0  0  0
 27 47  1  0  0  0  0
 28 33  1  0  0  0  0
 28 29  2  0  0  0  0
 29 30  1  0  0  0  0
 29 48  1  0  0  0  0
 30 31  2  0  0  0  0
 30 49  1  0  0  0  0
 31 32  1  0  0  0  0
 31 50  1  0  0  0  0
 32 33  2  0  0  0  0
 32 51  1  0  0  0  0
 33 52  1  0  0  0  0
M  CHG  1  13  -1
M  END
> <s_m_source_file>
AV-unprocessed.smi

> <i_m_source_file_index>
99

> <i_lp_mmshare_version>
43012

> <i_f3d_flags>
0

> <s_epik_input>
W2NIXTFbY0hdW2NIXVtjSF1bY0hdYzFDKD1PKU9bQ0gyXVtDQEBIXTJPW0NAQEhdKG4zW2NIXVtjSF1jKD1PKVtuSF1jMz1PKVtDQEBIXShbT0hdKVtDQEhdMk9DKD1PKWM0W2NIXVtjSF1bY0hdW2NIXVtjSF00

> <s_epik_cmdline>
J2VwaWtfcHl0aG9uJywgJy1waCcsICc3LjAnLCAnLXRuJywgJzgnLCAnLW1hJywgJzIwMCcsICctbWV0YWxfYmluZGluZycsICctaW1hZScsICc8aW5maWxlLm1hZT4nLCAnLW9tYWUnLCAnPG91dGZpbGUubWFlPic=

> <r_lp_tautomer_probability>
1

> <r_epik_Ionization_Penalty>
2.89159

> <r_epik_Ionization_Penalty_Charging>
2.1077e-08

> <r_epik_Ionization_Penalty_Neutral>
2.89159

> <r_epik_State_Penalty>
2.88671

> <r_epik_Charging_Adjusted_Penalty>
2.88671

> <i_epik_Tot_Q>
-1

> <i_epik_Tot_abs_Q>
1

> <r_epik_Metal_State_Penalty>
0.0727308

> <b_epik_Metal_Only>
1

> <s_epik_Chemistry_Notes>
This compound has an ester and may undergo hydrolysis at high or low pH. This compound contains an acetal/aminal-like group ( X-CH(R)-Y where X, Y are N, S, or O) that may be acid/base labile, releasing an aldehyde.

> <s_lp_Force_Field>
OPLS_2005

> <r_lp_Energy>
36.8261

> <b_lp_Chiralities_Consistent>
1

> <s_lp_Variant>
AV-unprocessed.smi:99-28

> <Gold.Version>
5.8.1

> <Gold.Id.Protein>
6NUR|6NUR_protein|mol2

> <Gold.PLP.Fitness>
57.7248

> <Gold.PLP.PLP>
-49.2779

> <Gold.PLP.part.hbond>
-3.0000

> <Gold.PLP.part.metal>
0.0000

> <Gold.PLP.part.buried>
-6.5204

> <Gold.PLP.part.nonpolar>
-39.9348

> <Gold.PLP.part.repulsive>
0.1004

> <Gold.PLP.ligand.clash>
0.0000

> <Gold.PLP.ligand.torsion>
1.3116

> <Gold.PLP.Chemscore.Hbond>
2.3890

> <Gold.PLP.Chemscore.CHOScore>
1.1094

> <Gold.PLP.Chemscore.Metal>
0.0000

> <Gold.Chemscore.Hbonds>
donor molecule, donor type, donor heavy atom, donor atom, acceptor molecule, acceptor atom, score
      L1  H    17    41       P1  7948  0.84
      P1  H  6896  6908       L1    15  0.65
      P1  H  7997  8009       L1    12  0.37
      L1  C     9    38       P1  7948  0.09
      L1  C     9    38       P1  7949  1.00

> <Gold.PLP.Chemscore.Internal.Correction>
0.5750

> <Gold.Rescore>
     Score         DG    S(hbond)    S(metal)    S(lipo)     H(rot)  DE(clash)    DE(int)     intcor
     13.35     -17.18       2.30        0.00     102.86       3.13       0.25       3.58       ----

> <Gold.Chemscore.Fitness>
13.3452

> <Gold.Chemscore.DG>
-17.1791

> <Gold.Chemscore.ZeroCoef>
-5.4800

> <Gold.Chemscore.Hbond>
2.3022

> <Gold.Chemscore.Metal>
0.0000

> <Gold.Chemscore.Lipo>
102.8576

> <Gold.Chemscore.Internal_Hbond>
0.0000

> <Gold.Chemscore.DEClash>
0.2541

> <Gold.Chemscore.DEInternal>
3.5797

> <Gold.Chemscore.Rot>
3.1346

> <Gold.Chemscore.Internal.Correction>
   9.000000E+99

> <Gold.Chemscore.Hbonds>
donor molecule, donor type, donor heavy atom, donor atom, acceptor molecule, acceptor atom, score
      L1  H    17    41       P1  7948  0.66
      P1  H  6896  6908       L1    15  0.64
      P1  H  7997  8009       L1    12  0.30

> <Gold.Chemscore.Hbond.Weighted>
-7.6893

> <Gold.Chemscore.Metal.Weighted>
-0.0000

> <Gold.Chemscore.Lipo.Weighted>
-12.0343

> <Gold.Chemscore.Internal_Hbond.Weighted>
0.0000

> <Gold.Chemscore.DEClash.Weighted>
0.2541

> <Gold.Chemscore.DEInternal.Weighted>
3.5797

> <Gold.Chemscore.Rot.Weighted>
8.0246

> <Gold.Chemscore.Internal.Correction.Weighted>
   9.000000E+99

> <Gold.Protein.RotatedTorsions>
[ 6907 6896 6895 6894 ] final -178.35 input  -60.11 | X-H torsion
[ 7974 7965 7964 7962 ] final -156.35 input  175.53 | X-H torsion
[ 8008 7997 7996 7995 ] final -169.29 input   59.86 | X-H torsion
[ 10167 10162 10161 10158 ] final -114.65 input  -65.29 | X-H torsion
[ 10718 10713 10712 10709 ] final   15.54 input   66.30 | X-H torsion
[ 10763 10752 10751 10750 ] final  -70.74 input  -60.55 | X-H torsion
[ 11005 11000 10999 10996 ] final -112.92 input  -57.11 | X-H torsion

> <Gold.Protein.ActiveResidues>
 VAL166  LYS551  ARG553  GLY616  TRP617  ASP618  TYR619  PRO620  LYS621  CYS622 
 ASP623  PHE694  ASN695  SER759  ASP760  ASP761  ALA762  ILE779  LEU786  VAL792 
 PHE793  MET794  SER795  GLU796  ALA797  LYS798  CYS799  TRP800  GLU811  SER814 

> <Gold.Protein.RotatedAtoms>
  151.6358  133.3329  159.3118 H   0  0  0  0  0  0  0  0  0  0  0  0  # atno 6907 bound_to 6896
  150.8033  134.7145  159.6632 H   0  0  0  0  0  0  0  0  0  0  0  0  # atno 6908 bound_to 6896
  152.4127  134.6101  160.0075 H   0  0  0  0  0  0  0  0  0  0  0  0  # atno 6909 bound_to 6896
  144.7597  140.4122  143.5986 H   0  0  0  0  0  0  0  0  0  0  0  0  # atno 7974 bound_to 7965
  155.9030  140.1044  157.1336 H   0  0  0  0  0  0  0  0  0  0  0  0  # atno 8008 bound_to 7997
  154.4029  140.1289  156.4524 H   0  0  0  0  0  0  0  0  0  0  0  0  # atno 8009 bound_to 7997
  155.7401  140.3467  155.5102 H   0  0  0  0  0  0  0  0  0  0  0  0  # atno 8010 bound_to 7997
  140.0987  143.4633  152.1825 H   0  0  0  0  0  0  0  0  0  0  0  0  # atno 10167 bound_to 10162
  157.0549  130.6285  149.5775 H   0  0  0  0  0  0  0  0  0  0  0  0  # atno 10718 bound_to 10713
  154.4219  135.5984  153.6015 H   0  0  0  0  0  0  0  0  0  0  0  0  # atno 10763 bound_to 10752
  152.9794  135.5954  154.3944 H   0  0  0  0  0  0  0  0  0  0  0  0  # atno 10764 bound_to 10752
  154.3771  135.2841  155.2211 H   0  0  0  0  0  0  0  0  0  0  0  0  # atno 10765 bound_to 10752
  141.0646  133.9480  157.2603 H   0  0  0  0  0  0  0  0  0  0  0  0  # atno 11005 bound_to 11000
  145.6660  139.1590  143.2781 LP  0  0  0  0  0  0  0  0  0  0  0  0  # atno 17320 bound_to 7965
  146.1647  140.6736  142.9261 LP  0  0  0  0  0  0  0  0  0  0  0  0  # atno 17321 bound_to 7965
  139.5683  144.7448  151.3960 LP  0  0  0  0  0  0  0  0  0  0  0  0  # atno 17342 bound_to 10162
  140.6989  143.7680  150.7371 LP  0  0  0  0  0  0  0  0  0  0  0  0  # atno 17343 bound_to 10162
  155.9996  130.5072  150.7613 LP  0  0  0  0  0  0  0  0  0  0  0  0  # atno 17370 bound_to 10713
  157.5001  131.0918  151.0325 LP  0  0  0  0  0  0  0  0  0  0  0  0  # atno 17371 bound_to 10713
  139.9464  135.0183  156.8865 LP  0  0  0  0  0  0  0  0  0  0  0  0  # atno 17394 bound_to 11000
  140.5800  134.0362  155.7460 LP  0  0  0  0  0  0  0  0  0  0  0  0  # atno 17395 bound_to 11000

$$$$
