AV-unprocessed.smi:54|AV-procd|sdf|536|dock1
  -GOLD-   2262016413D 1   1.00000     0.00000
 Structure written by MMmdl.
 44 46  0  0  0  0  0  0  0  0  1 V2000
  152.6702  138.3084  154.6761 C   0  0  0  0  0  0  0  0  0  0  0  0
  151.3957  138.1088  155.5117 C   0  0  0  0  0  0  0  0  0  0  0  0
  151.5266  138.7662  156.8954 C   0  0  0  0  0  0  0  0  0  0  0  0
  151.0707  136.6168  155.6470 C   0  0  0  0  0  0  0  0  0  0  0  0
  151.7886  135.8481  156.2876 O   0  0  0  0  0  0  0  0  0  0  0  0
  149.8671  136.1783  154.9630 N   0  0  0  0  0  0  0  0  0  0  0  0
  149.3585  134.9250  154.9139 C   0  0  0  0  0  0  0  0  0  0  0  0
  148.5500  134.5058  153.9507 N   0  0  0  0  0  0  0  0  0  0  0  0
  148.1447  133.2063  154.0758 C   0  0  0  0  0  0  0  0  0  0  0  0
  148.4945  132.3266  155.0787 C   0  0  0  0  0  0  0  0  0  0  0  0
  147.8825  131.0951  154.8704 N   0  0  0  0  0  0  0  0  0  0  0  0
  147.1963  131.2637  153.7742 C   0  0  0  0  0  0  0  0  0  0  0  0
  147.3045  132.5206  153.2277 N   0  0  0  0  0  0  0  0  0  0  0  0
  146.6682  133.0766  151.9964 C   0  0  1  0  0  0  0  0  0  0  0  0
  145.8724  132.0976  151.4172 O   0  0  0  0  0  0  0  0  0  0  0  0
  144.8826  132.7239  150.6070 C   0  0  1  0  0  0  0  0  0  0  0  0
  143.5792  131.9216  150.7390 C   0  0  0  0  0  0  0  0  0  0  0  0
  142.7116  132.2158  149.6647 O   0  0  0  0  0  0  0  0  0  0  0  0
  144.7755  134.1810  151.1098 C   0  0  2  0  0  0  0  0  0  0  0  0
  145.2075  135.0595  150.0887 O   0  0  0  0  0  0  0  0  0  0  0  0
  145.7347  134.2525  152.2920 C   0  0  1  0  0  0  0  0  0  0  0  0
  145.0398  134.1107  153.5186 O   0  0  0  0  0  0  0  0  0  0  0  0
  149.3749  132.7629  156.1239 C   0  0  0  0  0  0  0  0  0  0  0  0
  149.7923  132.1219  157.0860 O   0  0  0  0  0  0  0  0  0  0  0  0
  149.7667  134.0983  155.9609 N   0  0  0  0  0  0  0  0  0  0  0  0
  147.4911  133.3365  151.3284 H   0  0  0  0  0  0  0  0  0  0  0  0
  145.2340  132.6887  149.5740 H   0  0  0  0  0  0  0  0  0  0  0  0
  143.7584  134.4594  151.3903 H   0  0  0  0  0  0  0  0  0  0  0  0
  146.3068  135.1810  152.3271 H   0  0  0  0  0  0  0  0  0  0  0  0
  152.5764  137.8437  153.6937 H   0  0  0  0  0  0  0  0  0  0  0  0
  153.5439  137.8768  155.1665 H   0  0  0  0  0  0  0  0  0  0  0  0
  152.8701  139.3684  154.5178 H   0  0  0  0  0  0  0  0  0  0  0  0
  150.5688  138.5908  154.9881 H   0  0  0  0  0  0  0  0  0  0  0  0
  150.6249  138.6196  157.4912 H   0  0  0  0  0  0  0  0  0  0  0  0
  151.6854  139.8409  156.8021 H   0  0  0  0  0  0  0  0  0  0  0  0
  152.3673  138.3568  157.4574 H   0  0  0  0  0  0  0  0  0  0  0  0
  149.3694  136.8887  154.4474 H   0  0  0  0  0  0  0  0  0  0  0  0
  146.5939  130.4789  153.3406 H   0  0  0  0  0  0  0  0  0  0  0  0
  143.7926  130.8525  150.7218 H   0  0  0  0  0  0  0  0  0  0  0  0
  143.0825  132.1368  151.6855 H   0  0  0  0  0  0  0  0  0  0  0  0
  141.8666  131.8341  149.8475 H   0  0  0  0  0  0  0  0  0  0  0  0
  145.4959  134.5428  149.3517 H   0  0  0  0  0  0  0  0  0  0  0  0
  144.1135  134.1783  153.3459 H   0  0  0  0  0  0  0  0  0  0  0  0
  150.3867  134.4744  156.6628 H   0  0  0  0  0  0  0  0  0  0  0  0
  1  2  1  0  0  0  0
  1 30  1  0  0  0  0
  1 31  1  0  0  0  0
  1 32  1  0  0  0  0
  2  3  1  0  0  0  0
  2  4  1  0  0  0  0
  2 33  1  0  0  0  0
  3 34  1  0  0  0  0
  3 35  1  0  0  0  0
  3 36  1  0  0  0  0
  4  5  2  0  0  0  0
  4  6  1  0  0  0  0
  6 37  1  0  0  0  0
  6  7  1  0  0  0  0
  7 25  1  0  0  0  0
  7  8  2  0  0  0  0
  8  9  1  0  0  0  0
  9 13  1  0  0  0  0
  9 10  2  0  0  0  0
 10 11  1  0  0  0  0
 10 23  1  0  0  0  0
 11 12  2  0  0  0  0
 12 13  1  0  0  0  0
 12 38  1  0  0  0  0
 13 14  1  0  0  0  0
 14 26  1  0  0  0  0
 14 21  1  0  0  0  0
 14 15  1  0  0  0  0
 15 16  1  0  0  0  0
 16 27  1  0  0  0  0
 16 17  1  0  0  0  0
 16 19  1  0  0  0  0
 17 18  1  0  0  0  0
 17 39  1  0  0  0  0
 17 40  1  0  0  0  0
 18 41  1  0  0  0  0
 19 28  1  0  0  0  0
 19 20  1  0  0  0  0
 19 21  1  0  0  0  0
 20 42  1  0  0  0  0
 21 29  1  0  0  0  0
 21 22  1  0  0  0  0
 22 43  1  0  0  0  0
 23 24  2  0  0  0  0
 23 25  1  0  0  0  0
 25 44  1  0  0  0  0
M  END
> <s_m_source_file>
AV-unprocessed.smi

> <i_m_source_file_index>
54

> <i_lp_mmshare_version>
43012

> <i_f3d_flags>
0

> <s_epik_input>
W0NIM11bQ0hdKFtDSDNdKUMoPU8pW05IXWMobjEpW25IXWMoPU8pYyhjMTIpbltjSF1uMltDQEBIXTNPW0NASF0oW0NIMl1bT0hdKVtDQEBIXShbT0hdKVtDQEhdM1tPSF0=

> <s_epik_cmdline>
J2VwaWtfcHl0aG9uJywgJy1waCcsICc3LjAnLCAnLXRuJywgJzgnLCAnLW1hJywgJzIwMCcsICctbWV0YWxfYmluZGluZycsICctaW1hZScsICc8aW5maWxlLm1hZT4nLCAnLW9tYWUnLCAnPG91dGZpbGUubWFlPic=

> <r_lp_tautomer_probability>
0.85571

> <r_epik_Ionization_Penalty>
0.0316551

> <r_epik_Ionization_Penalty_Charging>
0.0316043

> <r_epik_Ionization_Penalty_Neutral>
5.07097e-05

> <r_epik_State_Penalty>
3.15494e-07

> <r_epik_Charging_Adjusted_Penalty>
0.0316047

> <i_epik_Tot_Q>
0

> <i_epik_Tot_abs_Q>
0

> <r_epik_Metal_State_Penalty>
0.421206

> <b_epik_Metal_Only>
0

> <s_epik_Chemistry_Notes>
This compound contains an acetal/aminal-like group ( X-CH(R)-Y where X, Y are N, S, or O) that may be acid/base labile, releasing an aldehyde.

> <s_lp_Force_Field>
OPLS_2005

> <r_lp_Energy>
42.5501

> <b_lp_Chiralities_Consistent>
1

> <s_lp_Variant>
AV-unprocessed.smi:54-8

> <Gold.Version>
5.8.1

> <Gold.Id.Protein>
6NUR|6NUR_protein|mol2

> <Gold.PLP.Fitness>
45.0141

> <Gold.PLP.PLP>
-36.6776

> <Gold.PLP.part.hbond>
-4.9103

> <Gold.PLP.part.metal>
0.0000

> <Gold.PLP.part.buried>
-7.4724

> <Gold.PLP.part.nonpolar>
-27.9103

> <Gold.PLP.part.repulsive>
3.4386

> <Gold.PLP.ligand.clash>
0.0000

> <Gold.PLP.ligand.torsion>
0.3784

> <Gold.PLP.Chemscore.Hbond>
3.0000

> <Gold.PLP.Chemscore.CHOScore>
0.0000

> <Gold.PLP.Chemscore.Metal>
0.0000

> <Gold.Chemscore.Hbonds>
donor molecule, donor type, donor heavy atom, donor atom, acceptor molecule, acceptor atom, score
      L1  H    18    41       P1 10952  0.90
      L1  H    20    42       P1  7921  0.77
      P1  H 10752 10764       L1     5  1.00
      P1  H 10785 10796       L1    18  0.02

> <Gold.PLP.Chemscore.Internal.Correction>
0.0933

> <Gold.Rescore>
     Score         DG    S(hbond)    S(metal)    S(lipo)     H(rot)  DE(clash)    DE(int)     intcor
      8.96     -10.75       2.92        0.00      50.35       4.05       1.32       0.47       ----

> <Gold.Chemscore.Fitness>
8.9573

> <Gold.Chemscore.DG>
-10.7486

> <Gold.Chemscore.ZeroCoef>
-5.4800

> <Gold.Chemscore.Hbond>
2.9174

> <Gold.Chemscore.Metal>
0.0000

> <Gold.Chemscore.Lipo>
50.3496

> <Gold.Chemscore.Internal_Hbond>
0.0000

> <Gold.Chemscore.DEClash>
1.3208

> <Gold.Chemscore.DEInternal>
0.4705

> <Gold.Chemscore.Rot>
4.0493

> <Gold.Chemscore.Internal.Correction>
   9.000000E+99

> <Gold.Chemscore.Hbonds>
donor molecule, donor type, donor heavy atom, donor atom, acceptor molecule, acceptor atom, score
      L1  H    18    41       P1 10952  0.84
      L1  H    20    42       P1  7921  0.73
      P1  H 10752 10764       L1     5  0.55

> <Gold.Chemscore.Hbond.Weighted>
-9.7440

> <Gold.Chemscore.Metal.Weighted>
-0.0000

> <Gold.Chemscore.Lipo.Weighted>
-5.8909

> <Gold.Chemscore.Internal_Hbond.Weighted>
0.0000

> <Gold.Chemscore.DEClash.Weighted>
1.3208

> <Gold.Chemscore.DEInternal.Weighted>
0.4705

> <Gold.Chemscore.Rot.Weighted>
10.3662

> <Gold.Chemscore.Internal.Correction.Weighted>
   9.000000E+99

> <Gold.Protein.RotatedTorsions>
[ 6907 6896 6895 6894 ] final    7.83 input  -60.11 | X-H torsion
[ 7974 7965 7964 7962 ] final -164.66 input  175.53 | X-H torsion
[ 8008 7997 7996 7995 ] final  101.42 input   59.86 | X-H torsion
[ 10167 10162 10161 10158 ] final    2.81 input  -65.29 | X-H torsion
[ 10718 10713 10712 10709 ] final -124.02 input   66.30 | X-H torsion
[ 10763 10752 10751 10750 ] final  -21.33 input  -60.55 | X-H torsion
[ 11005 11000 10999 10996 ] final   78.46 input  -57.11 | X-H torsion

> <Gold.Protein.ActiveResidues>
 VAL166  LYS551  ARG553  GLY616  TRP617  ASP618  TYR619  PRO620  LYS621  CYS622 
 ASP623  PHE694  ASN695  SER759  ASP760  ASP761  ALA762  ILE779  LEU786  VAL792 
 PHE793  MET794  SER795  GLU796  ALA797  LYS798  CYS799  TRP800  GLU811  SER814 

> <Gold.Protein.RotatedAtoms>
  151.6963  135.0938  160.0242 H   0  0  0  0  0  0  0  0  0  0  0  0  # atno 6907 bound_to 6896
  152.3748  133.6462  159.6123 H   0  0  0  0  0  0  0  0  0  0  0  0  # atno 6908 bound_to 6896
  150.7701  133.9128  159.3416 H   0  0  0  0  0  0  0  0  0  0  0  0  # atno 6909 bound_to 6896
  144.7290  140.2928  143.6217 H   0  0  0  0  0  0  0  0  0  0  0  0  # atno 7974 bound_to 7965
  156.1298  140.3197  155.8331 H   0  0  0  0  0  0  0  0  0  0  0  0  # atno 8008 bound_to 7997
  155.4353  140.0521  157.3032 H   0  0  0  0  0  0  0  0  0  0  0  0  # atno 8009 bound_to 7997
  154.4890  140.2084  155.9603 H   0  0  0  0  0  0  0  0  0  0  0  0  # atno 8010 bound_to 7997
  140.6617  143.7287  150.7750 H   0  0  0  0  0  0  0  0  0  0  0  0  # atno 10167 bound_to 10162
  156.1552  130.6563  150.9971 H   0  0  0  0  0  0  0  0  0  0  0  0  # atno 10718 bound_to 10713
  153.6344  135.6987  153.5264 H   0  0  0  0  0  0  0  0  0  0  0  0  # atno 10763 bound_to 10752
  153.2833  135.4179  155.1098 H   0  0  0  0  0  0  0  0  0  0  0  0  # atno 10764 bound_to 10752
  154.8514  135.3607  154.5888 H   0  0  0  0  0  0  0  0  0  0  0  0  # atno 10765 bound_to 10752
  139.9212  134.7765  156.1652 H   0  0  0  0  0  0  0  0  0  0  0  0  # atno 11005 bound_to 11000
  145.7838  139.1901  143.2142 LP  0  0  0  0  0  0  0  0  0  0  0  0  # atno 17320 bound_to 7965
  146.0812  140.7762  142.9641 LP  0  0  0  0  0  0  0  0  0  0  0  0  # atno 17321 bound_to 7965
  140.0957  143.4835  152.2453 LP  0  0  0  0  0  0  0  0  0  0  0  0  # atno 17342 bound_to 10162
  139.5852  144.7528  151.3538 LP  0  0  0  0  0  0  0  0  0  0  0  0  # atno 17343 bound_to 10162
  157.6689  131.0866  150.7661 LP  0  0  0  0  0  0  0  0  0  0  0  0  # atno 17370 bound_to 10713
  156.7726  130.4834  149.5415 LP  0  0  0  0  0  0  0  0  0  0  0  0  # atno 17371 bound_to 10713
  141.0734  133.6786  156.2186 LP  0  0  0  0  0  0  0  0  0  0  0  0  # atno 17394 bound_to 11000
  140.6469  134.5107  157.5574 LP  0  0  0  0  0  0  0  0  0  0  0  0  # atno 17395 bound_to 11000

$$$$
