AV-unprocessed.smi:40|AV-procd|sdf|370|dock5
  -GOLD-   2262016213D 1   1.00000     0.00000
 Structure written by MMmdl.
 47 48  0  0  0  0  0  0  0  0  1 V2000
  133.9903  137.6974  153.6882 C   0  0  0  0  0  0  0  0  0  0  0  0
  135.3507  137.4280  154.3442 C   0  0  0  0  0  0  0  0  0  0  0  0
  136.3045  138.6333  154.3104 C   0  0  0  0  0  0  0  0  0  0  0  0
  137.7878  138.2591  154.4858 C   0  0  0  0  0  0  0  0  0  0  0  0
  138.7205  139.4775  154.4487 C   0  0  0  0  0  0  0  0  0  0  0  0
  140.0601  139.0343  154.5737 O   0  0  0  0  0  0  0  0  0  0  0  0
  140.5577  138.1002  153.7414 C   0  0  0  0  0  0  0  0  0  0  0  0
  139.9049  137.5244  152.8716 O   0  0  0  0  0  0  0  0  0  0  0  0
  141.9520  137.8439  154.0421 N   0  0  0  0  0  0  0  0  0  0  0  0
  142.7463  136.9641  153.3951 C   0  0  0  0  0  0  0  0  0  0  0  0
  143.9599  137.3616  153.0604 N   0  0  0  0  0  0  0  0  0  0  0  0
  144.8486  136.5812  152.3697 C   0  0  0  0  0  0  0  0  0  0  0  0
  145.9546  137.0173  152.0535 O   0  0  0  0  0  0  0  0  0  0  0  0
  144.4342  135.2733  152.0221 N   0  0  0  0  0  0  0  0  0  0  0  0
  145.3662  134.3863  151.2267 C   0  0  1  0  0  0  0  0  0  0  0  0
  145.4628  133.1502  151.8700 O   0  0  0  0  0  0  0  0  0  0  0  0
  145.3690  132.1046  150.9098 C   0  0  1  0  0  0  0  0  0  0  0  0
  144.9239  130.7865  151.5607 C   0  0  0  0  0  0  0  0  0  0  0  0
  144.4583  132.6681  149.8114 C   0  0  1  0  0  0  0  0  0  0  0  0
  143.0914  132.4852  150.1413 O   0  0  0  0  0  0  0  0  0  0  0  0
  144.8694  134.1378  149.7847 C   0  0  1  0  0  0  0  0  0  0  0  0
  143.8426  135.0018  149.3242 O   0  0  0  0  0  0  0  0  0  0  0  0
  143.1710  134.8320  152.3859 C   0  0  0  0  0  0  0  0  0  0  0  0
  142.3082  135.6215  153.0588 C   0  0  0  0  0  0  0  0  0  0  0  0
  141.0911  135.1649  153.4018 F   0  0  0  0  0  0  0  0  0  0  0  0
  146.3484  134.8599  151.2565 H   0  0  0  0  0  0  0  0  0  0  0  0
  146.3669  131.9680  150.4891 H   0  0  0  0  0  0  0  0  0  0  0  0
  144.6394  132.1841  148.8512 H   0  0  0  0  0  0  0  0  0  0  0  0
  145.7331  134.2513  149.1282 H   0  0  0  0  0  0  0  0  0  0  0  0
  133.3800  136.7940  153.6814 H   0  0  0  0  0  0  0  0  0  0  0  0
  134.1091  138.0248  152.6550 H   0  0  0  0  0  0  0  0  0  0  0  0
  133.4314  138.4652  154.2228 H   0  0  0  0  0  0  0  0  0  0  0  0
  135.2064  137.0979  155.3734 H   0  0  0  0  0  0  0  0  0  0  0  0
  135.8250  136.5944  153.8251 H   0  0  0  0  0  0  0  0  0  0  0  0
  136.1759  139.1375  153.3517 H   0  0  0  0  0  0  0  0  0  0  0  0
  136.0118  139.3563  155.0725 H   0  0  0  0  0  0  0  0  0  0  0  0
  137.9266  137.7473  155.4378 H   0  0  0  0  0  0  0  0  0  0  0  0
  138.0854  137.5521  153.7105 H   0  0  0  0  0  0  0  0  0  0  0  0
  138.5927  140.0288  153.5162 H   0  0  0  0  0  0  0  0  0  0  0  0
  138.4811  140.1554  155.2690 H   0  0  0  0  0  0  0  0  0  0  0  0
  142.3609  138.4484  154.7392 H   0  0  0  0  0  0  0  0  0  0  0  0
  144.8149  129.9987  150.8152 H   0  0  0  0  0  0  0  0  0  0  0  0
  143.9716  130.8945  152.0801 H   0  0  0  0  0  0  0  0  0  0  0  0
  145.6584  130.4515  152.2934 H   0  0  0  0  0  0  0  0  0  0  0  0
  142.5968  133.2055  149.7818 H   0  0  0  0  0  0  0  0  0  0  0  0
  143.0129  134.5608  149.4274 H   0  0  0  0  0  0  0  0  0  0  0  0
  142.8500  133.8337  152.1285 H   0  0  0  0  0  0  0  0  0  0  0  0
  1  2  1  0  0  0  0
  1 30  1  0  0  0  0
  1 31  1  0  0  0  0
  1 32  1  0  0  0  0
  2  3  1  0  0  0  0
  2 33  1  0  0  0  0
  2 34  1  0  0  0  0
  3  4  1  0  0  0  0
  3 35  1  0  0  0  0
  3 36  1  0  0  0  0
  4  5  1  0  0  0  0
  4 37  1  0  0  0  0
  4 38  1  0  0  0  0
  5  6  1  0  0  0  0
  5 39  1  0  0  0  0
  5 40  1  0  0  0  0
  6  7  1  0  0  0  0
  7  8  2  0  0  0  0
  7  9  1  0  0  0  0
  9 10  1  0  0  0  0
  9 41  1  0  0  0  0
 10 24  1  0  0  0  0
 10 11  2  0  0  0  0
 11 12  1  0  0  0  0
 12 13  2  0  0  0  0
 12 14  1  0  0  0  0
 14 15  1  0  0  0  0
 14 23  1  0  0  0  0
 15 26  1  0  0  0  0
 15 21  1  0  0  0  0
 15 16  1  0  0  0  0
 16 17  1  0  0  0  0
 17 27  1  0  0  0  0
 17 18  1  0  0  0  0
 17 19  1  0  0  0  0
 18 42  1  0  0  0  0
 18 43  1  0  0  0  0
 18 44  1  0  0  0  0
 19 28  1  0  0  0  0
 19 20  1  0  0  0  0
 19 21  1  0  0  0  0
 20 45  1  0  0  0  0
 21 29  1  0  0  0  0
 21 22  1  0  0  0  0
 22 46  1  0  0  0  0
 23 24  2  0  0  0  0
 23 47  1  0  0  0  0
 24 25  1  0  0  0  0
M  END
> <s_m_source_file>
AV-unprocessed.smi

> <i_m_source_file_index>
40

> <i_lp_mmshare_version>
43012

> <i_f3d_flags>
0

> <s_epik_input>
W0NIM11bQ0gyXVtDSDJdW0NIMl1bQ0gyXU9DKD1PKVtOSF1jMW5jKD1PKW4oW2NIXWMxRilbQ0BASF0yT1tDQEhdKFtDSDNdKVtDQEBIXShbT0hdKVtDQEhdMltPSF0=

> <s_epik_cmdline>
J2VwaWtfcHl0aG9uJywgJy1waCcsICc3LjAnLCAnLXRuJywgJzgnLCAnLW1hJywgJzIwMCcsICctbWV0YWxfYmluZGluZycsICctaW1hZScsICc8aW5maWxlLm1hZT4nLCAnLW9tYWUnLCAnPG91dGZpbGUubWFlPic=

> <r_lp_tautomer_probability>
1

> <r_epik_Ionization_Penalty>
2.29506e-06

> <r_epik_Ionization_Penalty_Charging>
8.26867e-09

> <r_epik_Ionization_Penalty_Neutral>
2.2868e-06

> <r_epik_State_Penalty>
-0

> <r_epik_Charging_Adjusted_Penalty>
8.26867e-09

> <i_epik_Tot_Q>
0

> <i_epik_Tot_abs_Q>
0

> <r_epik_Metal_State_Penalty>
-0

> <b_epik_Metal_Only>
0

> <s_epik_Chemistry_Notes>
This compound has an ester and may undergo hydrolysis at high or low pH. This compound contains an acetal/aminal-like group ( X-CH(R)-Y where X, Y are N, S, or O) that may be acid/base labile, releasing an aldehyde.

> <s_lp_Force_Field>
OPLS_2005

> <r_lp_Energy>
45.3247

> <b_lp_Chiralities_Consistent>
1

> <s_lp_Variant>
AV-unprocessed.smi:40-4

> <Gold.Version>
5.8.1

> <Gold.Id.Protein>
6NUR|6NUR_protein|mol2

> <Gold.PLP.Fitness>
42.5306

> <Gold.PLP.PLP>
-37.9305

> <Gold.PLP.part.hbond>
-3.5945

> <Gold.PLP.part.metal>
0.0000

> <Gold.PLP.part.buried>
-3.5895

> <Gold.PLP.part.nonpolar>
-31.8969

> <Gold.PLP.part.repulsive>
0.9056

> <Gold.PLP.ligand.clash>
0.0000

> <Gold.PLP.ligand.torsion>
0.6389

> <Gold.PLP.Chemscore.Hbond>
1.9263

> <Gold.PLP.Chemscore.CHOScore>
0.0000

> <Gold.PLP.Chemscore.Metal>
0.0000

> <Gold.Chemscore.Hbonds>
donor molecule, donor type, donor heavy atom, donor atom, acceptor molecule, acceptor atom, score
      L1  H    20    45       P1 10186  1.00
      L1  H    22    46       P1 10186  1.00

> <Gold.PLP.Chemscore.Internal.Correction>
0.0992

> <Gold.Rescore>
     Score         DG    S(hbond)    S(metal)    S(lipo)     H(rot)  DE(clash)    DE(int)     intcor
      5.73     -11.14       1.95        0.00      73.53       3.70       1.12       4.28       ----

> <Gold.Chemscore.Fitness>
5.7311

> <Gold.Chemscore.DG>
-11.1353

> <Gold.Chemscore.ZeroCoef>
-5.4800

> <Gold.Chemscore.Hbond>
1.9502

> <Gold.Chemscore.Metal>
0.0000

> <Gold.Chemscore.Lipo>
73.5272

> <Gold.Chemscore.Internal_Hbond>
0.0000

> <Gold.Chemscore.DEClash>
1.1209

> <Gold.Chemscore.DEInternal>
4.2834

> <Gold.Chemscore.Rot>
3.6957

> <Gold.Chemscore.Internal.Correction>
   9.000000E+99

> <Gold.Chemscore.Hbonds>
donor molecule, donor type, donor heavy atom, donor atom, acceptor molecule, acceptor atom, score
      L1  H    20    45       P1 10186  0.94
      L1  H    22    46       P1 10186  0.93

> <Gold.Chemscore.Hbond.Weighted>
-6.5136

> <Gold.Chemscore.Metal.Weighted>
-0.0000

> <Gold.Chemscore.Lipo.Weighted>
-8.6027

> <Gold.Chemscore.Internal_Hbond.Weighted>
0.0000

> <Gold.Chemscore.DEClash.Weighted>
1.1209

> <Gold.Chemscore.DEInternal.Weighted>
4.2834

> <Gold.Chemscore.Rot.Weighted>
9.4610

> <Gold.Chemscore.Internal.Correction.Weighted>
   9.000000E+99

> <Gold.Protein.RotatedTorsions>
[ 6907 6896 6895 6894 ] final  109.20 input  -60.11 | X-H torsion
[ 7974 7965 7964 7962 ] final  111.53 input  175.53 | X-H torsion
[ 8008 7997 7996 7995 ] final   41.22 input   59.86 | X-H torsion
[ 10167 10162 10161 10158 ] final   33.34 input  -65.29 | X-H torsion
[ 10718 10713 10712 10709 ] final -168.12 input   66.30 | X-H torsion
[ 10763 10752 10751 10750 ] final  171.82 input  -60.55 | X-H torsion
[ 11005 11000 10999 10996 ] final  -98.66 input  -57.11 | X-H torsion

> <Gold.Protein.ActiveResidues>
 VAL166  LYS551  ARG553  GLY616  TRP617  ASP618  TYR619  PRO620  LYS621  CYS622 
 ASP623  PHE694  ASN695  SER759  ASP760  ASP761  ALA762  ILE779  LEU786  VAL792 
 PHE793  MET794  SER795  GLU796  ALA797  LYS798  CYS799  TRP800  GLU811  SER814 

> <Gold.Protein.RotatedAtoms>
  152.5078  133.8979  159.7426 H   0  0  0  0  0  0  0  0  0  0  0  0  # atno 6907 bound_to 6896
  150.9402  133.6657  159.2799 H   0  0  0  0  0  0  0  0  0  0  0  0  # atno 6908 bound_to 6896
  151.3971  135.0970  159.9597 H   0  0  0  0  0  0  0  0  0  0  0  0  # atno 6909 bound_to 6896
  145.2411  139.2778  143.4117 H   0  0  0  0  0  0  0  0  0  0  0  0  # atno 7974 bound_to 7965
  155.2660  140.3362  155.4269 H   0  0  0  0  0  0  0  0  0  0  0  0  # atno 8008 bound_to 7997
  156.2153  140.1786  156.7644 H   0  0  0  0  0  0  0  0  0  0  0  0  # atno 8009 bound_to 7997
  154.5745  140.0664  156.8998 H   0  0  0  0  0  0  0  0  0  0  0  0  # atno 8010 bound_to 7997
  140.4416  144.1179  150.6175 H   0  0  0  0  0  0  0  0  0  0  0  0  # atno 10167 bound_to 10162
  156.6924  130.9164  151.3070 H   0  0  0  0  0  0  0  0  0  0  0  0  # atno 10718 bound_to 10713
  154.4173  135.2757  155.1998 H   0  0  0  0  0  0  0  0  0  0  0  0  # atno 10763 bound_to 10752
  154.3959  135.6055  153.5873 H   0  0  0  0  0  0  0  0  0  0  0  0  # atno 10764 bound_to 10752
  152.9832  135.5914  154.4464 H   0  0  0  0  0  0  0  0  0  0  0  0  # atno 10765 bound_to 10752
  141.1337  133.8262  157.0869 H   0  0  0  0  0  0  0  0  0  0  0  0  # atno 11005 bound_to 11000
  146.3328  140.2775  142.8608 LP  0  0  0  0  0  0  0  0  0  0  0  0  # atno 17320 bound_to 7965
  144.9588  140.8254  143.5526 LP  0  0  0  0  0  0  0  0  0  0  0  0  # atno 17321 bound_to 7965
  140.4312  143.2567  151.9593 LP  0  0  0  0  0  0  0  0  0  0  0  0  # atno 17342 bound_to 10162
  139.4790  144.5742  151.8039 LP  0  0  0  0  0  0  0  0  0  0  0  0  # atno 17343 bound_to 10162
  157.7004  130.9327  150.0768 LP  0  0  0  0  0  0  0  0  0  0  0  0  # atno 17370 bound_to 10713
  156.1788  130.3649  149.9064 LP  0  0  0  0  0  0  0  0  0  0  0  0  # atno 17371 bound_to 10713
  140.0417  134.9851  157.0973 LP  0  0  0  0  0  0  0  0  0  0  0  0  # atno 17394 bound_to 11000
  140.4126  134.1966  155.7163 LP  0  0  0  0  0  0  0  0  0  0  0  0  # atno 17395 bound_to 11000

$$$$
