AV-unprocessed.smi:1669|AV-procd|sdf|6687|dock5
  -GOLD-   22720 7413D 1   1.00000     0.00000
 Structure written by MMmdl.
 47 49  0  0  0  0  0  0  0  0  1 V2000
  147.8569  139.6767  155.5643 C   0  0  0  0  0  0  0  0  0  0  0  0
  148.4788  140.9642  155.2684 N   0  0  0  0  0  0  0  0  0  0  0  0
  147.6314  141.7656  154.3797 C   0  0  0  0  0  0  0  0  0  0  0  0
  146.4021  142.3404  155.0619 C   0  0  0  0  0  0  0  0  0  0  0  0
  146.3007  142.3203  156.4691 C   0  0  0  0  0  0  0  0  0  0  0  0
  145.1616  142.8525  157.1039 C   0  0  0  0  0  0  0  0  0  0  0  0
  144.1225  143.4109  156.3344 C   0  0  0  0  0  0  0  0  0  0  0  0
  144.2224  143.4365  154.9297 C   0  0  0  0  0  0  0  0  0  0  0  0
  145.3602  142.9017  154.2939 C   0  0  0  0  0  0  0  0  0  0  0  0
  149.8217  140.7578  154.7211 C   0  0  0  0  0  0  0  0  0  0  0  0
  150.9648  140.7239  155.7559 C   0  0  2  0  0  0  0  0  0  0  0  0
  152.0642  140.0579  155.1692 O   0  0  0  0  0  0  0  0  0  0  0  0
  150.5653  140.0065  157.0621 C   0  0  0  0  0  0  0  0  0  0  0  0
  151.4626  140.3227  158.1645 N   0  0  0  0  0  0  0  0  0  0  0  0
  152.2758  139.4906  158.8628 C   0  0  0  0  0  0  0  0  0  0  0  0
  152.3458  138.0214  158.5583 C   0  0  0  0  0  0  0  0  0  0  0  0
  151.9288  137.1965  159.6270 O   0  0  0  0  0  0  0  0  0  0  0  0
  152.9877  140.0643  159.8364 N   0  0  0  0  0  0  0  0  0  0  0  0
  152.6028  141.3885  159.7585 C   0  0  0  0  0  0  0  0  0  0  0  0
  153.0029  142.5093  160.5209 C   0  0  0  0  0  0  0  0  0  0  0  0
  152.4591  143.7834  160.2558 C   0  0  0  0  0  0  0  0  0  0  0  0
  151.5087  143.9549  159.2283 C   0  0  0  0  0  0  0  0  0  0  0  0
  151.0967  142.8515  158.4569 C   0  0  0  0  0  0  0  0  0  0  0  0
  151.6448  141.5827  158.7243 C   0  0  0  0  0  0  0  0  0  0  0  0
  148.4780  139.0940  156.2452 H   0  0  0  0  0  0  0  0  0  0  0  0
  147.7100  139.0922  154.6551 H   0  0  0  0  0  0  0  0  0  0  0  0
  146.8874  139.8059  156.0458 H   0  0  0  0  0  0  0  0  0  0  0  0
  148.1832  142.6205  153.9930 H   0  0  0  0  0  0  0  0  0  0  0  0
  147.3331  141.1759  153.5118 H   0  0  0  0  0  0  0  0  0  0  0  0
  147.0964  141.8940  157.0632 H   0  0  0  0  0  0  0  0  0  0  0  0
  145.0853  142.8326  158.1811 H   0  0  0  0  0  0  0  0  0  0  0  0
  143.2497  143.8203  156.8212 H   0  0  0  0  0  0  0  0  0  0  0  0
  143.4263  143.8661  154.3396 H   0  0  0  0  0  0  0  0  0  0  0  0
  145.4289  142.9221  153.2160 H   0  0  0  0  0  0  0  0  0  0  0  0
  149.8410  139.8113  154.1787 H   0  0  0  0  0  0  0  0  0  0  0  0
  150.0289  141.5297  153.9779 H   0  0  0  0  0  0  0  0  0  0  0  0
  151.3039  141.7345  155.9790 H   0  0  0  0  0  0  0  0  0  0  0  0
  152.5654  139.6424  155.8542 H   0  0  0  0  0  0  0  0  0  0  0  0
  149.5616  140.3096  157.3630 H   0  0  0  0  0  0  0  0  0  0  0  0
  150.5200  138.9276  156.9143 H   0  0  0  0  0  0  0  0  0  0  0  0
  151.7238  137.8102  157.6882 H   0  0  0  0  0  0  0  0  0  0  0  0
  153.3701  137.7507  158.3027 H   0  0  0  0  0  0  0  0  0  0  0  0
  152.3400  137.5070  160.4195 H   0  0  0  0  0  0  0  0  0  0  0  0
  153.7292  142.3884  161.3110 H   0  0  0  0  0  0  0  0  0  0  0  0
  152.7721  144.6333  160.8444 H   0  0  0  0  0  0  0  0  0  0  0  0
  151.0968  144.9338  159.0319 H   0  0  0  0  0  0  0  0  0  0  0  0
  150.3693  142.9788  157.6688 H   0  0  0  0  0  0  0  0  0  0  0  0
  1  2  1  0  0  0  0
  1 25  1  0  0  0  0
  1 26  1  0  0  0  0
  1 27  1  0  0  0  0
  2  3  1  0  0  0  0
  2 10  1  0  0  0  0
  3  4  1  0  0  0  0
  3 28  1  0  0  0  0
  3 29  1  0  0  0  0
  4  9  1  0  0  0  0
  4  5  2  0  0  0  0
  5  6  1  0  0  0  0
  5 30  1  0  0  0  0
  6  7  2  0  0  0  0
  6 31  1  0  0  0  0
  7  8  1  0  0  0  0
  7 32  1  0  0  0  0
  8  9  2  0  0  0  0
  8 33  1  0  0  0  0
  9 34  1  0  0  0  0
 10 11  1  0  0  0  0
 10 35  1  0  0  0  0
 10 36  1  0  0  0  0
 11 12  1  0  0  0  0
 11 13  1  0  0  0  0
 11 37  1  0  0  0  0
 12 38  1  0  0  0  0
 13 14  1  0  0  0  0
 13 39  1  0  0  0  0
 13 40  1  0  0  0  0
 14 24  1  0  0  0  0
 14 15  1  0  0  0  0
 15 16  1  0  0  0  0
 15 18  2  0  0  0  0
 16 17  1  0  0  0  0
 16 41  1  0  0  0  0
 16 42  1  0  0  0  0
 17 43  1  0  0  0  0
 18 19  1  0  0  0  0
 19 24  2  0  0  0  0
 19 20  1  0  0  0  0
 20 21  2  0  0  0  0
 20 44  1  0  0  0  0
 21 22  1  0  0  0  0
 21 45  1  0  0  0  0
 22 23  2  0  0  0  0
 22 46  1  0  0  0  0
 23 24  1  0  0  0  0
 23 47  1  0  0  0  0
M  END
> <s_m_source_file>
AV-unprocessed.smi

> <i_m_source_file_index>
1669

> <i_lp_mmshare_version>
43012

> <i_f3d_flags>
0

> <s_epik_input>
W2NIXTFbY0hdW2NIXVtjSF1bY0hdYzFbQ0gyXU4oW0NIM10pW0NIMl1bQ0BIXShbT0hdKVtDSDJdbihjKG4yKVtDSDJdW09IXSljKGMyMylbY0hdW2NIXVtjSF1bY0hdMw==

> <s_epik_cmdline>
J2VwaWtfcHl0aG9uJywgJy1waCcsICc3LjAnLCAnLXRuJywgJzgnLCAnLW1hJywgJzIwMCcsICctbWV0YWxfYmluZGluZycsICctaW1hZScsICc8aW5maWxlLm1hZT4nLCAnLW9tYWUnLCAnPG91dGZpbGUubWFlPic=

> <r_epik_Ionization_Penalty>
1.56301

> <r_epik_Ionization_Penalty_Charging>
0

> <r_epik_Ionization_Penalty_Neutral>
1.56301

> <r_epik_State_Penalty>
1.64771

> <r_epik_Charging_Adjusted_Penalty>
1.64771

> <i_epik_Tot_Q>
0

> <i_epik_Tot_abs_Q>
0

> <r_epik_Metal_State_Penalty>
1.61258

> <b_epik_Metal_Only>
0

> <s_lp_Force_Field>
OPLS_2005

> <r_lp_Energy>
20.891

> <b_lp_Chiralities_Consistent>
1

> <s_lp_Variant>
AV-unprocessed.smi:1669-5

> <Gold.Version>
5.8.1

> <Gold.Id.Protein>
6NUR|6NUR_protein|mol2

> <Gold.PLP.Fitness>
48.0538

> <Gold.PLP.PLP>
-46.0607

> <Gold.PLP.part.hbond>
-1.9355

> <Gold.PLP.part.metal>
0.0000

> <Gold.PLP.part.buried>
-5.7420

> <Gold.PLP.part.nonpolar>
-39.8436

> <Gold.PLP.part.repulsive>
0.0990

> <Gold.PLP.ligand.clash>
0.0000

> <Gold.PLP.ligand.torsion>
1.0596

> <Gold.PLP.Chemscore.Hbond>
1.2689

> <Gold.PLP.Chemscore.CHOScore>
0.0000

> <Gold.PLP.Chemscore.Metal>
0.0000

> <Gold.Chemscore.Hbonds>
donor molecule, donor type, donor heavy atom, donor atom, acceptor molecule, acceptor atom, score
      P1  H  6896  6907       L1    17  0.88
      P1  H  7989  7998       L1    12  0.39

> <Gold.PLP.Chemscore.Internal.Correction>
0.3057

> <Gold.Rescore>
     Score         DG    S(hbond)    S(metal)    S(lipo)     H(rot)  DE(clash)    DE(int)     intcor
     12.88     -14.05       0.97        0.00     112.56       3.06       0.03       1.15       ----

> <Gold.Chemscore.Fitness>
12.8814

> <Gold.Chemscore.DG>
-14.0550

> <Gold.Chemscore.ZeroCoef>
-5.4800

> <Gold.Chemscore.Hbond>
0.9704

> <Gold.Chemscore.Metal>
0.0000

> <Gold.Chemscore.Lipo>
112.5614

> <Gold.Chemscore.Internal_Hbond>
0.0000

> <Gold.Chemscore.DEClash>
0.0263

> <Gold.Chemscore.DEInternal>
1.1472

> <Gold.Chemscore.Rot>
3.0609

> <Gold.Chemscore.Internal.Correction>
   9.000000E+99

> <Gold.Chemscore.Hbonds>
donor molecule, donor type, donor heavy atom, donor atom, acceptor molecule, acceptor atom, score
      P1  H  6896  6907       L1    17  0.34
      P1  H  7989  7998       L1    12  0.02

> <Gold.Chemscore.Hbond.Weighted>
-3.2411

> <Gold.Chemscore.Metal.Weighted>
-0.0000

> <Gold.Chemscore.Lipo.Weighted>
-13.1697

> <Gold.Chemscore.Internal_Hbond.Weighted>
0.0000

> <Gold.Chemscore.DEClash.Weighted>
0.0263

> <Gold.Chemscore.DEInternal.Weighted>
1.1472

> <Gold.Chemscore.Rot.Weighted>
7.8358

> <Gold.Chemscore.Internal.Correction.Weighted>
   9.000000E+99

> <Gold.Protein.RotatedTorsions>
[ 6907 6896 6895 6894 ] final    5.40 input  -60.11 | X-H torsion
[ 7974 7965 7964 7962 ] final  -86.23 input  175.53 | X-H torsion
[ 8008 7997 7996 7995 ] final  -23.34 input   59.86 | X-H torsion
[ 10167 10162 10161 10158 ] final   36.00 input  -65.29 | X-H torsion
[ 10718 10713 10712 10709 ] final  140.94 input   66.30 | X-H torsion
[ 10763 10752 10751 10750 ] final  -66.82 input  -60.55 | X-H torsion
[ 11005 11000 10999 10996 ] final  -93.60 input  -57.11 | X-H torsion

> <Gold.Protein.ActiveResidues>
 VAL166  LYS551  ARG553  GLY616  TRP617  ASP618  TYR619  PRO620  LYS621  CYS622 
 ASP623  PHE694  ASN695  SER759  ASP760  ASP761  ALA762  ILE779  LEU786  VAL792 
 PHE793  MET794  SER795  GLU796  ALA797  LYS798  CYS799  TRP800  GLU811  SER814 

> <Gold.Protein.RotatedAtoms>
  151.6569  135.0994  160.0171 H   0  0  0  0  0  0  0  0  0  0  0  0  # atno 6907 bound_to 6896
  152.3969  133.6755  159.6292 H   0  0  0  0  0  0  0  0  0  0  0  0  # atno 6908 bound_to 6896
  150.7874  133.8776  159.3317 H   0  0  0  0  0  0  0  0  0  0  0  0  # atno 6909 bound_to 6896
  145.4827  140.9556  143.1855 H   0  0  0  0  0  0  0  0  0  0  0  0  # atno 7974 bound_to 7965
  154.4591  140.1983  156.0296 H   0  0  0  0  0  0  0  0  0  0  0  0  # atno 8008 bound_to 7997
  156.0804  140.3272  155.7659 H   0  0  0  0  0  0  0  0  0  0  0  0  # atno 8009 bound_to 7997
  155.5120  140.0562  157.2912 H   0  0  0  0  0  0  0  0  0  0  0  0  # atno 8010 bound_to 7997
  140.4169  144.1514  150.6144 H   0  0  0  0  0  0  0  0  0  0  0  0  # atno 10167 bound_to 10162
  157.3976  131.1012  151.0584 H   0  0  0  0  0  0  0  0  0  0  0  0  # atno 10718 bound_to 10713
  154.3655  135.6107  153.5712 H   0  0  0  0  0  0  0  0  0  0  0  0  # atno 10763 bound_to 10752
  152.9792  135.5825  154.4583 H   0  0  0  0  0  0  0  0  0  0  0  0  # atno 10764 bound_to 10752
  154.4328  135.2848  155.1878 H   0  0  0  0  0  0  0  0  0  0  0  0  # atno 10765 bound_to 10752
  141.1493  133.7899  157.0182 H   0  0  0  0  0  0  0  0  0  0  0  0  # atno 11005 bound_to 11000
  144.7879  139.6388  143.7126 LP  0  0  0  0  0  0  0  0  0  0  0  0  # atno 17320 bound_to 7965
  146.2331  139.5852  142.9542 LP  0  0  0  0  0  0  0  0  0  0  0  0  # atno 17321 bound_to 7965
  140.4576  143.2461  151.9263 LP  0  0  0  0  0  0  0  0  0  0  0  0  # atno 17342 bound_to 10162
  139.4782  144.5499  151.8401 LP  0  0  0  0  0  0  0  0  0  0  0  0  # atno 17343 bound_to 10162
  157.1595  130.6219  149.5606 LP  0  0  0  0  0  0  0  0  0  0  0  0  # atno 17370 bound_to 10713
  155.9814  130.4822  150.6828 LP  0  0  0  0  0  0  0  0  0  0  0  0  # atno 17371 bound_to 10713
  140.0833  134.9635  157.1659 LP  0  0  0  0  0  0  0  0  0  0  0  0  # atno 17394 bound_to 11000
  140.3547  134.2560  155.7194 LP  0  0  0  0  0  0  0  0  0  0  0  0  # atno 17395 bound_to 11000

$$$$
