#       Name:                AV-unprocessed.smi:949
#       Creating user name   scv26
#       Creation time:       Fri Mar 27 02:15:24 2020


#       File generated by GOLD software.
#

@<TRIPOS>MOLECULE
AV-unprocessed.smi:949
    35    36     1
SMALL
NO_CHARGES


@<TRIPOS>ATOM
      1 ****        -1.3120  -0.9698   1.6970 C.3            1 S1                 0.0000
      2 ****        -0.8082  -0.3181   0.3964 C.3            1 S1                 0.0000
      3 ****         0.6491  -0.2461   0.3923 N.pl3          1 S1                 0.0000
      4 ****         1.3711   0.7407   1.0871 C.ar           1 S1                 0.0000
      5 ****         0.7444   1.7603   1.8427 C.ar           1 S1                 0.0000
      6 ****         1.5474   2.7089   2.5056 C.ar           1 S1                 0.0000
      7 ****         2.8951   2.7032   2.4613 N.ar           1 S1                 0.0000
      8 ****         3.4939   1.7329   1.7407 C.ar           1 S1                 0.0000
      9 ****         2.7872   0.7339   1.0384 C.ar           1 S1                 0.0000
     10 ****         3.4957  -0.2307   0.3176 N.pl3          1 S1                 0.0000
     11 ****        -1.3054  -1.0927  -0.8400 C.3            1 S1                 0.0000
     12 ****        -0.8898  -0.4781  -2.1796 C.3            1 S1                 0.0000
     13 ****        -1.9748  -0.9816  -3.1025 C.3            1 S1                 0.0000
     14 ****        -3.2029  -0.8863  -2.2051 C.3            1 S1                 0.0000
     15 ****        -2.7323  -1.1103  -0.8789 O.3            1 S1                 0.0000
     16 ****        -2.4014  -0.9976   1.7279 H              1 S1                 0.0000
     17 ****        -0.9791  -0.4227   2.5788 H              1 S1                 0.0000
     18 ****        -0.9528  -1.9953   1.7907 H              1 S1                 0.0000
     19 ****        -1.2105   0.6925   0.3274 H              1 S1                 0.0000
     20 ****         1.1575  -0.9347  -0.1427 H              1 S1                 0.0000
     21 ****        -0.3284   1.8335   1.9302 H              1 S1                 0.0000
     22 ****         1.0921   3.4958   3.0884 H              1 S1                 0.0000
     23 ****         4.5739   1.7561   1.7242 H              1 S1                 0.0000
     24 ****         3.0136  -0.9563  -0.1932 H              1 S1                 0.0000
     25 ****         4.4814  -0.1211   0.1284 H              1 S1                 0.0000
     26 ****        -0.9643  -2.1286  -0.8017 H              1 S1                 0.0000
     27 ****        -0.9195   0.6115  -2.1307 H              1 S1                 0.0000
     28 ****         0.1104  -0.7781  -2.4937 H              1 S1                 0.0000
     29 ****        -2.0681  -0.3973  -4.0182 H              1 S1                 0.0000
     30 ****        -1.7846  -2.0207  -3.3746 H              1 S1                 0.0000
     31 ****        -3.6318   0.1155  -2.2540 H              1 S1                 0.0000
     32 ****        -3.9784  -1.6013  -2.4805 H              1 S1                 0.0000
     33 ****         3.4318   3.3941   2.9457 LP             1 S1                 0.0000
     34 ****        -3.0859  -0.3922  -0.2794 LP             1 S1                 0.0000
     35 ****        -3.0584  -2.0006  -0.5609 LP             1 S1                 0.0000
@<TRIPOS>BOND
    1    1    2 1     
    2    1   16 1     
    3    1   17 1     
    4    1   18 1     
    5    2    3 1     
    6    2   11 1     
    7    2   19 1     
    8    3    4 1     
    9    3   20 1     
   10    4    9 ar    
   11    4    5 ar    
   12    5    6 ar    
   13    5   21 1     
   14    6    7 ar    
   15    6   22 1     
   16    7    8 ar    
   17    8    9 ar    
   18    8   23 1     
   19    9   10 1     
   20   10   24 1     
   21   10   25 1     
   22   11   15 1     
   23   11   12 1     
   24   11   26 1     
   25   12   13 1     
   26   12   27 1     
   27   12   28 1     
   28   13   14 1     
   29   13   29 1     
   30   13   30 1     
   31   14   15 1     
   32   14   31 1     
   33   14   32 1     
   34    7   33 1     
   35   15   34 1     
   36   15   35 1     
@<TRIPOS>SUBSTRUCTURE
      1 S1             1
@<TRIPOS>SET
LONE_PAIRS      STATIC     ATOMS    <user>   **** ""
3 33 34 35
DONOR_HYDROGENS      STATIC     ATOMS    <user>   **** ""
3 20 24 25
ATOM$BLUE        STATIC     ATOMS    COLORGROUP SYSTEM
3 33 34 35
ATOM$RED        STATIC     ATOMS    COLORGROUP SYSTEM
3 20 24 25
