AV-unprocessed.smi:2007|AV-procd|sdf|8140|dock6
  -GOLD-   2272010373D 1   1.00000     0.00000
 Structure written by MMmdl.
 36 37  0  0  0  0  0  0  0  0  3 V2000
  149.3034  133.7471  156.6202 C   0  0  0  0  0  0  0  0  0  0  0  0
  149.7636  135.1797  156.3197 C   0  0  1  0  0  0  0  0  0  0  0  0
  149.0255  135.7680  155.0952 C   0  0  0  0  0  0  0  0  0  0  0  0
  149.6853  136.9868  154.5633 N   0  3  0  0  0  0  0  0  0  0  0  0
  149.0603  138.2511  155.0184 C   0  0  0  0  0  0  0  0  0  0  0  0
  149.7288  139.4448  154.3169 C   0  0  0  0  0  0  0  0  0  0  0  0
  151.1255  139.4340  154.5900 O   0  0  0  0  0  0  0  0  0  0  0  0
  151.7562  138.2540  154.1043 C   0  0  0  0  0  0  0  0  0  0  0  0
  151.1475  137.0193  154.7913 C   0  0  0  0  0  0  0  0  0  0  0  0
  149.5500  136.0163  157.5027 N   0  0  0  0  0  0  0  0  0  0  0  0
  148.3679  136.3814  158.0224 C   0  0  0  0  0  0  0  0  0  0  0  0
  147.3198  136.0744  157.4503 O   0  0  0  0  0  0  0  0  0  0  0  0
  148.4728  137.0504  159.1910 N   0  5  0  0  0  0  0  0  0  0  0  0
  148.0301  136.4851  160.3258 C   0  0  0  0  0  0  0  0  0  0  0  0
  147.7936  137.1831  161.4429 N   0  0  0  0  0  0  0  0  0  0  0  0
  147.3383  136.3964  162.5026 C   0  0  0  0  0  0  0  0  0  0  0  0
  147.2202  135.0699  162.1825 C   0  0  0  0  0  0  0  0  0  0  0  0
  147.6792  134.7674  160.5310 S   0  0  0  0  0  0  0  0  0  0  0  0
  149.4746  133.0934  155.7646 H   0  0  0  0  0  0  0  0  0  0  0  0
  148.2397  133.7119  156.8588 H   0  0  0  0  0  0  0  0  0  0  0  0
  149.8486  133.3295  157.4674 H   0  0  0  0  0  0  0  0  0  0  0  0
  150.8303  135.1283  156.0981 H   0  0  0  0  0  0  0  0  0  0  0  0
  148.9228  135.0227  154.3048 H   0  0  0  0  0  0  0  0  0  0  0  0
  148.0110  136.0238  155.4051 H   0  0  0  0  0  0  0  0  0  0  0  0
  147.9931  138.2481  154.7979 H   0  0  0  0  0  0  0  0  0  0  0  0
  149.1626  138.3450  156.1004 H   0  0  0  0  0  0  0  0  0  0  0  0
  149.5546  139.4106  153.2399 H   0  0  0  0  0  0  0  0  0  0  0  0
  149.3040  140.3809  154.6793 H   0  0  0  0  0  0  0  0  0  0  0  0
  151.6454  138.1893  153.0204 H   0  0  0  0  0  0  0  0  0  0  0  0
  152.8245  138.3119  154.3121 H   0  0  0  0  0  0  0  0  0  0  0  0
  151.3534  137.0395  155.8626 H   0  0  0  0  0  0  0  0  0  0  0  0
  151.6067  136.1151  154.3899 H   0  0  0  0  0  0  0  0  0  0  0  0
  150.3767  136.3073  158.0044 H   0  0  0  0  0  0  0  0  0  0  0  0
  147.1208  136.8652  163.4508 H   0  0  0  0  0  0  0  0  0  0  0  0
  146.8922  134.2566  162.8121 H   0  0  0  0  0  0  0  0  0  0  0  0
  149.5624  136.9473  153.5603 H   0  0  0  0  0  0  0  0  0  0  0  0
  1  2  1  0  0  0  0
  1 19  1  0  0  0  0
  1 20  1  0  0  0  0
  1 21  1  0  0  0  0
  2  3  1  0  0  0  0
  2 10  1  0  0  0  0
  2 22  1  0  0  0  0
  3  4  1  0  0  0  0
  3 23  1  0  0  0  0
  3 24  1  0  0  0  0
  4  9  1  0  0  0  0
  4  5  1  0  0  0  0
  4 36  1  0  0  0  0
  5  6  1  0  0  0  0
  5 25  1  0  0  0  0
  5 26  1  0  0  0  0
  6  7  1  0  0  0  0
  6 27  1  0  0  0  0
  6 28  1  0  0  0  0
  7  8  1  0  0  0  0
  8  9  1  0  0  0  0
  8 29  1  0  0  0  0
  8 30  1  0  0  0  0
  9 31  1  0  0  0  0
  9 32  1  0  0  0  0
 10 11  1  0  0  0  0
 10 33  1  0  0  0  0
 11 12  2  0  0  0  0
 11 13  1  0  0  0  0
 13 14  1  0  0  0  0
 14 18  1  0  0  0  0
 14 15  2  0  0  0  0
 15 16  1  0  0  0  0
 16 17  2  0  0  0  0
 16 34  1  0  0  0  0
 17 18  1  0  0  0  0
 17 35  1  0  0  0  0
M  CHG  1   4   1
M  CHG  1  13  -1
M  END
> <s_m_source_file>
AV-unprocessed.smi

> <i_m_source_file_index>
2007

> <i_lp_mmshare_version>
43012

> <i_f3d_flags>
0

> <s_epik_input>
W0NIMl0xW0NIMl1PW0NIMl1bQ0gyXU4xW0NIMl1bQ0BASF0oW0NIM10pW05IXUMoPU8pW05IXWMybltjSF1bY0hdczI=

> <s_epik_cmdline>
J2VwaWtfcHl0aG9uJywgJy1waCcsICc3LjAnLCAnLXRuJywgJzgnLCAnLW1hJywgJzIwMCcsICctbWV0YWxfYmluZGluZycsICctaW1hZScsICc8aW5maWxlLm1hZT4nLCAnLW9tYWUnLCAnPG91dGZpbGUubWFlPic=

> <r_lp_tautomer_probability>
0.999

> <r_epik_Ionization_Penalty>
6.49226

> <r_epik_Ionization_Penalty_Charging>
5.74393

> <r_epik_Ionization_Penalty_Neutral>
0.748321

> <r_epik_State_Penalty>
5.94164

> <r_epik_Charging_Adjusted_Penalty>
11.6856

> <i_epik_Tot_Q>
0

> <i_epik_Tot_abs_Q>
2

> <r_epik_Metal_State_Penalty>
1.97606

> <b_epik_Metal_Only>
1

> <s_lp_Force_Field>
OPLS_2005

> <r_lp_Energy>
10.1675

> <b_lp_Chiralities_Consistent>
1

> <s_lp_Variant>
AV-unprocessed.smi:2007-8

> <Gold.Version>
5.8.1

> <Gold.Id.Protein>
6NUR|6NUR_protein|mol2

> <Gold.PLP.Fitness>
40.5078

> <Gold.PLP.PLP>
-28.8235

> <Gold.PLP.part.hbond>
-4.0000

> <Gold.PLP.part.metal>
0.0000

> <Gold.PLP.part.buried>
-4.1845

> <Gold.PLP.part.nonpolar>
-20.3011

> <Gold.PLP.part.repulsive>
0.1986

> <Gold.PLP.ligand.clash>
0.0000

> <Gold.PLP.ligand.torsion>
1.3034

> <Gold.PLP.Chemscore.Hbond>
4.7345

> <Gold.PLP.Chemscore.CHOScore>
0.0000

> <Gold.PLP.Chemscore.Metal>
0.0000

> <Gold.Chemscore.Hbonds>
donor molecule, donor type, donor heavy atom, donor atom, acceptor molecule, acceptor atom, score
      L1  H     4    36       P1  7948  2.00
      P1  H  6931  6943       L1    15  1.00
      P1  H  6934  6947       L1    15  0.75
      P1  H  7989  7998       L1     7  0.95

> <Gold.PLP.Chemscore.Internal.Correction>
0.0876

> <Gold.Rescore>
     Score         DG    S(hbond)    S(metal)    S(lipo)     H(rot)  DE(clash)    DE(int)     intcor
     14.92     -17.77       2.80        0.00      60.15       1.60       0.14       2.71       ----

> <Gold.Chemscore.Fitness>
14.9191

> <Gold.Chemscore.DG>
-17.7686

> <Gold.Chemscore.ZeroCoef>
-5.4800

> <Gold.Chemscore.Hbond>
2.7979

> <Gold.Chemscore.Metal>
0.0000

> <Gold.Chemscore.Lipo>
60.1464

> <Gold.Chemscore.Internal_Hbond>
0.0000

> <Gold.Chemscore.DEClash>
0.1412

> <Gold.Chemscore.DEInternal>
2.7083

> <Gold.Chemscore.Rot>
1.5991

> <Gold.Chemscore.Internal.Correction>
   9.000000E+99

> <Gold.Chemscore.Hbonds>
donor molecule, donor type, donor heavy atom, donor atom, acceptor molecule, acceptor atom, score
      L1  H     4    36       P1  7948  0.81
      P1  H  6931  6943       L1    15  0.74
      P1  H  6934  6947       L1    15  0.50
      P1  H  7989  7998       L1     7  0.14

> <Gold.Chemscore.Hbond.Weighted>
-9.3451

> <Gold.Chemscore.Metal.Weighted>
-0.0000

> <Gold.Chemscore.Lipo.Weighted>
-7.0371

> <Gold.Chemscore.Internal_Hbond.Weighted>
0.0000

> <Gold.Chemscore.DEClash.Weighted>
0.1412

> <Gold.Chemscore.DEInternal.Weighted>
2.7083

> <Gold.Chemscore.Rot.Weighted>
4.0936

> <Gold.Chemscore.Internal.Correction.Weighted>
   9.000000E+99

> <Gold.Protein.RotatedTorsions>
[ 6907 6896 6895 6894 ] final -103.14 input  -60.11 | X-H torsion
[ 7974 7965 7964 7962 ] final  -19.33 input  175.53 | X-H torsion
[ 8008 7997 7996 7995 ] final  -53.69 input   59.86 | X-H torsion
[ 10167 10162 10161 10158 ] final   30.16 input  -65.29 | X-H torsion
[ 10718 10713 10712 10709 ] final    8.21 input   66.30 | X-H torsion
[ 10763 10752 10751 10750 ] final -134.56 input  -60.55 | X-H torsion
[ 11005 11000 10999 10996 ] final -162.46 input  -57.11 | X-H torsion

> <Gold.Protein.ActiveResidues>
 VAL166  LYS551  ARG553  GLY616  TRP617  ASP618  TYR619  PRO620  LYS621  CYS622 
 ASP623  PHE694  ASN695  SER759  ASP760  ASP761  ALA762  ILE779  LEU786  VAL792 
 PHE793  MET794  SER795  GLU796  ALA797  LYS798  CYS799  TRP800  GLU811  SER814 

> <Gold.Protein.RotatedAtoms>
  150.7227  134.0474  159.3786 H   0  0  0  0  0  0  0  0  0  0  0  0  # atno 6907 bound_to 6896
  151.8450  135.0575  160.0462 H   0  0  0  0  0  0  0  0  0  0  0  0  # atno 6908 bound_to 6896
  152.2834  133.5456  159.5548 H   0  0  0  0  0  0  0  0  0  0  0  0  # atno 6909 bound_to 6896
  146.1847  140.4046  142.8481 H   0  0  0  0  0  0  0  0  0  0  0  0  # atno 7974 bound_to 7965
  154.4140  140.1194  156.5194 H   0  0  0  0  0  0  0  0  0  0  0  0  # atno 8008 bound_to 7997
  155.6718  140.3496  155.4802 H   0  0  0  0  0  0  0  0  0  0  0  0  # atno 8009 bound_to 7997
  155.9626  140.1126  157.0872 H   0  0  0  0  0  0  0  0  0  0  0  0  # atno 8010 bound_to 7997
  140.4702  144.0774  150.6235 H   0  0  0  0  0  0  0  0  0  0  0  0  # atno 10167 bound_to 10162
  156.9483  130.5887  149.5655 H   0  0  0  0  0  0  0  0  0  0  0  0  # atno 10718 bound_to 10713
  154.8717  135.3731  154.4755 H   0  0  0  0  0  0  0  0  0  0  0  0  # atno 10763 bound_to 10752
  153.5412  135.7026  153.5641 H   0  0  0  0  0  0  0  0  0  0  0  0  # atno 10764 bound_to 10752
  153.3801  135.3999  155.1815 H   0  0  0  0  0  0  0  0  0  0  0  0  # atno 10765 bound_to 10752
  140.6090  134.4869  157.5213 H   0  0  0  0  0  0  0  0  0  0  0  0  # atno 11005 bound_to 11000
  144.8376  140.6806  143.6250 LP  0  0  0  0  0  0  0  0  0  0  0  0  # atno 17320 bound_to 7965
  145.3974  139.1604  143.4196 LP  0  0  0  0  0  0  0  0  0  0  0  0  # atno 17321 bound_to 7965
  140.3986  143.2715  151.9975 LP  0  0  0  0  0  0  0  0  0  0  0  0  # atno 17342 bound_to 10162
  139.4817  144.6017  151.7594 LP  0  0  0  0  0  0  0  0  0  0  0  0  # atno 17343 bound_to 10162
  156.0374  130.5460  150.8687 LP  0  0  0  0  0  0  0  0  0  0  0  0  # atno 17370 bound_to 10713
  157.5739  131.0946  150.9375 LP  0  0  0  0  0  0  0  0  0  0  0  0  # atno 17371 bound_to 10713
  139.9200  134.8168  156.1241 LP  0  0  0  0  0  0  0  0  0  0  0  0  # atno 17394 bound_to 11000
  141.0821  133.6750  156.2358 LP  0  0  0  0  0  0  0  0  0  0  0  0  # atno 17395 bound_to 11000

$$$$
