AV-unprocessed.smi:21|AV-procd|sdf|125|dock4
  -GOLD-   2262015303D 1   1.00000     0.00000
 Structure written by MMmdl.
 62 65  0  0  0  0  0  0  0  0  2 V2000
  145.2522  132.4883  150.5927 C   0  0  0  0  0  0  0  0  0  0  0  0
  146.5882  132.4709  151.0692 O   0  0  0  0  0  0  0  0  0  0  0  0
  146.7144  132.9022  152.4161 C   0  0  1  0  0  0  0  0  0  0  0  0
  148.1650  132.8164  152.8712 C   0  0  0  0  0  0  0  0  0  0  0  0
  148.2174  133.8008  154.0430 C   0  0  1  0  0  0  0  0  0  0  0  0
  149.6359  134.3397  154.3253 C   0  0  0  0  0  0  0  0  0  0  0  0
  150.0239  134.2570  155.7322 N   0  0  0  0  0  0  0  0  0  0  0  0
  151.2270  133.4876  156.0138 C   0  0  0  0  0  0  0  0  0  0  0  0
  150.0170  135.4301  156.4023 C   0  0  0  0  0  0  0  0  0  0  0  0
  149.1891  135.5271  157.4708 N   0  0  0  0  0  0  0  0  0  0  0  0
  149.1335  136.6647  158.1704 C   0  0  0  0  0  0  0  0  0  0  0  0
  149.8093  137.7996  157.9747 N   0  0  0  0  0  0  0  0  0  0  0  0
  150.6472  137.7004  156.9032 C   0  0  0  0  0  0  0  0  0  0  0  0
  150.8109  136.5624  156.0649 C   0  0  0  0  0  0  0  0  0  0  0  0
  151.7466  136.8337  155.0737 N   0  0  0  0  0  0  0  0  0  0  0  0
  152.1185  138.0614  155.3150 C   0  0  0  0  0  0  0  0  0  0  0  0
  151.5136  138.6546  156.4003 N   0  0  0  0  0  0  0  0  0  0  0  0
  151.7384  140.0023  156.8946 C   0  0  0  0  0  0  0  0  0  0  0  0
  151.8213  140.0818  158.4425 C   0  0  1  0  0  0  0  0  0  0  0  0
  153.0760  139.3620  158.9950 C   0  0  0  0  0  0  0  0  0  0  0  0
  153.0961  138.0008  158.6184 O   0  0  0  0  0  0  0  0  0  0  0  0
  151.6994  141.5277  159.0018 C   0  0  2  0  0  0  0  0  0  0  0  0
  150.8317  142.4938  158.2157 C   0  0  0  0  0  0  0  0  0  0  0  0
  151.2241  143.8251  158.8470 C   0  0  0  0  0  0  0  0  0  0  0  0
  152.6093  143.7023  159.1560 O   0  0  0  0  0  0  0  0  0  0  0  0
  152.9973  142.3300  159.1443 C   0  0  0  0  0  0  0  0  0  0  0  0
  147.2884  134.8931  153.6694 N   0  3  2  0  0  0  0  0  0  0  0  0
  146.5846  135.5058  154.8175 C   0  0  0  0  0  0  0  0  0  0  0  0
  146.3823  134.3875  152.6108 C   0  0  0  0  0  0  0  0  0  0  0  0
  146.1020  132.2897  153.0807 H   0  0  0  0  0  0  0  0  0  0  0  0
  147.8120  133.3017  154.9254 H   0  0  0  0  0  0  0  0  0  0  0  0
  145.2276  132.1310  149.5633 H   0  0  0  0  0  0  0  0  0  0  0  0
  144.8340  133.4952  150.6059 H   0  0  0  0  0  0  0  0  0  0  0  0
  144.6128  131.8360  151.1885 H   0  0  0  0  0  0  0  0  0  0  0  0
  148.4607  131.8049  153.1520 H   0  0  0  0  0  0  0  0  0  0  0  0
  148.8261  133.1489  152.0692 H   0  0  0  0  0  0  0  0  0  0  0  0
  150.3596  133.7774  153.7340 H   0  0  0  0  0  0  0  0  0  0  0  0
  149.7165  135.3736  153.9903 H   0  0  0  0  0  0  0  0  0  0  0  0
  151.4215  133.4410  157.0864 H   0  0  0  0  0  0  0  0  0  0  0  0
  152.0969  133.9282  155.5248 H   0  0  0  0  0  0  0  0  0  0  0  0
  151.1141  132.4653  155.6518 H   0  0  0  0  0  0  0  0  0  0  0  0
  148.4514  136.6657  159.0079 H   0  0  0  0  0  0  0  0  0  0  0  0
  152.8544  138.5690  154.7084 H   0  0  0  0  0  0  0  0  0  0  0  0
  152.6540  140.3776  156.4386 H   0  0  0  0  0  0  0  0  0  0  0  0
  150.9254  140.6191  156.5142 H   0  0  0  0  0  0  0  0  0  0  0  0
  150.9576  139.5347  158.8236 H   0  0  0  0  0  0  0  0  0  0  0  0
  153.9917  139.8073  158.6073 H   0  0  0  0  0  0  0  0  0  0  0  0
  153.1227  139.4379  160.0816 H   0  0  0  0  0  0  0  0  0  0  0  0
  152.2355  137.6368  158.7599 H   0  0  0  0  0  0  0  0  0  0  0  0
  151.2518  141.4652  159.9952 H   0  0  0  0  0  0  0  0  0  0  0  0
  151.0963  142.5100  157.1594 H   0  0  0  0  0  0  0  0  0  0  0  0
  149.7657  142.2808  158.3002 H   0  0  0  0  0  0  0  0  0  0  0  0
  151.0344  144.6738  158.1893 H   0  0  0  0  0  0  0  0  0  0  0  0
  150.6721  143.9842  159.7743 H   0  0  0  0  0  0  0  0  0  0  0  0
  153.5438  142.0704  160.0513 H   0  0  0  0  0  0  0  0  0  0  0  0
  153.6647  142.1805  158.2970 H   0  0  0  0  0  0  0  0  0  0  0  0
  145.9416  134.7804  155.3182 H   0  0  0  0  0  0  0  0  0  0  0  0
  145.9656  136.3389  154.4833 H   0  0  0  0  0  0  0  0  0  0  0  0
  147.2996  135.8906  155.5454 H   0  0  0  0  0  0  0  0  0  0  0  0
  146.5971  134.9471  151.6994 H   0  0  0  0  0  0  0  0  0  0  0  0
  145.3270  134.5357  152.8447 H   0  0  0  0  0  0  0  0  0  0  0  0
  147.8464  135.6165  153.2387 H   0  0  0  0  0  0  0  0  0  0  0  0
  1  2  1  0  0  0  0
  1 32  1  0  0  0  0
  1 33  1  0  0  0  0
  1 34  1  0  0  0  0
  2  3  1  0  0  0  0
  3 30  1  0  0  0  0
  3 29  1  0  0  0  0
  3  4  1  0  0  0  0
  4  5  1  0  0  0  0
  4 35  1  0  0  0  0
  4 36  1  0  0  0  0
  5 31  1  0  0  0  0
  5  6  1  0  0  0  0
  5 27  1  0  0  0  0
  6  7  1  0  0  0  0
  6 37  1  0  0  0  0
  6 38  1  0  0  0  0
  7  8  1  0  0  0  0
  7  9  1  0  0  0  0
  8 39  1  0  0  0  0
  8 40  1  0  0  0  0
  8 41  1  0  0  0  0
  9 14  1  0  0  0  0
  9 10  2  0  0  0  0
 10 11  1  0  0  0  0
 11 12  2  0  0  0  0
 11 42  1  0  0  0  0
 12 13  1  0  0  0  0
 13 17  1  0  0  0  0
 13 14  2  0  0  0  0
 14 15  1  0  0  0  0
 15 16  2  0  0  0  0
 16 17  1  0  0  0  0
 16 43  1  0  0  0  0
 17 18  1  0  0  0  0
 18 19  1  0  0  0  0
 18 44  1  0  0  0  0
 18 45  1  0  0  0  0
 19 20  1  0  0  0  0
 19 22  1  0  0  0  0
 19 46  1  0  0  0  0
 20 21  1  0  0  0  0
 20 47  1  0  0  0  0
 20 48  1  0  0  0  0
 21 49  1  0  0  0  0
 22 26  1  0  0  0  0
 22 23  1  0  0  0  0
 22 50  1  0  0  0  0
 23 24  1  0  0  0  0
 23 51  1  0  0  0  0
 23 52  1  0  0  0  0
 24 25  1  0  0  0  0
 24 53  1  0  0  0  0
 24 54  1  0  0  0  0
 25 26  1  0  0  0  0
 26 55  1  0  0  0  0
 26 56  1  0  0  0  0
 27 28  1  0  0  0  0
 27 29  1  0  0  0  0
 27 62  1  0  0  0  0
 28 57  1  0  0  0  0
 28 58  1  0  0  0  0
 28 59  1  0  0  0  0
 29 60  1  0  0  0  0
 29 61  1  0  0  0  0
M  CHG  1  27   1
M  END
> <s_m_source_file>
AV-unprocessed.smi

> <i_m_source_file_index>
21

> <i_lp_mmshare_version>
43012

> <i_f3d_flags>
0

> <s_epik_input>
W0NIM11PW0NASF0xW0NIMl1bQ0BIXShOKFtDSDNdKVtDSDJdMSlbQ0gyXU4oW0NIM10pYyhuW2NIXW4yKWMoYzIzKW5bY0hdbjNbQ0gyXVtDQEhdKFtDSDJdW09IXSlbQ0BASF00W0NIMl1bQ0gyXU9bQ0gyXTQ=

> <s_epik_cmdline>
J2VwaWtfcHl0aG9uJywgJy1waCcsICc3LjAnLCAnLXRuJywgJzgnLCAnLW1hJywgJzIwMCcsICctbWV0YWxfYmluZGluZycsICctaW1hZScsICc8aW5maWxlLm1hZT4nLCAnLW9tYWUnLCAnPG91dGZpbGUubWFlPic=

> <r_lp_tautomer_probability>
1

> <r_epik_Ionization_Penalty>
0.0157465

> <r_epik_Ionization_Penalty_Charging>
0.015354

> <r_epik_Ionization_Penalty_Neutral>
0.000392529

> <r_epik_State_Penalty>
0.0120612

> <r_epik_Charging_Adjusted_Penalty>
0.0274152

> <i_epik_Tot_Q>
1

> <i_epik_Tot_abs_Q>
1

> <r_epik_Metal_State_Penalty>
0.0121253

> <b_epik_Metal_Only>
0

> <s_lp_Force_Field>
OPLS_2005

> <r_lp_Energy>
61.1599

> <b_lp_Chiralities_Consistent>
1

> <s_lp_Variant>
AV-unprocessed.smi:21-5

> <Gold.Version>
5.8.1

> <Gold.Id.Protein>
6NUR|6NUR_protein|mol2

> <Gold.PLP.Fitness>
44.2267

> <Gold.PLP.PLP>
-39.1003

> <Gold.PLP.part.hbond>
-2.0000

> <Gold.PLP.part.metal>
0.0000

> <Gold.PLP.part.buried>
-7.4464

> <Gold.PLP.part.nonpolar>
-30.9018

> <Gold.PLP.part.repulsive>
0.6440

> <Gold.PLP.ligand.clash>
0.0000

> <Gold.PLP.ligand.torsion>
2.4556

> <Gold.PLP.Chemscore.Hbond>
2.9840

> <Gold.PLP.Chemscore.CHOScore>
0.0000

> <Gold.PLP.Chemscore.Metal>
0.0000

> <Gold.Chemscore.Hbonds>
donor molecule, donor type, donor heavy atom, donor atom, acceptor molecule, acceptor atom, score
      L1  H    27    62       P1  7948  2.00
      P1  H 10752 10763       L1    15  1.00

> <Gold.PLP.Chemscore.Internal.Correction>
1.0857

> <Gold.Rescore>
     Score         DG    S(hbond)    S(metal)    S(lipo)     H(rot)  DE(clash)    DE(int)     intcor
     10.59     -14.01       1.81        0.00      94.35       3.35       0.02       3.40       ----

> <Gold.Chemscore.Fitness>
10.5905

> <Gold.Chemscore.DG>
-14.0134

> <Gold.Chemscore.ZeroCoef>
-5.4800

> <Gold.Chemscore.Hbond>
1.8137

> <Gold.Chemscore.Metal>
0.0000

> <Gold.Chemscore.Lipo>
94.3531

> <Gold.Chemscore.Internal_Hbond>
0.0000

> <Gold.Chemscore.DEClash>
0.0222

> <Gold.Chemscore.DEInternal>
3.4007

> <Gold.Chemscore.Rot>
3.3452

> <Gold.Chemscore.Internal.Correction>
   9.000000E+99

> <Gold.Chemscore.Hbonds>
donor molecule, donor type, donor heavy atom, donor atom, acceptor molecule, acceptor atom, score
      L1  H    27    62       P1  7948  0.94
      P1  H 10752 10763       L1    15  0.90

> <Gold.Chemscore.Hbond.Weighted>
-6.0577

> <Gold.Chemscore.Metal.Weighted>
-0.0000

> <Gold.Chemscore.Lipo.Weighted>
-11.0393

> <Gold.Chemscore.Internal_Hbond.Weighted>
0.0000

> <Gold.Chemscore.DEClash.Weighted>
0.0222

> <Gold.Chemscore.DEInternal.Weighted>
3.4007

> <Gold.Chemscore.Rot.Weighted>
8.5636

> <Gold.Chemscore.Internal.Correction.Weighted>
   9.000000E+99

> <Gold.Protein.RotatedTorsions>
[ 6907 6896 6895 6894 ] final  128.50 input  -60.11 | X-H torsion
[ 7974 7965 7964 7962 ] final  -19.33 input  175.53 | X-H torsion
[ 8008 7997 7996 7995 ] final -125.08 input   59.86 | X-H torsion
[ 10167 10162 10161 10158 ] final   17.50 input  -65.29 | X-H torsion
[ 10718 10713 10712 10709 ] final  106.80 input   66.30 | X-H torsion
[ 10763 10752 10751 10750 ] final   70.55 input  -60.55 | X-H torsion
[ 11005 11000 10999 10996 ] final   62.31 input  -57.11 | X-H torsion

> <Gold.Protein.ActiveResidues>
 VAL166  LYS551  ARG553  GLY616  TRP617  ASP618  TYR619  PRO620  LYS621  CYS622 
 ASP623  PHE694  ASN695  SER759  ASP760  ASP761  ALA762  ILE779  LEU786  VAL792 
 PHE793  MET794  SER795  GLU796  ALA797  LYS798  CYS799  TRP800  GLU811  SER814 

> <Gold.Protein.RotatedAtoms>
  152.3713  133.6422  159.6088 H   0  0  0  0  0  0  0  0  0  0  0  0  # atno 6907 bound_to 6896
  150.7671  133.9266  159.3423 H   0  0  0  0  0  0  0  0  0  0  0  0  # atno 6908 bound_to 6896
  151.7088  135.0918  160.0315 H   0  0  0  0  0  0  0  0  0  0  0  0  # atno 6909 bound_to 6896
  146.1847  140.4047  142.8481 H   0  0  0  0  0  0  0  0  0  0  0  0  # atno 7974 bound_to 7965
  155.2073  140.0418  157.2927 H   0  0  0  0  0  0  0  0  0  0  0  0  # atno 8008 bound_to 7997
  154.6034  140.2458  155.7733 H   0  0  0  0  0  0  0  0  0  0  0  0  # atno 8009 bound_to 7997
  156.2335  140.2930  156.0261 H   0  0  0  0  0  0  0  0  0  0  0  0  # atno 8010 bound_to 7997
  140.5721  143.9141  150.6721 H   0  0  0  0  0  0  0  0  0  0  0  0  # atno 10167 bound_to 10162
  157.6654  131.0859  150.6061 H   0  0  0  0  0  0  0  0  0  0  0  0  # atno 10718 bound_to 10713
  153.0348  135.5170  154.7458 H   0  0  0  0  0  0  0  0  0  0  0  0  # atno 10763 bound_to 10752
  154.6443  135.2916  155.0067 H   0  0  0  0  0  0  0  0  0  0  0  0  # atno 10764 bound_to 10752
  154.0974  135.6641  153.4915 H   0  0  0  0  0  0  0  0  0  0  0  0  # atno 10765 bound_to 10752
  140.0100  134.6310  155.9795 H   0  0  0  0  0  0  0  0  0  0  0  0  # atno 11005 bound_to 11000
  144.8375  140.6806  143.6250 LP  0  0  0  0  0  0  0  0  0  0  0  0  # atno 17320 bound_to 7965
  145.3975  139.1604  143.4196 LP  0  0  0  0  0  0  0  0  0  0  0  0  # atno 17321 bound_to 7965
  140.2619  143.3518  152.1315 LP  0  0  0  0  0  0  0  0  0  0  0  0  # atno 17342 bound_to 10162
  139.5123  144.6915  151.5747 LP  0  0  0  0  0  0  0  0  0  0  0  0  # atno 17343 bound_to 10162
  156.6362  130.4445  149.5769 LP  0  0  0  0  0  0  0  0  0  0  0  0  # atno 17370 bound_to 10713
  156.2244  130.6756  151.1401 LP  0  0  0  0  0  0  0  0  0  0  0  0  # atno 17371 bound_to 10713
  141.1704  133.6537  156.4632 LP  0  0  0  0  0  0  0  0  0  0  0  0  # atno 17394 bound_to 11000
  140.4571  134.6876  157.5067 LP  0  0  0  0  0  0  0  0  0  0  0  0  # atno 17395 bound_to 11000

$$$$
