AV-unprocessed.smi:1667|AV-procd|sdf|6674|dock1
  -GOLD-   22720 7383D 1   1.00000     0.00000
 Structure written by MMmdl.
 45 47  0  0  0  0  0  0  0  0  1 V2000
  151.8475  138.1091  159.3364 C   0  0  0  0  0  0  0  0  0  0  0  0
  152.2776  138.4656  157.9178 C   0  0  0  0  0  0  0  0  0  0  0  0
  153.2773  139.1594  157.7382 O   0  0  0  0  0  0  0  0  0  0  0  0
  151.5033  137.9799  156.9317 N   0  0  0  0  0  0  0  0  0  0  0  0
  151.6477  138.1401  155.4792 C   0  0  2  0  0  0  0  0  0  0  0  0
  153.0043  138.7189  155.0373 C   0  0  0  0  0  0  0  0  0  0  0  0
  150.4702  138.8982  154.9087 C   0  0  0  0  0  0  0  0  0  0  0  0
  149.5854  138.3353  154.0806 N   0  0  0  0  0  0  0  0  0  0  0  0
  148.6981  139.3596  153.8243 C   0  0  0  0  0  0  0  0  0  0  0  0
  147.5449  139.3941  153.0084 C   0  0  0  0  0  0  0  0  0  0  0  0
  146.7824  140.5757  152.9005 C   0  0  0  0  0  0  0  0  0  0  0  0
  147.1612  141.7361  153.6064 C   0  0  0  0  0  0  0  0  0  0  0  0
  148.3065  141.7215  154.4255 C   0  0  0  0  0  0  0  0  0  0  0  0
  149.0643  140.5392  154.5287 C   0  0  0  0  0  0  0  0  0  0  0  0
  150.2147  140.1953  155.2314 N   0  0  0  0  0  0  0  0  0  0  0  0
  150.9540  141.0856  156.1182 C   0  0  0  0  0  0  0  0  0  0  0  0
  150.5589  140.9117  157.5989 C   0  0  2  0  0  0  0  0  0  0  0  0
  149.1679  141.1107  157.7676 O   0  0  0  0  0  0  0  0  0  0  0  0
  151.3839  141.8191  158.4980 C   0  0  0  0  0  0  0  0  0  0  0  0
  152.2178  141.2595  159.4900 C   0  0  0  0  0  0  0  0  0  0  0  0
  152.9912  142.0937  160.3209 C   0  0  0  0  0  0  0  0  0  0  0  0
  152.9365  143.4920  160.1634 C   0  0  0  0  0  0  0  0  0  0  0  0
  152.1100  144.0560  159.1731 C   0  0  0  0  0  0  0  0  0  0  0  0
  152.0591  145.4001  159.0188 F   0  0  0  0  0  0  0  0  0  0  0  0
  151.3376  143.2223  158.3412 C   0  0  0  0  0  0  0  0  0  0  0  0
  151.6140  137.1142  155.1196 H   0  0  0  0  0  0  0  0  0  0  0  0
  151.9250  137.0334  159.4975 H   0  0  0  0  0  0  0  0  0  0  0  0
  150.8146  138.4123  159.5096 H   0  0  0  0  0  0  0  0  0  0  0  0
  152.4775  138.6113  160.0711 H   0  0  0  0  0  0  0  0  0  0  0  0
  150.7069  137.4313  157.2218 H   0  0  0  0  0  0  0  0  0  0  0  0
  153.1128  138.6555  153.9542 H   0  0  0  0  0  0  0  0  0  0  0  0
  153.8326  138.1679  155.4833 H   0  0  0  0  0  0  0  0  0  0  0  0
  153.1113  139.7692  155.3082 H   0  0  0  0  0  0  0  0  0  0  0  0
  147.2471  138.5098  152.4648 H   0  0  0  0  0  0  0  0  0  0  0  0
  145.9030  140.5915  152.2734 H   0  0  0  0  0  0  0  0  0  0  0  0
  146.5718  142.6370  153.5190 H   0  0  0  0  0  0  0  0  0  0  0  0
  148.5990  142.6086  154.9674 H   0  0  0  0  0  0  0  0  0  0  0  0
  152.0165  140.8703  155.9982 H   0  0  0  0  0  0  0  0  0  0  0  0
  150.8322  142.1182  155.7931 H   0  0  0  0  0  0  0  0  0  0  0  0
  150.7553  139.8787  157.8897 H   0  0  0  0  0  0  0  0  0  0  0  0
  148.7971  141.3511  156.9321 H   0  0  0  0  0  0  0  0  0  0  0  0
  152.2687  140.1880  159.6164 H   0  0  0  0  0  0  0  0  0  0  0  0
  153.6273  141.6613  161.0791 H   0  0  0  0  0  0  0  0  0  0  0  0
  153.5296  144.1313  160.8006 H   0  0  0  0  0  0  0  0  0  0  0  0
  150.7107  143.6642  157.5807 H   0  0  0  0  0  0  0  0  0  0  0  0
  1  2  1  0  0  0  0
  1 27  1  0  0  0  0
  1 28  1  0  0  0  0
  1 29  1  0  0  0  0
  2  3  2  0  0  0  0
  2  4  1  0  0  0  0
  4  5  1  0  0  0  0
  4 30  1  0  0  0  0
  5 26  1  0  0  0  0
  5  6  1  0  0  0  0
  5  7  1  0  0  0  0
  6 31  1  0  0  0  0
  6 32  1  0  0  0  0
  6 33  1  0  0  0  0
  7 15  1  0  0  0  0
  7  8  2  0  0  0  0
  8  9  1  0  0  0  0
  9 14  2  0  0  0  0
  9 10  1  0  0  0  0
 10 11  2  0  0  0  0
 10 34  1  0  0  0  0
 11 12  1  0  0  0  0
 11 35  1  0  0  0  0
 12 13  2  0  0  0  0
 12 36  1  0  0  0  0
 13 14  1  0  0  0  0
 13 37  1  0  0  0  0
 14 15  1  0  0  0  0
 15 16  1  0  0  0  0
 16 17  1  0  0  0  0
 16 38  1  0  0  0  0
 16 39  1  0  0  0  0
 17 18  1  0  0  0  0
 17 19  1  0  0  0  0
 17 40  1  0  0  0  0
 18 41  1  0  0  0  0
 19 25  1  0  0  0  0
 19 20  2  0  0  0  0
 20 21  1  0  0  0  0
 20 42  1  0  0  0  0
 21 22  2  0  0  0  0
 21 43  1  0  0  0  0
 22 23  1  0  0  0  0
 22 44  1  0  0  0  0
 23 24  1  0  0  0  0
 23 25  2  0  0  0  0
 25 45  1  0  0  0  0
M  END
> <s_m_source_file>
AV-unprocessed.smi

> <i_m_source_file_index>
1667

> <i_lp_mmshare_version>
43012

> <i_f3d_flags>
0

> <s_epik_input>
W0NIM11DKD1PKVtOSF1bQ0BASF0oW0NIM10pYyhuMSluKGMoYzEyKVtjSF1bY0hdW2NIXVtjSF0yKVtDSDJdW0NASF0oW09IXSljM1tjSF1bY0hdW2NIXWMoRilbY0hdMw==

> <s_epik_cmdline>
J2VwaWtfcHl0aG9uJywgJy1waCcsICc3LjAnLCAnLXRuJywgJzgnLCAnLW1hJywgJzIwMCcsICctbWV0YWxfYmluZGluZycsICctaW1hZScsICc8aW5maWxlLm1hZT4nLCAnLW9tYWUnLCAnPG91dGZpbGUubWFlPic=

> <r_epik_Ionization_Penalty>
0.133011

> <r_epik_Ionization_Penalty_Charging>
0

> <r_epik_Ionization_Penalty_Neutral>
0.133011

> <r_epik_State_Penalty>
0.122384

> <r_epik_Charging_Adjusted_Penalty>
0.122384

> <i_epik_Tot_Q>
0

> <i_epik_Tot_abs_Q>
0

> <r_epik_Metal_State_Penalty>
0.0997374

> <b_epik_Metal_Only>
0

> <s_lp_Force_Field>
OPLS_2005

> <r_lp_Energy>
10.1709

> <b_lp_Chiralities_Consistent>
1

> <s_lp_Variant>
AV-unprocessed.smi:1667-2

> <Gold.Version>
5.8.1

> <Gold.Id.Protein>
6NUR|6NUR_protein|mol2

> <Gold.PLP.Fitness>
55.3672

> <Gold.PLP.PLP>
-53.0854

> <Gold.PLP.part.hbond>
-1.0000

> <Gold.PLP.part.metal>
0.0000

> <Gold.PLP.part.buried>
-0.5287

> <Gold.PLP.part.nonpolar>
-52.0222

> <Gold.PLP.part.repulsive>
0.8521

> <Gold.PLP.ligand.clash>
0.0000

> <Gold.PLP.ligand.torsion>
0.4824

> <Gold.PLP.Chemscore.Hbond>
1.0000

> <Gold.PLP.Chemscore.CHOScore>
0.0000

> <Gold.PLP.Chemscore.Metal>
0.0000

> <Gold.Chemscore.Hbonds>
donor molecule, donor type, donor heavy atom, donor atom, acceptor molecule, acceptor atom, score
      P1  H  7997  8009       L1     3  1.00

> <Gold.PLP.Chemscore.Internal.Correction>
0.2465

> <Gold.Rescore>
     Score         DG    S(hbond)    S(metal)    S(lipo)     H(rot)  DE(clash)    DE(int)     intcor
     16.24     -18.33       1.00        0.00     135.43       2.48       0.12       1.97       ----

> <Gold.Chemscore.Fitness>
16.2390

> <Gold.Chemscore.DG>
-18.3250

> <Gold.Chemscore.ZeroCoef>
-5.4800

> <Gold.Chemscore.Hbond>
0.9994

> <Gold.Chemscore.Metal>
0.0000

> <Gold.Chemscore.Lipo>
135.4305

> <Gold.Chemscore.Internal_Hbond>
0.0000

> <Gold.Chemscore.DEClash>
0.1172

> <Gold.Chemscore.DEInternal>
1.9688

> <Gold.Chemscore.Rot>
2.4760

> <Gold.Chemscore.Internal.Correction>
   9.000000E+99

> <Gold.Chemscore.Hbonds>
donor molecule, donor type, donor heavy atom, donor atom, acceptor molecule, acceptor atom, score
      P1  H  7997  8009       L1     3  1.00

> <Gold.Chemscore.Hbond.Weighted>
-3.3381

> <Gold.Chemscore.Metal.Weighted>
-0.0000

> <Gold.Chemscore.Lipo.Weighted>
-15.8454

> <Gold.Chemscore.Internal_Hbond.Weighted>
0.0000

> <Gold.Chemscore.DEClash.Weighted>
0.1172

> <Gold.Chemscore.DEInternal.Weighted>
1.9688

> <Gold.Chemscore.Rot.Weighted>
6.3385

> <Gold.Chemscore.Internal.Correction.Weighted>
   9.000000E+99

> <Gold.Protein.RotatedTorsions>
[ 6907 6896 6895 6894 ] final  172.61 input  -60.11 | X-H torsion
[ 7974 7965 7964 7962 ] final   -2.80 input  175.53 | X-H torsion
[ 8008 7997 7996 7995 ] final  165.40 input   59.86 | X-H torsion
[ 10167 10162 10161 10158 ] final  158.11 input  -65.29 | X-H torsion
[ 10718 10713 10712 10709 ] final -139.72 input   66.30 | X-H torsion
[ 10763 10752 10751 10750 ] final -132.61 input  -60.55 | X-H torsion
[ 11005 11000 10999 10996 ] final   -8.48 input  -57.11 | X-H torsion

> <Gold.Protein.ActiveResidues>
 VAL166  LYS551  ARG553  GLY616  TRP617  ASP618  TYR619  PRO620  LYS621  CYS622 
 ASP623  PHE694  ASN695  SER759  ASP760  ASP761  ALA762  ILE779  LEU786  VAL792 
 PHE793  MET794  SER795  GLU796  ALA797  LYS798  CYS799  TRP800  GLU811  SER814 

> <Gold.Protein.RotatedAtoms>
  151.7816  133.3350  159.3472 H   0  0  0  0  0  0  0  0  0  0  0  0  # atno 6907 bound_to 6896
  150.7424  134.5925  159.6004 H   0  0  0  0  0  0  0  0  0  0  0  0  # atno 6908 bound_to 6896
  152.3272  134.7307  160.0350 H   0  0  0  0  0  0  0  0  0  0  0  0  # atno 6909 bound_to 6896
  146.2399  140.1625  142.8332 H   0  0  0  0  0  0  0  0  0  0  0  0  # atno 7974 bound_to 7965
  156.1803  140.1671  156.8286 H   0  0  0  0  0  0  0  0  0  0  0  0  # atno 8008 bound_to 7997
  154.5353  140.0748  156.8449 H   0  0  0  0  0  0  0  0  0  0  0  0  # atno 8009 bound_to 7997
  155.3324  140.3380  155.4242 H   0  0  0  0  0  0  0  0  0  0  0  0  # atno 8010 bound_to 7997
  139.4825  144.4855  151.8384 H   0  0  0  0  0  0  0  0  0  0  0  0  # atno 10167 bound_to 10162
  156.3140  130.7497  151.1580 H   0  0  0  0  0  0  0  0  0  0  0  0  # atno 10718 bound_to 10713
  154.8741  135.3792  154.4437 H   0  0  0  0  0  0  0  0  0  0  0  0  # atno 10763 bound_to 10752
  153.5119  135.7029  153.5781 H   0  0  0  0  0  0  0  0  0  0  0  0  # atno 10764 bound_to 10752
  153.4067  135.3935  155.1989 H   0  0  0  0  0  0  0  0  0  0  0  0  # atno 10765 bound_to 10752
  140.7239  133.8805  155.8841 H   0  0  0  0  0  0  0  0  0  0  0  0  # atno 11005 bound_to 11000
  145.0078  140.8687  143.5243 LP  0  0  0  0  0  0  0  0  0  0  0  0  # atno 17320 bound_to 7965
  145.1654  139.2434  143.5370 LP  0  0  0  0  0  0  0  0  0  0  0  0  # atno 17321 bound_to 7965
  140.4334  144.2084  150.5888 LP  0  0  0  0  0  0  0  0  0  0  0  0  # atno 17342 bound_to 10162
  140.4756  143.2397  151.9028 LP  0  0  0  0  0  0  0  0  0  0  0  0  # atno 17343 bound_to 10162
  157.7397  131.0525  150.5212 LP  0  0  0  0  0  0  0  0  0  0  0  0  # atno 17370 bound_to 10713
  156.5356  130.4195  149.6179 LP  0  0  0  0  0  0  0  0  0  0  0  0  # atno 17371 bound_to 10713
  140.9980  134.1189  157.4345 LP  0  0  0  0  0  0  0  0  0  0  0  0  # atno 17394 bound_to 11000
  139.8842  135.0060  156.6350 LP  0  0  0  0  0  0  0  0  0  0  0  0  # atno 17395 bound_to 11000

$$$$
