AV-unprocessed.smi:437|AV-procd|sdf|2560|dock3
  -GOLD-   2262022523D 1   1.00000     0.00000
 Structure written by MMmdl.
 48 49  0  0  0  0  0  0  0  0  1 V2000
  148.1493  137.9185  154.6534 C   0  0  0  0  0  0  0  0  0  0  0  0
  148.3819  136.8610  155.6986 C   0  0  0  0  0  0  0  0  0  0  0  0
  148.9194  137.2490  156.8082 N   0  0  0  0  0  0  0  0  0  0  0  0
  149.1781  136.3588  157.8324 N   0  0  0  0  0  0  0  0  0  0  0  0
  149.8069  136.9710  159.0128 C   0  0  0  0  0  0  0  0  0  0  0  0
  151.1876  137.5804  158.7216 C   0  0  0  0  0  0  0  0  0  0  0  0
  152.1392  136.8536  158.4234 O   0  0  0  0  0  0  0  0  0  0  0  0
  151.2429  138.9247  158.8121 N   0  0  0  0  0  0  0  0  0  0  0  0
  152.3130  139.7178  158.6118 C   0  0  0  0  0  0  0  0  0  0  0  0
  153.3292  139.4109  157.9847 O   0  0  0  0  0  0  0  0  0  0  0  0
  152.1363  140.9162  159.1870 N   0  0  0  0  0  0  0  0  0  0  0  0
  153.1763  141.9278  159.3826 C   0  0  1  0  0  0  0  0  0  0  0  0
  152.7402  143.2919  158.8031 C   0  0  0  0  0  0  0  0  0  0  0  0
  151.6093  143.9355  159.6229 C   0  0  0  0  0  0  0  0  0  0  0  0
  152.0021  144.0669  161.1017 C   0  0  0  0  0  0  0  0  0  0  0  0
  152.4181  142.7105  161.6930 C   0  0  0  0  0  0  0  0  0  0  0  0
  153.5555  142.0586  160.8788 C   0  0  1  0  0  0  0  0  0  0  0  0
  154.0034  140.7245  161.5005 C   0  0  0  0  0  0  0  0  0  0  0  0
  148.8905  135.0257  157.7939 C   0  0  0  0  0  0  0  0  0  0  0  0
  149.1262  134.2701  158.7380 O   0  0  0  0  0  0  0  0  0  0  0  0
  148.2864  134.5921  156.5321 C   0  0  0  0  0  0  0  0  0  0  0  0
  147.9821  133.2004  156.4444 C   0  0  0  0  0  0  0  0  0  0  0  0
  147.7552  132.0674  156.3723 N   0  0  0  0  0  0  0  0  0  0  0  0
  148.0352  135.4553  155.5162 C   0  0  0  0  0  0  0  0  0  0  0  0
  147.4084  135.0573  154.1870 C   0  0  0  0  0  0  0  0  0  0  0  0
  147.0889  137.9981  154.4134 H   0  0  0  0  0  0  0  0  0  0  0  0
  148.6878  137.6812  153.7356 H   0  0  0  0  0  0  0  0  0  0  0  0
  148.4850  138.9017  154.9869 H   0  0  0  0  0  0  0  0  0  0  0  0
  149.1662  137.7603  159.4106 H   0  0  0  0  0  0  0  0  0  0  0  0
  149.8973  136.2365  159.8153 H   0  0  0  0  0  0  0  0  0  0  0  0
  150.3806  139.3898  159.0545 H   0  0  0  0  0  0  0  0  0  0  0  0
  151.2117  141.1542  159.5146 H   0  0  0  0  0  0  0  0  0  0  0  0
  154.0674  141.6001  158.8440 H   0  0  0  0  0  0  0  0  0  0  0  0
  153.5986  143.9647  158.7950 H   0  0  0  0  0  0  0  0  0  0  0  0
  152.4335  143.1870  157.7618 H   0  0  0  0  0  0  0  0  0  0  0  0
  151.3687  144.9175  159.2148 H   0  0  0  0  0  0  0  0  0  0  0  0
  150.7022  143.3363  159.5355 H   0  0  0  0  0  0  0  0  0  0  0  0
  152.8258  144.7752  161.1985 H   0  0  0  0  0  0  0  0  0  0  0  0
  151.1700  144.4814  161.6716 H   0  0  0  0  0  0  0  0  0  0  0  0
  152.7344  142.8491  162.7273 H   0  0  0  0  0  0  0  0  0  0  0  0
  151.5534  142.0464  161.7244 H   0  0  0  0  0  0  0  0  0  0  0  0
  154.4133  142.7310  160.9317 H   0  0  0  0  0  0  0  0  0  0  0  0
  153.1884  140.0014  161.5396 H   0  0  0  0  0  0  0  0  0  0  0  0
  154.3616  140.8706  162.5198 H   0  0  0  0  0  0  0  0  0  0  0  0
  154.8171  140.2793  160.9273 H   0  0  0  0  0  0  0  0  0  0  0  0
  147.1707  133.9951  154.1435 H   0  0  0  0  0  0  0  0  0  0  0  0
  148.0893  135.2749  153.3636 H   0  0  0  0  0  0  0  0  0  0  0  0
  146.4815  135.6068  154.0213 H   0  0  0  0  0  0  0  0  0  0  0  0
  1  2  1  0  0  0  0
  1 26  1  0  0  0  0
  1 27  1  0  0  0  0
  1 28  1  0  0  0  0
  2 24  1  0  0  0  0
  2  3  2  0  0  0  0
  3  4  1  0  0  0  0
  4  5  1  0  0  0  0
  4 19  1  0  0  0  0
  5  6  1  0  0  0  0
  5 29  1  0  0  0  0
  5 30  1  0  0  0  0
  6  7  2  0  0  0  0
  6  8  1  0  0  0  0
  8  9  1  0  0  0  0
  8 31  1  0  0  0  0
  9 10  2  0  0  0  0
  9 11  1  0  0  0  0
 11 12  1  0  0  0  0
 11 32  1  0  0  0  0
 12 17  1  0  0  0  0
 12 13  1  0  0  0  0
 12 33  1  0  0  0  0
 13 14  1  0  0  0  0
 13 34  1  0  0  0  0
 13 35  1  0  0  0  0
 14 15  1  0  0  0  0
 14 36  1  0  0  0  0
 14 37  1  0  0  0  0
 15 16  1  0  0  0  0
 15 38  1  0  0  0  0
 15 39  1  0  0  0  0
 16 17  1  0  0  0  0
 16 40  1  0  0  0  0
 16 41  1  0  0  0  0
 17 18  1  0  0  0  0
 17 42  1  0  0  0  0
 18 43  1  0  0  0  0
 18 44  1  0  0  0  0
 18 45  1  0  0  0  0
 19 20  2  0  0  0  0
 19 21  1  0  0  0  0
 21 22  1  0  0  0  0
 21 24  2  0  0  0  0
 22 23  3  0  0  0  0
 24 25  1  0  0  0  0
 25 46  1  0  0  0  0
 25 47  1  0  0  0  0
 25 48  1  0  0  0  0
M  END
> <s_m_source_file>
AV-unprocessed.smi

> <i_m_source_file_index>
437

> <i_lp_mmshare_version>
43012

> <i_f3d_flags>
0

> <s_epik_input>
TiNDYyhjMVtDSDNdKWMoPU8pbihuYzFbQ0gzXSlbQ0gyXUMoPU8pW05IXUMoPU8pW05IXVtDQEBIXTJbQ0gyXVtDSDJdW0NIMl1bQ0gyXVtDQEhdMltDSDNd

> <s_epik_cmdline>
J2VwaWtfcHl0aG9uJywgJy1waCcsICc3LjAnLCAnLXRuJywgJzgnLCAnLW1hJywgJzIwMCcsICctbWV0YWxfYmluZGluZycsICctaW1hZScsICc8aW5maWxlLm1hZT4nLCAnLW9tYWUnLCAnPG91dGZpbGUubWFlPic=

> <r_lp_tautomer_probability>
1

> <r_epik_Ionization_Penalty>
3.27035e-05

> <r_epik_Ionization_Penalty_Charging>
1.6965e-11

> <r_epik_Ionization_Penalty_Neutral>
3.27035e-05

> <r_epik_State_Penalty>
-0

> <r_epik_Charging_Adjusted_Penalty>
1.6965e-11

> <i_epik_Tot_Q>
0

> <i_epik_Tot_abs_Q>
0

> <r_epik_Metal_State_Penalty>
-0

> <b_epik_Metal_Only>
0

> <s_lp_Force_Field>
OPLS_2005

> <r_lp_Energy>
26.066

> <b_lp_Chiralities_Consistent>
1

> <s_lp_Variant>
AV-unprocessed.smi:437-2

> <Gold.Version>
5.8.1

> <Gold.Id.Protein>
6NUR|6NUR_protein|mol2

> <Gold.PLP.Fitness>
43.7195

> <Gold.PLP.PLP>
-38.0834

> <Gold.PLP.part.hbond>
-2.6124

> <Gold.PLP.part.metal>
0.0000

> <Gold.PLP.part.buried>
-5.2881

> <Gold.PLP.part.nonpolar>
-30.2171

> <Gold.PLP.part.repulsive>
0.2953

> <Gold.PLP.ligand.clash>
0.0000

> <Gold.PLP.ligand.torsion>
0.2541

> <Gold.PLP.Chemscore.Hbond>
2.0385

> <Gold.PLP.Chemscore.CHOScore>
0.0000

> <Gold.PLP.Chemscore.Metal>
0.0000

> <Gold.Chemscore.Hbonds>
donor molecule, donor type, donor heavy atom, donor atom, acceptor molecule, acceptor atom, score
      P1  H  6896  6908       L1    20  1.00
      P1  H  6896  6909       L1     7  0.03
      P1  H  7997  8010       L1    10  1.00

> <Gold.PLP.Chemscore.Internal.Correction>
0.0290

> <Gold.Rescore>
     Score         DG    S(hbond)    S(metal)    S(lipo)     H(rot)  DE(clash)    DE(int)     intcor
     17.26     -18.79       1.99        0.00      91.33       1.57       0.00       1.53       ----

> <Gold.Chemscore.Fitness>
17.2584

> <Gold.Chemscore.DG>
-18.7947

> <Gold.Chemscore.ZeroCoef>
-5.4800

> <Gold.Chemscore.Hbond>
1.9870

> <Gold.Chemscore.Metal>
0.0000

> <Gold.Chemscore.Lipo>
91.3333

> <Gold.Chemscore.Internal_Hbond>
0.0000

> <Gold.Chemscore.DEClash>
0.0015

> <Gold.Chemscore.DEInternal>
1.5348

> <Gold.Chemscore.Rot>
1.5656

> <Gold.Chemscore.Internal.Correction>
   9.000000E+99

> <Gold.Chemscore.Hbonds>
donor molecule, donor type, donor heavy atom, donor atom, acceptor molecule, acceptor atom, score
      P1  H  6896  6908       L1    20  0.98
      P1  H  6896  6909       L1     7  0.03
      P1  H  7997  8010       L1    10  1.00

> <Gold.Chemscore.Hbond.Weighted>
-6.6366

> <Gold.Chemscore.Metal.Weighted>
-0.0000

> <Gold.Chemscore.Lipo.Weighted>
-10.6860

> <Gold.Chemscore.Internal_Hbond.Weighted>
0.0000

> <Gold.Chemscore.DEClash.Weighted>
0.0015

> <Gold.Chemscore.DEInternal.Weighted>
1.5348

> <Gold.Chemscore.Rot.Weighted>
4.0079

> <Gold.Chemscore.Internal.Correction.Weighted>
   9.000000E+99

> <Gold.Protein.RotatedTorsions>
[ 6907 6896 6895 6894 ] final  146.31 input  -60.11 | X-H torsion
[ 7974 7965 7964 7962 ] final   21.26 input  175.53 | X-H torsion
[ 8008 7997 7996 7995 ] final   47.50 input   59.86 | X-H torsion
[ 10167 10162 10161 10158 ] final  -86.78 input  -65.29 | X-H torsion
[ 10718 10713 10712 10709 ] final   14.25 input   66.30 | X-H torsion
[ 10763 10752 10751 10750 ] final   50.55 input  -60.55 | X-H torsion
[ 11005 11000 10999 10996 ] final  159.83 input  -57.11 | X-H torsion

> <Gold.Protein.ActiveResidues>
 VAL166  LYS551  ARG553  GLY616  TRP617  ASP618  TYR619  PRO620  LYS621  CYS622 
 ASP623  PHE694  ASN695  SER759  ASP760  ASP761  ALA762  ILE779  LEU786  VAL792 
 PHE793  MET794  SER795  GLU796  ALA797  LYS798  CYS799  TRP800  GLU811  SER814 

> <Gold.Protein.RotatedAtoms>
  152.1696  133.4634  159.4901 H   0  0  0  0  0  0  0  0  0  0  0  0  # atno 6907 bound_to 6896
  150.6918  134.1970  159.4316 H   0  0  0  0  0  0  0  0  0  0  0  0  # atno 6908 bound_to 6896
  151.9876  134.9995  160.0611 H   0  0  0  0  0  0  0  0  0  0  0  0  # atno 6909 bound_to 6896
  146.2078  139.8052  142.8712 H   0  0  0  0  0  0  0  0  0  0  0  0  # atno 7974 bound_to 7965
  155.3700  140.3423  155.4243 H   0  0  0  0  0  0  0  0  0  0  0  0  # atno 8008 bound_to 7997
  156.1667  140.1618  156.8552 H   0  0  0  0  0  0  0  0  0  0  0  0  # atno 8009 bound_to 7997
  154.5192  140.0771  156.8122 H   0  0  0  0  0  0  0  0  0  0  0  0  # atno 8010 bound_to 7997
  140.3909  143.2705  151.9266 H   0  0  0  0  0  0  0  0  0  0  0  0  # atno 10167 bound_to 10162
  157.0363  130.6213  149.5743 H   0  0  0  0  0  0  0  0  0  0  0  0  # atno 10718 bound_to 10713
  152.9784  135.5875  154.4271 H   0  0  0  0  0  0  0  0  0  0  0  0  # atno 10763 bound_to 10752
  154.3889  135.2767  155.2169 H   0  0  0  0  0  0  0  0  0  0  0  0  # atno 10764 bound_to 10752
  154.4050  135.6095  153.5973 H   0  0  0  0  0  0  0  0  0  0  0  0  # atno 10765 bound_to 10752
  140.2000  134.8345  157.3007 H   0  0  0  0  0  0  0  0  0  0  0  0  # atno 11005 bound_to 11000
  145.3254  141.0254  143.3476 LP  0  0  0  0  0  0  0  0  0  0  0  0  # atno 17320 bound_to 7965
  144.8836  139.4869  143.6711 LP  0  0  0  0  0  0  0  0  0  0  0  0  # atno 17321 bound_to 7965
  139.4789  144.5728  151.8060 LP  0  0  0  0  0  0  0  0  0  0  0  0  # atno 17342 bound_to 10162
  140.4841  144.1407  150.5938 LP  0  0  0  0  0  0  0  0  0  0  0  0  # atno 17343 bound_to 10162
  156.0052  130.5138  150.7806 LP  0  0  0  0  0  0  0  0  0  0  0  0  # atno 17370 bound_to 10713
  157.5139  131.0927  151.0164 LP  0  0  0  0  0  0  0  0  0  0  0  0  # atno 17371 bound_to 10713
  140.2065  134.4191  155.7635 LP  0  0  0  0  0  0  0  0  0  0  0  0  # atno 17394 bound_to 11000
  141.2227  133.7097  156.8268 LP  0  0  0  0  0  0  0  0  0  0  0  0  # atno 17395 bound_to 11000

$$$$
