AV-unprocessed.smi:467|AV-procd|sdf|2645|dock5
  -GOLD-   2262023 53D 1   1.00000     0.00000
 Structure written by MMmdl.
 45 47  0  0  0  0  0  0  0  0  2 V2000
  153.0954  141.7822  161.5157 C   0  0  0  0  0  0  0  0  0  0  0  0
  152.3899  141.7057  160.1730 C   0  0  0  0  0  0  0  0  0  0  0  0
  152.4843  140.5171  159.4149 C   0  0  0  0  0  0  0  0  0  0  0  0
  151.8457  140.4053  158.1607 C   0  0  0  0  0  0  0  0  0  0  0  0
  151.8026  139.3510  157.2645 N   0  0  0  0  0  0  0  0  0  0  0  0
  151.0552  139.8582  156.2889 C   0  0  0  0  0  0  0  0  0  0  0  0
  150.6016  141.1162  156.4500 N   0  0  0  0  0  0  0  0  0  0  0  0
  149.7705  141.8670  155.5269 C   0  0  0  0  0  0  0  0  0  0  0  0
  148.9973  140.9559  154.5537 C   0  0  2  0  0  0  0  0  0  0  0  0
  149.7952  140.8000  153.3972 O   0  0  0  0  0  0  0  0  0  0  0  0
  147.6200  141.5267  154.1457 C   0  0  0  0  0  0  0  0  0  0  0  0
  146.7857  141.9120  155.3122 N   0  3  0  0  0  0  0  0  0  0  0  0
  145.4622  142.4697  154.9371 C   0  0  0  0  0  0  0  0  0  0  0  0
  144.6748  142.8774  156.1941 C   0  0  0  0  0  0  0  0  0  0  0  0
  144.5370  141.7560  157.0576 O   0  0  0  0  0  0  0  0  0  0  0  0
  145.7971  141.2633  157.4948 C   0  0  0  0  0  0  0  0  0  0  0  0
  146.6205  140.8018  156.2803 C   0  0  0  0  0  0  0  0  0  0  0  0
  151.1046  141.5249  157.6808 C   0  0  0  0  0  0  0  0  0  0  0  0
  151.0014  142.7121  158.4270 C   0  0  0  0  0  0  0  0  0  0  0  0
  151.6436  142.8060  159.6794 C   0  0  0  0  0  0  0  0  0  0  0  0
  151.5247  144.0920  160.4778 C   0  0  0  0  0  0  0  0  0  0  0  0
  153.7014  140.8943  161.6981 H   0  0  0  0  0  0  0  0  0  0  0  0
  152.3677  141.8641  162.3231 H   0  0  0  0  0  0  0  0  0  0  0  0
  153.7560  142.6487  161.5553 H   0  0  0  0  0  0  0  0  0  0  0  0
  153.0505  139.6780  159.7921 H   0  0  0  0  0  0  0  0  0  0  0  0
  150.8191  139.2805  155.4069 H   0  0  0  0  0  0  0  0  0  0  0  0
  149.0811  142.4876  156.1009 H   0  0  0  0  0  0  0  0  0  0  0  0
  150.4150  142.5510  154.9725 H   0  0  0  0  0  0  0  0  0  0  0  0
  148.8855  139.9773  155.0197 H   0  0  0  0  0  0  0  0  0  0  0  0
  149.3989  140.1529  152.8349 H   0  0  0  0  0  0  0  0  0  0  0  0
  147.7303  142.3988  153.5005 H   0  0  0  0  0  0  0  0  0  0  0  0
  147.0984  140.7760  153.5496 H   0  0  0  0  0  0  0  0  0  0  0  0
  145.5800  143.3381  154.2900 H   0  0  0  0  0  0  0  0  0  0  0  0
  144.8976  141.7261  154.3720 H   0  0  0  0  0  0  0  0  0  0  0  0
  145.1716  143.6962  156.7169 H   0  0  0  0  0  0  0  0  0  0  0  0
  143.6821  143.2325  155.9165 H   0  0  0  0  0  0  0  0  0  0  0  0
  146.3281  142.0333  158.0570 H   0  0  0  0  0  0  0  0  0  0  0  0
  145.6327  140.4286  158.1762 H   0  0  0  0  0  0  0  0  0  0  0  0
  146.1267  139.9601  155.7916 H   0  0  0  0  0  0  0  0  0  0  0  0
  147.5983  140.4518  156.6137 H   0  0  0  0  0  0  0  0  0  0  0  0
  150.4325  143.5441  158.0394 H   0  0  0  0  0  0  0  0  0  0  0  0
  150.8482  144.7982  159.9956 H   0  0  0  0  0  0  0  0  0  0  0  0
  152.4990  144.5718  160.5727 H   0  0  0  0  0  0  0  0  0  0  0  0
  151.1388  143.8899  161.4772 H   0  0  0  0  0  0  0  0  0  0  0  0
  147.2893  142.6382  155.8009 H   0  0  0  0  0  0  0  0  0  0  0  0
  1  2  1  0  0  0  0
  1 22  1  0  0  0  0
  1 23  1  0  0  0  0
  1 24  1  0  0  0  0
  2 20  1  0  0  0  0
  2  3  2  0  0  0  0
  3  4  1  0  0  0  0
  3 25  1  0  0  0  0
  4 18  2  0  0  0  0
  4  5  1  0  0  0  0
  5  6  2  0  0  0  0
  6  7  1  0  0  0  0
  6 26  1  0  0  0  0
  7  8  1  0  0  0  0
  7 18  1  0  0  0  0
  8  9  1  0  0  0  0
  8 27  1  0  0  0  0
  8 28  1  0  0  0  0
  9 10  1  0  0  0  0
  9 11  1  0  0  0  0
  9 29  1  0  0  0  0
 10 30  1  0  0  0  0
 11 12  1  0  0  0  0
 11 31  1  0  0  0  0
 11 32  1  0  0  0  0
 12 17  1  0  0  0  0
 12 13  1  0  0  0  0
 12 45  1  0  0  0  0
 13 14  1  0  0  0  0
 13 33  1  0  0  0  0
 13 34  1  0  0  0  0
 14 15  1  0  0  0  0
 14 35  1  0  0  0  0
 14 36  1  0  0  0  0
 15 16  1  0  0  0  0
 16 17  1  0  0  0  0
 16 37  1  0  0  0  0
 16 38  1  0  0  0  0
 17 39  1  0  0  0  0
 17 40  1  0  0  0  0
 18 19  1  0  0  0  0
 19 20  2  0  0  0  0
 19 41  1  0  0  0  0
 20 21  1  0  0  0  0
 21 42  1  0  0  0  0
 21 43  1  0  0  0  0
 21 44  1  0  0  0  0
M  CHG  1  12   1
M  END
> <s_m_source_file>
AV-unprocessed.smi

> <i_m_source_file_index>
467

> <i_lp_mmshare_version>
43012

> <i_f3d_flags>
0

> <s_epik_input>
W0NIM11jKFtjSF0xKWMoW0NIM10pW2NIXWMoYzEyKW4oW2NIXW4yKVtDSDJdW0NASF0oW09IXSlbQ0gyXU4zW0NIMl1bQ0gyXU9bQ0gyXVtDSDJdMw==

> <s_epik_cmdline>
J2VwaWtfcHl0aG9uJywgJy1waCcsICc3LjAnLCAnLXRuJywgJzgnLCAnLW1hJywgJzIwMCcsICctbWV0YWxfYmluZGluZycsICctaW1hZScsICc8aW5maWxlLm1hZT4nLCAnLW9tYWUnLCAnPG91dGZpbGUubWFlPic=

> <r_epik_Ionization_Penalty>
0.695168

> <r_epik_Ionization_Penalty_Charging>
0.608065

> <r_epik_Ionization_Penalty_Neutral>
0.0871028

> <r_epik_State_Penalty>
0.731876

> <r_epik_Charging_Adjusted_Penalty>
1.33994

> <i_epik_Tot_Q>
1

> <i_epik_Tot_abs_Q>
1

> <r_epik_Metal_State_Penalty>
0.652189

> <b_epik_Metal_Only>
0

> <s_lp_Force_Field>
OPLS_2005

> <r_lp_Energy>
23.0141

> <b_lp_Chiralities_Consistent>
1

> <s_lp_Variant>
AV-unprocessed.smi:467-3

> <Gold.Version>
5.8.1

> <Gold.Id.Protein>
6NUR|6NUR_protein|mol2

> <Gold.PLP.Fitness>
54.0025

> <Gold.PLP.PLP>
-44.5480

> <Gold.PLP.part.hbond>
-3.0266

> <Gold.PLP.part.metal>
0.0000

> <Gold.PLP.part.buried>
-3.2184

> <Gold.PLP.part.nonpolar>
-37.6215

> <Gold.PLP.part.repulsive>
0.1274

> <Gold.PLP.ligand.clash>
0.0000

> <Gold.PLP.ligand.torsion>
0.7563

> <Gold.PLP.Chemscore.Hbond>
3.6400

> <Gold.PLP.Chemscore.CHOScore>
0.0000

> <Gold.PLP.Chemscore.Metal>
0.0000

> <Gold.Chemscore.Hbonds>
donor molecule, donor type, donor heavy atom, donor atom, acceptor molecule, acceptor atom, score
      L1  H    10    30       P1  7957  0.51
      P1  H  7989  7998       L1    10  0.30
      P1  H  8011  8017       L1    10  1.00

> <Gold.PLP.Chemscore.Internal.Correction>
0.0472

> <Gold.Rescore>
     Score         DG    S(hbond)    S(metal)    S(lipo)     H(rot)  DE(clash)    DE(int)     intcor
     16.25     -17.24       1.31        0.00     109.03       2.10       0.13       0.85       ----

> <Gold.Chemscore.Fitness>
16.2527

> <Gold.Chemscore.DG>
-17.2368

> <Gold.Chemscore.ZeroCoef>
-5.4800

> <Gold.Chemscore.Hbond>
1.3110

> <Gold.Chemscore.Metal>
0.0000

> <Gold.Chemscore.Lipo>
109.0335

> <Gold.Chemscore.Internal_Hbond>
0.0000

> <Gold.Chemscore.DEClash>
0.1332

> <Gold.Chemscore.DEInternal>
0.8509

> <Gold.Chemscore.Rot>
2.1011

> <Gold.Chemscore.Internal.Correction>
   9.000000E+99

> <Gold.Chemscore.Hbonds>
donor molecule, donor type, donor heavy atom, donor atom, acceptor molecule, acceptor atom, score
      L1  H    10    30       P1  7957  0.50
      P1  H  7989  7998       L1    10  0.28
      P1  H  8011  8017       L1    10  0.36

> <Gold.Chemscore.Hbond.Weighted>
-4.3788

> <Gold.Chemscore.Metal.Weighted>
-0.0000

> <Gold.Chemscore.Lipo.Weighted>
-12.7569

> <Gold.Chemscore.Internal_Hbond.Weighted>
0.0000

> <Gold.Chemscore.DEClash.Weighted>
0.1332

> <Gold.Chemscore.DEInternal.Weighted>
0.8509

> <Gold.Chemscore.Rot.Weighted>
5.3789

> <Gold.Chemscore.Internal.Correction.Weighted>
   9.000000E+99

> <Gold.Protein.RotatedTorsions>
[ 6907 6896 6895 6894 ] final  115.22 input  -60.11 | X-H torsion
[ 7974 7965 7964 7962 ] final -163.55 input  175.53 | X-H torsion
[ 8008 7997 7996 7995 ] final   19.53 input   59.86 | X-H torsion
[ 10167 10162 10161 10158 ] final  105.42 input  -65.29 | X-H torsion
[ 10718 10713 10712 10709 ] final -135.33 input   66.30 | X-H torsion
[ 10763 10752 10751 10750 ] final   11.45 input  -60.55 | X-H torsion
[ 11005 11000 10999 10996 ] final -157.79 input  -57.11 | X-H torsion

> <Gold.Protein.ActiveResidues>
 VAL166  LYS551  ARG553  GLY616  TRP617  ASP618  TYR619  PRO620  LYS621  CYS622 
 ASP623  PHE694  ASN695  SER759  ASP760  ASP761  ALA762  ILE779  LEU786  VAL792 
 PHE793  MET794  SER795  GLU796  ALA797  LYS798  CYS799  TRP800  GLU811  SER814 

> <Gold.Protein.RotatedAtoms>
  152.4755  133.8128  159.7012 H   0  0  0  0  0  0  0  0  0  0  0  0  # atno 6907 bound_to 6896
  150.8769  133.7417  159.2950 H   0  0  0  0  0  0  0  0  0  0  0  0  # atno 6908 bound_to 6896
  151.4933  135.1062  159.9861 H   0  0  0  0  0  0  0  0  0  0  0  0  # atno 6909 bound_to 6896
  144.7323  140.3091  143.6191 H   0  0  0  0  0  0  0  0  0  0  0  0  # atno 7974 bound_to 7965
  154.9221  140.3029  155.5211 H   0  0  0  0  0  0  0  0  0  0  0  0  # atno 8008 bound_to 7997
  156.3009  140.2369  156.4208 H   0  0  0  0  0  0  0  0  0  0  0  0  # atno 8009 bound_to 7997
  154.8320  140.0418  157.1472 H   0  0  0  0  0  0  0  0  0  0  0  0  # atno 8010 bound_to 7997
  139.7094  144.7080  151.1052 H   0  0  0  0  0  0  0  0  0  0  0  0  # atno 10167 bound_to 10162
  156.2650  130.7232  151.1180 H   0  0  0  0  0  0  0  0  0  0  0  0  # atno 10718 bound_to 10713
  153.1925  135.6844  153.8334 H   0  0  0  0  0  0  0  0  0  0  0  0  # atno 10763 bound_to 10752
  153.7628  135.3207  155.3341 H   0  0  0  0  0  0  0  0  0  0  0  0  # atno 10764 bound_to 10752
  154.8126  135.4707  154.0655 H   0  0  0  0  0  0  0  0  0  0  0  0  # atno 10765 bound_to 10752
  140.6608  134.4351  157.5234 H   0  0  0  0  0  0  0  0  0  0  0  0  # atno 11005 bound_to 11000
  145.7683  139.1848  143.2227 LP  0  0  0  0  0  0  0  0  0  0  0  0  # atno 17320 bound_to 7965
  146.0931  140.7632  142.9585 LP  0  0  0  0  0  0  0  0  0  0  0  0  # atno 17321 bound_to 7965
  140.7729  143.5314  150.9419 LP  0  0  0  0  0  0  0  0  0  0  0  0  # atno 17342 bound_to 10162
  139.8998  143.6849  152.3133 LP  0  0  0  0  0  0  0  0  0  0  0  0  # atno 17343 bound_to 10162
  157.7264  131.0646  150.5910 LP  0  0  0  0  0  0  0  0  0  0  0  0  # atno 17370 bound_to 10713
  156.6001  130.4352  149.5900 LP  0  0  0  0  0  0  0  0  0  0  0  0  # atno 17371 bound_to 10713
  139.9014  134.8548  156.1882 LP  0  0  0  0  0  0  0  0  0  0  0  0  # atno 17394 bound_to 11000
  141.0467  133.6910  156.1696 LP  0  0  0  0  0  0  0  0  0  0  0  0  # atno 17395 bound_to 11000

$$$$
