AV-unprocessed.smi:2009|AV-procd|sdf|8148|dock9
  -GOLD-   2272010393D 1   1.00000     0.00000
 Structure written by MMmdl.
 37 38  0  0  0  0  0  0  0  0  2 V2000
  147.5795  135.3057  162.2992 C   0  0  0  0  0  0  0  0  0  0  0  0
  146.7562  136.2446  161.4071 C   0  0  1  0  0  0  0  0  0  0  0  0
  145.7656  137.1060  162.2298 C   0  0  0  0  0  0  0  0  0  0  0  0
  144.4919  136.4488  162.5114 N   0  0  0  0  0  0  0  0  0  0  0  0
  144.2713  135.1960  163.0522 C   0  0  0  0  0  0  0  0  0  0  0  0
  142.9208  135.0083  163.1169 C   0  0  0  0  0  0  0  0  0  0  0  0
  142.3873  136.2105  162.5753 C   0  0  0  0  0  0  0  0  0  0  0  0
  143.3262  137.0662  162.2052 N   0  0  0  0  0  0  0  0  0  0  0  0
  147.6664  137.1089  160.6683 N   0  5  0  0  0  0  0  0  0  0  0  0
  148.1464  136.6752  159.1815 S   0  0  0  0  0  0  0  0  0  0  0  0
  149.1017  135.5555  159.1719 O   0  0  0  0  0  0  0  0  0  0  0  0
  147.0387  136.6413  158.2121 O   0  0  0  0  0  0  0  0  0  0  0  0
  149.0753  138.1004  158.8200 N   0  0  0  0  0  0  0  0  0  0  0  0
  148.5103  139.0333  157.8227 C   0  0  0  0  0  0  0  0  0  0  0  0
  149.1996  140.4071  157.8777 C   0  0  0  0  0  0  0  0  0  0  0  0
  150.7168  140.2760  157.7236 C   0  0  0  0  0  0  0  0  0  0  0  0
  151.2500  139.3245  158.7973 C   0  0  0  0  0  0  0  0  0  0  0  0
  150.5472  137.9590  158.7287 C   0  0  0  0  0  0  0  0  0  0  0  0
  146.9307  134.6329  162.8605 H   0  0  0  0  0  0  0  0  0  0  0  0
  148.1810  135.8635  163.0180 H   0  0  0  0  0  0  0  0  0  0  0  0
  148.2549  134.6892  161.7047 H   0  0  0  0  0  0  0  0  0  0  0  0
  146.1688  135.6145  160.7376 H   0  0  0  0  0  0  0  0  0  0  0  0
  146.2225  137.3794  163.1822 H   0  0  0  0  0  0  0  0  0  0  0  0
  145.5595  138.0450  161.7140 H   0  0  0  0  0  0  0  0  0  0  0  0
  145.0888  134.5566  163.3522 H   0  0  0  0  0  0  0  0  0  0  0  0
  142.3952  134.1443  163.4951 H   0  0  0  0  0  0  0  0  0  0  0  0
  141.3516  136.4840  162.4384 H   0  0  0  0  0  0  0  0  0  0  0  0
  148.6124  138.5937  156.8297 H   0  0  0  0  0  0  0  0  0  0  0  0
  147.4438  139.1674  158.0010 H   0  0  0  0  0  0  0  0  0  0  0  0
  148.8007  141.0538  157.0961 H   0  0  0  0  0  0  0  0  0  0  0  0
  148.9685  140.8923  158.8272 H   0  0  0  0  0  0  0  0  0  0  0  0
  150.9599  139.8939  156.7314 H   0  0  0  0  0  0  0  0  0  0  0  0
  151.1924  141.2529  157.8129 H   0  0  0  0  0  0  0  0  0  0  0  0
  152.3258  139.1939  158.6782 H   0  0  0  0  0  0  0  0  0  0  0  0
  151.0984  139.7622  159.7850 H   0  0  0  0  0  0  0  0  0  0  0  0
  150.9214  137.3271  159.5332 H   0  0  0  0  0  0  0  0  0  0  0  0
  150.7949  137.4519  157.7955 H   0  0  0  0  0  0  0  0  0  0  0  0
  1  2  1  0  0  0  0
  1 19  1  0  0  0  0
  1 20  1  0  0  0  0
  1 21  1  0  0  0  0
  2  3  1  0  0  0  0
  2  9  1  0  0  0  0
  2 22  1  0  0  0  0
  3  4  1  0  0  0  0
  3 23  1  0  0  0  0
  3 24  1  0  0  0  0
  4  8  1  0  0  0  0
  4  5  1  0  0  0  0
  5  6  2  0  0  0  0
  5 25  1  0  0  0  0
  6  7  1  0  0  0  0
  6 26  1  0  0  0  0
  7  8  2  0  0  0  0
  7 27  1  0  0  0  0
  9 10  1  0  0  0  0
 10 11  2  0  0  0  0
 10 12  2  0  0  0  0
 10 13  1  0  0  0  0
 13 18  1  0  0  0  0
 13 14  1  0  0  0  0
 14 15  1  0  0  0  0
 14 28  1  0  0  0  0
 14 29  1  0  0  0  0
 15 16  1  0  0  0  0
 15 30  1  0  0  0  0
 15 31  1  0  0  0  0
 16 17  1  0  0  0  0
 16 32  1  0  0  0  0
 16 33  1  0  0  0  0
 17 18  1  0  0  0  0
 17 34  1  0  0  0  0
 17 35  1  0  0  0  0
 18 36  1  0  0  0  0
 18 37  1  0  0  0  0
M  CHG  1   9  -1
M  END
> <s_m_source_file>
AV-unprocessed.smi

> <i_m_source_file_index>
2009

> <i_lp_mmshare_version>
43012

> <i_f3d_flags>
0

> <s_epik_input>
bjFbY0hdW2NIXVtjSF1uMVtDSDJdW0NAQEhdKFtDSDNdKVtOSF1TKD1PKSg9TylOMltDSDJdW0NIMl1bQ0gyXVtDSDJdW0NIMl0y

> <s_epik_cmdline>
J2VwaWtfcHl0aG9uJywgJy1waCcsICc3LjAnLCAnLXRuJywgJzgnLCAnLW1hJywgJzIwMCcsICctbWV0YWxfYmluZGluZycsICctaW1hZScsICc8aW5maWxlLm1hZT4nLCAnLW9tYWUnLCAnPG91dGZpbGUubWFlPic=

> <r_lp_tautomer_probability>
1

> <r_epik_Ionization_Penalty>
1.75622

> <r_epik_Ionization_Penalty_Charging>
1.7562

> <r_epik_Ionization_Penalty_Neutral>
2.38826e-05

> <r_epik_State_Penalty>
1.86645

> <r_epik_Charging_Adjusted_Penalty>
3.62264

> <i_epik_Tot_Q>
-1

> <i_epik_Tot_abs_Q>
1

> <r_epik_Metal_State_Penalty>
0.460135

> <b_epik_Metal_Only>
0

> <s_lp_Force_Field>
OPLS_2005

> <r_lp_Energy>
6.21629

> <b_lp_Chiralities_Consistent>
1

> <s_lp_Variant>
AV-unprocessed.smi:2009-4

> <Gold.Version>
5.8.1

> <Gold.Id.Protein>
6NUR|6NUR_protein|mol2

> <Gold.PLP.Fitness>
41.6912

> <Gold.PLP.PLP>
-30.0600

> <Gold.PLP.part.hbond>
-4.5593

> <Gold.PLP.part.metal>
0.0000

> <Gold.PLP.part.buried>
-5.7809

> <Gold.PLP.part.nonpolar>
-20.2055

> <Gold.PLP.part.repulsive>
0.0234

> <Gold.PLP.ligand.clash>
0.0000

> <Gold.PLP.ligand.torsion>
1.6591

> <Gold.PLP.Chemscore.Hbond>
4.4560

> <Gold.PLP.Chemscore.CHOScore>
0.0000

> <Gold.PLP.Chemscore.Metal>
0.0000

> <Gold.Chemscore.Hbonds>
donor molecule, donor type, donor heavy atom, donor atom, acceptor molecule, acceptor atom, score
      P1  H  6896  6909       L1    11  1.00
      P1  H  6931  6943       L1     9  1.11
      P1  H  6934  6947       L1     9  1.89

> <Gold.PLP.Chemscore.Internal.Correction>
1.5815

> <Gold.Rescore>
     Score         DG    S(hbond)    S(metal)    S(lipo)     H(rot)  DE(clash)    DE(int)     intcor
     14.75     -16.02       2.32        0.00      58.07       1.57       0.02       1.26       ----

> <Gold.Chemscore.Fitness>
14.7452

> <Gold.Chemscore.DG>
-16.0217

> <Gold.Chemscore.ZeroCoef>
-5.4800

> <Gold.Chemscore.Hbond>
2.3233

> <Gold.Chemscore.Metal>
0.0000

> <Gold.Chemscore.Lipo>
58.0657

> <Gold.Chemscore.Internal_Hbond>
0.0000

> <Gold.Chemscore.DEClash>
0.0214

> <Gold.Chemscore.DEInternal>
1.2551

> <Gold.Chemscore.Rot>
1.5672

> <Gold.Chemscore.Internal.Correction>
   9.000000E+99

> <Gold.Chemscore.Hbonds>
donor molecule, donor type, donor heavy atom, donor atom, acceptor molecule, acceptor atom, score
      P1  H  6896  6909       L1    11  1.00
      P1  H  6931  6943       L1     9  0.47
      P1  H  6934  6947       L1     9  0.65

> <Gold.Chemscore.Hbond.Weighted>
-7.7599

> <Gold.Chemscore.Metal.Weighted>
-0.0000

> <Gold.Chemscore.Lipo.Weighted>
-6.7937

> <Gold.Chemscore.Internal_Hbond.Weighted>
0.0000

> <Gold.Chemscore.DEClash.Weighted>
0.0214

> <Gold.Chemscore.DEInternal.Weighted>
1.2551

> <Gold.Chemscore.Rot.Weighted>
4.0119

> <Gold.Chemscore.Internal.Correction.Weighted>
   9.000000E+99

> <Gold.Protein.RotatedTorsions>
[ 6907 6896 6895 6894 ] final   57.54 input  -60.11 | X-H torsion
[ 7974 7965 7964 7962 ] final  -63.16 input  175.53 | X-H torsion
[ 8008 7997 7996 7995 ] final   19.27 input   59.86 | X-H torsion
[ 10167 10162 10161 10158 ] final   49.19 input  -65.29 | X-H torsion
[ 10718 10713 10712 10709 ] final  171.73 input   66.30 | X-H torsion
[ 10763 10752 10751 10750 ] final  -45.36 input  -60.55 | X-H torsion
[ 11005 11000 10999 10996 ] final  111.33 input  -57.11 | X-H torsion

> <Gold.Protein.ActiveResidues>
 VAL166  LYS551  ARG553  GLY616  TRP617  ASP618  TYR619  PRO620  LYS621  CYS622 
 ASP623  PHE694  ASN695  SER759  ASP760  ASP761  ALA762  ILE779  LEU786  VAL792 
 PHE793  MET794  SER795  GLU796  ALA797  LYS798  CYS799  TRP800  GLU811  SER814 

> <Gold.Protein.RotatedAtoms>
  152.3741  134.6690  160.0165 H   0  0  0  0  0  0  0  0  0  0  0  0  # atno 6907 bound_to 6896
  151.6974  133.3305  159.3266 H   0  0  0  0  0  0  0  0  0  0  0  0  # atno 6908 bound_to 6896
  150.7696  134.6581  159.6369 H   0  0  0  0  0  0  0  0  0  0  0  0  # atno 6909 bound_to 6896
  145.7825  140.8754  143.0323 H   0  0  0  0  0  0  0  0  0  0  0  0  # atno 7974 bound_to 7965
  154.9183  140.3024  155.5229 H   0  0  0  0  0  0  0  0  0  0  0  0  # atno 8008 bound_to 7997
  156.3011  140.2376  156.4166 H   0  0  0  0  0  0  0  0  0  0  0  0  # atno 8009 bound_to 7997
  154.8356  140.0416  157.1495 H   0  0  0  0  0  0  0  0  0  0  0  0  # atno 8010 bound_to 7997
  140.2855  144.3107  150.6253 H   0  0  0  0  0  0  0  0  0  0  0  0  # atno 10167 bound_to 10162
  156.9892  131.0142  151.2861 H   0  0  0  0  0  0  0  0  0  0  0  0  # atno 10718 bound_to 10713
  154.0272  135.6661  153.4777 H   0  0  0  0  0  0  0  0  0  0  0  0  # atno 10763 bound_to 10752
  153.0555  135.5058  154.7967 H   0  0  0  0  0  0  0  0  0  0  0  0  # atno 10764 bound_to 10752
  154.6901  135.3060  154.9457 H   0  0  0  0  0  0  0  0  0  0  0  0  # atno 10765 bound_to 10752
  139.8901  134.9505  156.6416 H   0  0  0  0  0  0  0  0  0  0  0  0  # atno 11005 bound_to 11000
  144.6794  140.0009  143.7484 LP  0  0  0  0  0  0  0  0  0  0  0  0  # atno 17320 bound_to 7965
  146.0060  139.3130  143.0899 LP  0  0  0  0  0  0  0  0  0  0  0  0  # atno 17321 bound_to 7965
  140.5776  143.2175  151.7486 LP  0  0  0  0  0  0  0  0  0  0  0  0  # atno 17342 bound_to 10162
  139.4951  144.4126  152.0064 LP  0  0  0  0  0  0  0  0  0  0  0  0  # atno 17343 bound_to 10162
  157.5471  130.8157  149.8099 LP  0  0  0  0  0  0  0  0  0  0  0  0  # atno 17370 bound_to 10713
  156.0214  130.3794  150.1952 LP  0  0  0  0  0  0  0  0  0  0  0  0  # atno 17371 bound_to 10713
  140.7589  133.8834  155.8403 LP  0  0  0  0  0  0  0  0  0  0  0  0  # atno 17394 bound_to 11000
  140.9938  134.1242  157.4382 LP  0  0  0  0  0  0  0  0  0  0  0  0  # atno 17395 bound_to 11000

$$$$
