AV-unprocessed.smi:2729|AV-procd|sdf|10526|dock7
  -GOLD-   2272014573D 1   1.00000     0.00000
 Structure written by MMmdl.
 33 34  0  0  0  0  0  0  0  0  1 V2000
  148.5041  140.2082  154.0524 C   0  0  0  0  0  0  0  0  0  0  0  0
  147.5942  140.7549  155.1723 C   0  0  1  0  0  0  0  0  0  0  0  0
  148.3479  141.6532  156.0582 N   0  0  0  0  0  0  0  0  0  0  0  0
  149.4659  141.3932  156.7550 C   0  0  0  0  0  0  0  0  0  0  0  0
  150.0368  140.3034  156.7586 O   0  0  0  0  0  0  0  0  0  0  0  0
  149.8790  142.4861  157.4187 N   0  0  0  0  0  0  0  0  0  0  0  0
  151.0034  142.6292  158.2752 C   0  0  0  0  0  0  0  0  0  0  0  0
  151.3223  143.8149  158.9805 C   0  0  0  0  0  0  0  0  0  0  0  0
  152.4782  143.8372  159.7841 C   0  0  0  0  0  0  0  0  0  0  0  0
  153.2762  142.6784  159.8475 C   0  0  0  0  0  0  0  0  0  0  0  0
  152.9919  141.5462  159.1701 N   0  0  0  0  0  0  0  0  0  0  0  0
  151.8822  141.5325  158.4013 C   0  0  0  0  0  0  0  0  0  0  0  0
  146.3405  141.4656  154.5963 C   0  0  0  0  0  0  0  0  0  0  0  0
  145.2979  141.6412  155.7066 C   0  0  0  0  0  0  0  0  0  0  0  0
  145.5000  140.1900  156.8028 S   0  0  0  0  0  0  0  0  0  0  0  0
  145.7696  140.6598  158.1704 O   0  0  0  0  0  0  0  0  0  0  0  0
  144.4342  139.2130  156.5331 O   0  0  0  0  0  0  0  0  0  0  0  0
  147.0613  139.5983  156.0420 C   0  0  0  0  0  0  0  0  0  0  0  0
  147.9787  139.4761  153.4383 H   0  0  0  0  0  0  0  0  0  0  0  0
  149.3862  139.7171  154.4643 H   0  0  0  0  0  0  0  0  0  0  0  0
  148.8464  140.9968  153.3824 H   0  0  0  0  0  0  0  0  0  0  0  0
  147.9815  142.5911  156.1320 H   0  0  0  0  0  0  0  0  0  0  0  0
  149.3566  143.3329  157.2470 H   0  0  0  0  0  0  0  0  0  0  0  0
  150.7180  144.7058  158.9110 H   0  0  0  0  0  0  0  0  0  0  0  0
  152.7499  144.7252  160.3355 H   0  0  0  0  0  0  0  0  0  0  0  0
  154.1701  142.6630  160.4534 H   0  0  0  0  0  0  0  0  0  0  0  0
  151.6878  140.6111  157.8717 H   0  0  0  0  0  0  0  0  0  0  0  0
  146.5679  142.4143  154.1106 H   0  0  0  0  0  0  0  0  0  0  0  0
  145.9048  140.8304  153.8238 H   0  0  0  0  0  0  0  0  0  0  0  0
  145.5009  142.5392  156.2905 H   0  0  0  0  0  0  0  0  0  0  0  0
  144.2767  141.6923  155.3293 H   0  0  0  0  0  0  0  0  0  0  0  0
  146.8110  138.7325  155.4279 H   0  0  0  0  0  0  0  0  0  0  0  0
  147.7575  139.2696  156.8145 H   0  0  0  0  0  0  0  0  0  0  0  0
  1  2  1  0  0  0  0
  1 19  1  0  0  0  0
  1 20  1  0  0  0  0
  1 21  1  0  0  0  0
  2 18  1  0  0  0  0
  2  3  1  0  0  0  0
  2 13  1  0  0  0  0
  3  4  1  0  0  0  0
  3 22  1  0  0  0  0
  4  5  2  0  0  0  0
  4  6  1  0  0  0  0
  6  7  1  0  0  0  0
  6 23  1  0  0  0  0
  7 12  1  0  0  0  0
  7  8  2  0  0  0  0
  8  9  1  0  0  0  0
  8 24  1  0  0  0  0
  9 10  2  0  0  0  0
  9 25  1  0  0  0  0
 10 11  1  0  0  0  0
 10 26  1  0  0  0  0
 11 12  2  0  0  0  0
 12 27  1  0  0  0  0
 13 14  1  0  0  0  0
 13 28  1  0  0  0  0
 13 29  1  0  0  0  0
 14 15  1  0  0  0  0
 14 30  1  0  0  0  0
 14 31  1  0  0  0  0
 15 16  2  0  0  0  0
 15 17  2  0  0  0  0
 15 18  1  0  0  0  0
 18 32  1  0  0  0  0
 18 33  1  0  0  0  0
M  END
> <s_m_source_file>
AV-unprocessed.smi

> <i_m_source_file_index>
2729

> <i_lp_mmshare_version>
43012

> <i_f3d_flags>
0

> <s_epik_input>
Tz1TKD1PKShbQ0gyXTEpW0NIMl1bQ0gyXVtDQEBdMShbQ0gzXSlbTkhdQyg9TylbTkhdYzJbY0hdW2NIXVtjSF1uW2NIXTI=

> <s_epik_cmdline>
J2VwaWtfcHl0aG9uJywgJy1waCcsICc3LjAnLCAnLXRuJywgJzgnLCAnLW1hJywgJzIwMCcsICctbWV0YWxfYmluZGluZycsICctaW1hZScsICc8aW5maWxlLm1hZT4nLCAnLW9tYWUnLCAnPG91dGZpbGUubWFlPic=

> <r_epik_Ionization_Penalty>
0.00438887

> <r_epik_Ionization_Penalty_Charging>
0

> <r_epik_Ionization_Penalty_Neutral>
0.00438887

> <r_epik_State_Penalty>
0.00314315

> <r_epik_Charging_Adjusted_Penalty>
0.00314315

> <i_epik_Tot_Q>
0

> <i_epik_Tot_abs_Q>
0

> <r_epik_Metal_State_Penalty>
-0

> <b_epik_Metal_Only>
0

> <s_lp_Force_Field>
OPLS_2005

> <r_lp_Energy>
5.02931

> <b_lp_Chiralities_Consistent>
1

> <s_lp_Variant>
AV-unprocessed.smi:2729-1

> <Gold.Version>
5.8.1

> <Gold.Id.Protein>
6NUR|6NUR_protein|mol2

> <Gold.PLP.Fitness>
38.6139

> <Gold.PLP.PLP>
-33.0396

> <Gold.PLP.part.hbond>
-2.0000

> <Gold.PLP.part.metal>
0.0000

> <Gold.PLP.part.buried>
-4.9461

> <Gold.PLP.part.nonpolar>
-26.4785

> <Gold.PLP.part.repulsive>
0.4444

> <Gold.PLP.ligand.clash>
0.0000

> <Gold.PLP.ligand.torsion>
0.0166

> <Gold.PLP.Chemscore.Hbond>
1.8640

> <Gold.PLP.Chemscore.CHOScore>
0.0000

> <Gold.PLP.Chemscore.Metal>
0.0000

> <Gold.Chemscore.Hbonds>
donor molecule, donor type, donor heavy atom, donor atom, acceptor molecule, acceptor atom, score
      L1  H     3    22       P1  8028  0.15
      L1  H     6    23       P1  8028  0.58

> <Gold.PLP.Chemscore.Internal.Correction>
0.0153

> <Gold.Rescore>
     Score         DG    S(hbond)    S(metal)    S(lipo)     H(rot)  DE(clash)    DE(int)     intcor
     17.10     -18.69       1.92        0.00      79.88       1.00       0.13       1.47       ----

> <Gold.Chemscore.Fitness>
17.0956

> <Gold.Chemscore.DG>
-18.6888

> <Gold.Chemscore.ZeroCoef>
-5.4800

> <Gold.Chemscore.Hbond>
1.9229

> <Gold.Chemscore.Metal>
0.0000

> <Gold.Chemscore.Lipo>
79.8826

> <Gold.Chemscore.Internal_Hbond>
0.0000

> <Gold.Chemscore.DEClash>
0.1263

> <Gold.Chemscore.DEInternal>
1.4669

> <Gold.Chemscore.Rot>
1.0000

> <Gold.Chemscore.Internal.Correction>
   9.000000E+99

> <Gold.Chemscore.Hbonds>
donor molecule, donor type, donor heavy atom, donor atom, acceptor molecule, acceptor atom, score
      L1  H     3    22       P1  8028  0.12
      L1  H     6    23       P1  8028  0.48

> <Gold.Chemscore.Hbond.Weighted>
-6.4225

> <Gold.Chemscore.Metal.Weighted>
-0.0000

> <Gold.Chemscore.Lipo.Weighted>
-9.3463

> <Gold.Chemscore.Internal_Hbond.Weighted>
0.0000

> <Gold.Chemscore.DEClash.Weighted>
0.1263

> <Gold.Chemscore.DEInternal.Weighted>
1.4669

> <Gold.Chemscore.Rot.Weighted>
2.5600

> <Gold.Chemscore.Internal.Correction.Weighted>
   9.000000E+99

> <Gold.Protein.RotatedTorsions>
[ 6907 6896 6895 6894 ] final  -22.62 input  -60.11 | X-H torsion
[ 7974 7965 7964 7962 ] final -100.51 input  175.53 | X-H torsion
[ 8008 7997 7996 7995 ] final  -53.53 input   59.86 | X-H torsion
[ 10167 10162 10161 10158 ] final -145.27 input  -65.29 | X-H torsion
[ 10718 10713 10712 10709 ] final  -37.80 input   66.30 | X-H torsion
[ 10763 10752 10751 10750 ] final   88.25 input  -60.55 | X-H torsion
[ 11005 11000 10999 10996 ] final   83.24 input  -57.11 | X-H torsion

> <Gold.Protein.ActiveResidues>
 VAL166  LYS551  ARG553  GLY616  TRP617  ASP618  TYR619  PRO620  LYS621  CYS622 
 ASP623  PHE694  ASN695  SER759  ASP760  ASP761  ALA762  ILE779  LEU786  VAL792 
 PHE793  MET794  SER795  GLU796  ALA797  LYS798  CYS799  TRP800  GLU811  SER814 

> <Gold.Protein.RotatedAtoms>
  151.2159  135.0499  159.8929 H   0  0  0  0  0  0  0  0  0  0  0  0  # atno 6907 bound_to 6896
  152.5420  134.0694  159.8197 H   0  0  0  0  0  0  0  0  0  0  0  0  # atno 6908 bound_to 6896
  151.0853  133.5310  159.2650 H   0  0  0  0  0  0  0  0  0  0  0  0  # atno 6909 bound_to 6896
  145.2936  140.9359  143.2863 H   0  0  0  0  0  0  0  0  0  0  0  0  # atno 7974 bound_to 7965
  154.4136  140.1198  156.5168 H   0  0  0  0  0  0  0  0  0  0  0  0  # atno 8008 bound_to 7997
  155.6743  140.3496  155.4811 H   0  0  0  0  0  0  0  0  0  0  0  0  # atno 8009 bound_to 7997
  155.9606  140.1122  157.0889 H   0  0  0  0  0  0  0  0  0  0  0  0  # atno 8010 bound_to 7997
  139.7821  143.8086  152.2640 H   0  0  0  0  0  0  0  0  0  0  0  0  # atno 10167 bound_to 10162
  156.3111  130.4252  149.8050 H   0  0  0  0  0  0  0  0  0  0  0  0  # atno 10718 bound_to 10713
  153.1749  135.4514  154.9952 H   0  0  0  0  0  0  0  0  0  0  0  0  # atno 10763 bound_to 10752
  154.7991  135.3249  154.7596 H   0  0  0  0  0  0  0  0  0  0  0  0  # atno 10764 bound_to 10752
  153.8067  135.6958  153.4902 H   0  0  0  0  0  0  0  0  0  0  0  0  # atno 10765 bound_to 10752
  139.9037  134.8130  156.2283 H   0  0  0  0  0  0  0  0  0  0  0  0  # atno 11005 bound_to 11000
  144.9152  139.4479  143.6568 LP  0  0  0  0  0  0  0  0  0  0  0  0  # atno 17320 bound_to 7965
  146.3176  139.7982  142.8971 LP  0  0  0  0  0  0  0  0  0  0  0  0  # atno 17321 bound_to 7965
  139.8152  144.7319  150.9645 LP  0  0  0  0  0  0  0  0  0  0  0  0  # atno 17342 bound_to 10162
  140.7818  143.4212  151.0838 LP  0  0  0  0  0  0  0  0  0  0  0  0  # atno 17343 bound_to 10162
  156.5393  130.8292  151.3263 LP  0  0  0  0  0  0  0  0  0  0  0  0  # atno 17370 bound_to 10713
  157.7391  130.9825  150.2293 LP  0  0  0  0  0  0  0  0  0  0  0  0  # atno 17371 bound_to 10713
  141.0362  133.6962  156.1516 LP  0  0  0  0  0  0  0  0  0  0  0  0  # atno 17394 bound_to 11000
  140.7024  134.4550  157.5585 LP  0  0  0  0  0  0  0  0  0  0  0  0  # atno 17395 bound_to 11000

$$$$
