#       Name:                AV-unprocessed.smi:189
#       Creating user name   scv26
#       Creation time:       Thu Mar 26 19:30:06 2020


#       File generated by GOLD software.
#

@<TRIPOS>MOLECULE
AV-unprocessed.smi:189
    61    65     1
SMALL
NO_CHARGES


@<TRIPOS>ATOM
      1 ****        -1.7276   0.1366   3.1305 C.3            1 S1                 0.0000
      2 ****        -2.3354  -0.4845   1.8555 C.3            1 S1                 0.0000
      3 ****        -3.8733  -0.3041   1.8341 C.3            1 S1                 0.0000
      4 ****        -4.1644   0.1275   0.3999 C.3            1 S1                 0.0000
      5 ****        -5.4320   0.9424   0.1171 C.3            1 S1                 0.0000
      6 ****        -5.4601   1.3251  -1.3778 C.3            1 S1                 0.0000
      7 ****        -4.1584   2.0247  -1.8315 C.3            1 S1                 0.0000
      8 ****        -2.8935   1.2261  -1.4510 C.3            1 S1                 0.0000
      9 ****        -2.9204   0.9348   0.0607 C.3            1 S1                 0.0000
     10 ****        -1.8507   0.1102   0.6010 N.3            1 S1                 0.0000
     11 ****        -0.5432   0.4563   0.4949 C.ar           1 S1                 0.0000
     12 ****        -0.2003   1.7438   0.2284 N.ar           1 S1                 0.0000
     13 ****         1.0864   2.0946   0.1459 C.ar           1 S1                 0.0000
     14 ****         2.1707   1.3313   0.2968 N.ar           1 S1                 0.0000
     15 ****         1.8322   0.0371   0.5616 C.ar           1 S1                 0.0000
     16 ****         0.5114  -0.4804   0.6776 C.ar           1 S1                 0.0000
     17 ****         0.5575  -1.8415   0.9534 N.2            1 S1                 0.0000
     18 ****         1.8328  -2.1124   1.0034 C.2            1 S1                 0.0000
     19 ****         2.6704  -1.0441   0.7735 N.pl3          1 S1                 0.0000
     20 ****         4.1251  -1.0677   0.7723 C.3            1 S1                 0.0000
     21 ****         4.7350  -1.4528  -0.5955 C.3            1 S1                 0.0000
     22 ****         4.2992  -2.7554  -0.9462 O.3            1 S1                 0.0000
     23 ****         4.3764  -0.4993  -1.7317 C.3            1 S1                 0.0000
     24 ****         5.6071  -0.5603  -2.6252 C.3            1 S1                 0.0000
     25 ****         6.6663  -0.5969  -1.6844 O.3            1 S1                 0.0000
     26 ****         6.2771  -1.4365  -0.6020 C.3            1 S1                 0.0000
     27 ****        -2.1863  -0.2894   4.0231 H              1 S1                 0.0000
     28 ****        -1.8833   1.2157   3.1605 H              1 S1                 0.0000
     29 ****        -0.6561  -0.0482   3.2040 H              1 S1                 0.0000
     30 ****        -2.1060  -1.5501   1.8249 H              1 S1                 0.0000
     31 ****        -4.4055  -1.2140   2.1128 H              1 S1                 0.0000
     32 ****        -4.1823   0.4845   2.5224 H              1 S1                 0.0000
     33 ****        -4.1851  -0.7730  -0.2180 H              1 S1                 0.0000
     34 ****        -6.3203   0.3660   0.3764 H              1 S1                 0.0000
     35 ****        -5.4466   1.8423   0.7332 H              1 S1                 0.0000
     36 ****        -5.6063   0.4240  -1.9748 H              1 S1                 0.0000
     37 ****        -6.3175   1.9674  -1.5807 H              1 S1                 0.0000
     38 ****        -4.1823   2.1887  -2.9092 H              1 S1                 0.0000
     39 ****        -4.1069   3.0133  -1.3732 H              1 S1                 0.0000
     40 ****        -2.8575   0.2928  -2.0143 H              1 S1                 0.0000
     41 ****        -2.0070   1.7942  -1.7307 H              1 S1                 0.0000
     42 ****        -2.9314   1.8784   0.6102 H              1 S1                 0.0000
     43 ****         1.2736   3.1361  -0.0697 H              1 S1                 0.0000
     44 ****         2.2012  -3.1077   1.2063 H              1 S1                 0.0000
     45 ****         4.4842  -0.0856   1.0825 H              1 S1                 0.0000
     46 ****         4.4549  -1.7686   1.5405 H              1 S1                 0.0000
     47 ****         3.3594  -2.7393  -1.0452 H              1 S1                 0.0000
     48 ****         3.4515  -0.7555  -2.2503 H              1 S1                 0.0000
     49 ****         4.2745   0.5183  -1.3537 H              1 S1                 0.0000
     50 ****         5.6127  -1.4712  -3.2256 H              1 S1                 0.0000
     51 ****         5.6895   0.2972  -3.2929 H              1 S1                 0.0000
     52 ****         6.6924  -1.0371   0.3238 H              1 S1                 0.0000
     53 ****         6.6982  -2.4334  -0.7441 H              1 S1                 0.0000
     54 ****        -1.6790  -0.5982  -0.0836 LP             1 S1                 0.0000
     55 ****        -0.9137   2.4315   0.0935 LP             1 S1                 0.0000
     56 ****         3.1105   1.6654   0.2249 LP             1 S1                 0.0000
     57 ****        -0.2101  -2.4690   1.0836 LP             1 S1                 0.0000
     58 ****         4.5518  -3.4014  -0.2258 LP             1 S1                 0.0000
     59 ****         4.7247  -3.0334  -1.8074 LP             1 S1                 0.0000
     60 ****         6.8501   0.3262  -1.3466 LP             1 S1                 0.0000
     61 ****         7.4899  -0.9636  -2.1171 LP             1 S1                 0.0000
@<TRIPOS>BOND
    1    1    2 1     
    2    1   27 1     
    3    1   28 1     
    4    1   29 1     
    5    2   10 1     
    6    2    3 1     
    7    2   30 1     
    8    3    4 1     
    9    3   31 1     
   10    3   32 1     
   11    4    9 1     
   12    4    5 1     
   13    4   33 1     
   14    5    6 1     
   15    5   34 1     
   16    5   35 1     
   17    6    7 1     
   18    6   36 1     
   19    6   37 1     
   20    7    8 1     
   21    7   38 1     
   22    7   39 1     
   23    8    9 1     
   24    8   40 1     
   25    8   41 1     
   26    9   10 1     
   27    9   42 1     
   28   10   11 1     
   29   11   16 ar    
   30   11   12 ar    
   31   12   13 ar    
   32   13   14 ar    
   33   13   43 1     
   34   14   15 ar    
   35   15   19 1     
   36   15   16 ar    
   37   16   17 1     
   38   17   18 2     
   39   18   19 1     
   40   18   44 1     
   41   19   20 1     
   42   20   21 1     
   43   20   45 1     
   44   20   46 1     
   45   21   26 1     
   46   21   22 1     
   47   21   23 1     
   48   22   47 1     
   49   23   24 1     
   50   23   48 1     
   51   23   49 1     
   52   24   25 1     
   53   24   50 1     
   54   24   51 1     
   55   25   26 1     
   56   26   52 1     
   57   26   53 1     
   58   10   54 1     
   59   12   55 1     
   60   14   56 1     
   61   17   57 1     
   62   22   58 1     
   63   22   59 1     
   64   25   60 1     
   65   25   61 1     
@<TRIPOS>SUBSTRUCTURE
      1 S1             1
@<TRIPOS>SET
LONE_PAIRS      STATIC     ATOMS    <user>   **** ""
8 54 55 56 57 58 59 60 61
DONOR_HYDROGENS      STATIC     ATOMS    <user>   **** ""
1 47
ATOM$BLUE        STATIC     ATOMS    COLORGROUP SYSTEM
8 54 55 56 57 58 59 60 61
ATOM$RED        STATIC     ATOMS    COLORGROUP SYSTEM
1 47
