AV-unprocessed.smi:2527|AV-procd|sdf|9946|dock2
  -GOLD-   2272013583D 1   1.00000     0.00000
 Structure written by MMmdl.
 36 38  0  0  0  0  0  0  0  0  3 V2000
  153.5645  138.3445  154.3729 C   0  0  0  0  0  0  0  0  0  0  0  0
  152.8688  139.2936  155.1610 O   0  0  0  0  0  0  0  0  0  0  0  0
  151.9004  138.6949  156.0070 C   0  0  0  0  0  0  0  0  0  0  0  0
  151.8124  139.4691  157.3300 C   0  0  0  0  0  0  0  0  0  0  0  0
  151.2746  140.8256  157.1493 N   0  0  0  0  0  0  0  0  0  0  0  0
  150.3991  141.3076  156.2236 C   0  0  0  0  0  0  0  0  0  0  0  0
  149.6369  140.3830  154.9294 S   0  0  0  0  0  0  0  0  0  0  0  0
  148.1554  139.6406  155.6653 C   0  0  0  0  0  0  0  0  0  0  0  0
  147.1874  139.0630  154.6564 C   0  0  0  0  0  0  0  0  0  0  0  0
  147.4668  139.2238  153.3301 N   0  0  0  0  0  0  0  0  0  0  0  0
  146.4813  138.6311  152.6635 C   0  0  0  0  0  0  0  0  0  0  0  0
  146.4394  138.6012  151.4354 O   0  0  0  0  0  0  0  0  0  0  0  0
  145.6039  138.1086  153.5554 N   0  5  0  0  0  0  0  0  0  0  0  0
  146.1025  138.4123  154.8640 N   0  0  0  0  0  0  0  0  0  0  0  0
  150.2161  142.6328  156.4782 N   0  3  0  0  0  0  0  0  0  0  0  0
  150.9795  143.0042  157.5865 C   0  0  0  0  0  0  0  0  0  0  0  0
  151.1208  144.2326  158.2246 C   0  0  0  0  0  0  0  0  0  0  0  0
  151.9805  144.2726  159.3424 C   0  0  0  0  0  0  0  0  0  0  0  0
  152.2030  145.7613  160.1848 Cl  0  0  0  0  0  0  0  0  0  0  0  0
  152.6596  143.1183  159.7846 C   0  0  0  0  0  0  0  0  0  0  0  0
  152.5114  141.8786  159.1287 C   0  0  0  0  0  0  0  0  0  0  0  0
  151.6605  141.8485  158.0242 C   0  0  0  0  0  0  0  0  0  0  0  0
  148.2666  139.7009  152.9418 H   0  0  0  0  0  0  0  0  0  0  0  0
  154.2838  138.8571  153.7344 H   0  0  0  0  0  0  0  0  0  0  0  0
  152.8817  137.7872  153.7302 H   0  0  0  0  0  0  0  0  0  0  0  0
  154.1121  137.6389  154.9989 H   0  0  0  0  0  0  0  0  0  0  0  0
  150.9261  138.6949  155.5161 H   0  0  0  0  0  0  0  0  0  0  0  0
  152.1670  137.6550  156.2027 H   0  0  0  0  0  0  0  0  0  0  0  0
  151.2022  138.9345  158.0580 H   0  0  0  0  0  0  0  0  0  0  0  0
  152.8044  139.5618  157.7730 H   0  0  0  0  0  0  0  0  0  0  0  0
  148.4694  138.8628  156.3625 H   0  0  0  0  0  0  0  0  0  0  0  0
  147.6362  140.3991  156.2515 H   0  0  0  0  0  0  0  0  0  0  0  0
  150.5995  145.1168  157.8883 H   0  0  0  0  0  0  0  0  0  0  0  0
  153.3079  143.1828  160.6465 H   0  0  0  0  0  0  0  0  0  0  0  0
  153.0328  141.0010  159.4813 H   0  0  0  0  0  0  0  0  0  0  0  0
  149.6123  143.2345  155.9331 H   0  0  0  0  0  0  0  0  0  0  0  0
  1  2  1  0  0  0  0
  1 24  1  0  0  0  0
  1 25  1  0  0  0  0
  1 26  1  0  0  0  0
  2  3  1  0  0  0  0
  3  4  1  0  0  0  0
  3 27  1  0  0  0  0
  3 28  1  0  0  0  0
  4  5  1  0  0  0  0
  4 29  1  0  0  0  0
  4 30  1  0  0  0  0
  5 22  1  0  0  0  0
  5  6  1  0  0  0  0
  6  7  1  0  0  0  0
  6 15  2  0  0  0  0
  7  8  1  0  0  0  0
  8 31  1  0  0  0  0
  8 32  1  0  0  0  0
  8  9  1  0  0  0  0
  9 14  2  0  0  0  0
  9 10  1  0  0  0  0
 10 11  1  0  0  0  0
 10 23  1  0  0  0  0
 11 13  1  0  0  0  0
 11 12  2  0  0  0  0
 13 14  1  0  0  0  0
 15 16  1  0  0  0  0
 15 36  1  0  0  0  0
 16 22  2  0  0  0  0
 16 17  1  0  0  0  0
 17 18  2  0  0  0  0
 17 33  1  0  0  0  0
 18 19  1  0  0  0  0
 18 20  1  0  0  0  0
 20 21  2  0  0  0  0
 20 34  1  0  0  0  0
 21 22  1  0  0  0  0
 21 35  1  0  0  0  0
M  CHG  1  13  -1
M  CHG  1  15   1
M  END
> <s_m_source_file>
AV-unprocessed.smi

> <i_m_source_file_index>
2527

> <i_lp_mmshare_version>
43012

> <i_f3d_flags>
0

> <s_epik_input>
W2NIXTFjKENsKVtjSF1bY0hdYyhjMTIpbihbQ0gyXVtDSDJdT1tDSDNdKWMobjIpU1tDSDJdYzNuYyg9TylbbkhdW25IXTM=

> <s_epik_cmdline>
J2VwaWtfcHl0aG9uJywgJy1waCcsICc3LjAnLCAnLXRuJywgJzgnLCAnLW1hJywgJzIwMCcsICctbWV0YWxfYmluZGluZycsICctaW1hZScsICc8aW5maWxlLm1hZT4nLCAnLW9tYWUnLCAnPG91dGZpbGUubWFlPic=

> <r_lp_tautomer_probability>
0.999897

> <r_epik_Ionization_Penalty>
4.90706

> <r_epik_Ionization_Penalty_Charging>
2.34068

> <r_epik_Ionization_Penalty_Neutral>
2.56639

> <r_epik_State_Penalty>
6.79966

> <r_epik_Charging_Adjusted_Penalty>
9.14033

> <i_epik_Tot_Q>
0

> <i_epik_Tot_abs_Q>
2

> <r_epik_Metal_State_Penalty>
4.68507

> <b_epik_Metal_Only>
1

> <s_lp_Force_Field>
OPLS_2005

> <r_lp_Energy>
18.8792

> <b_lp_Chiralities_Consistent>
1

> <s_lp_Variant>
AV-unprocessed.smi:2527-5

> <Gold.Version>
5.8.1

> <Gold.Id.Protein>
6NUR|6NUR_protein|mol2

> <Gold.PLP.Fitness>
55.6575

> <Gold.PLP.PLP>
-43.6441

> <Gold.PLP.part.hbond>
-4.5334

> <Gold.PLP.part.metal>
0.0000

> <Gold.PLP.part.buried>
-5.8664

> <Gold.PLP.part.nonpolar>
-35.3006

> <Gold.PLP.part.repulsive>
1.2547

> <Gold.PLP.ligand.clash>
0.0000

> <Gold.PLP.ligand.torsion>
1.0378

> <Gold.PLP.Chemscore.Hbond>
4.6580

> <Gold.PLP.Chemscore.CHOScore>
0.0000

> <Gold.PLP.Chemscore.Metal>
0.0000

> <Gold.Chemscore.Hbonds>
donor molecule, donor type, donor heavy atom, donor atom, acceptor molecule, acceptor atom, score
      L1  H    10    23       P1  7957  0.43
      L1  H    15    36       P1  8028  2.00
      P1  H  7954  7966       L1    12  0.02
      P1  H  7997  8008       L1     2  0.75

> <Gold.PLP.Chemscore.Internal.Correction>
0.1149

> <Gold.Rescore>
     Score         DG    S(hbond)    S(metal)    S(lipo)     H(rot)  DE(clash)    DE(int)     intcor
     16.74     -20.41       2.84        0.00     109.53       2.88       2.04       1.62       ----

> <Gold.Chemscore.Fitness>
16.7436

> <Gold.Chemscore.DG>
-20.4111

> <Gold.Chemscore.ZeroCoef>
-5.4800

> <Gold.Chemscore.Hbond>
2.8387

> <Gold.Chemscore.Metal>
0.0000

> <Gold.Chemscore.Lipo>
109.5280

> <Gold.Chemscore.Internal_Hbond>
0.0000

> <Gold.Chemscore.DEClash>
2.0444

> <Gold.Chemscore.DEInternal>
1.6231

> <Gold.Chemscore.Rot>
2.8770

> <Gold.Chemscore.Internal.Correction>
   9.000000E+99

> <Gold.Chemscore.Hbonds>
donor molecule, donor type, donor heavy atom, donor atom, acceptor molecule, acceptor atom, score
      L1  H    10    23       P1  7957  0.41
      L1  H    15    36       P1  8028  0.95
      P1  H  7954  7966       L1    12  0.07
      P1  H  7997  8008       L1     2  0.09

> <Gold.Chemscore.Hbond.Weighted>
-9.4813

> <Gold.Chemscore.Metal.Weighted>
-0.0000

> <Gold.Chemscore.Lipo.Weighted>
-12.8148

> <Gold.Chemscore.Internal_Hbond.Weighted>
0.0000

> <Gold.Chemscore.DEClash.Weighted>
2.0444

> <Gold.Chemscore.DEInternal.Weighted>
1.6231

> <Gold.Chemscore.Rot.Weighted>
7.3650

> <Gold.Chemscore.Internal.Correction.Weighted>
   9.000000E+99

> <Gold.Protein.RotatedTorsions>
[ 6907 6896 6895 6894 ] final   66.08 input  -60.11 | X-H torsion
[ 7974 7965 7964 7962 ] final  153.53 input  175.53 | X-H torsion
[ 8008 7997 7996 7995 ] final  -11.09 input   59.86 | X-H torsion
[ 10167 10162 10161 10158 ] final   54.38 input  -65.29 | X-H torsion
[ 10718 10713 10712 10709 ] final   16.91 input   66.30 | X-H torsion
[ 10763 10752 10751 10750 ] final   61.56 input  -60.55 | X-H torsion
[ 11005 11000 10999 10996 ] final  167.81 input  -57.11 | X-H torsion

> <Gold.Protein.ActiveResidues>
 VAL166  LYS551  ARG553  GLY616  TRP617  ASP618  TYR619  PRO620  LYS621  CYS622 
 ASP623  PHE694  ASN695  SER759  ASP760  ASP761  ALA762  ILE779  LEU786  VAL792 
 PHE793  MET794  SER795  GLU796  ALA797  LYS798  CYS799  TRP800  GLU811  SER814 

> <Gold.Protein.RotatedAtoms>
  152.4454  134.5504  159.9864 H   0  0  0  0  0  0  0  0  0  0  0  0  # atno 6907 bound_to 6896
  151.5591  133.3400  159.2975 H   0  0  0  0  0  0  0  0  0  0  0  0  # atno 6908 bound_to 6896
  150.8370  134.7679  159.6964 H   0  0  0  0  0  0  0  0  0  0  0  0  # atno 6909 bound_to 6896
  144.8149  139.6812  143.6126 H   0  0  0  0  0  0  0  0  0  0  0  0  # atno 7974 bound_to 7965
  154.5495  140.2311  155.8508 H   0  0  0  0  0  0  0  0  0  0  0  0  # atno 8008 bound_to 7997
  156.1934  140.3071  155.9339 H   0  0  0  0  0  0  0  0  0  0  0  0  # atno 8009 bound_to 7997
  155.3098  140.0435  157.3025 H   0  0  0  0  0  0  0  0  0  0  0  0  # atno 8010 bound_to 7997
  140.2307  144.3690  150.6415 H   0  0  0  0  0  0  0  0  0  0  0  0  # atno 10167 bound_to 10162
  157.0746  130.6362  149.5813 H   0  0  0  0  0  0  0  0  0  0  0  0  # atno 10718 bound_to 10713
  152.9954  135.5496  154.6053 H   0  0  0  0  0  0  0  0  0  0  0  0  # atno 10763 bound_to 10752
  154.5385  135.2818  155.1119 H   0  0  0  0  0  0  0  0  0  0  0  0  # atno 10764 bound_to 10752
  154.2405  135.6417  153.5258 H   0  0  0  0  0  0  0  0  0  0  0  0  # atno 10765 bound_to 10752
  140.2806  134.7753  157.3755 H   0  0  0  0  0  0  0  0  0  0  0  0  # atno 11005 bound_to 11000
  146.2451  139.6081  142.9465 LP  0  0  0  0  0  0  0  0  0  0  0  0  # atno 17320 bound_to 7965
  145.5238  141.0430  143.2420 LP  0  0  0  0  0  0  0  0  0  0  0  0  # atno 17321 bound_to 7965
  140.6187  143.2174  151.6739 LP  0  0  0  0  0  0  0  0  0  0  0  0  # atno 17342 bound_to 10162
  139.5111  144.3521  152.0643 LP  0  0  0  0  0  0  0  0  0  0  0  0  # atno 17343 bound_to 10162
  155.9941  130.5003  150.7405 LP  0  0  0  0  0  0  0  0  0  0  0  0  # atno 17370 bound_to 10713
  157.4850  131.0906  151.0493 LP  0  0  0  0  0  0  0  0  0  0  0  0  # atno 17371 bound_to 10713
  140.1287  134.5124  155.8124 LP  0  0  0  0  0  0  0  0  0  0  0  0  # atno 17394 bound_to 11000
  141.2163  133.6782  156.6999 LP  0  0  0  0  0  0  0  0  0  0  0  0  # atno 17395 bound_to 11000

$$$$
