AV-unprocessed.smi:3050|AV-procd|sdf|11631|dock9
  -GOLD-   2272017 23D 1   1.00000     0.00000
 Structure written by MMmdl.
 45 46  0  0  0  0  0  0  0  0  1 V2000
  150.4622  139.2716  154.3643 C   0  0  0  0  0  0  0  0  0  0  0  0
  150.8236  139.8525  155.7372 C   0  0  0  0  0  0  0  0  0  0  0  0
  150.4749  141.3476  155.8632 C   0  0  2  0  0  0  0  0  0  0  0  0
  150.4661  141.6777  157.2518 O   0  0  0  0  0  0  0  0  0  0  0  0
  151.6891  142.1649  157.7967 C   0  0  0  0  0  0  0  0  0  0  0  0
  151.7167  141.9448  159.3078 C   0  0  0  0  0  0  0  0  0  0  0  0
  152.7451  142.9549  159.8244 C   0  0  0  0  0  0  0  0  0  0  0  0
  152.7551  144.1077  158.8080 C   0  0  0  0  0  0  0  0  0  0  0  0
  151.8213  143.6848  157.6672 C   0  0  0  0  0  0  0  0  0  0  0  0
  149.1113  141.6596  155.2247 C   0  0  0  0  0  0  0  0  0  0  0  0
  148.9841  141.6632  154.0001 O   0  0  0  0  0  0  0  0  0  0  0  0
  148.0987  141.9044  156.0707 N   0  0  0  0  0  0  0  0  0  0  0  0
  146.7294  142.2124  155.6766 C   0  0  0  0  0  0  0  0  0  0  0  0
  145.9082  142.7631  156.8535 C   0  0  0  0  0  0  0  0  0  0  0  0
  145.0308  143.9053  156.4252 C   0  0  0  0  0  0  0  0  0  0  0  0
  144.0708  143.9217  155.3734 C   0  0  0  0  0  0  0  0  0  0  0  0
  143.4627  145.0902  155.2501 N   0  0  0  0  0  0  0  0  0  0  0  0
  144.0106  145.8574  156.2147 N   0  0  0  0  0  0  0  0  0  0  0  0
  143.5706  147.2271  156.3724 C   0  0  0  0  0  0  0  0  0  0  0  0
  144.9589  145.1689  156.9401 C   0  0  0  0  0  0  0  0  0  0  0  0
  150.7109  138.2113  154.3143 H   0  0  0  0  0  0  0  0  0  0  0  0
  151.0053  139.7772  153.5655 H   0  0  0  0  0  0  0  0  0  0  0  0
  149.3958  139.3734  154.1618 H   0  0  0  0  0  0  0  0  0  0  0  0
  150.2947  139.2851  156.5043 H   0  0  0  0  0  0  0  0  0  0  0  0
  151.8880  139.7001  155.9221 H   0  0  0  0  0  0  0  0  0  0  0  0
  151.2517  141.9268  155.3595 H   0  0  0  0  0  0  0  0  0  0  0  0
  152.5596  141.6721  157.3592 H   0  0  0  0  0  0  0  0  0  0  0  0
  150.7380  142.1748  159.7317 H   0  0  0  0  0  0  0  0  0  0  0  0
  151.9616  140.9171  159.5781 H   0  0  0  0  0  0  0  0  0  0  0  0
  152.5052  143.2956  160.8320 H   0  0  0  0  0  0  0  0  0  0  0  0
  153.7320  142.4921  159.8620 H   0  0  0  0  0  0  0  0  0  0  0  0
  152.4227  145.0445  159.2567 H   0  0  0  0  0  0  0  0  0  0  0  0
  153.7677  144.2668  158.4346 H   0  0  0  0  0  0  0  0  0  0  0  0
  152.1915  143.9960  156.6914 H   0  0  0  0  0  0  0  0  0  0  0  0
  150.8443  144.1485  157.8098 H   0  0  0  0  0  0  0  0  0  0  0  0
  148.2928  141.8754  157.0611 H   0  0  0  0  0  0  0  0  0  0  0  0
  146.7707  142.9513  154.8758 H   0  0  0  0  0  0  0  0  0  0  0  0
  146.2516  141.3253  155.2568 H   0  0  0  0  0  0  0  0  0  0  0  0
  145.3011  141.9638  157.2795 H   0  0  0  0  0  0  0  0  0  0  0  0
  146.5840  143.0784  157.6494 H   0  0  0  0  0  0  0  0  0  0  0  0
  143.8010  143.1223  154.6990 H   0  0  0  0  0  0  0  0  0  0  0  0
  144.1747  147.7292  157.1286 H   0  0  0  0  0  0  0  0  0  0  0  0
  142.5257  147.2446  156.6833 H   0  0  0  0  0  0  0  0  0  0  0  0
  143.6730  147.7601  155.4267 H   0  0  0  0  0  0  0  0  0  0  0  0
  145.4998  145.6298  157.7535 H   0  0  0  0  0  0  0  0  0  0  0  0
  1  2  1  0  0  0  0
  1 21  1  0  0  0  0
  1 22  1  0  0  0  0
  1 23  1  0  0  0  0
  2  3  1  0  0  0  0
  2 24  1  0  0  0  0
  2 25  1  0  0  0  0
  3  4  1  0  0  0  0
  3 10  1  0  0  0  0
  3 26  1  0  0  0  0
  4  5  1  0  0  0  0
  5  9  1  0  0  0  0
  5  6  1  0  0  0  0
  5 27  1  0  0  0  0
  6  7  1  0  0  0  0
  6 28  1  0  0  0  0
  6 29  1  0  0  0  0
  7  8  1  0  0  0  0
  7 30  1  0  0  0  0
  7 31  1  0  0  0  0
  8  9  1  0  0  0  0
  8 32  1  0  0  0  0
  8 33  1  0  0  0  0
  9 34  1  0  0  0  0
  9 35  1  0  0  0  0
 10 11  2  0  0  0  0
 10 12  1  0  0  0  0
 12 13  1  0  0  0  0
 12 36  1  0  0  0  0
 13 14  1  0  0  0  0
 13 37  1  0  0  0  0
 13 38  1  0  0  0  0
 14 15  1  0  0  0  0
 14 39  1  0  0  0  0
 14 40  1  0  0  0  0
 15 20  2  0  0  0  0
 15 16  1  0  0  0  0
 16 17  2  0  0  0  0
 16 41  1  0  0  0  0
 17 18  1  0  0  0  0
 18 19  1  0  0  0  0
 18 20  1  0  0  0  0
 19 42  1  0  0  0  0
 19 43  1  0  0  0  0
 19 44  1  0  0  0  0
 20 45  1  0  0  0  0
M  END
> <s_m_source_file>
AV-unprocessed.smi

> <i_m_source_file_index>
3050

> <i_lp_mmshare_version>
43012

> <i_f3d_flags>
0

> <s_epik_input>
W0NIMl0xW0NIMl1bQ0gyXVtDSDJdW0NIXTFPW0NAQEhdKFtDSDJdW0NIM10pQyg9TylbTkhdW0NIMl1bQ0gyXWMyW2NIXW5uKFtDSDNdKVtjSF0y

> <s_epik_cmdline>
J2VwaWtfcHl0aG9uJywgJy1waCcsICc3LjAnLCAnLXRuJywgJzgnLCAnLW1hJywgJzIwMCcsICctbWV0YWxfYmluZGluZycsICctaW1hZScsICc8aW5maWxlLm1hZT4nLCAnLW9tYWUnLCAnPG91dGZpbGUubWFlPic=

> <r_lp_tautomer_probability>
1

> <r_epik_Ionization_Penalty>
0.000440265

> <r_epik_Ionization_Penalty_Charging>
0

> <r_epik_Ionization_Penalty_Neutral>
0.000440265

> <r_epik_State_Penalty>
-0

> <r_epik_Charging_Adjusted_Penalty>
0

> <i_epik_Tot_Q>
0

> <i_epik_Tot_abs_Q>
0

> <r_epik_Metal_State_Penalty>
-0

> <b_epik_Metal_Only>
0

> <s_lp_Force_Field>
OPLS_2005

> <r_lp_Energy>
20.5357

> <b_lp_Chiralities_Consistent>
1

> <s_lp_Variant>
AV-unprocessed.smi:3050-1

> <Gold.Version>
5.8.1

> <Gold.Id.Protein>
6NUR|6NUR_protein|mol2

> <Gold.PLP.Fitness>
44.2432

> <Gold.PLP.PLP>
-40.6662

> <Gold.PLP.part.hbond>
-2.2059

> <Gold.PLP.part.metal>
0.0000

> <Gold.PLP.part.buried>
-2.9591

> <Gold.PLP.part.nonpolar>
-35.1541

> <Gold.PLP.part.repulsive>
0.4127

> <Gold.PLP.ligand.clash>
0.0000

> <Gold.PLP.ligand.torsion>
1.5716

> <Gold.PLP.Chemscore.Hbond>
0.6240

> <Gold.PLP.Chemscore.CHOScore>
1.5657

> <Gold.PLP.Chemscore.Metal>
0.0000

> <Gold.Chemscore.Hbonds>
donor molecule, donor type, donor heavy atom, donor atom, acceptor molecule, acceptor atom, score
      P1  H  8011  8017       L1    11  0.61
      L1  C    16    41       P1 10174  0.14
      L1  C    20    45       P1  8029  0.65

> <Gold.PLP.Chemscore.Internal.Correction>
0.1511

> <Gold.Rescore>
     Score         DG    S(hbond)    S(metal)    S(lipo)     H(rot)  DE(clash)    DE(int)     intcor
     10.85     -15.22       0.64        0.00     105.08       1.83       0.98       3.39       ----

> <Gold.Chemscore.Fitness>
10.8473

> <Gold.Chemscore.DG>
-15.2174

> <Gold.Chemscore.ZeroCoef>
-5.4800

> <Gold.Chemscore.Hbond>
0.6359

> <Gold.Chemscore.Metal>
0.0000

> <Gold.Chemscore.Lipo>
105.0815

> <Gold.Chemscore.Internal_Hbond>
0.0000

> <Gold.Chemscore.DEClash>
0.9823

> <Gold.Chemscore.DEInternal>
3.3879

> <Gold.Chemscore.Rot>
1.8286

> <Gold.Chemscore.Internal.Correction>
   9.000000E+99

> <Gold.Chemscore.Hbonds>
donor molecule, donor type, donor heavy atom, donor atom, acceptor molecule, acceptor atom, score
      P1  H  8011  8017       L1    11  0.58

> <Gold.Chemscore.Hbond.Weighted>
-2.1240

> <Gold.Chemscore.Metal.Weighted>
-0.0000

> <Gold.Chemscore.Lipo.Weighted>
-12.2945

> <Gold.Chemscore.Internal_Hbond.Weighted>
0.0000

> <Gold.Chemscore.DEClash.Weighted>
0.9823

> <Gold.Chemscore.DEInternal.Weighted>
3.3879

> <Gold.Chemscore.Rot.Weighted>
4.6811

> <Gold.Chemscore.Internal.Correction.Weighted>
   9.000000E+99

> <Gold.Protein.RotatedTorsions>
[ 6907 6896 6895 6894 ] final  122.42 input  -60.11 | X-H torsion
[ 7974 7965 7964 7962 ] final -135.79 input  175.53 | X-H torsion
[ 8008 7997 7996 7995 ] final  -25.53 input   59.86 | X-H torsion
[ 10167 10162 10161 10158 ] final -123.73 input  -65.29 | X-H torsion
[ 10718 10713 10712 10709 ] final  145.48 input   66.30 | X-H torsion
[ 10763 10752 10751 10750 ] final -125.61 input  -60.55 | X-H torsion
[ 11005 11000 10999 10996 ] final  154.18 input  -57.11 | X-H torsion

> <Gold.Protein.ActiveResidues>
 VAL166  LYS551  ARG553  GLY616  TRP617  ASP618  TYR619  PRO620  LYS621  CYS622 
 ASP623  PHE694  ASN695  SER759  ASP760  ASP761  ALA762  ILE779  LEU786  VAL792 
 PHE793  MET794  SER795  GLU796  ALA797  LYS798  CYS799  TRP800  GLU811  SER814 

> <Gold.Protein.RotatedAtoms>
  152.4245  133.7171  159.6511 H   0  0  0  0  0  0  0  0  0  0  0  0  # atno 6907 bound_to 6896
  150.8121  133.8392  159.3183 H   0  0  0  0  0  0  0  0  0  0  0  0  # atno 6908 bound_to 6896
  151.6099  135.1043  160.0130 H   0  0  0  0  0  0  0  0  0  0  0  0  # atno 6909 bound_to 6896
  144.8984  140.6737  143.5101 H   0  0  0  0  0  0  0  0  0  0  0  0  # atno 7974 bound_to 7965
  154.4471  140.1924  156.0633 H   0  0  0  0  0  0  0  0  0  0  0  0  # atno 8008 bound_to 7997
  156.0566  140.3302  155.7386 H   0  0  0  0  0  0  0  0  0  0  0  0  # atno 8009 bound_to 7997
  155.5476  140.0592  157.2848 H   0  0  0  0  0  0  0  0  0  0  0  0  # atno 8010 bound_to 7997
  140.0003  143.5547  152.2306 H   0  0  0  0  0  0  0  0  0  0  0  0  # atno 10167 bound_to 10162
  157.3448  131.0941  151.1051 H   0  0  0  0  0  0  0  0  0  0  0  0  # atno 10718 bound_to 10713
  154.8737  135.4023  154.3297 H   0  0  0  0  0  0  0  0  0  0  0  0  # atno 10763 bound_to 10752
  153.4112  135.7021  153.6363 H   0  0  0  0  0  0  0  0  0  0  0  0  # atno 10764 bound_to 10752
  153.5065  135.3716  155.2536 H   0  0  0  0  0  0  0  0  0  0  0  0  # atno 10765 bound_to 10752
  140.1466  134.8703  157.2400 H   0  0  0  0  0  0  0  0  0  0  0  0  # atno 11005 bound_to 11000
  145.3660  139.1670  143.4357 LP  0  0  0  0  0  0  0  0  0  0  0  0  # atno 17320 bound_to 7965
  146.3094  140.3727  142.8676 LP  0  0  0  0  0  0  0  0  0  0  0  0  # atno 17321 bound_to 7965
  139.6276  144.7639  151.2605 LP  0  0  0  0  0  0  0  0  0  0  0  0  # atno 17342 bound_to 10162
  140.7421  143.6536  150.8226 LP  0  0  0  0  0  0  0  0  0  0  0  0  # atno 17343 bound_to 10162
  157.2250  130.6498  149.5826 LP  0  0  0  0  0  0  0  0  0  0  0  0  # atno 17370 bound_to 10713
  155.9712  130.4617  150.6119 LP  0  0  0  0  0  0  0  0  0  0  0  0  # atno 17371 bound_to 10713
  140.2656  134.3519  155.7391 LP  0  0  0  0  0  0  0  0  0  0  0  0  # atno 17394 bound_to 11000
  141.2193  133.7394  156.9146 LP  0  0  0  0  0  0  0  0  0  0  0  0  # atno 17395 bound_to 11000

$$$$
