AV-unprocessed.smi:1941|AV-procd|sdf|7845|dock7
  -GOLD-   22720 9583D 1   1.00000     0.00000
 Structure written by MMmdl.
 40 41  0  0  0  0  0  0  0  0  1 V2000
  145.5772  140.7969  158.2280 C   0  0  0  0  0  0  0  0  0  0  0  0
  145.6295  140.2740  156.8337 C   0  0  0  0  0  0  0  0  0  0  0  0
  146.6784  140.4354  156.0229 N   0  0  0  0  0  0  0  0  0  0  0  0
  146.4820  139.8552  154.7658 C   0  0  0  0  0  0  0  0  0  0  0  0
  147.5581  139.9410  153.7264 C   0  0  0  0  0  0  0  0  0  0  0  0
  147.9441  141.3946  153.4064 C   0  0  0  0  0  0  0  0  0  0  0  0
  148.6971  142.0011  154.4982 N   0  0  0  0  0  0  0  0  0  0  0  0
  149.7508  141.4410  155.1080 C   0  0  0  0  0  0  0  0  0  0  0  0
  150.2211  140.3453  154.8018 O   0  0  0  0  0  0  0  0  0  0  0  0
  150.2242  142.2197  156.0914 N   0  0  0  0  0  0  0  0  0  0  0  0
  151.3563  141.9074  156.9620 C   0  0  2  0  0  0  0  0  0  0  0  0
  151.1720  140.4945  157.5341 C   0  0  0  0  0  0  0  0  0  0  0  0
  151.4765  142.9675  158.0741 C   0  0  2  0  0  0  0  0  0  0  0  0
  151.8715  144.3640  157.5916 C   0  0  0  0  0  0  0  0  0  0  0  0
  152.5020  144.9983  158.8210 C   0  0  0  0  0  0  0  0  0  0  0  0
  152.8097  143.8106  159.7380 C   0  0  0  0  0  0  0  0  0  0  0  0
  152.5410  142.6535  158.9582 O   0  0  0  0  0  0  0  0  0  0  0  0
  145.2598  139.2433  154.6378 C   0  0  0  0  0  0  0  0  0  0  0  0
  144.3109  139.3756  156.0928 S   0  0  0  0  0  0  0  0  0  0  0  0
  146.3757  141.5203  158.3966 H   0  0  0  0  0  0  0  0  0  0  0  0
  145.6915  139.9772  158.9371 H   0  0  0  0  0  0  0  0  0  0  0  0
  144.6199  141.2863  158.4077 H   0  0  0  0  0  0  0  0  0  0  0  0
  148.4419  139.3978  154.0632 H   0  0  0  0  0  0  0  0  0  0  0  0
  147.2290  139.4384  152.8160 H   0  0  0  0  0  0  0  0  0  0  0  0
  148.5191  141.4450  152.4800 H   0  0  0  0  0  0  0  0  0  0  0  0
  147.0446  141.9895  153.2460 H   0  0  0  0  0  0  0  0  0  0  0  0
  148.3866  142.9068  154.8183 H   0  0  0  0  0  0  0  0  0  0  0  0
  149.7629  143.1023  156.2554 H   0  0  0  0  0  0  0  0  0  0  0  0
  152.2844  141.9117  156.3876 H   0  0  0  0  0  0  0  0  0  0  0  0
  152.0093  140.2177  158.1750 H   0  0  0  0  0  0  0  0  0  0  0  0
  151.1124  139.7535  156.7363 H   0  0  0  0  0  0  0  0  0  0  0  0
  150.2603  140.4206  158.1278 H   0  0  0  0  0  0  0  0  0  0  0  0
  150.5486  143.0246  158.6469 H   0  0  0  0  0  0  0  0  0  0  0  0
  152.6156  144.2897  156.7972 H   0  0  0  0  0  0  0  0  0  0  0  0
  151.0254  144.9337  157.2067 H   0  0  0  0  0  0  0  0  0  0  0  0
  153.4029  145.5530  158.5571 H   0  0  0  0  0  0  0  0  0  0  0  0
  151.8128  145.6881  159.3091 H   0  0  0  0  0  0  0  0  0  0  0  0
  153.8411  143.8113  160.0915 H   0  0  0  0  0  0  0  0  0  0  0  0
  152.1524  143.8173  160.6085 H   0  0  0  0  0  0  0  0  0  0  0  0
  144.8611  138.7244  153.7787 H   0  0  0  0  0  0  0  0  0  0  0  0
  1  2  1  0  0  0  0
  1 20  1  0  0  0  0
  1 21  1  0  0  0  0
  1 22  1  0  0  0  0
  2 19  1  0  0  0  0
  2  3  2  0  0  0  0
  3  4  1  0  0  0  0
  4  5  1  0  0  0  0
  4 18  2  0  0  0  0
  5  6  1  0  0  0  0
  5 23  1  0  0  0  0
  5 24  1  0  0  0  0
  6  7  1  0  0  0  0
  6 25  1  0  0  0  0
  6 26  1  0  0  0  0
  7  8  1  0  0  0  0
  7 27  1  0  0  0  0
  8  9  2  0  0  0  0
  8 10  1  0  0  0  0
 10 11  1  0  0  0  0
 10 28  1  0  0  0  0
 11 12  1  0  0  0  0
 11 13  1  0  0  0  0
 11 29  1  0  0  0  0
 12 30  1  0  0  0  0
 12 31  1  0  0  0  0
 12 32  1  0  0  0  0
 13 17  1  0  0  0  0
 13 14  1  0  0  0  0
 13 33  1  0  0  0  0
 14 15  1  0  0  0  0
 14 34  1  0  0  0  0
 14 35  1  0  0  0  0
 15 16  1  0  0  0  0
 15 36  1  0  0  0  0
 15 37  1  0  0  0  0
 16 17  1  0  0  0  0
 16 38  1  0  0  0  0
 16 39  1  0  0  0  0
 18 19  1  0  0  0  0
 18 40  1  0  0  0  0
M  END
> <s_m_source_file>
AV-unprocessed.smi

> <i_m_source_file_index>
1941

> <i_lp_mmshare_version>
43012

> <i_f3d_flags>
0

> <s_epik_input>
W0NIM11jMW5jKFtjSF1zMSlbQ0gyXVtDSDJdW05IXUMoPU8pW05IXVtDQEhdKFtDSDNdKVtDQEBIXTJbQ0gyXVtDSDJdW0NIMl1PMg==

> <s_epik_cmdline>
J2VwaWtfcHl0aG9uJywgJy1waCcsICc3LjAnLCAnLXRuJywgJzgnLCAnLW1hJywgJzIwMCcsICctbWV0YWxfYmluZGluZycsICctaW1hZScsICc8aW5maWxlLm1hZT4nLCAnLW9tYWUnLCAnPG91dGZpbGUubWFlPic=

> <r_epik_Ionization_Penalty>
0.00195486

> <r_epik_Ionization_Penalty_Charging>
0

> <r_epik_Ionization_Penalty_Neutral>
0.00195486

> <r_epik_State_Penalty>
0.00129472

> <r_epik_Charging_Adjusted_Penalty>
0.00129472

> <i_epik_Tot_Q>
0

> <i_epik_Tot_abs_Q>
0

> <r_epik_Metal_State_Penalty>
-0

> <b_epik_Metal_Only>
0

> <s_lp_Force_Field>
OPLS_2005

> <r_lp_Energy>
10.4909

> <b_lp_Chiralities_Consistent>
1

> <s_lp_Variant>
AV-unprocessed.smi:1941-1

> <Gold.Version>
5.8.1

> <Gold.Id.Protein>
6NUR|6NUR_protein|mol2

> <Gold.PLP.Fitness>
40.8506

> <Gold.PLP.PLP>
-31.1099

> <Gold.PLP.part.hbond>
-3.0000

> <Gold.PLP.part.metal>
0.0000

> <Gold.PLP.part.buried>
-3.4241

> <Gold.PLP.part.nonpolar>
-23.9891

> <Gold.PLP.part.repulsive>
0.4244

> <Gold.PLP.ligand.clash>
0.0000

> <Gold.PLP.ligand.torsion>
0.2117

> <Gold.PLP.Chemscore.Hbond>
2.8642

> <Gold.PLP.Chemscore.CHOScore>
0.5083

> <Gold.PLP.Chemscore.Metal>
0.0000

> <Gold.Chemscore.Hbonds>
donor molecule, donor type, donor heavy atom, donor atom, acceptor molecule, acceptor atom, score
      L1  H     7    27       P1  8028  0.97
      L1  H    10    28       P1  8028  1.00
      P1  H  7989  7998       L1     9  1.00
      L1  C    18    40       P1 10175  0.50

> <Gold.PLP.Chemscore.Internal.Correction>
0.0466

> <Gold.Rescore>
     Score         DG    S(hbond)    S(metal)    S(lipo)     H(rot)  DE(clash)    DE(int)     intcor
     16.07     -18.75       2.37        0.00      82.94       1.69       0.06       2.63       ----

> <Gold.Chemscore.Fitness>
16.0681

> <Gold.Chemscore.DG>
-18.7535

> <Gold.Chemscore.ZeroCoef>
-5.4800

> <Gold.Chemscore.Hbond>
2.3657

> <Gold.Chemscore.Metal>
0.0000

> <Gold.Chemscore.Lipo>
82.9416

> <Gold.Chemscore.Internal_Hbond>
0.0000

> <Gold.Chemscore.DEClash>
0.0586

> <Gold.Chemscore.DEInternal>
2.6267

> <Gold.Chemscore.Rot>
1.6923

> <Gold.Chemscore.Internal.Correction>
   9.000000E+99

> <Gold.Chemscore.Hbonds>
donor molecule, donor type, donor heavy atom, donor atom, acceptor molecule, acceptor atom, score
      L1  H     7    27       P1  8028  0.86
      L1  H    10    28       P1  8028  0.96
      P1  H  7989  7998       L1     9  0.28

> <Gold.Chemscore.Hbond.Weighted>
-7.9016

> <Gold.Chemscore.Metal.Weighted>
-0.0000

> <Gold.Chemscore.Lipo.Weighted>
-9.7042

> <Gold.Chemscore.Internal_Hbond.Weighted>
0.0000

> <Gold.Chemscore.DEClash.Weighted>
0.0586

> <Gold.Chemscore.DEInternal.Weighted>
2.6267

> <Gold.Chemscore.Rot.Weighted>
4.3323

> <Gold.Chemscore.Internal.Correction.Weighted>
   9.000000E+99

> <Gold.Protein.RotatedTorsions>
[ 6907 6896 6895 6894 ] final   85.52 input  -60.11 | X-H torsion
[ 7974 7965 7964 7962 ] final  170.42 input  175.53 | X-H torsion
[ 8008 7997 7996 7995 ] final -154.24 input   59.86 | X-H torsion
[ 10167 10162 10161 10158 ] final   76.04 input  -65.29 | X-H torsion
[ 10718 10713 10712 10709 ] final -122.36 input   66.30 | X-H torsion
[ 10763 10752 10751 10750 ] final  132.82 input  -60.55 | X-H torsion
[ 11005 11000 10999 10996 ] final -141.99 input  -57.11 | X-H torsion

> <Gold.Protein.ActiveResidues>
 VAL166  LYS551  ARG553  GLY616  TRP617  ASP618  TYR619  PRO620  LYS621  CYS622 
 ASP623  PHE694  ASN695  SER759  ASP760  ASP761  ALA762  ILE779  LEU786  VAL792 
 PHE793  MET794  SER795  GLU796  ALA797  LYS798  CYS799  TRP800  GLU811  SER814 

> <Gold.Protein.RotatedAtoms>
  152.5376  134.2573  159.8921 H   0  0  0  0  0  0  0  0  0  0  0  0  # atno 6907 bound_to 6896
  151.2534  133.4332  159.2620 H   0  0  0  0  0  0  0  0  0  0  0  0  # atno 6908 bound_to 6896
  151.0518  134.9692  159.8272 H   0  0  0  0  0  0  0  0  0  0  0  0  # atno 6909 bound_to 6896
  144.7324  139.9200  143.6419 H   0  0  0  0  0  0  0  0  0  0  0  0  # atno 7974 bound_to 7965
  155.6833  140.0747  157.2476 H   0  0  0  0  0  0  0  0  0  0  0  0  # atno 8008 bound_to 7997
  154.4101  140.1678  156.2058 H   0  0  0  0  0  0  0  0  0  0  0  0  # atno 8009 bound_to 7997
  155.9516  140.3377  155.6415 H   0  0  0  0  0  0  0  0  0  0  0  0  # atno 8010 bound_to 7997
  139.9965  144.5718  150.7773 H   0  0  0  0  0  0  0  0  0  0  0  0  # atno 10167 bound_to 10162
  156.1412  130.6467  150.9774 H   0  0  0  0  0  0  0  0  0  0  0  0  # atno 10718 bound_to 10713
  153.7969  135.3147  155.3385 H   0  0  0  0  0  0  0  0  0  0  0  0  # atno 10763 bound_to 10752
  154.8104  135.4671  154.0504 H   0  0  0  0  0  0  0  0  0  0  0  0  # atno 10764 bound_to 10752
  153.1840  135.6898  153.8527 H   0  0  0  0  0  0  0  0  0  0  0  0  # atno 10765 bound_to 10752
  140.8270  134.2563  157.4874 H   0  0  0  0  0  0  0  0  0  0  0  0  # atno 11005 bound_to 11000
  146.0937  139.3928  143.0390 LP  0  0  0  0  0  0  0  0  0  0  0  0  # atno 17320 bound_to 7965
  145.7676  140.9910  143.1167 LP  0  0  0  0  0  0  0  0  0  0  0  0  # atno 17321 bound_to 7965
  140.7435  143.2847  151.3497 LP  0  0  0  0  0  0  0  0  0  0  0  0  # atno 17342 bound_to 10162
  139.6302  144.0735  152.2470 LP  0  0  0  0  0  0  0  0  0  0  0  0  # atno 17343 bound_to 10162
  157.6577  131.0886  150.7909 LP  0  0  0  0  0  0  0  0  0  0  0  0  # atno 17370 bound_to 10713
  156.7985  130.4913  149.5373 LP  0  0  0  0  0  0  0  0  0  0  0  0  # atno 17371 bound_to 10713
  139.8706  134.9566  156.4242 LP  0  0  0  0  0  0  0  0  0  0  0  0  # atno 17394 bound_to 11000
  140.9038  133.7760  155.9712 LP  0  0  0  0  0  0  0  0  0  0  0  0  # atno 17395 bound_to 11000

$$$$
