AV-unprocessed.smi:69|AV-procd|sdf|651|dock1
  -GOLD-   2262016543D 1   1.00000     0.00000
 Structure written by MMmdl.
 32 34  0  0  0  0  0  0  0  0  1 V2000
  154.2904  137.3651  156.7864 N   0  0  0  0  0  0  0  0  0  0  0  0
  153.1927  138.1337  156.7865 C   0  0  0  0  0  0  0  0  0  0  0  0
  153.1881  139.2486  157.5548 N   0  0  0  0  0  0  0  0  0  0  0  0
  152.1059  140.0345  157.5704 C   0  0  0  0  0  0  0  0  0  0  0  0
  150.9549  139.8861  156.9083 N   0  0  0  0  0  0  0  0  0  0  0  0
  150.9645  138.7597  156.1371 C   0  0  0  0  0  0  0  0  0  0  0  0
  152.0383  137.8357  156.0196 C   0  0  0  0  0  0  0  0  0  0  0  0
  151.6905  136.8165  155.1421 N   0  0  0  0  0  0  0  0  0  0  0  0
  150.4786  137.1268  154.7642 C   0  0  0  0  0  0  0  0  0  0  0  0
  149.9674  138.2822  155.3167 N   0  0  0  0  0  0  0  0  0  0  0  0
  148.6361  138.9244  155.0952 C   0  0  2  0  0  0  0  0  0  0  0  0
  147.9395  138.1698  154.1612 O   0  0  0  0  0  0  0  0  0  0  0  0
  146.9573  139.0100  153.5774 C   0  0  2  0  0  0  0  0  0  0  0  0
  146.4516  138.3930  152.2648 C   0  0  0  0  0  0  0  0  0  0  0  0
  147.4437  138.4990  151.2665 O   0  0  0  0  0  0  0  0  0  0  0  0
  147.7143  140.3320  153.3826 C   0  0  1  0  0  0  0  0  0  0  0  0
  146.8230  141.4229  153.4982 O   0  0  0  0  0  0  0  0  0  0  0  0
  148.7390  140.3517  154.5185 C   0  0  2  0  0  0  0  0  0  0  0  0
  150.0259  140.6870  154.0287 O   0  0  0  0  0  0  0  0  0  0  0  0
  148.1275  138.8849  156.0602 H   0  0  0  0  0  0  0  0  0  0  0  0
  146.1404  139.1470  154.2901 H   0  0  0  0  0  0  0  0  0  0  0  0
  148.2078  140.3494  152.4093 H   0  0  0  0  0  0  0  0  0  0  0  0
  148.4695  141.0544  155.3087 H   0  0  0  0  0  0  0  0  0  0  0  0
  154.3186  136.5292  156.2204 H   0  0  0  0  0  0  0  0  0  0  0  0
  155.0869  137.6241  157.3504 H   0  0  0  0  0  0  0  0  0  0  0  0
  152.1718  140.9072  158.2032 H   0  0  0  0  0  0  0  0  0  0  0  0
  149.9237  136.5188  154.0643 H   0  0  0  0  0  0  0  0  0  0  0  0
  146.2428  137.3323  152.4061 H   0  0  0  0  0  0  0  0  0  0  0  0
  145.5261  138.8654  151.9342 H   0  0  0  0  0  0  0  0  0  0  0  0
  148.0877  139.1308  151.5482 H   0  0  0  0  0  0  0  0  0  0  0  0
  146.1775  141.2134  154.1563 H   0  0  0  0  0  0  0  0  0  0  0  0
  150.0241  140.5836  153.0894 H   0  0  0  0  0  0  0  0  0  0  0  0
  1  2  1  0  0  0  0
  1 24  1  0  0  0  0
  1 25  1  0  0  0  0
  2  7  1  0  0  0  0
  2  3  2  0  0  0  0
  3  4  1  0  0  0  0
  4  5  2  0  0  0  0
  4 26  1  0  0  0  0
  5  6  1  0  0  0  0
  6 10  1  0  0  0  0
  6  7  2  0  0  0  0
  7  8  1  0  0  0  0
  8  9  2  0  0  0  0
  9 10  1  0  0  0  0
  9 27  1  0  0  0  0
 10 11  1  0  0  0  0
 11 20  1  0  0  0  0
 11 18  1  0  0  0  0
 11 12  1  0  0  0  0
 12 13  1  0  0  0  0
 13 21  1  0  0  0  0
 13 14  1  0  0  0  0
 13 16  1  0  0  0  0
 14 15  1  0  0  0  0
 14 28  1  0  0  0  0
 14 29  1  0  0  0  0
 15 30  1  0  0  0  0
 16 22  1  0  0  0  0
 16 17  1  0  0  0  0
 16 18  1  0  0  0  0
 17 31  1  0  0  0  0
 18 23  1  0  0  0  0
 18 19  1  0  0  0  0
 19 32  1  0  0  0  0
M  END
> <s_m_source_file>
AV-unprocessed.smi

> <i_m_source_file_index>
69

> <i_lp_mmshare_version>
43012

> <i_f3d_flags>
0

> <s_epik_input>
bjFbY0hdbmMoW05IMl0pYyhjMTIpbltjSF1uMltDQEBIXTNPW0NASF0oW0NIMl1bT0hdKVtDQEBIXShbT0hdKVtDQEhdM1tPSF0=

> <s_epik_cmdline>
J2VwaWtfcHl0aG9uJywgJy1waCcsICc3LjAnLCAnLXRuJywgJzgnLCAnLW1hJywgJzIwMCcsICctbWV0YWxfYmluZGluZycsICctaW1hZScsICc8aW5maWxlLm1hZT4nLCAnLW9tYWUnLCAnPG91dGZpbGUubWFlPic=

> <r_lp_tautomer_probability>
1

> <r_epik_Ionization_Penalty>
0.000428445

> <r_epik_Ionization_Penalty_Charging>
0

> <r_epik_Ionization_Penalty_Neutral>
0.000428445

> <r_epik_State_Penalty>
-0

> <r_epik_Charging_Adjusted_Penalty>
0

> <i_epik_Tot_Q>
0

> <i_epik_Tot_abs_Q>
0

> <r_epik_Metal_State_Penalty>
-0

> <b_epik_Metal_Only>
0

> <s_epik_Chemistry_Notes>
This compound contains an acetal/aminal-like group ( X-CH(R)-Y where X, Y are N, S, or O) that may be acid/base labile, releasing an aldehyde.

> <s_lp_Force_Field>
OPLS_2005

> <r_lp_Energy>
36.244

> <b_lp_Chiralities_Consistent>
1

> <s_lp_Variant>
AV-unprocessed.smi:69-9

> <Gold.Version>
5.8.1

> <Gold.Id.Protein>
6NUR|6NUR_protein|mol2

> <Gold.PLP.Fitness>
41.3111

> <Gold.PLP.PLP>
-23.7491

> <Gold.PLP.part.hbond>
-7.0444

> <Gold.PLP.part.metal>
0.0000

> <Gold.PLP.part.buried>
0.8630

> <Gold.PLP.part.nonpolar>
-17.3788

> <Gold.PLP.part.repulsive>
0.4886

> <Gold.PLP.ligand.clash>
0.0000

> <Gold.PLP.ligand.torsion>
0.1176

> <Gold.PLP.Chemscore.Hbond>
4.9280

> <Gold.PLP.Chemscore.CHOScore>
1.0000

> <Gold.PLP.Chemscore.Metal>
0.0000

> <Gold.Chemscore.Hbonds>
donor molecule, donor type, donor heavy atom, donor atom, acceptor molecule, acceptor atom, score
      L1  H    15    30       P1  7957  0.91
      L1  H    19    32       P1  7957  0.98
      P1  H  7954  7966       L1    15  1.00
      P1  H  7997  8008       L1     3  0.90
      P1  H 10752 10764       L1     8  1.00
      L1  C     9    27       P1  7948  1.00

> <Gold.PLP.Chemscore.Internal.Correction>
0.0132

> <Gold.Rescore>
     Score         DG    S(hbond)    S(metal)    S(lipo)     H(rot)  DE(clash)    DE(int)     intcor
      8.29      -9.91       3.21        0.00      34.21       4.03       0.65       0.97       ----

> <Gold.Chemscore.Fitness>
8.2915

> <Gold.Chemscore.DG>
-9.9056

> <Gold.Chemscore.ZeroCoef>
-5.4800

> <Gold.Chemscore.Hbond>
3.2138

> <Gold.Chemscore.Metal>
0.0000

> <Gold.Chemscore.Lipo>
34.2083

> <Gold.Chemscore.Internal_Hbond>
0.0000

> <Gold.Chemscore.DEClash>
0.6465

> <Gold.Chemscore.DEInternal>
0.9675

> <Gold.Chemscore.Rot>
4.0277

> <Gold.Chemscore.Internal.Correction>
   9.000000E+99

> <Gold.Chemscore.Hbonds>
donor molecule, donor type, donor heavy atom, donor atom, acceptor molecule, acceptor atom, score
      L1  H    15    30       P1  7957  0.79
      L1  H    19    32       P1  7957  0.92
      P1  H  7954  7966       L1    15  0.29
      P1  H  7997  8008       L1     3  0.13
      P1  H 10752 10764       L1     8  0.98

> <Gold.Chemscore.Hbond.Weighted>
-10.7342

> <Gold.Chemscore.Metal.Weighted>
-0.0000

> <Gold.Chemscore.Lipo.Weighted>
-4.0024

> <Gold.Chemscore.Internal_Hbond.Weighted>
0.0000

> <Gold.Chemscore.DEClash.Weighted>
0.6465

> <Gold.Chemscore.DEInternal.Weighted>
0.9675

> <Gold.Chemscore.Rot.Weighted>
10.3110

> <Gold.Chemscore.Internal.Correction.Weighted>
   9.000000E+99

> <Gold.Protein.RotatedTorsions>
[ 6907 6896 6895 6894 ] final  -95.95 input  -60.11 | X-H torsion
[ 7974 7965 7964 7962 ] final   46.74 input  175.53 | X-H torsion
[ 8008 7997 7996 7995 ] final  -68.34 input   59.86 | X-H torsion
[ 10167 10162 10161 10158 ] final    0.01 input  -65.29 | X-H torsion
[ 10718 10713 10712 10709 ] final   36.58 input   66.30 | X-H torsion
[ 10763 10752 10751 10750 ] final  -64.68 input  -60.55 | X-H torsion
[ 11005 11000 10999 10996 ] final   35.90 input  -57.11 | X-H torsion

> <Gold.Protein.ActiveResidues>
 VAL166  LYS551  ARG553  GLY616  TRP617  ASP618  TYR619  PRO620  LYS621  CYS622 
 ASP623  PHE694  ASN695  SER759  ASP760  ASP761  ALA762  ILE779  LEU786  VAL792 
 PHE793  MET794  SER795  GLU796  ALA797  LYS798  CYS799  TRP800  GLU811  SER814 

> <Gold.Protein.RotatedAtoms>
  150.6976  134.1578  159.4164 H   0  0  0  0  0  0  0  0  0  0  0  0  # atno 6907 bound_to 6896
  151.9559  135.0144  160.0554 H   0  0  0  0  0  0  0  0  0  0  0  0  # atno 6908 bound_to 6896
  152.1970  133.4778  159.5075 H   0  0  0  0  0  0  0  0  0  0  0  0  # atno 6909 bound_to 6896
  146.0362  139.4823  142.9807 H   0  0  0  0  0  0  0  0  0  0  0  0  # atno 7974 bound_to 7965
  154.4861  140.0875  156.7489 H   0  0  0  0  0  0  0  0  0  0  0  0  # atno 8008 bound_to 7997
  155.4347  140.3451  155.4265 H   0  0  0  0  0  0  0  0  0  0  0  0  # atno 8009 bound_to 7997
  156.1263  140.1488  156.9119 H   0  0  0  0  0  0  0  0  0  0  0  0  # atno 8010 bound_to 7997
  140.6747  143.6948  150.7998 H   0  0  0  0  0  0  0  0  0  0  0  0  # atno 10167 bound_to 10162
  157.3366  130.7526  149.6883 H   0  0  0  0  0  0  0  0  0  0  0  0  # atno 10718 bound_to 10713
  154.3338  135.6171  153.5564 H   0  0  0  0  0  0  0  0  0  0  0  0  # atno 10763 bound_to 10752
  152.9809  135.5753  154.4931 H   0  0  0  0  0  0  0  0  0  0  0  0  # atno 10764 bound_to 10752
  154.4623  135.2856  155.1681 H   0  0  0  0  0  0  0  0  0  0  0  0  # atno 10765 bound_to 10752
  140.2380  134.3449  155.7937 H   0  0  0  0  0  0  0  0  0  0  0  0  # atno 11005 bound_to 11000
  145.6960  141.0150  143.1529 LP  0  0  0  0  0  0  0  0  0  0  0  0  # atno 17320 bound_to 7965
  144.7053  139.8589  143.7432 LP  0  0  0  0  0  0  0  0  0  0  0  0  # atno 17321 bound_to 7965
  140.0640  143.5127  152.2613 LP  0  0  0  0  0  0  0  0  0  0  0  0  # atno 17342 bound_to 10162
  139.6034  144.7589  151.3119 LP  0  0  0  0  0  0  0  0  0  0  0  0  # atno 17343 bound_to 10162
  155.9702  130.4180  150.4305 LP  0  0  0  0  0  0  0  0  0  0  0  0  # atno 17370 bound_to 10713
  157.2345  131.0511  151.2472 LP  0  0  0  0  0  0  0  0  0  0  0  0  # atno 17371 bound_to 10713
  141.2213  133.7282  156.8839 LP  0  0  0  0  0  0  0  0  0  0  0  0  # atno 17394 bound_to 11000
  140.1682  134.9118  157.2801 LP  0  0  0  0  0  0  0  0  0  0  0  0  # atno 17395 bound_to 11000

$$$$
