AV-unprocessed.smi:123|AV-procd|sdf|1144|dock4
  -GOLD-   2262018273D 1   1.00000     0.00000
 Structure written by MMmdl.
 43 45  0  0  0  0  0  0  0  0  1 V2000
  152.4906  138.2080  154.9461 C   0  0  0  0  0  0  0  0  0  0  0  0
  151.0791  138.7833  155.1275 C   0  0  1  0  0  0  0  0  0  0  0  0
  150.2140  137.7778  155.7301 N   0  0  0  0  0  0  0  0  0  0  0  0
  150.1742  136.4668  155.4388 C   0  0  0  0  0  0  0  0  0  0  0  0
  150.9381  135.9353  154.6341 O   0  0  0  0  0  0  0  0  0  0  0  0
  149.1075  135.6091  156.1459 C   0  0  0  0  0  0  0  0  0  0  0  0
  148.3171  136.3363  157.1675 N   0  0  0  0  0  0  0  0  0  0  0  0
  147.2943  137.2187  156.7397 C   0  0  0  0  0  0  0  0  0  0  0  0
  147.0732  137.4087  155.5431 O   0  0  0  0  0  0  0  0  0  0  0  0
  146.5295  137.8592  157.8039 C   0  0  0  0  0  0  0  0  0  0  0  0
  145.5550  138.7300  157.4908 F   0  0  0  0  0  0  0  0  0  0  0  0
  146.7790  137.5859  159.1011 C   0  0  0  0  0  0  0  0  0  0  0  0
  147.7604  136.6972  159.5043 N   0  0  0  0  0  0  0  0  0  0  0  0
  148.0092  136.3758  160.9645 C   0  0  2  0  0  0  0  0  0  0  0  0
  147.3315  135.0443  161.3509 C   0  0  0  0  0  0  0  0  0  0  0  0
  146.4719  135.4294  162.5391 C   0  0  0  0  0  0  0  0  0  0  0  0
  146.1919  136.8995  162.2676 C   0  0  0  0  0  0  0  0  0  0  0  0
  147.4402  137.3656  161.7734 O   0  0  0  0  0  0  0  0  0  0  0  0
  148.5729  136.0715  158.5344 C   0  0  0  0  0  0  0  0  0  0  0  0
  149.4700  135.2960  158.8726 O   0  0  0  0  0  0  0  0  0  0  0  0
  151.0727  140.0208  155.9667 C   0  0  0  0  0  0  0  0  0  0  0  0
  151.3753  140.2689  157.2771 C   0  0  0  0  0  0  0  0  0  0  0  0
  151.1675  141.6612  157.4815 C   0  0  0  0  0  0  0  0  0  0  0  0
  150.7455  142.1597  156.2822 C   0  0  0  0  0  0  0  0  0  0  0  0
  150.6787  141.1726  155.3482 O   0  0  0  0  0  0  0  0  0  0  0  0
  153.1515  138.9363  154.4754 H   0  0  0  0  0  0  0  0  0  0  0  0
  152.4759  137.3201  154.3130 H   0  0  0  0  0  0  0  0  0  0  0  0
  152.9321  137.9274  155.9032 H   0  0  0  0  0  0  0  0  0  0  0  0
  150.6907  139.0468  154.1421 H   0  0  0  0  0  0  0  0  0  0  0  0
  149.5488  138.1185  156.4088 H   0  0  0  0  0  0  0  0  0  0  0  0
  148.4486  135.1894  155.3841 H   0  0  0  0  0  0  0  0  0  0  0  0
  149.6029  134.7358  156.5725 H   0  0  0  0  0  0  0  0  0  0  0  0
  146.1753  138.0936  159.8378 H   0  0  0  0  0  0  0  0  0  0  0  0
  149.0944  136.3785  161.0820 H   0  0  0  0  0  0  0  0  0  0  0  0
  146.7080  134.6829  160.5322 H   0  0  0  0  0  0  0  0  0  0  0  0
  148.0743  134.2831  161.5909 H   0  0  0  0  0  0  0  0  0  0  0  0
  145.5650  134.8299  162.6224 H   0  0  0  0  0  0  0  0  0  0  0  0
  147.0405  135.3224  163.4638 H   0  0  0  0  0  0  0  0  0  0  0  0
  145.4165  137.0142  161.5087 H   0  0  0  0  0  0  0  0  0  0  0  0
  145.8850  137.4438  163.1607 H   0  0  0  0  0  0  0  0  0  0  0  0
  151.7094  139.5381  157.9988 H   0  0  0  0  0  0  0  0  0  0  0  0
  151.3076  142.2260  158.3913 H   0  0  0  0  0  0  0  0  0  0  0  0
  150.4653  143.1434  155.9351 H   0  0  0  0  0  0  0  0  0  0  0  0
  1  2  1  0  0  0  0
  1 26  1  0  0  0  0
  1 27  1  0  0  0  0
  1 28  1  0  0  0  0
  2  3  1  0  0  0  0
  2 21  1  0  0  0  0
  2 29  1  0  0  0  0
  3  4  1  0  0  0  0
  3 30  1  0  0  0  0
  4  5  2  0  0  0  0
  4  6  1  0  0  0  0
  6  7  1  0  0  0  0
  6 31  1  0  0  0  0
  6 32  1  0  0  0  0
  7 19  1  0  0  0  0
  7  8  1  0  0  0  0
  8  9  2  0  0  0  0
  8 10  1  0  0  0  0
 10 11  1  0  0  0  0
 10 12  2  0  0  0  0
 12 13  1  0  0  0  0
 12 33  1  0  0  0  0
 13 14  1  0  0  0  0
 13 19  1  0  0  0  0
 14 18  1  0  0  0  0
 14 15  1  0  0  0  0
 14 34  1  0  0  0  0
 15 16  1  0  0  0  0
 15 35  1  0  0  0  0
 15 36  1  0  0  0  0
 16 17  1  0  0  0  0
 16 37  1  0  0  0  0
 16 38  1  0  0  0  0
 17 18  1  0  0  0  0
 17 39  1  0  0  0  0
 17 40  1  0  0  0  0
 19 20  2  0  0  0  0
 21 25  1  0  0  0  0
 21 22  2  0  0  0  0
 22 23  1  0  0  0  0
 22 41  1  0  0  0  0
 23 24  2  0  0  0  0
 23 42  1  0  0  0  0
 24 25  1  0  0  0  0
 24 43  1  0  0  0  0
M  END
> <s_m_source_file>
AV-unprocessed.smi

> <i_m_source_file_index>
123

> <i_lp_mmshare_version>
43012

> <i_f3d_flags>
0

> <s_epik_input>
bzFbY0hdW2NIXVtjSF1jMVtDQEhdKFtDSDNdKVtOSF1DKD1PKVtDSDJdbjJjKD1PKWMoRilbY0hdbihjMj1PKVtDQEBIXTNbQ0gyXVtDSDJdW0NIMl1PMw==

> <s_epik_cmdline>
J2VwaWtfcHl0aG9uJywgJy1waCcsICc3LjAnLCAnLXRuJywgJzgnLCAnLW1hJywgJzIwMCcsICctbWV0YWxfYmluZGluZycsICctaW1hZScsICc8aW5maWxlLm1hZT4nLCAnLW9tYWUnLCAnPG91dGZpbGUubWFlPic=

> <r_lp_tautomer_probability>
1

> <r_epik_Ionization_Penalty>
2.31906e-08

> <r_epik_Ionization_Penalty_Charging>
3.85846e-09

> <r_epik_Ionization_Penalty_Neutral>
1.93321e-08

> <r_epik_State_Penalty>
-0

> <r_epik_Charging_Adjusted_Penalty>
3.85846e-09

> <i_epik_Tot_Q>
0

> <i_epik_Tot_abs_Q>
0

> <r_epik_Metal_State_Penalty>
-0

> <b_epik_Metal_Only>
0

> <s_epik_Chemistry_Notes>
This compound contains an acetal/aminal-like group ( X-CH(R)-Y where X, Y are N, S, or O) that may be acid/base labile, releasing an aldehyde.

> <s_lp_Force_Field>
OPLS_2005

> <r_lp_Energy>
20.7844

> <b_lp_Chiralities_Consistent>
1

> <s_lp_Variant>
AV-unprocessed.smi:123-2

> <Gold.Version>
5.8.1

> <Gold.Id.Protein>
6NUR|6NUR_protein|mol2

> <Gold.PLP.Fitness>
48.4307

> <Gold.PLP.PLP>
-34.6652

> <Gold.PLP.part.hbond>
-4.9474

> <Gold.PLP.part.metal>
0.0000

> <Gold.PLP.part.buried>
-3.3334

> <Gold.PLP.part.nonpolar>
-27.6828

> <Gold.PLP.part.repulsive>
1.6134

> <Gold.PLP.ligand.clash>
0.0000

> <Gold.PLP.ligand.torsion>
1.0216

> <Gold.PLP.Chemscore.Hbond>
4.2581

> <Gold.PLP.Chemscore.CHOScore>
1.0000

> <Gold.PLP.Chemscore.Metal>
0.0000

> <Gold.Chemscore.Hbonds>
donor molecule, donor type, donor heavy atom, donor atom, acceptor molecule, acceptor atom, score
      P1  H  6896  6909       L1    20  1.00
      P1  H  6931  6943       L1    18  0.55
      P1  H  6934  6947       L1    18  0.74
      P1  H  7989  7998       L1    25  0.51
      P1  H 10752 10764       L1     5  0.81
      L1  C    24    43       P1  8028  1.00

> <Gold.PLP.Chemscore.Internal.Correction>
0.0342

> <Gold.Rescore>
     Score         DG    S(hbond)    S(metal)    S(lipo)     H(rot)  DE(clash)    DE(int)     intcor
     14.35     -17.15       2.89        0.00      66.04       2.23       0.12       2.68       ----

> <Gold.Chemscore.Fitness>
14.3542

> <Gold.Chemscore.DG>
-17.1519

> <Gold.Chemscore.ZeroCoef>
-5.4800

> <Gold.Chemscore.Hbond>
2.8939

> <Gold.Chemscore.Metal>
0.0000

> <Gold.Chemscore.Lipo>
66.0433

> <Gold.Chemscore.Internal_Hbond>
0.0000

> <Gold.Chemscore.DEClash>
0.1214

> <Gold.Chemscore.DEInternal>
2.6763

> <Gold.Chemscore.Rot>
2.2347

> <Gold.Chemscore.Internal.Correction>
   9.000000E+99

> <Gold.Chemscore.Hbonds>
donor molecule, donor type, donor heavy atom, donor atom, acceptor molecule, acceptor atom, score
      P1  H  6896  6909       L1    20  0.94
      P1  H  6931  6943       L1    18  0.05
      P1  H  6934  6947       L1    18  0.48
      P1  H  7989  7998       L1    25  0.11
      P1  H 10752 10764       L1     5  0.76

> <Gold.Chemscore.Hbond.Weighted>
-9.6657

> <Gold.Chemscore.Metal.Weighted>
-0.0000

> <Gold.Chemscore.Lipo.Weighted>
-7.7271

> <Gold.Chemscore.Internal_Hbond.Weighted>
0.0000

> <Gold.Chemscore.DEClash.Weighted>
0.1214

> <Gold.Chemscore.DEInternal.Weighted>
2.6763

> <Gold.Chemscore.Rot.Weighted>
5.7208

> <Gold.Chemscore.Internal.Correction.Weighted>
   9.000000E+99

> <Gold.Protein.RotatedTorsions>
[ 6907 6896 6895 6894 ] final   29.65 input  -60.11 | X-H torsion
[ 7974 7965 7964 7962 ] final -177.71 input  175.53 | X-H torsion
[ 8008 7997 7996 7995 ] final   20.11 input   59.86 | X-H torsion
[ 10167 10162 10161 10158 ] final  141.10 input  -65.29 | X-H torsion
[ 10718 10713 10712 10709 ] final   52.65 input   66.30 | X-H torsion
[ 10763 10752 10751 10750 ] final  -86.39 input  -60.55 | X-H torsion
[ 11005 11000 10999 10996 ] final -114.84 input  -57.11 | X-H torsion

> <Gold.Protein.ActiveResidues>
 VAL166  LYS551  ARG553  GLY616  TRP617  ASP618  TYR619  PRO620  LYS621  CYS622 
 ASP623  PHE694  ASN695  SER759  ASP760  ASP761  ALA762  ILE779  LEU786  VAL792 
 PHE793  MET794  SER795  GLU796  ALA797  LYS798  CYS799  TRP800  GLU811  SER814 

> <Gold.Protein.RotatedAtoms>
  152.0345  134.9748  160.0572 H   0  0  0  0  0  0  0  0  0  0  0  0  # atno 6907 bound_to 6896
  152.1211  133.4349  159.4684 H   0  0  0  0  0  0  0  0  0  0  0  0  # atno 6908 bound_to 6896
  150.6849  134.2452  159.4532 H   0  0  0  0  0  0  0  0  0  0  0  0  # atno 6909 bound_to 6896
  144.7128  140.0979  143.6418 H   0  0  0  0  0  0  0  0  0  0  0  0  # atno 7974 bound_to 7965
  154.9308  140.3040  155.5169 H   0  0  0  0  0  0  0  0  0  0  0  0  # atno 8008 bound_to 7997
  156.3003  140.2354  156.4304 H   0  0  0  0  0  0  0  0  0  0  0  0  # atno 8009 bound_to 7997
  154.8240  140.0422  157.1419 H   0  0  0  0  0  0  0  0  0  0  0  0  # atno 8010 bound_to 7997
  139.5030  144.6192  151.6090 H   0  0  0  0  0  0  0  0  0  0  0  0  # atno 10167 bound_to 10162
  157.5094  130.8490  149.8416 H   0  0  0  0  0  0  0  0  0  0  0  0  # atno 10718 bound_to 10713
  154.6219  135.5451  153.7584 H   0  0  0  0  0  0  0  0  0  0  0  0  # atno 10763 bound_to 10752
  153.0242  135.6415  154.1428 H   0  0  0  0  0  0  0  0  0  0  0  0  # atno 10764 bound_to 10752
  154.1362  135.2911  155.3152 H   0  0  0  0  0  0  0  0  0  0  0  0  # atno 10765 bound_to 10752
  141.0526  133.9663  157.2809 H   0  0  0  0  0  0  0  0  0  0  0  0  # atno 11005 bound_to 11000
  145.9563  139.2769  143.1182 LP  0  0  0  0  0  0  0  0  0  0  0  0  # atno 17320 bound_to 7965
  145.9268  140.9076  143.0376 LP  0  0  0  0  0  0  0  0  0  0  0  0  # atno 17321 bound_to 7965
  140.5890  143.9814  150.6313 LP  0  0  0  0  0  0  0  0  0  0  0  0  # atno 17342 bound_to 10162
  140.2988  143.3274  152.0992 LP  0  0  0  0  0  0  0  0  0  0  0  0  # atno 17343 bound_to 10162
  156.0279  130.3773  150.1770 LP  0  0  0  0  0  0  0  0  0  0  0  0  # atno 17370 bound_to 10713
  156.9960  130.9908  151.3403 LP  0  0  0  0  0  0  0  0  0  0  0  0  # atno 17371 bound_to 10713
  139.9363  135.0196  156.8567 LP  0  0  0  0  0  0  0  0  0  0  0  0  # atno 17394 bound_to 11000
  140.6025  134.0158  155.7543 LP  0  0  0  0  0  0  0  0  0  0  0  0  # atno 17395 bound_to 11000

$$$$
