AV-unprocessed.smi:1285|AV-procd|sdf|5368|dock8
  -GOLD-   22720 4513D 1   1.00000     0.00000
 Structure written by MMmdl.
 46 47  0  0  0  0  0  0  0  0  1 V2000
  146.1673  142.1936  154.5503 C   0  0  0  0  0  0  0  0  0  0  0  0
  147.6622  141.9276  154.8046 C   0  0  0  0  0  0  0  0  0  0  0  0
  147.9847  140.9545  155.9839 C   0  0  2  0  0  0  0  0  0  0  0  0
  146.8014  139.9514  156.0545 C   0  0  0  0  0  0  0  0  0  0  0  0
  148.0177  141.7830  157.3102 C   0  0  0  0  0  0  0  0  0  0  0  0
  146.7244  142.3648  157.6634 N   0  0  0  0  0  0  0  0  0  0  0  0
  146.2322  142.5059  158.9047 C   0  0  0  0  0  0  0  0  0  0  0  0
  146.8775  142.2423  159.9200 O   0  0  0  0  0  0  0  0  0  0  0  0
  144.7772  142.9950  158.9972 C   0  0  2  0  0  0  0  0  0  0  0  0
  144.5768  144.4137  158.4267 C   0  0  0  0  0  0  0  0  0  0  0  0
  144.3017  142.8888  160.3722 N   0  0  0  0  0  0  0  0  0  0  0  0
  143.3511  142.1105  160.8944 C   0  0  0  0  0  0  0  0  0  0  0  0
  143.2206  142.2270  162.2083 N   0  0  0  0  0  0  0  0  0  0  0  0
  144.1930  143.1548  162.4524 C   0  0  0  0  0  0  0  0  0  0  0  0
  144.8759  143.5787  161.3894 N   0  0  0  0  0  0  0  0  0  0  0  0
  149.2650  140.2290  155.7468 N   0  0  0  0  0  0  0  0  0  0  0  0
  150.4795  140.9677  156.1135 C   0  0  0  0  0  0  0  0  0  0  0  0
  151.7441  140.1027  155.9750 C   0  0  0  0  0  0  0  0  0  0  0  0
  151.8421  139.6044  154.6463 O   0  0  0  0  0  0  0  0  0  0  0  0
  150.7075  138.8328  154.2710 C   0  0  0  0  0  0  0  0  0  0  0  0
  149.4366  139.6900  154.3922 C   0  0  0  0  0  0  0  0  0  0  0  0
  146.0395  142.8709  153.7060 H   0  0  0  0  0  0  0  0  0  0  0  0
  145.6867  142.6573  155.4112 H   0  0  0  0  0  0  0  0  0  0  0  0
  145.6255  141.2775  154.3160 H   0  0  0  0  0  0  0  0  0  0  0  0
  148.1166  141.5669  153.8819 H   0  0  0  0  0  0  0  0  0  0  0  0
  148.1344  142.8952  154.9789 H   0  0  0  0  0  0  0  0  0  0  0  0
  145.8347  140.4494  155.9745 H   0  0  0  0  0  0  0  0  0  0  0  0
  146.7877  139.4038  156.9971 H   0  0  0  0  0  0  0  0  0  0  0  0
  146.8478  139.2155  155.2516 H   0  0  0  0  0  0  0  0  0  0  0  0
  148.3902  141.1825  158.1403 H   0  0  0  0  0  0  0  0  0  0  0  0
  148.7078  142.6209  157.2193 H   0  0  0  0  0  0  0  0  0  0  0  0
  146.1235  142.6158  156.8920 H   0  0  0  0  0  0  0  0  0  0  0  0
  144.1743  142.3134  158.3948 H   0  0  0  0  0  0  0  0  0  0  0  0
  144.8769  144.4628  157.3794 H   0  0  0  0  0  0  0  0  0  0  0  0
  145.1562  145.1598  158.9721 H   0  0  0  0  0  0  0  0  0  0  0  0
  143.5283  144.7082  158.4784 H   0  0  0  0  0  0  0  0  0  0  0  0
  142.7492  141.4363  160.3028 H   0  0  0  0  0  0  0  0  0  0  0  0
  144.4087  143.5237  163.4443 H   0  0  0  0  0  0  0  0  0  0  0  0
  150.5912  141.8507  155.4844 H   0  0  0  0  0  0  0  0  0  0  0  0
  150.4282  141.3172  157.1432 H   0  0  0  0  0  0  0  0  0  0  0  0
  152.6328  140.6925  156.2002 H   0  0  0  0  0  0  0  0  0  0  0  0
  151.7230  139.2722  156.6824 H   0  0  0  0  0  0  0  0  0  0  0  0
  150.8356  138.4883  153.2448 H   0  0  0  0  0  0  0  0  0  0  0  0
  150.6358  137.9446  154.9010 H   0  0  0  0  0  0  0  0  0  0  0  0
  148.5887  139.0702  154.1069 H   0  0  0  0  0  0  0  0  0  0  0  0
  149.4950  140.5010  153.6664 H   0  0  0  0  0  0  0  0  0  0  0  0
  1  2  1  0  0  0  0
  1 22  1  0  0  0  0
  1 23  1  0  0  0  0
  1 24  1  0  0  0  0
  2  3  1  0  0  0  0
  2 25  1  0  0  0  0
  2 26  1  0  0  0  0
  3  4  1  0  0  0  0
  3  5  1  0  0  0  0
  3 16  1  0  0  0  0
  4 27  1  0  0  0  0
  4 28  1  0  0  0  0
  4 29  1  0  0  0  0
  5  6  1  0  0  0  0
  5 30  1  0  0  0  0
  5 31  1  0  0  0  0
  6  7  1  0  0  0  0
  6 32  1  0  0  0  0
  7  8  2  0  0  0  0
  7  9  1  0  0  0  0
  9 10  1  0  0  0  0
  9 11  1  0  0  0  0
  9 33  1  0  0  0  0
 10 34  1  0  0  0  0
 10 35  1  0  0  0  0
 10 36  1  0  0  0  0
 11 15  1  0  0  0  0
 11 12  1  0  0  0  0
 12 13  2  0  0  0  0
 12 37  1  0  0  0  0
 13 14  1  0  0  0  0
 14 15  2  0  0  0  0
 14 38  1  0  0  0  0
 16 21  1  0  0  0  0
 16 17  1  0  0  0  0
 17 18  1  0  0  0  0
 17 39  1  0  0  0  0
 17 40  1  0  0  0  0
 18 19  1  0  0  0  0
 18 41  1  0  0  0  0
 18 42  1  0  0  0  0
 19 20  1  0  0  0  0
 20 21  1  0  0  0  0
 20 43  1  0  0  0  0
 20 44  1  0  0  0  0
 21 45  1  0  0  0  0
 21 46  1  0  0  0  0
M  END
> <s_m_source_file>
AV-unprocessed.smi

> <i_m_source_file_index>
1285

> <i_lp_mmshare_version>
43012

> <i_f3d_flags>
0

> <s_epik_input>
W0NIMl0xW0NIMl1PW0NIMl1bQ0gyXU4xW0NAQF0oW0NIM10pKFtDSDJdW0NIM10pW0NIMl1bTkhdQyg9TylbQ0BIXShbQ0gzXSluMltjSF1uW2NIXW4y

> <s_epik_cmdline>
J2VwaWtfcHl0aG9uJywgJy1waCcsICc3LjAnLCAnLXRuJywgJzgnLCAnLW1hJywgJzIwMCcsICctbWV0YWxfYmluZGluZycsICctaW1hZScsICc8aW5maWxlLm1hZT4nLCAnLW9tYWUnLCAnPG91dGZpbGUubWFlPic=

> <r_lp_tautomer_probability>
1

> <r_epik_Ionization_Penalty>
0.285697

> <r_epik_Ionization_Penalty_Charging>
0

> <r_epik_Ionization_Penalty_Neutral>
0.285697

> <r_epik_State_Penalty>
0.278478

> <r_epik_Charging_Adjusted_Penalty>
0.278478

> <i_epik_Tot_Q>
0

> <i_epik_Tot_abs_Q>
0

> <r_epik_Metal_State_Penalty>
0.278477

> <b_epik_Metal_Only>
0

> <s_lp_Force_Field>
OPLS_2005

> <r_lp_Energy>
47.2582

> <b_lp_Chiralities_Consistent>
1

> <s_lp_Variant>
AV-unprocessed.smi:1285-2

> <Gold.Version>
5.8.1

> <Gold.Id.Protein>
6NUR|6NUR_protein|mol2

> <Gold.PLP.Fitness>
37.8626

> <Gold.PLP.PLP>
-32.5994

> <Gold.PLP.part.hbond>
-4.2521

> <Gold.PLP.part.metal>
0.0000

> <Gold.PLP.part.buried>
-4.4845

> <Gold.PLP.part.nonpolar>
-23.8603

> <Gold.PLP.part.repulsive>
0.3196

> <Gold.PLP.ligand.clash>
0.0000

> <Gold.PLP.ligand.torsion>
1.2814

> <Gold.PLP.Chemscore.Hbond>
2.5125

> <Gold.PLP.Chemscore.CHOScore>
0.0000

> <Gold.PLP.Chemscore.Metal>
0.0000

> <Gold.Chemscore.Hbonds>
donor molecule, donor type, donor heavy atom, donor atom, acceptor molecule, acceptor atom, score
      P1  H  6933  6944       L1     8  0.30
      P1  H  6934  6946       L1     8  0.94
      P1  H  7989  7998       L1    19  0.90

> <Gold.PLP.Chemscore.Internal.Correction>
0.2884

> <Gold.Rescore>
     Score         DG    S(hbond)    S(metal)    S(lipo)     H(rot)  DE(clash)    DE(int)     intcor
      8.43      -9.88       1.70        0.00      47.84       2.68       0.02       1.43       ----

> <Gold.Chemscore.Fitness>
8.4274

> <Gold.Chemscore.DG>
-9.8753

> <Gold.Chemscore.ZeroCoef>
-5.4800

> <Gold.Chemscore.Hbond>
1.6959

> <Gold.Chemscore.Metal>
0.0000

> <Gold.Chemscore.Lipo>
47.8390

> <Gold.Chemscore.Internal_Hbond>
0.0000

> <Gold.Chemscore.DEClash>
0.0174

> <Gold.Chemscore.DEInternal>
1.4305

> <Gold.Chemscore.Rot>
2.6821

> <Gold.Chemscore.Internal.Correction>
   9.000000E+99

> <Gold.Chemscore.Hbonds>
donor molecule, donor type, donor heavy atom, donor atom, acceptor molecule, acceptor atom, score
      P1  H  6933  6944       L1     8  0.30
      P1  H  6934  6946       L1     8  0.89
      P1  H  7989  7998       L1    19  0.14

> <Gold.Chemscore.Hbond.Weighted>
-5.6643

> <Gold.Chemscore.Metal.Weighted>
-0.0000

> <Gold.Chemscore.Lipo.Weighted>
-5.5972

> <Gold.Chemscore.Internal_Hbond.Weighted>
0.0000

> <Gold.Chemscore.DEClash.Weighted>
0.0174

> <Gold.Chemscore.DEInternal.Weighted>
1.4305

> <Gold.Chemscore.Rot.Weighted>
6.8661

> <Gold.Chemscore.Internal.Correction.Weighted>
   9.000000E+99

> <Gold.Protein.RotatedTorsions>
[ 6907 6896 6895 6894 ] final -120.01 input  -60.11 | X-H torsion
[ 7974 7965 7964 7962 ] final  175.95 input  175.53 | X-H torsion
[ 8008 7997 7996 7995 ] final -130.14 input   59.86 | X-H torsion
[ 10167 10162 10161 10158 ] final  -13.59 input  -65.29 | X-H torsion
[ 10718 10713 10712 10709 ] final -131.09 input   66.30 | X-H torsion
[ 10763 10752 10751 10750 ] final  155.31 input  -60.55 | X-H torsion
[ 11005 11000 10999 10996 ] final -117.98 input  -57.11 | X-H torsion

> <Gold.Protein.ActiveResidues>
 VAL166  LYS551  ARG553  GLY616  TRP617  ASP618  TYR619  PRO620  LYS621  CYS622 
 ASP623  PHE694  ASN695  SER759  ASP760  ASP761  ALA762  ILE779  LEU786  VAL792 
 PHE793  MET794  SER795  GLU796  ALA797  LYS798  CYS799  TRP800  GLU811  SER814 

> <Gold.Protein.RotatedAtoms>
  150.8355  133.8021  159.3081 H   0  0  0  0  0  0  0  0  0  0  0  0  # atno 6907 bound_to 6896
  151.5738  135.1060  160.0011 H   0  0  0  0  0  0  0  0  0  0  0  0  # atno 6908 bound_to 6896
  152.4428  133.7438  159.6712 H   0  0  0  0  0  0  0  0  0  0  0  0  # atno 6909 bound_to 6896
  144.7192  140.0023  143.6440 H   0  0  0  0  0  0  0  0  0  0  0  0  # atno 7974 bound_to 7965
  155.2908  140.0448  157.3023 H   0  0  0  0  0  0  0  0  0  0  0  0  # atno 8008 bound_to 7997
  154.5542  140.2327  155.8403 H   0  0  0  0  0  0  0  0  0  0  0  0  # atno 8009 bound_to 7997
  156.1993  140.3030  155.9500 H   0  0  0  0  0  0  0  0  0  0  0  0  # atno 8010 bound_to 7997
  140.7185  143.5410  150.9409 H   0  0  0  0  0  0  0  0  0  0  0  0  # atno 10167 bound_to 10162
  156.2209  130.6978  151.0755 H   0  0  0  0  0  0  0  0  0  0  0  0  # atno 10718 bound_to 10713
  154.1663  135.2807  155.3094 H   0  0  0  0  0  0  0  0  0  0  0  0  # atno 10763 bound_to 10752
  154.6109  135.5499  153.7475 H   0  0  0  0  0  0  0  0  0  0  0  0  # atno 10764 bound_to 10752
  153.0177  135.6415  154.1804 H   0  0  0  0  0  0  0  0  0  0  0  0  # atno 10765 bound_to 10752
  141.0317  133.9971  157.3132 H   0  0  0  0  0  0  0  0  0  0  0  0  # atno 11005 bound_to 11000
  146.0325  139.3348  143.0746 LP  0  0  0  0  0  0  0  0  0  0  0  0  # atno 17320 bound_to 7965
  145.8435  140.9568  143.0787 LP  0  0  0  0  0  0  0  0  0  0  0  0  # atno 17321 bound_to 7965
  139.9132  143.6694  152.3111 LP  0  0  0  0  0  0  0  0  0  0  0  0  # atno 17342 bound_to 10162
  139.7085  144.7624  151.1152 LP  0  0  0  0  0  0  0  0  0  0  0  0  # atno 17343 bound_to 10162
  157.7087  131.0744  150.6578 LP  0  0  0  0  0  0  0  0  0  0  0  0  # atno 17370 bound_to 10713
  156.6641  130.4520  149.5678 LP  0  0  0  0  0  0  0  0  0  0  0  0  # atno 17371 bound_to 10713
  139.9212  135.0200  156.8072 LP  0  0  0  0  0  0  0  0  0  0  0  0  # atno 17394 bound_to 11000
  140.6394  133.9832  155.7700 LP  0  0  0  0  0  0  0  0  0  0  0  0  # atno 17395 bound_to 11000

$$$$
