AV-unprocessed.smi:2567|AV-procd|sdf|10082|dock5
  -GOLD-   2272014113D 1   1.00000     0.00000
 Structure written by MMmdl.
 33 34  0  0  0  0  0  0  0  0  1 V2000
  141.0307  138.5095  153.2425 C   0  0  0  0  0  0  0  0  0  0  0  0
  140.5097  137.3126  154.0690 C   0  0  0  0  0  0  0  0  0  0  0  0
  140.7568  137.6583  155.5539 C   0  0  0  0  0  0  0  0  0  0  0  0
  139.0012  137.1273  153.8254 C   0  0  0  0  0  0  0  0  0  0  0  0
  141.2426  136.0445  153.6967 C   0  0  0  0  0  0  0  0  0  0  0  0
  141.0687  134.9134  154.3853 N   0  0  0  0  0  0  0  0  0  0  0  0
  141.9855  134.0922  153.8331 N   0  0  0  0  0  0  0  0  0  0  0  0
  142.6797  134.7617  152.9128 C   0  0  0  0  0  0  0  0  0  0  0  0
  143.7990  134.1313  152.1457 C   0  0  2  0  0  0  0  0  0  0  0  0
  144.2577  135.0002  150.9583 C   0  0  0  0  0  0  0  0  0  0  0  0
  145.2876  134.3038  150.1890 N   0  0  0  0  0  0  0  0  0  0  0  0
  144.8235  132.9856  149.7588 C   0  0  0  0  0  0  0  0  0  0  0  0
  144.3431  132.1651  150.9694 C   0  0  0  0  0  0  0  0  0  0  0  0
  143.3218  132.8802  151.6569 O   0  0  0  0  0  0  0  0  0  0  0  0
  142.2803  136.0243  152.8015 N   0  0  0  0  0  0  0  0  0  0  0  0
  142.1118  133.1324  154.1207 H   0  0  0  0  0  0  0  0  0  0  0  0
  140.5350  139.4369  153.5319 H   0  0  0  0  0  0  0  0  0  0  0  0
  140.8521  138.3739  152.1753 H   0  0  0  0  0  0  0  0  0  0  0  0
  142.1029  138.6536  153.3828 H   0  0  0  0  0  0  0  0  0  0  0  0
  141.8209  137.7736  155.7639 H   0  0  0  0  0  0  0  0  0  0  0  0
  140.3715  136.8844  156.2189 H   0  0  0  0  0  0  0  0  0  0  0  0
  140.2646  138.5908  155.8322 H   0  0  0  0  0  0  0  0  0  0  0  0
  138.4426  138.0252  154.0915 H   0  0  0  0  0  0  0  0  0  0  0  0
  138.6031  136.3034  154.4189 H   0  0  0  0  0  0  0  0  0  0  0  0
  138.7927  136.9082  152.7775 H   0  0  0  0  0  0  0  0  0  0  0  0
  144.6323  133.9586  152.8299 H   0  0  0  0  0  0  0  0  0  0  0  0
  143.4061  135.2250  150.3151 H   0  0  0  0  0  0  0  0  0  0  0  0
  144.6408  135.9558  151.3174 H   0  0  0  0  0  0  0  0  0  0  0  0
  145.5366  134.8577  149.3757 H   0  0  0  0  0  0  0  0  0  0  0  0
  144.0071  133.0950  149.0441 H   0  0  0  0  0  0  0  0  0  0  0  0
  145.6243  132.4569  149.2415 H   0  0  0  0  0  0  0  0  0  0  0  0
  143.9406  131.2082  150.6372 H   0  0  0  0  0  0  0  0  0  0  0  0
  145.1705  131.9447  151.6460 H   0  0  0  0  0  0  0  0  0  0  0  0
  1  2  1  0  0  0  0
  1 17  1  0  0  0  0
  1 18  1  0  0  0  0
  1 19  1  0  0  0  0
  2  3  1  0  0  0  0
  2  4  1  0  0  0  0
  2  5  1  0  0  0  0
  3 20  1  0  0  0  0
  3 21  1  0  0  0  0
  3 22  1  0  0  0  0
  4 23  1  0  0  0  0
  4 24  1  0  0  0  0
  4 25  1  0  0  0  0
  5 15  1  0  0  0  0
  5  6  2  0  0  0  0
  6  7  1  0  0  0  0
  7 16  1  0  0  0  0
  7  8  1  0  0  0  0
  8  9  1  0  0  0  0
  8 15  2  0  0  0  0
  9 14  1  0  0  0  0
  9 10  1  0  0  0  0
  9 26  1  0  0  0  0
 10 11  1  0  0  0  0
 10 27  1  0  0  0  0
 10 28  1  0  0  0  0
 11 12  1  0  0  0  0
 11 29  1  0  0  0  0
 12 13  1  0  0  0  0
 12 30  1  0  0  0  0
 12 31  1  0  0  0  0
 13 14  1  0  0  0  0
 13 32  1  0  0  0  0
 13 33  1  0  0  0  0
M  END
> <s_m_source_file>
AV-unprocessed.smi

> <i_m_source_file_index>
2567

> <i_lp_mmshare_version>
43012

> <i_f3d_flags>
0

> <s_epik_input>
W0NIM11DKFtDSDNdKShbQ0gzXSljMW5bbkhdYyhuMSlbQ0BASF0yW0NIMl1bTkhdW0NIMl1bQ0gyXU8y

> <s_epik_cmdline>
J2VwaWtfcHl0aG9uJywgJy1waCcsICc3LjAnLCAnLXRuJywgJzgnLCAnLW1hJywgJzIwMCcsICctbWV0YWxfYmluZGluZycsICctaW1hZScsICc8aW5maWxlLm1hZT4nLCAnLW9tYWUnLCAnPG91dGZpbGUubWFlPic=

> <r_epik_Ionization_Penalty>
0.981987

> <r_epik_Ionization_Penalty_Charging>
0

> <r_epik_Ionization_Penalty_Neutral>
0.981987

> <r_epik_State_Penalty>
2.09479

> <r_epik_Charging_Adjusted_Penalty>
2.09479

> <i_epik_Tot_Q>
0

> <i_epik_Tot_abs_Q>
0

> <r_epik_Metal_State_Penalty>
2.40362

> <b_epik_Metal_Only>
0

> <s_lp_Force_Field>
OPLS_2005

> <r_lp_Energy>
12.9727

> <b_lp_Chiralities_Consistent>
1

> <s_lp_Variant>
AV-unprocessed.smi:2567-7

> <Gold.Version>
5.8.1

> <Gold.Id.Protein>
6NUR|6NUR_protein|mol2

> <Gold.PLP.Fitness>
35.0978

> <Gold.PLP.PLP>
-26.9063

> <Gold.PLP.part.hbond>
-3.5565

> <Gold.PLP.part.metal>
0.0000

> <Gold.PLP.part.buried>
-3.7989

> <Gold.PLP.part.nonpolar>
-19.3931

> <Gold.PLP.part.repulsive>
0.6636

> <Gold.PLP.ligand.clash>
0.0000

> <Gold.PLP.ligand.torsion>
0.3741

> <Gold.PLP.Chemscore.Hbond>
2.9120

> <Gold.PLP.Chemscore.CHOScore>
0.0000

> <Gold.PLP.Chemscore.Metal>
0.0000

> <Gold.Chemscore.Hbonds>
donor molecule, donor type, donor heavy atom, donor atom, acceptor molecule, acceptor atom, score
      L1  H     7    16       P1 10957  1.00
      L1  H    11    29       P1  7921  0.91
      P1  H 11000 11005       L1     6  1.00

> <Gold.PLP.Chemscore.Internal.Correction>
0.2037

> <Gold.Rescore>
     Score         DG    S(hbond)    S(metal)    S(lipo)     H(rot)  DE(clash)    DE(int)     intcor
     17.40     -17.90       2.82        0.00      52.86       1.25       0.11       0.39       ----

> <Gold.Chemscore.Fitness>
17.4008

> <Gold.Chemscore.DG>
-17.8983

> <Gold.Chemscore.ZeroCoef>
-5.4800

> <Gold.Chemscore.Hbond>
2.8206

> <Gold.Chemscore.Metal>
0.0000

> <Gold.Chemscore.Lipo>
52.8596

> <Gold.Chemscore.Internal_Hbond>
0.0000

> <Gold.Chemscore.DEClash>
0.1104

> <Gold.Chemscore.DEInternal>
0.3870

> <Gold.Chemscore.Rot>
1.2450

> <Gold.Chemscore.Internal.Correction>
   9.000000E+99

> <Gold.Chemscore.Hbonds>
donor molecule, donor type, donor heavy atom, donor atom, acceptor molecule, acceptor atom, score
      L1  H     7    16       P1 10957  0.98
      L1  H    11    29       P1  7921  0.89
      P1  H 11000 11005       L1     6  0.66

> <Gold.Chemscore.Hbond.Weighted>
-9.4210

> <Gold.Chemscore.Metal.Weighted>
-0.0000

> <Gold.Chemscore.Lipo.Weighted>
-6.1846

> <Gold.Chemscore.Internal_Hbond.Weighted>
0.0000

> <Gold.Chemscore.DEClash.Weighted>
0.1104

> <Gold.Chemscore.DEInternal.Weighted>
0.3870

> <Gold.Chemscore.Rot.Weighted>
3.1872

> <Gold.Chemscore.Internal.Correction.Weighted>
   9.000000E+99

> <Gold.Protein.RotatedTorsions>
[ 6907 6896 6895 6894 ] final  149.80 input  -60.11 | X-H torsion
[ 7974 7965 7964 7962 ] final  -20.32 input  175.53 | X-H torsion
[ 8008 7997 7996 7995 ] final   12.53 input   59.86 | X-H torsion
[ 10167 10162 10161 10158 ] final   88.35 input  -65.29 | X-H torsion
[ 10718 10713 10712 10709 ] final  -92.56 input   66.30 | X-H torsion
[ 10763 10752 10751 10750 ] final  153.16 input  -60.55 | X-H torsion
[ 11005 11000 10999 10996 ] final   19.80 input  -57.11 | X-H torsion

> <Gold.Protein.ActiveResidues>
 VAL166  LYS551  ARG553  GLY616  TRP617  ASP618  TYR619  PRO620  LYS621  CYS622 
 ASP623  PHE694  ASN695  SER759  ASP760  ASP761  ALA762  ILE779  LEU786  VAL792 
 PHE793  MET794  SER795  GLU796  ALA797  LYS798  CYS799  TRP800  GLU811  SER814 

> <Gold.Protein.RotatedAtoms>
  152.1231  133.4364  159.4684 H   0  0  0  0  0  0  0  0  0  0  0  0  # atno 6907 bound_to 6896
  150.6873  134.2511  159.4520 H   0  0  0  0  0  0  0  0  0  0  0  0  # atno 6908 bound_to 6896
  152.0389  134.9723  160.0624 H   0  0  0  0  0  0  0  0  0  0  0  0  # atno 6909 bound_to 6896
  146.1794  140.4185  142.8500 H   0  0  0  0  0  0  0  0  0  0  0  0  # atno 7974 bound_to 7965
  154.8220  140.2885  155.5781 H   0  0  0  0  0  0  0  0  0  0  0  0  # atno 8008 bound_to 7997
  156.2998  140.2548  156.3059 H   0  0  0  0  0  0  0  0  0  0  0  0  # atno 8009 bound_to 7997
  154.9328  140.0383  157.2046 H   0  0  0  0  0  0  0  0  0  0  0  0  # atno 8010 bound_to 7997
  139.8682  144.6507  150.8980 H   0  0  0  0  0  0  0  0  0  0  0  0  # atno 10167 bound_to 10162
  156.0003  130.4992  150.5643 H   0  0  0  0  0  0  0  0  0  0  0  0  # atno 10718 bound_to 10713
  154.1317  135.2826  155.3183 H   0  0  0  0  0  0  0  0  0  0  0  0  # atno 10763 bound_to 10752
  154.6351  135.5422  153.7728 H   0  0  0  0  0  0  0  0  0  0  0  0  # atno 10764 bound_to 10752
  153.0279  135.6472  154.1467 H   0  0  0  0  0  0  0  0  0  0  0  0  # atno 10765 bound_to 10752
  140.4097  134.1631  155.7667 H   0  0  0  0  0  0  0  0  0  0  0  0  # atno 11005 bound_to 11000
  144.8290  140.6676  143.6303 LP  0  0  0  0  0  0  0  0  0  0  0  0  # atno 17320 bound_to 7965
  145.4118  139.1579  143.4121 LP  0  0  0  0  0  0  0  0  0  0  0  0  # atno 17321 bound_to 7965
  140.7765  143.3686  151.1691 LP  0  0  0  0  0  0  0  0  0  0  0  0  # atno 17342 bound_to 10162
  139.7309  143.9074  152.3019 LP  0  0  0  0  0  0  0  0  0  0  0  0  # atno 17343 bound_to 10162
  157.3548  131.0739  151.1684 LP  0  0  0  0  0  0  0  0  0  0  0  0  # atno 17370 bound_to 10713
  157.2489  130.6604  149.5922 LP  0  0  0  0  0  0  0  0  0  0  0  0  # atno 17371 bound_to 10713
  141.1826  133.8382  157.1204 LP  0  0  0  0  0  0  0  0  0  0  0  0  # atno 17394 bound_to 11000
  140.0277  134.9916  157.0718 LP  0  0  0  0  0  0  0  0  0  0  0  0  # atno 17395 bound_to 11000

$$$$
