#       Name:                AV-unprocessed.smi:1476
#       Creating user name   scv26
#       Creation time:       Fri Mar 27 06:07:22 2020


#       File generated by GOLD software.
#

@<TRIPOS>MOLECULE
AV-unprocessed.smi:1476
    44    45     1
SMALL
NO_CHARGES


@<TRIPOS>ATOM
      1 ****        -2.9085  -4.2391   0.7986 C.3            1 S1                 0.0000
      2 ****        -4.1759  -2.9638   1.1858 S.o2           1 S1                 0.0000
      3 ****        -5.0673  -2.8362   0.0227 O.2            1 S1                 0.0000
      4 ****        -4.7429  -3.2672   2.5088 O.2            1 S1                 0.0000
      5 ****        -3.2647  -1.4873   1.3225 N.pl3          1 S1                 0.0000
      6 ****        -2.4767  -1.2155   2.5409 C.3            1 S1                 0.0000
      7 ****        -0.9793  -1.4930   2.3226 C.3            1 S1                 0.0000
      8 ****        -0.4298  -0.7215   1.1124 C.3            1 S1                 0.0000
      9 ****         1.0759  -0.9988   0.9156 C.3            1 S1                 0.0000
     10 ****         1.6482  -0.2434  -0.1946 N.am           1 S1                 0.0000
     11 ****         1.9868   1.0534  -0.1499 C.2            1 S1                 0.0000
     12 ****         1.8504   1.7551   0.8528 O.2            1 S1                 0.0000
     13 ****         2.4858   1.4672  -1.3282 N.am           1 S1                 0.0000
     14 ****         2.9275   2.7688  -1.6869 C.ar           1 S1                 0.0000
     15 ****         3.4174   2.8927  -3.0070 C.ar           1 S1                 0.0000
     16 ****         3.8766   4.1443  -3.4614 C.ar           1 S1                 0.0000
     17 ****         3.8328   5.2418  -2.5835 C.ar           1 S1                 0.0000
     18 ****         3.3298   5.0333  -1.2860 C.ar           1 S1                 0.0000
     19 ****         2.8902   3.8346  -0.8482 N.ar           1 S1                 0.0000
     20 ****        -1.2717  -1.0825  -0.1256 C.3            1 S1                 0.0000
     21 ****        -2.7690  -0.8119   0.1073 C.3            1 S1                 0.0000
     22 ****        -3.3982  -5.2071   0.6970 H              1 S1                 0.0000
     23 ****        -2.1799  -4.2951   1.6053 H              1 S1                 0.0000
     24 ****        -2.4111  -3.9950  -0.1383 H              1 S1                 0.0000
     25 ****        -2.6170  -0.1691   2.8141 H              1 S1                 0.0000
     26 ****        -2.8535  -1.8039   3.3769 H              1 S1                 0.0000
     27 ****        -0.4280  -1.2123   3.2207 H              1 S1                 0.0000
     28 ****        -0.8133  -2.5612   2.1873 H              1 S1                 0.0000
     29 ****        -0.5571   0.3438   1.3115 H              1 S1                 0.0000
     30 ****         1.6254  -0.7712   1.8307 H              1 S1                 0.0000
     31 ****         1.2369  -2.0592   0.7197 H              1 S1                 0.0000
     32 ****         1.7952  -0.7455  -1.0579 H              1 S1                 0.0000
     33 ****         2.5501   0.7720  -2.0569 H              1 S1                 0.0000
     34 ****         3.4433   2.0393  -3.6692 H              1 S1                 0.0000
     35 ****         4.2554   4.2597  -4.4663 H              1 S1                 0.0000
     36 ****         4.1750   6.2174  -2.8957 H              1 S1                 0.0000
     37 ****         3.2786   5.8499  -0.5813 H              1 S1                 0.0000
     38 ****        -0.9410  -0.5044  -0.9887 H              1 S1                 0.0000
     39 ****        -1.1165  -2.1289  -0.3853 H              1 S1                 0.0000
     40 ****        -3.3494  -1.1203  -0.7617 H              1 S1                 0.0000
     41 ****        -2.9318   0.2606   0.2201 H              1 S1                 0.0000
     42 ****         1.4700   1.3622   1.6900 LP             1 S1                 0.0000
     43 ****         2.1201   2.7178   0.8298 LP             1 S1                 0.0000
     44 ****         2.5411   3.7332   0.0834 LP             1 S1                 0.0000
@<TRIPOS>BOND
    1    1    2 1     
    2    1   22 1     
    3    1   23 1     
    4    1   24 1     
    5    2    3 2     
    6    2    4 2     
    7    2    5 1     
    8    5   21 1     
    9    5    6 1     
   10    6    7 1     
   11    6   25 1     
   12    6   26 1     
   13    7    8 1     
   14    7   27 1     
   15    7   28 1     
   16    8    9 1     
   17    8   20 1     
   18    8   29 1     
   19    9   10 1     
   20    9   30 1     
   21    9   31 1     
   22   10   11 am    
   23   10   32 1     
   24   11   12 2     
   25   11   13 am    
   26   13   14 1     
   27   13   33 1     
   28   14   19 ar    
   29   14   15 ar    
   30   15   16 ar    
   31   15   34 1     
   32   16   17 ar    
   33   16   35 1     
   34   17   18 ar    
   35   17   36 1     
   36   18   19 ar    
   37   18   37 1     
   38   20   21 1     
   39   20   38 1     
   40   20   39 1     
   41   21   40 1     
   42   21   41 1     
   43   12   42 1     
   44   12   43 1     
   45   19   44 1     
@<TRIPOS>SUBSTRUCTURE
      1 S1             1
@<TRIPOS>SET
LONE_PAIRS      STATIC     ATOMS    <user>   **** ""
5 3 4 42 43 44
DONOR_HYDROGENS      STATIC     ATOMS    <user>   **** ""
2 32 33
ATOM$BLUE        STATIC     ATOMS    COLORGROUP SYSTEM
5 3 4 42 43 44
ATOM$RED        STATIC     ATOMS    COLORGROUP SYSTEM
2 32 33
