AV-unprocessed.smi:240|AV-procd|sdf|1824|dock3
  -GOLD-   2262020423D 1   1.00000     0.00000
 Structure written by MMmdl.
 55 59  0  0  0  0  0  0  0  0  1 V2000
  151.1609  136.3471  154.1398 O   0  0  0  0  0  0  0  0  0  0  0  0
  151.0228  137.1099  155.3209 C   0  0  2  0  0  0  0  0  0  0  0  0
  151.2845  136.2637  156.5684 C   0  0  0  0  0  0  0  0  0  0  0  0
  150.5349  136.9780  157.7010 C   0  0  0  0  0  0  0  0  0  0  0  0
  149.5212  137.9191  157.0294 C   0  0  0  0  0  0  0  0  0  0  0  0
  149.5868  137.6093  155.5240 C   0  0  1  0  0  0  0  0  0  0  0  0
  149.1129  138.7451  154.5659 C   0  0  2  0  0  0  0  0  0  0  0  0
  149.8689  140.0843  154.7604 C   0  0  0  0  0  0  0  0  0  0  0  0
  149.3956  141.0569  153.8356 O   0  0  0  0  0  0  0  0  0  0  0  0
  148.0168  141.3431  154.0264 C   0  0  0  0  0  0  0  0  0  0  0  0
  147.2041  140.0661  153.7770 C   0  0  0  0  0  0  0  0  0  0  0  0
  147.6660  138.9921  154.6485 N   0  0  0  0  0  0  0  0  0  0  0  0
  146.8527  137.9161  154.5526 C   0  0  0  0  0  0  0  0  0  0  0  0
  146.6369  137.2057  155.6868 N   0  0  0  0  0  0  0  0  0  0  0  0
  145.8589  136.1197  155.6569 C   0  0  0  0  0  0  0  0  0  0  0  0
  145.2122  135.5841  154.6191 N   0  0  0  0  0  0  0  0  0  0  0  0
  145.4188  136.3040  153.4791 C   0  0  0  0  0  0  0  0  0  0  0  0
  146.2131  137.4786  153.3578 C   0  0  0  0  0  0  0  0  0  0  0  0
  146.1795  137.9397  152.0475 N   0  0  0  0  0  0  0  0  0  0  0  0
  145.4167  137.0816  151.4274 C   0  0  0  0  0  0  0  0  0  0  0  0
  144.9251  136.0606  152.2092 N   0  0  0  0  0  0  0  0  0  0  0  0
  144.0652  134.9701  151.7761 C   0  0  0  0  0  0  0  0  0  0  0  0
  144.7090  133.5757  151.9567 C   0  0  1  0  0  0  0  0  0  0  0  0
  144.7491  133.2629  153.3387 O   0  0  0  0  0  0  0  0  0  0  0  0
  143.9799  132.4512  151.2265 C   0  0  0  0  0  0  0  0  0  0  0  0
  145.1070  131.4933  150.8671 C   0  0  0  0  0  0  0  0  0  0  0  0
  146.1558  132.3751  150.5045 O   0  0  0  0  0  0  0  0  0  0  0  0
  146.1426  133.4855  151.3965 C   0  0  0  0  0  0  0  0  0  0  0  0
  150.9572  136.8983  153.3997 H   0  0  0  0  0  0  0  0  0  0  0  0
  151.7320  137.9369  155.3041 H   0  0  0  0  0  0  0  0  0  0  0  0
  150.8641  135.2650  156.4381 H   0  0  0  0  0  0  0  0  0  0  0  0
  152.3482  136.1468  156.7781 H   0  0  0  0  0  0  0  0  0  0  0  0
  150.0410  136.2576  158.3539 H   0  0  0  0  0  0  0  0  0  0  0  0
  151.2269  137.5539  158.3164 H   0  0  0  0  0  0  0  0  0  0  0  0
  148.5148  137.7788  157.4248 H   0  0  0  0  0  0  0  0  0  0  0  0
  149.8044  138.9500  157.2365 H   0  0  0  0  0  0  0  0  0  0  0  0
  148.9508  136.7373  155.3633 H   0  0  0  0  0  0  0  0  0  0  0  0
  149.3272  138.4197  153.5478 H   0  0  0  0  0  0  0  0  0  0  0  0
  149.7605  140.4713  155.7735 H   0  0  0  0  0  0  0  0  0  0  0  0
  150.9353  139.9598  154.5789 H   0  0  0  0  0  0  0  0  0  0  0  0
  147.8443  141.7281  155.0328 H   0  0  0  0  0  0  0  0  0  0  0  0
  147.7149  142.1238  153.3283 H   0  0  0  0  0  0  0  0  0  0  0  0
  146.1456  140.2635  153.9539 H   0  0  0  0  0  0  0  0  0  0  0  0
  147.3051  139.7607  152.7344 H   0  0  0  0  0  0  0  0  0  0  0  0
  145.7402  135.6042  156.5985 H   0  0  0  0  0  0  0  0  0  0  0  0
  145.1957  137.1656  150.3732 H   0  0  0  0  0  0  0  0  0  0  0  0
  143.1324  135.0275  152.3385 H   0  0  0  0  0  0  0  0  0  0  0  0
  143.8016  135.1341  150.7304 H   0  0  0  0  0  0  0  0  0  0  0  0
  144.0314  132.6799  153.5343 H   0  0  0  0  0  0  0  0  0  0  0  0
  143.1857  131.9852  151.8116 H   0  0  0  0  0  0  0  0  0  0  0  0
  143.5360  132.8263  150.3037 H   0  0  0  0  0  0  0  0  0  0  0  0
  145.4069  130.8953  151.7291 H   0  0  0  0  0  0  0  0  0  0  0  0
  144.8453  130.8201  150.0504 H   0  0  0  0  0  0  0  0  0  0  0  0
  146.4330  134.3835  150.8503 H   0  0  0  0  0  0  0  0  0  0  0  0
  146.8828  133.3304  152.1833 H   0  0  0  0  0  0  0  0  0  0  0  0
  1  2  1  0  0  0  0
  1 29  1  0  0  0  0
  2  6  1  0  0  0  0
  2  3  1  0  0  0  0
  2 30  1  0  0  0  0
  3  4  1  0  0  0  0
  3 31  1  0  0  0  0
  3 32  1  0  0  0  0
  4  5  1  0  0  0  0
  4 33  1  0  0  0  0
  4 34  1  0  0  0  0
  5  6  1  0  0  0  0
  5 35  1  0  0  0  0
  5 36  1  0  0  0  0
  6  7  1  0  0  0  0
  6 37  1  0  0  0  0
  7 12  1  0  0  0  0
  7  8  1  0  0  0  0
  7 38  1  0  0  0  0
  8  9  1  0  0  0  0
  8 39  1  0  0  0  0
  8 40  1  0  0  0  0
  9 10  1  0  0  0  0
 10 11  1  0  0  0  0
 10 41  1  0  0  0  0
 10 42  1  0  0  0  0
 11 12  1  0  0  0  0
 11 43  1  0  0  0  0
 11 44  1  0  0  0  0
 12 13  1  0  0  0  0
 13 18  1  0  0  0  0
 13 14  2  0  0  0  0
 14 15  1  0  0  0  0
 15 16  2  0  0  0  0
 15 45  1  0  0  0  0
 16 17  1  0  0  0  0
 17 21  1  0  0  0  0
 17 18  2  0  0  0  0
 18 19  1  0  0  0  0
 19 20  2  0  0  0  0
 20 21  1  0  0  0  0
 20 46  1  0  0  0  0
 21 22  1  0  0  0  0
 22 23  1  0  0  0  0
 22 47  1  0  0  0  0
 22 48  1  0  0  0  0
 23 28  1  0  0  0  0
 23 24  1  0  0  0  0
 23 25  1  0  0  0  0
 24 49  1  0  0  0  0
 25 26  1  0  0  0  0
 25 50  1  0  0  0  0
 25 51  1  0  0  0  0
 26 27  1  0  0  0  0
 26 52  1  0  0  0  0
 26 53  1  0  0  0  0
 27 28  1  0  0  0  0
 28 54  1  0  0  0  0
 28 55  1  0  0  0  0
M  END
> <s_m_source_file>
AV-unprocessed.smi

> <i_m_source_file_index>
240

> <i_lp_mmshare_version>
43012

> <i_f3d_flags>
0

> <s_epik_input>
W09IXVtDQEBIXTFbQ0gyXVtDSDJdW0NIMl1bQ0BIXTFbQ0BASF0yW0NIMl1PW0NIMl1bQ0gyXU4yYyhuW2NIXW4zKWMoYzM0KW5bY0hdbjRbQ0gyXVtDQEBdNShbT0hdKVtDSDJdW0NIMl1PW0NIMl01

> <s_epik_cmdline>
J2VwaWtfcHl0aG9uJywgJy1waCcsICc3LjAnLCAnLXRuJywgJzgnLCAnLW1hJywgJzIwMCcsICctbWV0YWxfYmluZGluZycsICctaW1hZScsICc8aW5maWxlLm1hZT4nLCAnLW9tYWUnLCAnPG91dGZpbGUubWFlPic=

> <r_lp_tautomer_probability>
1

> <r_epik_Ionization_Penalty>
0.000130618

> <r_epik_Ionization_Penalty_Charging>
0

> <r_epik_Ionization_Penalty_Neutral>
0.000130618

> <r_epik_State_Penalty>
-0

> <r_epik_Charging_Adjusted_Penalty>
0

> <i_epik_Tot_Q>
0

> <i_epik_Tot_abs_Q>
0

> <r_epik_Metal_State_Penalty>
-0

> <b_epik_Metal_Only>
0

> <s_lp_Force_Field>
OPLS_2005

> <r_lp_Energy>
60.7436

> <b_lp_Chiralities_Consistent>
1

> <s_lp_Variant>
AV-unprocessed.smi:240-1

> <Gold.Version>
5.8.1

> <Gold.Id.Protein>
6NUR|6NUR_protein|mol2

> <Gold.PLP.Fitness>
43.0612

> <Gold.PLP.PLP>
-32.7273

> <Gold.PLP.part.hbond>
-5.6802

> <Gold.PLP.part.metal>
0.0000

> <Gold.PLP.part.buried>
-4.6411

> <Gold.PLP.part.nonpolar>
-26.0697

> <Gold.PLP.part.repulsive>
2.7497

> <Gold.PLP.ligand.clash>
0.0000

> <Gold.PLP.ligand.torsion>
0.8445

> <Gold.PLP.Chemscore.Hbond>
3.1724

> <Gold.PLP.Chemscore.CHOScore>
0.7706

> <Gold.PLP.Chemscore.Metal>
0.0000

> <Gold.Chemscore.Hbonds>
donor molecule, donor type, donor heavy atom, donor atom, acceptor molecule, acceptor atom, score
      L1  H     1    29       P1  7949  0.23
      L1  H    24    49       P1 10957  0.94
      P1  H  8011  8017       L1     9  0.80
      P1  H 10752 10764       L1     1  1.00
      L1  C    20    46       P1 10171  0.74

> <Gold.PLP.Chemscore.Internal.Correction>
0.1939

> <Gold.Rescore>
     Score         DG    S(hbond)    S(metal)    S(lipo)     H(rot)  DE(clash)    DE(int)     intcor
     11.14     -14.31       2.45        0.00      71.11       3.00       0.26       2.90       ----

> <Gold.Chemscore.Fitness>
11.1428

> <Gold.Chemscore.DG>
-14.3051

> <Gold.Chemscore.ZeroCoef>
-5.4800

> <Gold.Chemscore.Hbond>
2.4536

> <Gold.Chemscore.Metal>
0.0000

> <Gold.Chemscore.Lipo>
71.1100

> <Gold.Chemscore.Internal_Hbond>
0.0000

> <Gold.Chemscore.DEClash>
0.2643

> <Gold.Chemscore.DEInternal>
2.8980

> <Gold.Chemscore.Rot>
3.0039

> <Gold.Chemscore.Internal.Correction>
   9.000000E+99

> <Gold.Chemscore.Hbonds>
donor molecule, donor type, donor heavy atom, donor atom, acceptor molecule, acceptor atom, score
      L1  H     1    29       P1  7949  0.06
      L1  H    24    49       P1 10957  0.44
      P1  H  8011  8017       L1     9  0.17
      P1  H 10752 10764       L1     1  0.48

> <Gold.Chemscore.Hbond.Weighted>
-8.1952

> <Gold.Chemscore.Metal.Weighted>
-0.0000

> <Gold.Chemscore.Lipo.Weighted>
-8.3199

> <Gold.Chemscore.Internal_Hbond.Weighted>
0.0000

> <Gold.Chemscore.DEClash.Weighted>
0.2643

> <Gold.Chemscore.DEInternal.Weighted>
2.8980

> <Gold.Chemscore.Rot.Weighted>
7.6899

> <Gold.Chemscore.Internal.Correction.Weighted>
   9.000000E+99

> <Gold.Protein.RotatedTorsions>
[ 6907 6896 6895 6894 ] final  159.72 input  -60.11 | X-H torsion
[ 7974 7965 7964 7962 ] final  139.81 input  175.53 | X-H torsion
[ 8008 7997 7996 7995 ] final  -60.72 input   59.86 | X-H torsion
[ 10167 10162 10161 10158 ] final  112.33 input  -65.29 | X-H torsion
[ 10718 10713 10712 10709 ] final   53.76 input   66.30 | X-H torsion
[ 10763 10752 10751 10750 ] final  -86.71 input  -60.55 | X-H torsion
[ 11005 11000 10999 10996 ] final  -73.28 input  -57.11 | X-H torsion

> <Gold.Protein.ActiveResidues>
 VAL166  LYS551  ARG553  GLY616  TRP617  ASP618  TYR619  PRO620  LYS621  CYS622 
 ASP623  PHE694  ASN695  SER759  ASP760  ASP761  ALA762  ILE779  LEU786  VAL792 
 PHE793  MET794  SER795  GLU796  ALA797  LYS798  CYS799  TRP800  GLU811  SER814 

> <Gold.Protein.RotatedAtoms>
  151.9814  133.3759  159.4108 H   0  0  0  0  0  0  0  0  0  0  0  0  # atno 6907 bound_to 6896
  150.6934  134.4034  159.5138 H   0  0  0  0  0  0  0  0  0  0  0  0  # atno 6908 bound_to 6896
  152.1754  134.8799  160.0581 H   0  0  0  0  0  0  0  0  0  0  0  0  # atno 6909 bound_to 6896
  144.9244  139.5126  143.5648 H   0  0  0  0  0  0  0  0  0  0  0  0  # atno 7974 bound_to 7965
  154.4412  140.1033  156.6318 H   0  0  0  0  0  0  0  0  0  0  0  0  # atno 8008 bound_to 7997
  155.5596  140.3487  155.4469 H   0  0  0  0  0  0  0  0  0  0  0  0  # atno 8009 bound_to 7997
  156.0469  140.1295  157.0082 H   0  0  0  0  0  0  0  0  0  0  0  0  # atno 8010 bound_to 7997
  139.6544  144.7129  151.1986 H   0  0  0  0  0  0  0  0  0  0  0  0  # atno 10167 bound_to 10162
  157.5196  130.8556  149.8541 H   0  0  0  0  0  0  0  0  0  0  0  0  # atno 10718 bound_to 10713
  154.6255  135.5439  153.7622 H   0  0  0  0  0  0  0  0  0  0  0  0  # atno 10763 bound_to 10752
  153.0258  135.6423  154.1378 H   0  0  0  0  0  0  0  0  0  0  0  0  # atno 10764 bound_to 10752
  154.1311  135.2914  155.3165 H   0  0  0  0  0  0  0  0  0  0  0  0  # atno 10765 bound_to 10752
  141.1620  133.6873  156.7188 H   0  0  0  0  0  0  0  0  0  0  0  0  # atno 11005 bound_to 11000
  146.3219  139.8147  142.8938 LP  0  0  0  0  0  0  0  0  0  0  0  0  # atno 17320 bound_to 7965
  145.3244  141.0251  143.3482 LP  0  0  0  0  0  0  0  0  0  0  0  0  # atno 17321 bound_to 7965
  140.7552  143.6097  150.8618 LP  0  0  0  0  0  0  0  0  0  0  0  0  # atno 17342 bound_to 10162
  139.9748  143.6016  152.2962 LP  0  0  0  0  0  0  0  0  0  0  0  0  # atno 17343 bound_to 10162
  156.0344  130.3755  150.1600 LP  0  0  0  0  0  0  0  0  0  0  0  0  # atno 17370 bound_to 10713
  156.9788  130.9857  151.3442 LP  0  0  0  0  0  0  0  0  0  0  0  0  # atno 17371 bound_to 10713
  140.2831  134.8300  157.3951 LP  0  0  0  0  0  0  0  0  0  0  0  0  # atno 17394 bound_to 11000
  140.1415  134.4966  155.8028 LP  0  0  0  0  0  0  0  0  0  0  0  0  # atno 17395 bound_to 11000

$$$$
