AV-unprocessed.smi:3164|AV-procd|sdf|12082|dock6
  -GOLD-   2272017513D 1   1.00000     0.00000
 Structure written by MMmdl.
 40 41  0  0  0  0  0  0  0  0  3 V2000
  148.7398  135.8293  155.3474 C   0  0  0  0  0  0  0  0  0  0  0  0
  149.4403  136.9118  154.6237 N   0  3  2  0  0  0  0  0  0  0  0  0
  150.9007  136.9074  154.8666 C   0  0  0  0  0  0  0  0  0  0  0  0
  151.5775  138.0290  154.0623 C   0  0  0  0  0  0  0  0  0  0  0  0
  150.9879  139.2782  154.4034 O   0  0  0  0  0  0  0  0  0  0  0  0
  149.6004  139.3332  154.0834 C   0  0  2  0  0  0  0  0  0  0  0  0
  149.0947  140.7454  154.4153 C   0  0  0  0  0  0  0  0  0  0  0  0
  149.2450  141.0359  155.8548 N   0  3  0  0  0  0  0  0  0  0  0  0
  150.4965  141.7338  156.2128 C   0  0  0  0  0  0  0  0  0  0  0  0
  150.8555  141.5268  157.6940 C   0  0  0  0  0  0  0  0  0  0  0  0
  151.2129  142.8224  158.4036 C   0  0  0  0  0  0  0  0  0  0  0  0
  152.4466  142.9573  159.0751 C   0  0  0  0  0  0  0  0  0  0  0  0
  152.7404  144.1851  159.6998 C   0  0  0  0  0  0  0  0  0  0  0  0
  151.7952  145.2262  159.6270 C   0  0  0  0  0  0  0  0  0  0  0  0
  150.5920  144.9924  158.9327 C   0  0  0  0  0  0  0  0  0  0  0  0
  150.3015  143.8197  158.3283 N   0  0  0  0  0  0  0  0  0  0  0  0
  148.8646  138.2492  154.8975 C   0  0  0  0  0  0  0  0  0  0  0  0
  148.8373  135.9520  156.4269 H   0  0  0  0  0  0  0  0  0  0  0  0
  149.1508  134.8565  155.0751 H   0  0  0  0  0  0  0  0  0  0  0  0
  147.6784  135.8240  155.0976 H   0  0  0  0  0  0  0  0  0  0  0  0
  151.0959  137.0429  155.9318 H   0  0  0  0  0  0  0  0  0  0  0  0
  151.3201  135.9412  154.5835 H   0  0  0  0  0  0  0  0  0  0  0  0
  152.6425  138.0664  154.2920 H   0  0  0  0  0  0  0  0  0  0  0  0
  151.4889  137.8506  152.9894 H   0  0  0  0  0  0  0  0  0  0  0  0
  149.4624  139.1448  153.0168 H   0  0  0  0  0  0  0  0  0  0  0  0
  149.6558  141.4895  153.8486 H   0  0  0  0  0  0  0  0  0  0  0  0
  148.0468  140.8436  154.1283 H   0  0  0  0  0  0  0  0  0  0  0  0
  148.4736  141.6239  156.1396 H   0  0  0  0  0  0  0  0  0  0  0  0
  151.3022  141.3617  155.5789 H   0  0  0  0  0  0  0  0  0  0  0  0
  150.3939  142.8004  156.0075 H   0  0  0  0  0  0  0  0  0  0  0  0
  150.0277  141.0464  158.2176 H   0  0  0  0  0  0  0  0  0  0  0  0
  151.6985  140.8389  157.7707 H   0  0  0  0  0  0  0  0  0  0  0  0
  153.1545  142.1419  159.1109 H   0  0  0  0  0  0  0  0  0  0  0  0
  153.6743  144.3263  160.2234 H   0  0  0  0  0  0  0  0  0  0  0  0
  151.9872  146.1812  160.0935 H   0  0  0  0  0  0  0  0  0  0  0  0
  149.8452  145.7685  158.8557 H   0  0  0  0  0  0  0  0  0  0  0  0
  147.8035  138.2476  154.6438 H   0  0  0  0  0  0  0  0  0  0  0  0
  148.9384  138.4642  155.9650 H   0  0  0  0  0  0  0  0  0  0  0  0
  149.1957  140.1713  156.3752 H   0  0  0  0  0  0  0  0  0  0  0  0
  149.3092  136.7324  153.6381 H   0  0  0  0  0  0  0  0  0  0  0  0
  1  2  1  0  0  0  0
  1 18  1  0  0  0  0
  1 19  1  0  0  0  0
  1 20  1  0  0  0  0
  2 17  1  0  0  0  0
  2  3  1  0  0  0  0
  2 40  1  0  0  0  0
  3  4  1  0  0  0  0
  3 21  1  0  0  0  0
  3 22  1  0  0  0  0
  4  5  1  0  0  0  0
  4 23  1  0  0  0  0
  4 24  1  0  0  0  0
  5  6  1  0  0  0  0
  6  7  1  0  0  0  0
  6 17  1  0  0  0  0
  6 25  1  0  0  0  0
  7  8  1  0  0  0  0
  7 26  1  0  0  0  0
  7 27  1  0  0  0  0
  8  9  1  0  0  0  0
  8 28  1  0  0  0  0
  8 39  1  0  0  0  0
  9 10  1  0  0  0  0
  9 29  1  0  0  0  0
  9 30  1  0  0  0  0
 10 11  1  0  0  0  0
 10 31  1  0  0  0  0
 10 32  1  0  0  0  0
 11 16  1  0  0  0  0
 11 12  2  0  0  0  0
 12 13  1  0  0  0  0
 12 33  1  0  0  0  0
 13 14  2  0  0  0  0
 13 34  1  0  0  0  0
 14 15  1  0  0  0  0
 14 35  1  0  0  0  0
 15 16  2  0  0  0  0
 15 36  1  0  0  0  0
 17 37  1  0  0  0  0
 17 38  1  0  0  0  0
M  CHG  1   2   1
M  CHG  1   8   1
M  END
> <s_m_source_file>
AV-unprocessed.smi

> <i_m_source_file_index>
3164

> <i_lp_mmshare_version>
43012

> <i_f3d_flags>
0

> <s_epik_input>
W0NIM11OMVtDSDJdW0NIMl1PW0NASF0oW0NIMl0xKVtDSDJdW05IXVtDSDJdW0NIMl1jMltjSF1bY0hdW2NIXVtjSF1uMg==

> <s_epik_cmdline>
J2VwaWtfcHl0aG9uJywgJy1waCcsICc3LjAnLCAnLXRuJywgJzgnLCAnLW1hJywgJzIwMCcsICctbWV0YWxfYmluZGluZycsICctaW1hZScsICc8aW5maWxlLm1hZT4nLCAnLW9tYWUnLCAnPG91dGZpbGUubWFlPic=

> <r_epik_Ionization_Penalty>
0.294944

> <r_epik_Ionization_Penalty_Charging>
0.29381

> <r_epik_Ionization_Penalty_Neutral>
0.00113372

> <r_epik_State_Penalty>
0.271365

> <r_epik_Charging_Adjusted_Penalty>
0.565175

> <i_epik_Tot_Q>
2

> <i_epik_Tot_abs_Q>
2

> <r_epik_Metal_State_Penalty>
0.271365

> <b_epik_Metal_Only>
0

> <s_lp_Force_Field>
OPLS_2005

> <r_lp_Energy>
22.5841

> <b_lp_Chiralities_Consistent>
1

> <s_lp_Variant>
AV-unprocessed.smi:3164-4

> <Gold.Version>
5.8.1

> <Gold.Id.Protein>
6NUR|6NUR_protein|mol2

> <Gold.PLP.Fitness>
45.1468

> <Gold.PLP.PLP>
-34.5537

> <Gold.PLP.part.hbond>
-2.0000

> <Gold.PLP.part.metal>
0.0000

> <Gold.PLP.part.buried>
-3.8291

> <Gold.PLP.part.nonpolar>
-29.3578

> <Gold.PLP.part.repulsive>
0.4075

> <Gold.PLP.ligand.clash>
0.0000

> <Gold.PLP.ligand.torsion>
0.7073

> <Gold.PLP.Chemscore.Hbond>
3.0000

> <Gold.PLP.Chemscore.CHOScore>
0.9896

> <Gold.PLP.Chemscore.Metal>
0.0000

> <Gold.Chemscore.Hbonds>
donor molecule, donor type, donor heavy atom, donor atom, acceptor molecule, acceptor atom, score
      L1  H     2    40       P1  7948  2.00
      P1  H  7989  7998       L1     5  1.00
      L1  C    15    36       P1  8029  0.99

> <Gold.PLP.Chemscore.Internal.Correction>
0.0390

> <Gold.Rescore>
     Score         DG    S(hbond)    S(metal)    S(lipo)     H(rot)  DE(clash)    DE(int)     intcor
     18.40     -19.31       1.70        0.00     105.65       1.65       0.21       0.70       ----

> <Gold.Chemscore.Fitness>
18.3959

> <Gold.Chemscore.DG>
-19.3075

> <Gold.Chemscore.ZeroCoef>
-5.4800

> <Gold.Chemscore.Hbond>
1.7001

> <Gold.Chemscore.Metal>
0.0000

> <Gold.Chemscore.Lipo>
105.6518

> <Gold.Chemscore.Internal_Hbond>
0.0000

> <Gold.Chemscore.DEClash>
0.2109

> <Gold.Chemscore.DEInternal>
0.7007

> <Gold.Chemscore.Rot>
1.6454

> <Gold.Chemscore.Internal.Correction>
   9.000000E+99

> <Gold.Chemscore.Hbonds>
donor molecule, donor type, donor heavy atom, donor atom, acceptor molecule, acceptor atom, score
      L1  H     2    40       P1  7948  0.96
      P1  H  7989  7998       L1     5  0.28

> <Gold.Chemscore.Hbond.Weighted>
-5.6785

> <Gold.Chemscore.Metal.Weighted>
-0.0000

> <Gold.Chemscore.Lipo.Weighted>
-12.3613

> <Gold.Chemscore.Internal_Hbond.Weighted>
0.0000

> <Gold.Chemscore.DEClash.Weighted>
0.2109

> <Gold.Chemscore.DEInternal.Weighted>
0.7007

> <Gold.Chemscore.Rot.Weighted>
4.2122

> <Gold.Chemscore.Internal.Correction.Weighted>
   9.000000E+99

> <Gold.Protein.RotatedTorsions>
[ 6907 6896 6895 6894 ] final  -32.12 input  -60.11 | X-H torsion
[ 7974 7965 7964 7962 ] final   91.91 input  175.53 | X-H torsion
[ 8008 7997 7996 7995 ] final -110.82 input   59.86 | X-H torsion
[ 10167 10162 10161 10158 ] final  -69.16 input  -65.29 | X-H torsion
[ 10718 10713 10712 10709 ] final -163.27 input   66.30 | X-H torsion
[ 10763 10752 10751 10750 ] final   60.66 input  -60.55 | X-H torsion
[ 11005 11000 10999 10996 ] final -122.49 input  -57.11 | X-H torsion

> <Gold.Protein.ActiveResidues>
 VAL166  LYS551  ARG553  GLY616  TRP617  ASP618  TYR619  PRO620  LYS621  CYS622 
 ASP623  PHE694  ASN695  SER759  ASP760  ASP761  ALA762  ILE779  LEU786  VAL792 
 PHE793  MET794  SER795  GLU796  ALA797  LYS798  CYS799  TRP800  GLU811  SER814 

> <Gold.Protein.RotatedAtoms>
  151.0830  134.9870  159.8365 H   0  0  0  0  0  0  0  0  0  0  0  0  # atno 6907 bound_to 6896
  152.5421  134.2158  159.8778 H   0  0  0  0  0  0  0  0  0  0  0  0  # atno 6908 bound_to 6896
  151.2189  133.4469  159.2633 H   0  0  0  0  0  0  0  0  0  0  0  0  # atno 6909 bound_to 6896
  145.4994  139.2276  143.2786 H   0  0  0  0  0  0  0  0  0  0  0  0  # atno 7974 bound_to 7965
  154.9803  140.0396  157.2275 H   0  0  0  0  0  0  0  0  0  0  0  0  # atno 8008 bound_to 7997
  154.7720  140.2803  155.6108 H   0  0  0  0  0  0  0  0  0  0  0  0  # atno 8009 bound_to 7997
  156.2922  140.2608  156.2525 H   0  0  0  0  0  0  0  0  0  0  0  0  # atno 8010 bound_to 7997
  140.5452  143.2313  151.7015 H   0  0  0  0  0  0  0  0  0  0  0  0  # atno 10167 bound_to 10162
  156.6223  130.8895  151.2960 H   0  0  0  0  0  0  0  0  0  0  0  0  # atno 10718 bound_to 10713
  152.9927  135.5528  154.5909 H   0  0  0  0  0  0  0  0  0  0  0  0  # atno 10763 bound_to 10752
  154.5270  135.2811  155.1215 H   0  0  0  0  0  0  0  0  0  0  0  0  # atno 10764 bound_to 10752
  154.2545  135.6392  153.5305 H   0  0  0  0  0  0  0  0  0  0  0  0  # atno 10765 bound_to 10752
  140.9991  134.0428  157.3560 H   0  0  0  0  0  0  0  0  0  0  0  0  # atno 11005 bound_to 11000
  146.2235  140.5793  142.9006 LP  0  0  0  0  0  0  0  0  0  0  0  0  # atno 17320 bound_to 7965
  144.7789  140.5798  143.6619 LP  0  0  0  0  0  0  0  0  0  0  0  0  # atno 17321 bound_to 7965
  139.5004  144.3906  152.0284 LP  0  0  0  0  0  0  0  0  0  0  0  0  # atno 17342 bound_to 10162
  140.3018  144.3638  150.6058 LP  0  0  0  0  0  0  0  0  0  0  0  0  # atno 17343 bound_to 10162
  157.7224  130.9576  150.1493 LP  0  0  0  0  0  0  0  0  0  0  0  0  # atno 17370 bound_to 10713
  156.2302  130.3681  149.8454 LP  0  0  0  0  0  0  0  0  0  0  0  0  # atno 17371 bound_to 10713
  139.9030  135.0171  156.7356 LP  0  0  0  0  0  0  0  0  0  0  0  0  # atno 17394 bound_to 11000
  140.6917  133.9384  155.7970 LP  0  0  0  0  0  0  0  0  0  0  0  0  # atno 17395 bound_to 11000

$$$$
