AV-unprocessed.smi:1687|AV-procd|sdf|6768|dock1
  -GOLD-   22720 7523D 1   1.00000     0.00000
 Structure written by MMmdl.
 45 46  0  0  0  0  0  0  0  0  2 V2000
  143.3660  142.9937  155.5202 C   0  0  0  0  0  0  0  0  0  0  0  0
  144.6033  143.8953  155.6746 C   0  0  2  0  0  0  0  0  0  0  0  0
  145.1929  144.3303  154.3199 C   0  0  0  0  0  0  0  0  0  0  0  0
  145.9454  143.1860  153.6169 C   0  0  0  0  0  0  0  0  0  0  0  0
  147.0056  142.6287  154.4975 N   0  3  2  0  0  0  0  0  0  0  0  0
  147.9322  141.6931  153.7945 C   0  0  2  0  0  0  0  0  0  0  0  0
  147.1873  140.5710  153.0377 C   0  0  0  0  0  0  0  0  0  0  0  0
  149.0110  141.1699  154.7708 C   0  0  0  0  0  0  0  0  0  0  0  0
  149.5304  142.2164  155.6476 N   0  0  0  0  0  0  0  0  0  0  0  0
  150.1709  142.0107  156.8083 C   0  0  0  0  0  0  0  0  0  0  0  0
  150.4068  140.8906  157.2623 O   0  0  0  0  0  0  0  0  0  0  0  0
  150.5173  143.1745  157.3859 N   0  0  0  0  0  0  0  0  0  0  0  0
  151.2060  143.3751  158.6118 C   0  0  0  0  0  0  0  0  0  0  0  0
  151.2662  144.7168  159.0515 C   0  0  0  0  0  0  0  0  0  0  0  0
  151.9252  145.0213  160.2583 C   0  0  0  0  0  0  0  0  0  0  0  0
  152.5081  143.9749  160.9949 C   0  0  0  0  0  0  0  0  0  0  0  0
  152.4038  142.6673  160.4859 C   0  0  0  0  0  0  0  0  0  0  0  0
  151.7728  142.3732  159.3294 N   0  0  0  0  0  0  0  0  0  0  0  0
  146.4470  142.1277  155.7836 C   0  0  0  0  0  0  0  0  0  0  0  0
  145.7074  143.2501  156.5337 C   0  0  0  0  0  0  0  0  0  0  0  0
  143.5968  142.0616  155.0053 H   0  0  0  0  0  0  0  0  0  0  0  0
  142.5845  143.4983  154.9517 H   0  0  0  0  0  0  0  0  0  0  0  0
  142.9462  142.7369  156.4933 H   0  0  0  0  0  0  0  0  0  0  0  0
  144.2667  144.7948  156.1920 H   0  0  0  0  0  0  0  0  0  0  0  0
  144.4059  144.7168  153.6713 H   0  0  0  0  0  0  0  0  0  0  0  0
  145.8834  145.1592  154.4823 H   0  0  0  0  0  0  0  0  0  0  0  0
  145.2516  142.3986  153.3216 H   0  0  0  0  0  0  0  0  0  0  0  0
  146.3899  143.5717  152.6988 H   0  0  0  0  0  0  0  0  0  0  0  0
  148.4680  142.2786  153.0458 H   0  0  0  0  0  0  0  0  0  0  0  0
  147.8641  140.0180  152.3863 H   0  0  0  0  0  0  0  0  0  0  0  0
  146.3969  140.9685  152.4018 H   0  0  0  0  0  0  0  0  0  0  0  0
  146.7383  139.8505  153.7220 H   0  0  0  0  0  0  0  0  0  0  0  0
  148.5806  140.3964  155.4078 H   0  0  0  0  0  0  0  0  0  0  0  0
  149.8298  140.6913  154.2326 H   0  0  0  0  0  0  0  0  0  0  0  0
  149.3817  143.1704  155.3525 H   0  0  0  0  0  0  0  0  0  0  0  0
  150.2590  144.0159  156.8921 H   0  0  0  0  0  0  0  0  0  0  0  0
  150.8122  145.5089  158.4736 H   0  0  0  0  0  0  0  0  0  0  0  0
  151.9812  146.0402  160.6121 H   0  0  0  0  0  0  0  0  0  0  0  0
  153.0211  144.1689  161.9253 H   0  0  0  0  0  0  0  0  0  0  0  0
  152.8376  141.8355  161.0208 H   0  0  0  0  0  0  0  0  0  0  0  0
  145.7667  141.2954  155.6008 H   0  0  0  0  0  0  0  0  0  0  0  0
  147.2441  141.7456  156.4203 H   0  0  0  0  0  0  0  0  0  0  0  0
  146.4283  144.0159  156.8239 H   0  0  0  0  0  0  0  0  0  0  0  0
  145.2862  142.8654  157.4633 H   0  0  0  0  0  0  0  0  0  0  0  0
  147.5802  143.4225  154.7417 H   0  0  0  0  0  0  0  0  0  0  0  0
  1  2  1  0  0  0  0
  1 21  1  0  0  0  0
  1 22  1  0  0  0  0
  1 23  1  0  0  0  0
  2 20  1  0  0  0  0
  2  3  1  0  0  0  0
  2 24  1  0  0  0  0
  3  4  1  0  0  0  0
  3 25  1  0  0  0  0
  3 26  1  0  0  0  0
  4  5  1  0  0  0  0
  4 27  1  0  0  0  0
  4 28  1  0  0  0  0
  5  6  1  0  0  0  0
  5 19  1  0  0  0  0
  5 45  1  0  0  0  0
  6  7  1  0  0  0  0
  6  8  1  0  0  0  0
  6 29  1  0  0  0  0
  7 30  1  0  0  0  0
  7 31  1  0  0  0  0
  7 32  1  0  0  0  0
  8  9  1  0  0  0  0
  8 33  1  0  0  0  0
  8 34  1  0  0  0  0
  9 10  1  0  0  0  0
  9 35  1  0  0  0  0
 10 11  2  0  0  0  0
 10 12  1  0  0  0  0
 12 13  1  0  0  0  0
 12 36  1  0  0  0  0
 13 18  1  0  0  0  0
 13 14  2  0  0  0  0
 14 15  1  0  0  0  0
 14 37  1  0  0  0  0
 15 16  2  0  0  0  0
 15 38  1  0  0  0  0
 16 17  1  0  0  0  0
 16 39  1  0  0  0  0
 17 18  2  0  0  0  0
 17 40  1  0  0  0  0
 19 20  1  0  0  0  0
 19 41  1  0  0  0  0
 19 42  1  0  0  0  0
 20 43  1  0  0  0  0
 20 44  1  0  0  0  0
M  CHG  1   5   1
M  END
> <s_m_source_file>
AV-unprocessed.smi

> <i_m_source_file_index>
1687

> <i_lp_mmshare_version>
43012

> <i_f3d_flags>
0

> <s_epik_input>
W0NIM11bQ0hdMVtDSDJdW0NIMl1OKFtDSDJdW0NIMl0xKVtDQEhdKFtDSDNdKVtDSDJdW05IXUMoPU8pW05IXWMyW2NIXVtjSF1bY0hdW2NIXW4y

> <s_epik_cmdline>
J2VwaWtfcHl0aG9uJywgJy1waCcsICc3LjAnLCAnLXRuJywgJzgnLCAnLW1hJywgJzIwMCcsICctbWV0YWxfYmluZGluZycsICctaW1hZScsICc8aW5maWxlLm1hZT4nLCAnLW9tYWUnLCAnPG91dGZpbGUubWFlPic=

> <r_epik_Ionization_Penalty>
0.00142891

> <r_epik_Ionization_Penalty_Charging>
0.00139388

> <r_epik_Ionization_Penalty_Neutral>
3.50347e-05

> <r_epik_State_Penalty>
0.000929204

> <r_epik_Charging_Adjusted_Penalty>
0.00232308

> <i_epik_Tot_Q>
1

> <i_epik_Tot_abs_Q>
1

> <r_epik_Metal_State_Penalty>
-0

> <b_epik_Metal_Only>
0

> <s_lp_Force_Field>
OPLS_2005

> <r_lp_Energy>
23.5172

> <b_lp_Chiralities_Consistent>
1

> <s_lp_Variant>
AV-unprocessed.smi:1687-3

> <Gold.Version>
5.8.1

> <Gold.Id.Protein>
6NUR|6NUR_protein|mol2

> <Gold.PLP.Fitness>
52.9792

> <Gold.PLP.PLP>
-41.9482

> <Gold.PLP.part.hbond>
-3.0000

> <Gold.PLP.part.metal>
0.0000

> <Gold.PLP.part.buried>
-6.8074

> <Gold.PLP.part.nonpolar>
-31.1425

> <Gold.PLP.part.repulsive>
0.3170

> <Gold.PLP.ligand.clash>
0.0000

> <Gold.PLP.ligand.torsion>
0.3807

> <Gold.PLP.Chemscore.Hbond>
3.8800

> <Gold.PLP.Chemscore.CHOScore>
0.0000

> <Gold.PLP.Chemscore.Metal>
0.0000

> <Gold.Chemscore.Hbonds>
donor molecule, donor type, donor heavy atom, donor atom, acceptor molecule, acceptor atom, score
      L1  H     5    45       P1  8028  2.00
      L1  H     9    35       P1  8028  1.00
      L1  H    12    36       P1  8028  0.85

> <Gold.PLP.Chemscore.Internal.Correction>
0.1523

> <Gold.Rescore>
     Score         DG    S(hbond)    S(metal)    S(lipo)     H(rot)  DE(clash)    DE(int)     intcor
     18.21     -19.83       2.11        0.00      95.06       1.50       0.01       1.62       ----

> <Gold.Chemscore.Fitness>
18.2052

> <Gold.Chemscore.DG>
-19.8333

> <Gold.Chemscore.ZeroCoef>
-5.4800

> <Gold.Chemscore.Hbond>
2.1137

> <Gold.Chemscore.Metal>
0.0000

> <Gold.Chemscore.Lipo>
95.0640

> <Gold.Chemscore.Internal_Hbond>
0.0000

> <Gold.Chemscore.DEClash>
0.0073

> <Gold.Chemscore.DEInternal>
1.6208

> <Gold.Chemscore.Rot>
1.4956

> <Gold.Chemscore.Internal.Correction>
   9.000000E+99

> <Gold.Chemscore.Hbonds>
donor molecule, donor type, donor heavy atom, donor atom, acceptor molecule, acceptor atom, score
      L1  H     5    45       P1  8028  0.29
      L1  H     9    35       P1  8028  0.96
      L1  H    12    36       P1  8028  0.82

> <Gold.Chemscore.Hbond.Weighted>
-7.0596

> <Gold.Chemscore.Metal.Weighted>
-0.0000

> <Gold.Chemscore.Lipo.Weighted>
-11.1225

> <Gold.Chemscore.Internal_Hbond.Weighted>
0.0000

> <Gold.Chemscore.DEClash.Weighted>
0.0073

> <Gold.Chemscore.DEInternal.Weighted>
1.6208

> <Gold.Chemscore.Rot.Weighted>
3.8289

> <Gold.Chemscore.Internal.Correction.Weighted>
   9.000000E+99

> <Gold.Protein.RotatedTorsions>
[ 6907 6896 6895 6894 ] final  -27.94 input  -60.11 | X-H torsion
[ 7974 7965 7964 7962 ] final -163.74 input  175.53 | X-H torsion
[ 8008 7997 7996 7995 ] final -128.17 input   59.86 | X-H torsion
[ 10167 10162 10161 10158 ] final   59.35 input  -65.29 | X-H torsion
[ 10718 10713 10712 10709 ] final  166.82 input   66.30 | X-H torsion
[ 10763 10752 10751 10750 ] final  135.31 input  -60.55 | X-H torsion
[ 11005 11000 10999 10996 ] final  -38.61 input  -57.11 | X-H torsion

> <Gold.Protein.ActiveResidues>
 VAL166  LYS551  ARG553  GLY616  TRP617  ASP618  TYR619  PRO620  LYS621  CYS622 
 ASP623  PHE694  ASN695  SER759  ASP760  ASP761  ALA762  ILE779  LEU786  VAL792 
 PHE793  MET794  SER795  GLU796  ALA797  LYS798  CYS799  TRP800  GLU811  SER814 

> <Gold.Protein.RotatedAtoms>
  151.1399  135.0174  159.8620 H   0  0  0  0  0  0  0  0  0  0  0  0  # atno 6907 bound_to 6896
  152.5452  134.1511  159.8529 H   0  0  0  0  0  0  0  0  0  0  0  0  # atno 6908 bound_to 6896
  151.1586  133.4814  159.2627 H   0  0  0  0  0  0  0  0  0  0  0  0  # atno 6909 bound_to 6896
  144.7317  140.3063  143.6196 H   0  0  0  0  0  0  0  0  0  0  0  0  # atno 7974 bound_to 7965
  155.2582  140.0435  157.2994 H   0  0  0  0  0  0  0  0  0  0  0  0  # atno 8008 bound_to 7997
  154.5727  140.2378  155.8138 H   0  0  0  0  0  0  0  0  0  0  0  0  # atno 8009 bound_to 7997
  156.2134  140.2992  155.9793 H   0  0  0  0  0  0  0  0  0  0  0  0  # atno 8010 bound_to 7997
  140.1774  144.4216  150.6631 H   0  0  0  0  0  0  0  0  0  0  0  0  # atno 10167 bound_to 10162
  157.0604  131.0338  151.2649 H   0  0  0  0  0  0  0  0  0  0  0  0  # atno 10718 bound_to 10713
  153.8379  135.3095  155.3424 H   0  0  0  0  0  0  0  0  0  0  0  0  # atno 10763 bound_to 10752
  154.7945  135.4763  154.0132 H   0  0  0  0  0  0  0  0  0  0  0  0  # atno 10764 bound_to 10752
  153.1594  135.6858  153.8856 H   0  0  0  0  0  0  0  0  0  0  0  0  # atno 10765 bound_to 10752
  141.0040  133.6941  156.2076 H   0  0  0  0  0  0  0  0  0  0  0  0  # atno 11005 bound_to 11000
  145.7710  139.1857  143.2212 LP  0  0  0  0  0  0  0  0  0  0  0  0  # atno 17320 bound_to 7965
  146.0911  140.7655  142.9595 LP  0  0  0  0  0  0  0  0  0  0  0  0  # atno 17321 bound_to 7965
  140.6542  143.2233  151.6007 LP  0  0  0  0  0  0  0  0  0  0  0  0  # atno 17342 bound_to 10162
  139.5311  144.2914  152.1149 LP  0  0  0  0  0  0  0  0  0  0  0  0  # atno 17343 bound_to 10162
  157.4959  130.7850  149.7555 LP  0  0  0  0  0  0  0  0  0  0  0  0  # atno 17370 bound_to 10713
  155.9980  130.3896  150.2718 LP  0  0  0  0  0  0  0  0  0  0  0  0  # atno 17371 bound_to 10713
  140.6843  134.4734  157.5589 LP  0  0  0  0  0  0  0  0  0  0  0  0  # atno 17394 bound_to 11000
  139.9054  134.8462  156.1729 LP  0  0  0  0  0  0  0  0  0  0  0  0  # atno 17395 bound_to 11000

$$$$
