AV-unprocessed.smi:3103|AV-procd|sdf|11814|dock7
  -GOLD-   2272017183D 1   1.00000     0.00000
 Structure written by MMmdl.
 32 32  0  0  0  0  0  0  0  0  1 V2000
  152.7727  143.8010  162.3843 C   0  0  0  0  0  0  0  0  0  0  0  0
  152.3411  143.6845  160.9353 C   0  0  0  0  0  0  0  0  0  0  0  0
  151.5742  144.6934  160.3147 C   0  0  0  0  0  0  0  0  0  0  0  0
  151.1809  144.5989  159.0261 N   0  0  0  0  0  0  0  0  0  0  0  0
  151.5495  143.5038  158.3578 C   0  0  0  0  0  0  0  0  0  0  0  0
  151.1217  143.4355  157.0460 N   0  0  0  0  0  0  0  0  0  0  0  0
  151.2955  142.2695  156.1933 C   0  0  0  0  0  0  0  0  0  0  0  0
  149.9484  141.6950  155.7444 C   0  0  0  0  0  0  0  0  0  0  0  0
  150.1852  140.5829  154.8973 O   0  0  0  0  0  0  0  0  0  0  0  0
  148.9911  140.0012  154.4020 C   0  0  0  0  0  0  0  0  0  0  0  0
  149.1861  138.4842  154.2917 C   0  0  0  0  0  0  0  0  0  0  0  0
  150.2269  138.1933  153.3835 O   0  0  0  0  0  0  0  0  0  0  0  0
  152.2766  142.4889  158.8400 N   0  0  0  0  0  0  0  0  0  0  0  0
  152.6761  142.5721  160.1285 C   0  0  0  0  0  0  0  0  0  0  0  0
  153.4968  141.4113  160.6572 C   0  0  0  0  0  0  0  0  0  0  0  0
  152.3740  144.7071  162.8417 H   0  0  0  0  0  0  0  0  0  0  0  0
  153.8601  143.8355  162.4555 H   0  0  0  0  0  0  0  0  0  0  0  0
  152.4148  142.9463  162.9590 H   0  0  0  0  0  0  0  0  0  0  0  0
  151.2726  145.5807  160.8515 H   0  0  0  0  0  0  0  0  0  0  0  0
  150.5516  144.1959  156.7055 H   0  0  0  0  0  0  0  0  0  0  0  0
  151.8757  142.5661  155.3189 H   0  0  0  0  0  0  0  0  0  0  0  0
  151.8722  141.5073  156.7189 H   0  0  0  0  0  0  0  0  0  0  0  0
  149.3433  141.4077  156.6057 H   0  0  0  0  0  0  0  0  0  0  0  0
  149.3952  142.4577  155.1946 H   0  0  0  0  0  0  0  0  0  0  0  0
  148.1838  140.2084  155.1061 H   0  0  0  0  0  0  0  0  0  0  0  0
  148.7030  140.4331  153.4418 H   0  0  0  0  0  0  0  0  0  0  0  0
  149.3925  138.0385  155.2654 H   0  0  0  0  0  0  0  0  0  0  0  0
  148.2758  138.0210  153.9103 H   0  0  0  0  0  0  0  0  0  0  0  0
  150.0636  138.6621  152.5794 H   0  0  0  0  0  0  0  0  0  0  0  0
  154.4509  141.7663  161.0474 H   0  0  0  0  0  0  0  0  0  0  0  0
  153.7044  140.6804  159.8744 H   0  0  0  0  0  0  0  0  0  0  0  0
  152.9615  140.9043  161.4602 H   0  0  0  0  0  0  0  0  0  0  0  0
  1  2  1  0  0  0  0
  1 16  1  0  0  0  0
  1 17  1  0  0  0  0
  1 18  1  0  0  0  0
  2 14  1  0  0  0  0
  2  3  2  0  0  0  0
  3  4  1  0  0  0  0
  3 19  1  0  0  0  0
  4  5  2  0  0  0  0
  5  6  1  0  0  0  0
  5 13  1  0  0  0  0
  6  7  1  0  0  0  0
  6 20  1  0  0  0  0
  7  8  1  0  0  0  0
  7 21  1  0  0  0  0
  7 22  1  0  0  0  0
  8  9  1  0  0  0  0
  8 23  1  0  0  0  0
  8 24  1  0  0  0  0
  9 10  1  0  0  0  0
 10 11  1  0  0  0  0
 10 25  1  0  0  0  0
 10 26  1  0  0  0  0
 11 12  1  0  0  0  0
 11 27  1  0  0  0  0
 11 28  1  0  0  0  0
 12 29  1  0  0  0  0
 13 14  2  0  0  0  0
 14 15  1  0  0  0  0
 15 30  1  0  0  0  0
 15 31  1  0  0  0  0
 15 32  1  0  0  0  0
M  END
> <s_m_source_file>
AV-unprocessed.smi

> <i_m_source_file_index>
3103

> <i_lp_mmshare_version>
43012

> <i_f3d_flags>
0

> <s_epik_input>
W0NIM11jMVtjSF1uYyhuYzFbQ0gzXSlbTkhdW0NIMl1bQ0gyXU9bQ0gyXVtDSDJdW09IXQ==

> <s_epik_cmdline>
J2VwaWtfcHl0aG9uJywgJy1waCcsICc3LjAnLCAnLXRuJywgJzgnLCAnLW1hJywgJzIwMCcsICctbWV0YWxfYmluZGluZycsICctaW1hZScsICc8aW5maWxlLm1hZT4nLCAnLW9tYWUnLCAnPG91dGZpbGUubWFlPic=

> <r_lp_tautomer_probability>
1

> <r_epik_Ionization_Penalty>
0.00815169

> <r_epik_Ionization_Penalty_Charging>
0

> <r_epik_Ionization_Penalty_Neutral>
0.00815169

> <r_epik_State_Penalty>
0.00530275

> <r_epik_Charging_Adjusted_Penalty>
0.00530275

> <i_epik_Tot_Q>
0

> <i_epik_Tot_abs_Q>
0

> <r_epik_Metal_State_Penalty>
-0

> <b_epik_Metal_Only>
0

> <s_lp_Force_Field>
OPLS_2005

> <r_lp_Energy>
-2.90403

> <b_lp_Chiralities_Consistent>
1

> <s_lp_Variant>
AV-unprocessed.smi:3103-1

> <Gold.Version>
5.8.1

> <Gold.Id.Protein>
6NUR|6NUR_protein|mol2

> <Gold.PLP.Fitness>
41.5766

> <Gold.PLP.PLP>
-33.4354

> <Gold.PLP.part.hbond>
-4.9405

> <Gold.PLP.part.metal>
0.0000

> <Gold.PLP.part.buried>
-5.1668

> <Gold.PLP.part.nonpolar>
-23.5996

> <Gold.PLP.part.repulsive>
0.2217

> <Gold.PLP.ligand.clash>
0.0000

> <Gold.PLP.ligand.torsion>
0.2486

> <Gold.PLP.Chemscore.Hbond>
2.8720

> <Gold.PLP.Chemscore.CHOScore>
0.0000

> <Gold.PLP.Chemscore.Metal>
0.0000

> <Gold.Chemscore.Hbonds>
donor molecule, donor type, donor heavy atom, donor atom, acceptor molecule, acceptor atom, score
      L1  H     6    20       P1  8028  0.94
      L1  H    12    29       P1  7957  1.00
      P1  H  7989  7998       L1     9  0.91

> <Gold.PLP.Chemscore.Internal.Correction>
0.0225

> <Gold.Rescore>
     Score         DG    S(hbond)    S(metal)    S(lipo)     H(rot)  DE(clash)    DE(int)     intcor
     14.70     -16.43       2.30        0.00      85.22       2.61       1.45       0.28       ----

> <Gold.Chemscore.Fitness>
14.7020

> <Gold.Chemscore.DG>
-16.4350

> <Gold.Chemscore.ZeroCoef>
-5.4800

> <Gold.Chemscore.Hbond>
2.2963

> <Gold.Chemscore.Metal>
0.0000

> <Gold.Chemscore.Lipo>
85.2159

> <Gold.Chemscore.Internal_Hbond>
0.0000

> <Gold.Chemscore.DEClash>
1.4508

> <Gold.Chemscore.DEInternal>
0.2822

> <Gold.Chemscore.Rot>
2.6113

> <Gold.Chemscore.Internal.Correction>
   9.000000E+99

> <Gold.Chemscore.Hbonds>
donor molecule, donor type, donor heavy atom, donor atom, acceptor molecule, acceptor atom, score
      L1  H     6    20       P1  8028  0.87
      L1  H    12    29       P1  7957  0.29
      P1  H  7989  7998       L1     9  0.67

> <Gold.Chemscore.Hbond.Weighted>
-7.6696

> <Gold.Chemscore.Metal.Weighted>
-0.0000

> <Gold.Chemscore.Lipo.Weighted>
-9.9703

> <Gold.Chemscore.Internal_Hbond.Weighted>
0.0000

> <Gold.Chemscore.DEClash.Weighted>
1.4508

> <Gold.Chemscore.DEInternal.Weighted>
0.2822

> <Gold.Chemscore.Rot.Weighted>
6.6849

> <Gold.Chemscore.Internal.Correction.Weighted>
   9.000000E+99

> <Gold.Protein.RotatedTorsions>
[ 6907 6896 6895 6894 ] final -100.87 input  -60.11 | X-H torsion
[ 7974 7965 7964 7962 ] final  150.80 input  175.53 | X-H torsion
[ 8008 7997 7996 7995 ] final   32.37 input   59.86 | X-H torsion
[ 10167 10162 10161 10158 ] final  179.72 input  -65.29 | X-H torsion
[ 10718 10713 10712 10709 ] final    1.68 input   66.30 | X-H torsion
[ 10763 10752 10751 10750 ] final  123.65 input  -60.55 | X-H torsion
[ 11005 11000 10999 10996 ] final  -65.79 input  -57.11 | X-H torsion

> <Gold.Protein.ActiveResidues>
 VAL166  LYS551  ARG553  GLY616  TRP617  ASP618  TYR619  PRO620  LYS621  CYS622 
 ASP623  PHE694  ASN695  SER759  ASP760  ASP761  ALA762  ILE779  LEU786  VAL792 
 PHE793  MET794  SER795  GLU796  ALA797  LYS798  CYS799  TRP800  GLU811  SER814 

> <Gold.Protein.RotatedAtoms>
  150.7132  134.0821  159.3901 H   0  0  0  0  0  0  0  0  0  0  0  0  # atno 6907 bound_to 6896
  151.8806  135.0453  160.0497 H   0  0  0  0  0  0  0  0  0  0  0  0  # atno 6908 bound_to 6896
  152.2571  133.5229  159.5396 H   0  0  0  0  0  0  0  0  0  0  0  0  # atno 6909 bound_to 6896
  144.8338  139.6455  143.6047 H   0  0  0  0  0  0  0  0  0  0  0  0  # atno 7974 bound_to 7965
  155.1214  140.3248  155.4496 H   0  0  0  0  0  0  0  0  0  0  0  0  # atno 8008 bound_to 7997
  156.2661  140.2026  156.6285 H   0  0  0  0  0  0  0  0  0  0  0  0  # atno 8009 bound_to 7997
  154.6680  140.0539  157.0122 H   0  0  0  0  0  0  0  0  0  0  0  0  # atno 8010 bound_to 7997
  139.5348  144.2527  152.0771 H   0  0  0  0  0  0  0  0  0  0  0  0  # atno 10167 bound_to 10162
  156.8517  130.5556  149.5669 H   0  0  0  0  0  0  0  0  0  0  0  0  # atno 10718 bound_to 10713
  153.6489  135.3366  155.3094 H   0  0  0  0  0  0  0  0  0  0  0  0  # atno 10763 bound_to 10752
  154.8542  135.4336  154.1926 H   0  0  0  0  0  0  0  0  0  0  0  0  # atno 10764 bound_to 10752
  153.2863  135.7013  153.7411 H   0  0  0  0  0  0  0  0  0  0  0  0  # atno 10765 bound_to 10752
  141.1464  133.6687  156.6040 H   0  0  0  0  0  0  0  0  0  0  0  0  # atno 11005 bound_to 11000
  146.2639  139.6473  142.9343 LP  0  0  0  0  0  0  0  0  0  0  0  0  # atno 17320 bound_to 7965
  145.4838  141.0438  143.2631 LP  0  0  0  0  0  0  0  0  0  0  0  0  # atno 17321 bound_to 7965
  140.1996  144.4671  150.6438 LP  0  0  0  0  0  0  0  0  0  0  0  0  # atno 17342 bound_to 10162
  140.6549  143.2235  151.5992 LP  0  0  0  0  0  0  0  0  0  0  0  0  # atno 17343 bound_to 10162
  156.0824  130.5831  150.9587 LP  0  0  0  0  0  0  0  0  0  0  0  0  # atno 17370 bound_to 10713
  157.6299  131.0922  150.8461 LP  0  0  0  0  0  0  0  0  0  0  0  0  # atno 17371 bound_to 10713
  140.3667  134.7641  157.4570 LP  0  0  0  0  0  0  0  0  0  0  0  0  # atno 17394 bound_to 11000
  140.0743  134.5819  155.8608 LP  0  0  0  0  0  0  0  0  0  0  0  0  # atno 17395 bound_to 11000

$$$$
