AV-unprocessed.smi:2799|AV-procd|sdf|10791|dock10
  -GOLD-   2272015223D 1   1.00000     0.00000
 Structure written by MMmdl.
 52 53  0  0  0  0  0  0  0  0  2 V2000
  146.1284  143.2777  154.2620 C   0  0  0  0  0  0  0  0  0  0  0  0
  145.2452  142.5815  155.3082 C   0  0  0  0  0  0  0  0  0  0  0  0
  145.2540  143.3717  156.6277 C   0  0  0  0  0  0  0  0  0  0  0  0
  145.6972  141.1172  155.5060 C   0  0  0  0  0  0  0  0  0  0  0  0
  145.8142  140.3325  154.2447 N   0  3  2  0  0  0  0  0  0  0  0  0
  145.4961  138.8936  154.4554 C   0  0  0  0  0  0  0  0  0  0  0  0
  145.3788  138.1415  153.1205 C   0  0  0  0  0  0  0  0  0  0  0  0
  146.6471  138.3111  152.2784 C   0  0  0  0  0  0  0  0  0  0  0  0
  146.9494  139.8039  152.0949 C   0  0  0  0  0  0  0  0  0  0  0  0
  147.0656  140.5456  153.4484 C   0  0  2  0  0  0  0  0  0  0  0  0
  148.3595  140.2184  154.2426 C   0  0  0  0  0  0  0  0  0  0  0  0
  148.7970  141.3353  155.0761 N   0  0  0  0  0  0  0  0  0  0  0  0
  149.9404  141.3860  155.7752 C   0  0  0  0  0  0  0  0  0  0  0  0
  150.7669  140.4743  155.7863 O   0  0  0  0  0  0  0  0  0  0  0  0
  150.0563  142.5611  156.4202 N   0  0  0  0  0  0  0  0  0  0  0  0
  151.0842  143.0125  157.2662 C   0  0  0  0  0  0  0  0  0  0  0  0
  151.6930  144.2206  157.1609 C   0  0  0  0  0  0  0  0  0  0  0  0
  152.7503  144.5997  158.0670 C   0  0  0  0  0  0  0  0  0  0  0  0
  153.1247  143.7251  159.0111 C   0  0  0  0  0  0  0  0  0  0  0  0
  152.5153  142.4647  159.1318 N   0  0  0  0  0  0  0  0  0  0  0  0
  152.9947  141.5787  160.1957 C   0  0  0  0  0  0  0  0  0  0  0  0
  151.5095  142.0528  158.3038 C   0  0  0  0  0  0  0  0  0  0  0  0
  150.9940  140.9391  158.4301 O   0  0  0  0  0  0  0  0  0  0  0  0
  147.1698  143.3180  154.5834 H   0  0  0  0  0  0  0  0  0  0  0  0
  145.7961  144.3009  154.0842 H   0  0  0  0  0  0  0  0  0  0  0  0
  146.0953  142.7528  153.3067 H   0  0  0  0  0  0  0  0  0  0  0  0
  144.2320  142.5957  154.9079 H   0  0  0  0  0  0  0  0  0  0  0  0
  146.2494  143.3899  157.0728 H   0  0  0  0  0  0  0  0  0  0  0  0
  144.5699  142.9398  157.3583 H   0  0  0  0  0  0  0  0  0  0  0  0
  144.9444  144.4048  156.4671 H   0  0  0  0  0  0  0  0  0  0  0  0
  146.6381  141.0777  156.0549 H   0  0  0  0  0  0  0  0  0  0  0  0
  144.9654  140.6256  156.1490 H   0  0  0  0  0  0  0  0  0  0  0  0
  146.2520  138.4292  155.0891 H   0  0  0  0  0  0  0  0  0  0  0  0
  144.5495  138.8027  154.9896 H   0  0  0  0  0  0  0  0  0  0  0  0
  145.1916  137.0829  153.3036 H   0  0  0  0  0  0  0  0  0  0  0  0
  144.5181  138.5159  152.5646 H   0  0  0  0  0  0  0  0  0  0  0  0
  147.4859  137.8116  152.7634 H   0  0  0  0  0  0  0  0  0  0  0  0
  146.5200  137.8316  151.3073 H   0  0  0  0  0  0  0  0  0  0  0  0
  147.8478  139.9339  151.4920 H   0  0  0  0  0  0  0  0  0  0  0  0
  146.1435  140.2547  151.5139 H   0  0  0  0  0  0  0  0  0  0  0  0
  147.1131  141.6024  153.1891 H   0  0  0  0  0  0  0  0  0  0  0  0
  148.1843  139.3872  154.9244 H   0  0  0  0  0  0  0  0  0  0  0  0
  149.1604  139.8957  153.5770 H   0  0  0  0  0  0  0  0  0  0  0  0
  148.1806  142.1337  155.1240 H   0  0  0  0  0  0  0  0  0  0  0  0
  149.3285  143.2403  156.2502 H   0  0  0  0  0  0  0  0  0  0  0  0
  151.4247  144.9280  156.3930 H   0  0  0  0  0  0  0  0  0  0  0  0
  153.2278  145.5651  157.9864 H   0  0  0  0  0  0  0  0  0  0  0  0
  153.9071  143.9343  159.7261 H   0  0  0  0  0  0  0  0  0  0  0  0
  152.1865  141.3426  160.8896 H   0  0  0  0  0  0  0  0  0  0  0  0
  153.8050  142.0187  160.7783 H   0  0  0  0  0  0  0  0  0  0  0  0
  153.3680  140.6430  159.7765 H   0  0  0  0  0  0  0  0  0  0  0  0
  145.0694  140.6772  153.6560 H   0  0  0  0  0  0  0  0  0  0  0  0
  1  2  1  0  0  0  0
  1 24  1  0  0  0  0
  1 25  1  0  0  0  0
  1 26  1  0  0  0  0
  2  3  1  0  0  0  0
  2  4  1  0  0  0  0
  2 27  1  0  0  0  0
  3 28  1  0  0  0  0
  3 29  1  0  0  0  0
  3 30  1  0  0  0  0
  4  5  1  0  0  0  0
  4 31  1  0  0  0  0
  4 32  1  0  0  0  0
  5 10  1  0  0  0  0
  5  6  1  0  0  0  0
  5 52  1  0  0  0  0
  6  7  1  0  0  0  0
  6 33  1  0  0  0  0
  6 34  1  0  0  0  0
  7  8  1  0  0  0  0
  7 35  1  0  0  0  0
  7 36  1  0  0  0  0
  8  9  1  0  0  0  0
  8 37  1  0  0  0  0
  8 38  1  0  0  0  0
  9 10  1  0  0  0  0
  9 39  1  0  0  0  0
  9 40  1  0  0  0  0
 10 11  1  0  0  0  0
 10 41  1  0  0  0  0
 11 12  1  0  0  0  0
 11 42  1  0  0  0  0
 11 43  1  0  0  0  0
 12 13  1  0  0  0  0
 12 44  1  0  0  0  0
 13 14  2  0  0  0  0
 13 15  1  0  0  0  0
 15 16  1  0  0  0  0
 15 45  1  0  0  0  0
 16 22  1  0  0  0  0
 16 17  2  0  0  0  0
 17 18  1  0  0  0  0
 17 46  1  0  0  0  0
 18 19  2  0  0  0  0
 18 47  1  0  0  0  0
 19 20  1  0  0  0  0
 19 48  1  0  0  0  0
 20 21  1  0  0  0  0
 20 22  1  0  0  0  0
 21 49  1  0  0  0  0
 21 50  1  0  0  0  0
 21 51  1  0  0  0  0
 22 23  2  0  0  0  0
M  CHG  1   5   1
M  END
> <s_m_source_file>
AV-unprocessed.smi

> <i_m_source_file_index>
2799

> <i_lp_mmshare_version>
43012

> <i_f3d_flags>
0

> <s_epik_input>
W0NIM11bQ0hdKFtDSDNdKVtDSDJdTjFbQ0gyXVtDSDJdW0NIMl1bQ0gyXVtDQEhdMVtDSDJdW05IXUMoPU8pW05IXWMyW2NIXVtjSF1bY0hdbihbQ0gzXSljMj1P

> <s_epik_cmdline>
J2VwaWtfcHl0aG9uJywgJy1waCcsICc3LjAnLCAnLXRuJywgJzgnLCAnLW1hJywgJzIwMCcsICctbWV0YWxfYmluZGluZycsICctaW1hZScsICc8aW5maWxlLm1hZT4nLCAnLW9tYWUnLCAnPG91dGZpbGUubWFlPic=

> <r_lp_tautomer_probability>
1

> <r_epik_Ionization_Penalty>
0.0010885

> <r_epik_Ionization_Penalty_Charging>
0.00106921

> <r_epik_Ionization_Penalty_Neutral>
1.92865e-05

> <r_epik_State_Penalty>
0.000697184

> <r_epik_Charging_Adjusted_Penalty>
0.0017664

> <i_epik_Tot_Q>
1

> <i_epik_Tot_abs_Q>
1

> <r_epik_Metal_State_Penalty>
-0

> <b_epik_Metal_Only>
0

> <s_lp_Force_Field>
OPLS_2005

> <r_lp_Energy>
36.9818

> <b_lp_Chiralities_Consistent>
1

> <s_lp_Variant>
AV-unprocessed.smi:2799-3

> <Gold.Version>
5.8.1

> <Gold.Id.Protein>
6NUR|6NUR_protein|mol2

> <Gold.PLP.Fitness>
54.2865

> <Gold.PLP.PLP>
-45.6225

> <Gold.PLP.part.hbond>
-3.0000

> <Gold.PLP.part.metal>
0.0000

> <Gold.PLP.part.buried>
2.3903

> <Gold.PLP.part.nonpolar>
-45.8220

> <Gold.PLP.part.repulsive>
0.2534

> <Gold.PLP.ligand.clash>
0.0000

> <Gold.PLP.ligand.torsion>
1.0726

> <Gold.PLP.Chemscore.Hbond>
3.5790

> <Gold.PLP.Chemscore.CHOScore>
0.0000

> <Gold.PLP.Chemscore.Metal>
0.0000

> <Gold.Chemscore.Hbonds>
donor molecule, donor type, donor heavy atom, donor atom, acceptor molecule, acceptor atom, score
      L1  H     5    52       P1 10175  2.00
      L1  H    15    45       P1  8028  0.98

> <Gold.PLP.Chemscore.Internal.Correction>
0.0720

> <Gold.Rescore>
     Score         DG    S(hbond)    S(metal)    S(lipo)     H(rot)  DE(clash)    DE(int)     intcor
     19.25     -22.20       2.24        0.00     113.36       1.57       1.57       1.38       ----

> <Gold.Chemscore.Fitness>
19.2500

> <Gold.Chemscore.DG>
-22.2044

> <Gold.Chemscore.ZeroCoef>
-5.4800

> <Gold.Chemscore.Hbond>
2.2388

> <Gold.Chemscore.Metal>
0.0000

> <Gold.Chemscore.Lipo>
113.3581

> <Gold.Chemscore.Internal_Hbond>
0.0000

> <Gold.Chemscore.DEClash>
1.5750

> <Gold.Chemscore.DEInternal>
1.3795

> <Gold.Chemscore.Rot>
1.5688

> <Gold.Chemscore.Internal.Correction>
   9.000000E+99

> <Gold.Chemscore.Hbonds>
donor molecule, donor type, donor heavy atom, donor atom, acceptor molecule, acceptor atom, score
      L1  H     5    52       P1 10175  0.95
      L1  H    15    45       P1  8028  0.93

> <Gold.Chemscore.Hbond.Weighted>
-7.4776

> <Gold.Chemscore.Metal.Weighted>
-0.0000

> <Gold.Chemscore.Lipo.Weighted>
-13.2629

> <Gold.Chemscore.Internal_Hbond.Weighted>
0.0000

> <Gold.Chemscore.DEClash.Weighted>
1.5750

> <Gold.Chemscore.DEInternal.Weighted>
1.3795

> <Gold.Chemscore.Rot.Weighted>
4.0161

> <Gold.Chemscore.Internal.Correction.Weighted>
   9.000000E+99

> <Gold.Protein.RotatedTorsions>
[ 6907 6896 6895 6894 ] final  138.54 input  -60.11 | X-H torsion
[ 7974 7965 7964 7962 ] final  -61.42 input  175.53 | X-H torsion
[ 8008 7997 7996 7995 ] final   82.29 input   59.86 | X-H torsion
[ 10167 10162 10161 10158 ] final    3.47 input  -65.29 | X-H torsion
[ 10718 10713 10712 10709 ] final  112.77 input   66.30 | X-H torsion
[ 10763 10752 10751 10750 ] final -108.49 input  -60.55 | X-H torsion
[ 11005 11000 10999 10996 ] final  110.35 input  -57.11 | X-H torsion

> <Gold.Protein.ActiveResidues>
 VAL166  LYS551  ARG553  GLY616  TRP617  ASP618  TYR619  PRO620  LYS621  CYS622 
 ASP623  PHE694  ASN695  SER759  ASP760  ASP761  ALA762  ILE779  LEU786  VAL792 
 PHE793  MET794  SER795  GLU796  ALA797  LYS798  CYS799  TRP800  GLU811  SER814 

> <Gold.Protein.RotatedAtoms>
  152.2654  133.5335  159.5406 H   0  0  0  0  0  0  0  0  0  0  0  0  # atno 6907 bound_to 6896
  150.7140  134.0771  159.3894 H   0  0  0  0  0  0  0  0  0  0  0  0  # atno 6908 bound_to 6896
  151.8687  135.0497  160.0528 H   0  0  0  0  0  0  0  0  0  0  0  0  # atno 6909 bound_to 6896
  145.8036  140.8640  143.0218 H   0  0  0  0  0  0  0  0  0  0  0  0  # atno 7974 bound_to 7965
  155.9086  140.3429  155.6081 H   0  0  0  0  0  0  0  0  0  0  0  0  # atno 8008 bound_to 7997
  155.7414  140.0808  157.2262 H   0  0  0  0  0  0  0  0  0  0  0  0  # atno 8009 bound_to 7997
  154.4053  140.1570  156.2608 H   0  0  0  0  0  0  0  0  0  0  0  0  # atno 8010 bound_to 7997
  140.6584  143.7368  150.7694 H   0  0  0  0  0  0  0  0  0  0  0  0  # atno 10167 bound_to 10162
  157.6375  131.0973  150.6943 H   0  0  0  0  0  0  0  0  0  0  0  0  # atno 10718 bound_to 10713
  154.8138  135.4636  154.0589 H   0  0  0  0  0  0  0  0  0  0  0  0  # atno 10763 bound_to 10752
  153.1998  135.6867  153.8253 H   0  0  0  0  0  0  0  0  0  0  0  0  # atno 10764 bound_to 10752
  153.7741  135.3266  155.3333 H   0  0  0  0  0  0  0  0  0  0  0  0  # atno 10765 bound_to 10752
  139.8880  134.9482  156.6265 H   0  0  0  0  0  0  0  0  0  0  0  0  # atno 11005 bound_to 11000
  144.6765  140.0295  143.7483 LP  0  0  0  0  0  0  0  0  0  0  0  0  # atno 17320 bound_to 7965
  145.9851  139.2971  143.1018 LP  0  0  0  0  0  0  0  0  0  0  0  0  # atno 17321 bound_to 7965
  140.1032  143.4768  152.2413 LP  0  0  0  0  0  0  0  0  0  0  0  0  # atno 17342 bound_to 10162
  139.5812  144.7511  151.3636 LP  0  0  0  0  0  0  0  0  0  0  0  0  # atno 17343 bound_to 10162
  156.7272  130.4699  149.5508 LP  0  0  0  0  0  0  0  0  0  0  0  0  # atno 17370 bound_to 10713
  156.1626  130.6384  151.0738 LP  0  0  0  0  0  0  0  0  0  0  0  0  # atno 17371 bound_to 10713
  140.7699  133.8747  155.8484 LP  0  0  0  0  0  0  0  0  0  0  0  0  # atno 17394 bound_to 11000
  140.9850  134.1354  157.4460 LP  0  0  0  0  0  0  0  0  0  0  0  0  # atno 17395 bound_to 11000

$$$$
