AV-unprocessed.smi:212|AV-procd|sdf|1632|dock6
  -GOLD-   2262019583D 1   1.00000     0.00000
 Structure written by MMmdl.
 65 68  0  0  0  0  0  0  0  0  2 V2000
  146.6992  138.3050  155.2212 C   0  0  0  0  0  0  0  0  0  0  0  0
  146.4745  139.6120  154.4363 C   0  0  1  0  0  0  0  0  0  0  0  0
  145.6721  140.6525  155.2432 C   0  0  0  0  0  0  0  0  0  0  0  0
  145.4074  141.8666  154.4269 N   0  3  1  0  0  0  0  0  0  0  0  0
  144.5371  142.8592  155.1125 C   0  0  0  0  0  0  0  0  0  0  0  0
  143.0877  142.3553  155.3150 C   0  0  0  0  0  0  0  0  0  0  0  0
  142.9865  141.5568  156.6257 C   0  0  0  0  0  0  0  0  0  0  0  0
  142.0625  143.5043  155.3115 C   0  0  0  0  0  0  0  0  0  0  0  0
  142.7526  141.4577  154.2755 O   0  0  0  0  0  0  0  0  0  0  0  0
  146.6568  142.4647  153.8897 C   0  0  0  0  0  0  0  0  0  0  0  0
  147.5022  141.4247  153.1254 C   0  0  0  0  0  0  0  0  0  0  0  0
  147.7044  140.2009  153.8967 N   0  0  0  0  0  0  0  0  0  0  0  0
  148.8066  140.1933  154.6838 C   0  0  0  0  0  0  0  0  0  0  0  0
  149.9302  139.5422  154.2854 N   0  0  0  0  0  0  0  0  0  0  0  0
  151.0177  139.5502  155.0626 C   0  0  0  0  0  0  0  0  0  0  0  0
  151.1913  140.1360  156.2496 N   0  0  0  0  0  0  0  0  0  0  0  0
  150.0624  140.7888  156.6498 C   0  0  0  0  0  0  0  0  0  0  0  0
  148.8362  140.8654  155.9334 C   0  0  0  0  0  0  0  0  0  0  0  0
  147.9092  141.6128  156.6482 N   0  0  0  0  0  0  0  0  0  0  0  0
  148.5506  141.9558  157.7325 C   0  0  0  0  0  0  0  0  0  0  0  0
  149.8474  141.5012  157.8164 N   0  0  0  0  0  0  0  0  0  0  0  0
  150.7776  141.7356  158.9060 C   0  0  0  0  0  0  0  0  0  0  0  0
  151.8495  142.8148  158.5992 C   0  0  1  0  0  0  0  0  0  0  0  0
  151.2527  144.0591  157.8922 C   0  0  0  0  0  0  0  0  0  0  0  0
  151.5013  144.0475  156.5011 O   0  0  0  0  0  0  0  0  0  0  0  0
  152.5922  143.2200  159.8992 C   0  0  1  0  0  0  0  0  0  0  0  0
  151.8231  144.1610  160.8122 C   0  0  0  0  0  0  0  0  0  0  0  0
  152.5554  143.9886  162.1357 C   0  0  0  0  0  0  0  0  0  0  0  0
  152.9048  142.6125  162.1815 O   0  0  0  0  0  0  0  0  0  0  0  0
  152.8836  142.0629  160.8666 C   0  0  0  0  0  0  0  0  0  0  0  0
  145.7472  137.8534  155.5013 H   0  0  0  0  0  0  0  0  0  0  0  0
  147.2623  138.4720  156.1400 H   0  0  0  0  0  0  0  0  0  0  0  0
  147.2424  137.5743  154.6210 H   0  0  0  0  0  0  0  0  0  0  0  0
  145.8729  139.3456  153.5661 H   0  0  0  0  0  0  0  0  0  0  0  0
  144.7294  140.2107  155.5642 H   0  0  0  0  0  0  0  0  0  0  0  0
  146.2089  140.9309  156.1511 H   0  0  0  0  0  0  0  0  0  0  0  0
  144.9822  143.1560  156.0639 H   0  0  0  0  0  0  0  0  0  0  0  0
  144.4926  143.7739  154.5187 H   0  0  0  0  0  0  0  0  0  0  0  0
  143.2216  142.1824  157.4876 H   0  0  0  0  0  0  0  0  0  0  0  0
  143.6786  140.7138  156.6337 H   0  0  0  0  0  0  0  0  0  0  0  0
  141.9819  141.1585  156.7755 H   0  0  0  0  0  0  0  0  0  0  0  0
  142.2836  144.2308  156.0940 H   0  0  0  0  0  0  0  0  0  0  0  0
  141.0516  143.1334  155.4854 H   0  0  0  0  0  0  0  0  0  0  0  0
  142.0514  144.0371  154.3601 H   0  0  0  0  0  0  0  0  0  0  0  0
  143.5083  141.3446  153.7184 H   0  0  0  0  0  0  0  0  0  0  0  0
  146.4087  143.2866  153.2173 H   0  0  0  0  0  0  0  0  0  0  0  0
  147.2300  142.8962  154.7107 H   0  0  0  0  0  0  0  0  0  0  0  0
  146.9980  141.1554  152.1968 H   0  0  0  0  0  0  0  0  0  0  0  0
  148.4626  141.8560  152.8385 H   0  0  0  0  0  0  0  0  0  0  0  0
  151.8717  139.0117  154.6786 H   0  0  0  0  0  0  0  0  0  0  0  0
  148.0922  142.5503  158.5095 H   0  0  0  0  0  0  0  0  0  0  0  0
  150.2088  142.0143  159.7941 H   0  0  0  0  0  0  0  0  0  0  0  0
  151.2494  140.7798  159.1333 H   0  0  0  0  0  0  0  0  0  0  0  0
  152.5904  142.3732  157.9303 H   0  0  0  0  0  0  0  0  0  0  0  0
  150.1796  144.1307  158.0727 H   0  0  0  0  0  0  0  0  0  0  0  0
  151.6939  144.9799  158.2707 H   0  0  0  0  0  0  0  0  0  0  0  0
  150.6795  144.1626  156.0487 H   0  0  0  0  0  0  0  0  0  0  0  0
  153.5381  143.6981  159.6388 H   0  0  0  0  0  0  0  0  0  0  0  0
  151.8286  145.1965  160.4704 H   0  0  0  0  0  0  0  0  0  0  0  0
  150.7862  143.8369  160.9131 H   0  0  0  0  0  0  0  0  0  0  0  0
  153.4692  144.5838  162.1454 H   0  0  0  0  0  0  0  0  0  0  0  0
  151.9499  144.2791  162.9942 H   0  0  0  0  0  0  0  0  0  0  0  0
  152.0944  141.3108  160.8274 H   0  0  0  0  0  0  0  0  0  0  0  0
  153.8293  141.5685  160.6434 H   0  0  0  0  0  0  0  0  0  0  0  0
  144.8866  141.5552  153.6197 H   0  0  0  0  0  0  0  0  0  0  0  0
  1  2  1  0  0  0  0
  1 31  1  0  0  0  0
  1 32  1  0  0  0  0
  1 33  1  0  0  0  0
  2 12  1  0  0  0  0
  2  3  1  0  0  0  0
  2 34  1  0  0  0  0
  3  4  1  0  0  0  0
  3 35  1  0  0  0  0
  3 36  1  0  0  0  0
  4  5  1  0  0  0  0
  4 10  1  0  0  0  0
  4 65  1  0  0  0  0
  5  6  1  0  0  0  0
  5 37  1  0  0  0  0
  5 38  1  0  0  0  0
  6  7  1  0  0  0  0
  6  8  1  0  0  0  0
  6  9  1  0  0  0  0
  7 39  1  0  0  0  0
  7 40  1  0  0  0  0
  7 41  1  0  0  0  0
  8 42  1  0  0  0  0
  8 43  1  0  0  0  0
  8 44  1  0  0  0  0
  9 45  1  0  0  0  0
 10 11  1  0  0  0  0
 10 46  1  0  0  0  0
 10 47  1  0  0  0  0
 11 12  1  0  0  0  0
 11 48  1  0  0  0  0
 11 49  1  0  0  0  0
 12 13  1  0  0  0  0
 13 18  1  0  0  0  0
 13 14  2  0  0  0  0
 14 15  1  0  0  0  0
 15 16  2  0  0  0  0
 15 50  1  0  0  0  0
 16 17  1  0  0  0  0
 17 21  1  0  0  0  0
 17 18  2  0  0  0  0
 18 19  1  0  0  0  0
 19 20  2  0  0  0  0
 20 21  1  0  0  0  0
 20 51  1  0  0  0  0
 21 22  1  0  0  0  0
 22 23  1  0  0  0  0
 22 52  1  0  0  0  0
 22 53  1  0  0  0  0
 23 24  1  0  0  0  0
 23 26  1  0  0  0  0
 23 54  1  0  0  0  0
 24 25  1  0  0  0  0
 24 55  1  0  0  0  0
 24 56  1  0  0  0  0
 25 57  1  0  0  0  0
 26 30  1  0  0  0  0
 26 27  1  0  0  0  0
 26 58  1  0  0  0  0
 27 28  1  0  0  0  0
 27 59  1  0  0  0  0
 27 60  1  0  0  0  0
 28 29  1  0  0  0  0
 28 61  1  0  0  0  0
 28 62  1  0  0  0  0
 29 30  1  0  0  0  0
 30 63  1  0  0  0  0
 30 64  1  0  0  0  0
M  CHG  1   4   1
M  END
> <s_m_source_file>
AV-unprocessed.smi

> <i_m_source_file_index>
212

> <i_lp_mmshare_version>
43012

> <i_f3d_flags>
0

> <s_epik_input>
W0NIM11bQ0BASF0xW0NIMl1OKFtDSDJdQyhbQ0gzXSkoW0NIM10pW09IXSlbQ0gyXVtDSDJdTjFjKG5bY0hdbjIpYyhjMjMpbltjSF1uM1tDSDJdW0NASF0oW0NIMl1bT0hdKVtDQEBIXTRbQ0gyXVtDSDJdT1tDSDJdNA==

> <s_epik_cmdline>
J2VwaWtfcHl0aG9uJywgJy1waCcsICc3LjAnLCAnLXRuJywgJzgnLCAnLW1hJywgJzIwMCcsICctbWV0YWxfYmluZGluZycsICctaW1hZScsICc8aW5maWxlLm1hZT4nLCAnLW9tYWUnLCAnPG91dGZpbGUubWFlPic=

> <r_lp_tautomer_probability>
1

> <r_epik_Ionization_Penalty>
0.00182193

> <r_epik_Ionization_Penalty_Charging>
0.00173996

> <r_epik_Ionization_Penalty_Neutral>
8.19718e-05

> <r_epik_State_Penalty>
-0

> <r_epik_Charging_Adjusted_Penalty>
0.00173996

> <i_epik_Tot_Q>
1

> <i_epik_Tot_abs_Q>
1

> <r_epik_Metal_State_Penalty>
-0

> <b_epik_Metal_Only>
0

> <s_lp_Force_Field>
OPLS_2005

> <r_lp_Energy>
59.0262

> <b_lp_Chiralities_Consistent>
1

> <s_lp_Variant>
AV-unprocessed.smi:212-16

> <Gold.Version>
5.8.1

> <Gold.Id.Protein>
6NUR|6NUR_protein|mol2

> <Gold.PLP.Fitness>
53.5121

> <Gold.PLP.PLP>
-45.5536

> <Gold.PLP.part.hbond>
-4.6642

> <Gold.PLP.part.metal>
0.0000

> <Gold.PLP.part.buried>
-6.0321

> <Gold.PLP.part.nonpolar>
-36.1428

> <Gold.PLP.part.repulsive>
1.4014

> <Gold.PLP.ligand.clash>
0.0000

> <Gold.PLP.ligand.torsion>
2.0951

> <Gold.PLP.Chemscore.Hbond>
3.6720

> <Gold.PLP.Chemscore.CHOScore>
0.0000

> <Gold.PLP.Chemscore.Metal>
0.0000

> <Gold.Chemscore.Hbonds>
donor molecule, donor type, donor heavy atom, donor atom, acceptor molecule, acceptor atom, score
      L1  H     4    65       P1 10175  1.50
      L1  H     9    45       P1 10175  0.28
      L1  H    25    57       P1  8028  1.00

> <Gold.PLP.Chemscore.Internal.Correction>
1.1326

> <Gold.Rescore>
     Score         DG    S(hbond)    S(metal)    S(lipo)     H(rot)  DE(clash)    DE(int)     intcor
     12.27     -16.20       2.61        0.00      97.57       3.68       0.15       3.77       ----

> <Gold.Chemscore.Fitness>
12.2698

> <Gold.Chemscore.DG>
-16.1965

> <Gold.Chemscore.ZeroCoef>
-5.4800

> <Gold.Chemscore.Hbond>
2.6123

> <Gold.Chemscore.Metal>
0.0000

> <Gold.Chemscore.Lipo>
97.5678

> <Gold.Chemscore.Internal_Hbond>
0.0000

> <Gold.Chemscore.DEClash>
0.1550

> <Gold.Chemscore.DEInternal>
3.7717

> <Gold.Chemscore.Rot>
3.6812

> <Gold.Chemscore.Internal.Correction>
   9.000000E+99

> <Gold.Chemscore.Hbonds>
donor molecule, donor type, donor heavy atom, donor atom, acceptor molecule, acceptor atom, score
      L1  H     4    65       P1 10175  0.09
      L1  H     9    45       P1 10175  0.02
      L1  H    25    57       P1  8028  0.99

> <Gold.Chemscore.Hbond.Weighted>
-8.7250

> <Gold.Chemscore.Metal.Weighted>
-0.0000

> <Gold.Chemscore.Lipo.Weighted>
-11.4154

> <Gold.Chemscore.Internal_Hbond.Weighted>
0.0000

> <Gold.Chemscore.DEClash.Weighted>
0.1550

> <Gold.Chemscore.DEInternal.Weighted>
3.7717

> <Gold.Chemscore.Rot.Weighted>
9.4239

> <Gold.Chemscore.Internal.Correction.Weighted>
   9.000000E+99

> <Gold.Protein.RotatedTorsions>
[ 6907 6896 6895 6894 ] final  125.79 input  -60.11 | X-H torsion
[ 7974 7965 7964 7962 ] final   -3.07 input  175.53 | X-H torsion
[ 8008 7997 7996 7995 ] final -103.72 input   59.86 | X-H torsion
[ 10167 10162 10161 10158 ] final -122.93 input  -65.29 | X-H torsion
[ 10718 10713 10712 10709 ] final  -28.03 input   66.30 | X-H torsion
[ 10763 10752 10751 10750 ] final   15.52 input  -60.55 | X-H torsion
[ 11005 11000 10999 10996 ] final  -84.32 input  -57.11 | X-H torsion

> <Gold.Protein.ActiveResidues>
 VAL166  LYS551  ARG553  GLY616  TRP617  ASP618  TYR619  PRO620  LYS621  CYS622 
 ASP623  PHE694  ASN695  SER759  ASP760  ASP761  ALA762  ILE779  LEU786  VAL792 
 PHE793  MET794  SER795  GLU796  ALA797  LYS798  CYS799  TRP800  GLU811  SER814 

> <Gold.Protein.RotatedAtoms>
  152.3960  133.6748  159.6276 H   0  0  0  0  0  0  0  0  0  0  0  0  # atno 6907 bound_to 6896
  150.7859  133.8872  159.3312 H   0  0  0  0  0  0  0  0  0  0  0  0  # atno 6908 bound_to 6896
  151.6649  135.0986  160.0238 H   0  0  0  0  0  0  0  0  0  0  0  0  # atno 6909 bound_to 6896
  146.2395  140.1666  142.8332 H   0  0  0  0  0  0  0  0  0  0  0  0  # atno 7974 bound_to 7965
  154.8750  140.0421  157.1748 H   0  0  0  0  0  0  0  0  0  0  0  0  # atno 8008 bound_to 7997
  154.8699  140.2957  155.5467 H   0  0  0  0  0  0  0  0  0  0  0  0  # atno 8009 bound_to 7997
  156.2999  140.2431  156.3686 H   0  0  0  0  0  0  0  0  0  0  0  0  # atno 8010 bound_to 7997
  140.0089  143.5462  152.2271 H   0  0  0  0  0  0  0  0  0  0  0  0  # atno 10167 bound_to 10162
  156.4305  130.4444  149.7120 H   0  0  0  0  0  0  0  0  0  0  0  0  # atno 10718 bound_to 10713
  153.1518  135.6780  153.8871 H   0  0  0  0  0  0  0  0  0  0  0  0  # atno 10763 bound_to 10752
  153.8295  135.3119  155.3418 H   0  0  0  0  0  0  0  0  0  0  0  0  # atno 10764 bound_to 10752
  154.7868  135.4858  154.0049 H   0  0  0  0  0  0  0  0  0  0  0  0  # atno 10765 bound_to 10752
  141.1651  133.7340  156.8850 H   0  0  0  0  0  0  0  0  0  0  0  0  # atno 11005 bound_to 11000
  145.0046  140.8661  143.5261 LP  0  0  0  0  0  0  0  0  0  0  0  0  # atno 17320 bound_to 7965
  145.1690  139.2415  143.5352 LP  0  0  0  0  0  0  0  0  0  0  0  0  # atno 17321 bound_to 7965
  139.6219  144.7630  151.2723 LP  0  0  0  0  0  0  0  0  0  0  0  0  # atno 17342 bound_to 10162
  140.7389  143.6634  150.8144 LP  0  0  0  0  0  0  0  0  0  0  0  0  # atno 17343 bound_to 10162
  156.4025  130.7682  151.2690 LP  0  0  0  0  0  0  0  0  0  0  0  0  # atno 17370 bound_to 10713
  157.7508  131.0235  150.3838 LP  0  0  0  0  0  0  0  0  0  0  0  0  # atno 17371 bound_to 10713
  140.1688  134.9114  157.2808 LP  0  0  0  0  0  0  0  0  0  0  0  0  # atno 17394 bound_to 11000
  140.2525  134.3666  155.7436 LP  0  0  0  0  0  0  0  0  0  0  0  0  # atno 17395 bound_to 11000

$$$$
