AV-unprocessed.smi:1239|AV-procd|sdf|5194|dock2
  -GOLD-   22720 4273D 1   1.00000     0.00000
 Structure written by MMmdl.
 48 49  0  0  0  0  0  0  0  0  4 V2000
  150.3531  135.3851  155.0482 C   0  0  0  0  0  0  0  0  0  0  0  0
  148.8073  135.2836  155.0737 C   0  0  1  0  0  0  0  0  0  0  0  0
  148.0771  136.6455  155.2333 C   0  0  0  0  0  0  0  0  0  0  0  0
  148.6691  137.4666  156.2954 N   0  5  0  0  0  0  0  0  0  0  0  0
  149.1899  138.7117  156.1245 C   0  0  0  0  0  0  0  0  0  0  0  0
  149.2544  139.3594  155.0734 O   0  0  0  0  0  0  0  0  0  0  0  0
  149.7118  139.2030  157.2622 N   0  0  0  0  0  0  0  0  0  0  0  0
  150.3074  140.4697  157.5083 C   0  0  0  0  0  0  0  0  0  0  0  0
  151.2520  140.5591  158.5510 C   0  0  0  0  0  0  0  0  0  0  0  0
  151.8554  141.7983  158.8476 C   0  0  0  0  0  0  0  0  0  0  0  0
  151.5008  142.9507  158.1039 C   0  0  0  0  0  0  0  0  0  0  0  0
  152.0585  144.2259  158.3409 N   0  0  0  0  0  0  0  0  0  0  0  0
  152.2756  145.1393  157.2243 C   0  0  0  0  0  0  0  0  0  0  0  0
  152.2838  144.6732  159.7091 C   0  0  0  0  0  0  0  0  0  0  0  0
  150.5774  142.8175  157.1206 N   0  3  0  0  0  0  0  0  0  0  0  0
  149.9756  141.6509  156.8036 C   0  0  0  0  0  0  0  0  0  0  0  0
  148.2183  134.4815  153.9542 N   0  3  0  0  0  0  0  0  0  0  0  0
  148.7075  133.0853  153.7973 C   0  0  0  0  0  0  0  0  0  0  0  0
  148.1628  132.4862  152.4920 C   0  0  0  0  0  0  0  0  0  0  0  0
  146.7409  132.5230  152.5143 O   0  0  0  0  0  0  0  0  0  0  0  0
  146.2425  133.8529  152.6005 C   0  0  0  0  0  0  0  0  0  0  0  0
  146.7368  134.5158  153.8977 C   0  0  0  0  0  0  0  0  0  0  0  0
  150.7398  135.8685  155.9473 H   0  0  0  0  0  0  0  0  0  0  0  0
  150.7279  135.9488  154.1924 H   0  0  0  0  0  0  0  0  0  0  0  0
  150.8048  134.3933  155.0128 H   0  0  0  0  0  0  0  0  0  0  0  0
  148.5807  134.7500  155.9979 H   0  0  0  0  0  0  0  0  0  0  0  0
  148.0844  137.1586  154.2702 H   0  0  0  0  0  0  0  0  0  0  0  0
  147.0242  136.4517  155.4381 H   0  0  0  0  0  0  0  0  0  0  0  0
  149.7066  138.5665  158.0462 H   0  0  0  0  0  0  0  0  0  0  0  0
  151.5194  139.6812  159.1211 H   0  0  0  0  0  0  0  0  0  0  0  0
  152.5817  141.8427  159.6449 H   0  0  0  0  0  0  0  0  0  0  0  0
  151.3305  145.3747  156.7339 H   0  0  0  0  0  0  0  0  0  0  0  0
  152.9472  144.6944  156.4891 H   0  0  0  0  0  0  0  0  0  0  0  0
  152.7224  146.0760  157.5582 H   0  0  0  0  0  0  0  0  0  0  0  0
  152.9918  144.0170  160.2160 H   0  0  0  0  0  0  0  0  0  0  0  0
  151.3481  144.6777  160.2693 H   0  0  0  0  0  0  0  0  0  0  0  0
  152.6917  145.6837  159.7334 H   0  0  0  0  0  0  0  0  0  0  0  0
  149.2457  141.7181  156.0111 H   0  0  0  0  0  0  0  0  0  0  0  0
  149.7969  133.0616  153.7776 H   0  0  0  0  0  0  0  0  0  0  0  0
  148.3844  132.4733  154.6402 H   0  0  0  0  0  0  0  0  0  0  0  0
  148.5432  133.0293  151.6252 H   0  0  0  0  0  0  0  0  0  0  0  0
  148.4882  131.4509  152.3887 H   0  0  0  0  0  0  0  0  0  0  0  0
  146.5580  134.4270  151.7278 H   0  0  0  0  0  0  0  0  0  0  0  0
  145.1530  133.8236  152.5854 H   0  0  0  0  0  0  0  0  0  0  0  0
  146.3246  134.0052  154.7693 H   0  0  0  0  0  0  0  0  0  0  0  0
  146.3850  135.5479  153.9290 H   0  0  0  0  0  0  0  0  0  0  0  0
  150.3154  143.6489  156.5910 H   0  0  0  0  0  0  0  0  0  0  0  0
  148.5261  134.9671  153.1226 H   0  0  0  0  0  0  0  0  0  0  0  0
  1  2  1  0  0  0  0
  1 23  1  0  0  0  0
  1 24  1  0  0  0  0
  1 25  1  0  0  0  0
  2  3  1  0  0  0  0
  2 17  1  0  0  0  0
  2 26  1  0  0  0  0
  3  4  1  0  0  0  0
  3 27  1  0  0  0  0
  3 28  1  0  0  0  0
  4  5  1  0  0  0  0
  5  6  2  0  0  0  0
  5  7  1  0  0  0  0
  7  8  1  0  0  0  0
  7 29  1  0  0  0  0
  8 16  1  0  0  0  0
  8  9  2  0  0  0  0
  9 10  1  0  0  0  0
  9 30  1  0  0  0  0
 10 11  2  0  0  0  0
 10 31  1  0  0  0  0
 11 12  1  0  0  0  0
 11 15  1  0  0  0  0
 12 13  1  0  0  0  0
 12 14  1  0  0  0  0
 13 32  1  0  0  0  0
 13 33  1  0  0  0  0
 13 34  1  0  0  0  0
 14 35  1  0  0  0  0
 14 36  1  0  0  0  0
 14 37  1  0  0  0  0
 15 16  2  0  0  0  0
 15 47  1  0  0  0  0
 16 38  1  0  0  0  0
 17 22  1  0  0  0  0
 17 18  1  0  0  0  0
 17 48  1  0  0  0  0
 18 19  1  0  0  0  0
 18 39  1  0  0  0  0
 18 40  1  0  0  0  0
 19 20  1  0  0  0  0
 19 41  1  0  0  0  0
 19 42  1  0  0  0  0
 20 21  1  0  0  0  0
 21 22  1  0  0  0  0
 21 43  1  0  0  0  0
 21 44  1  0  0  0  0
 22 45  1  0  0  0  0
 22 46  1  0  0  0  0
M  CHG  1   4  -1
M  CHG  1  15   1
M  CHG  1  17   1
M  END
> <s_m_source_file>
AV-unprocessed.smi

> <i_m_source_file_index>
1239

> <i_lp_mmshare_version>
43012

> <i_f3d_flags>
0

> <s_epik_input>
W0NIMl0xW0NIMl1PW0NIMl1bQ0gyXU4xW0NASF0oW0NIM10pW0NIMl1bTkhdQyg9TylbTkhdYzJbY0hdW2NIXWMoTihbQ0gzXSlbQ0gzXSluW2NIXTI=

> <s_epik_cmdline>
J2VwaWtfcHl0aG9uJywgJy1waCcsICc3LjAnLCAnLXRuJywgJzgnLCAnLW1hJywgJzIwMCcsICctbWV0YWxfYmluZGluZycsICctaW1hZScsICc8aW5maWxlLm1hZT4nLCAnLW9tYWUnLCAnPG91dGZpbGUubWFlPic=

> <r_lp_tautomer_probability>
0.999994

> <r_epik_Ionization_Penalty>
7.43905

> <r_epik_Ionization_Penalty_Charging>
7.43905

> <r_epik_Ionization_Penalty_Neutral>
3.43851e-06

> <r_epik_State_Penalty>
7.63789

> <r_epik_Charging_Adjusted_Penalty>
15.0769

> <i_epik_Tot_Q>
1

> <i_epik_Tot_abs_Q>
3

> <r_epik_Metal_State_Penalty>
3.83826

> <b_epik_Metal_Only>
1

> <s_lp_Force_Field>
OPLS_2005

> <r_lp_Energy>
25.3923

> <b_lp_Chiralities_Consistent>
1

> <s_lp_Variant>
AV-unprocessed.smi:1239-10

> <Gold.Version>
5.8.1

> <Gold.Id.Protein>
6NUR|6NUR_protein|mol2

> <Gold.PLP.Fitness>
42.5491

> <Gold.PLP.PLP>
-32.0582

> <Gold.PLP.part.hbond>
-2.0000

> <Gold.PLP.part.metal>
0.0000

> <Gold.PLP.part.buried>
-3.2685

> <Gold.PLP.part.nonpolar>
-27.7142

> <Gold.PLP.part.repulsive>
0.2812

> <Gold.PLP.ligand.clash>
0.0000

> <Gold.PLP.ligand.torsion>
0.8656

> <Gold.PLP.Chemscore.Hbond>
3.9840

> <Gold.PLP.Chemscore.CHOScore>
0.0000

> <Gold.PLP.Chemscore.Metal>
0.0000

> <Gold.Chemscore.Hbonds>
donor molecule, donor type, donor heavy atom, donor atom, acceptor molecule, acceptor atom, score
      L1  H    15    47       P1  8028  1.98
      L1  H    17    48       P1  7948  2.00

> <Gold.PLP.Chemscore.Internal.Correction>
0.2702

> <Gold.Rescore>
     Score         DG    S(hbond)    S(metal)    S(lipo)     H(rot)  DE(clash)    DE(int)     intcor
     13.70     -17.45       1.90        0.00      80.43       1.48       1.92       1.83       ----

> <Gold.Chemscore.Fitness>
13.7033

> <Gold.Chemscore.DG>
-17.4497

> <Gold.Chemscore.ZeroCoef>
-5.4800

> <Gold.Chemscore.Hbond>
1.9028

> <Gold.Chemscore.Metal>
0.0000

> <Gold.Chemscore.Lipo>
80.4344

> <Gold.Chemscore.Internal_Hbond>
0.0000

> <Gold.Chemscore.DEClash>
1.9152

> <Gold.Chemscore.DEInternal>
1.8312

> <Gold.Chemscore.Rot>
1.4830

> <Gold.Chemscore.Internal.Correction>
   9.000000E+99

> <Gold.Chemscore.Hbonds>
donor molecule, donor type, donor heavy atom, donor atom, acceptor molecule, acceptor atom, score
      L1  H    15    47       P1  8028  0.91
      L1  H    17    48       P1  7948  0.65

> <Gold.Chemscore.Hbond.Weighted>
-6.3553

> <Gold.Chemscore.Metal.Weighted>
-0.0000

> <Gold.Chemscore.Lipo.Weighted>
-9.4108

> <Gold.Chemscore.Internal_Hbond.Weighted>
0.0000

> <Gold.Chemscore.DEClash.Weighted>
1.9152

> <Gold.Chemscore.DEInternal.Weighted>
1.8312

> <Gold.Chemscore.Rot.Weighted>
3.7964

> <Gold.Chemscore.Internal.Correction.Weighted>
   9.000000E+99

> <Gold.Protein.RotatedTorsions>
[ 6907 6896 6895 6894 ] final  153.44 input  -60.11 | X-H torsion
[ 7974 7965 7964 7962 ] final  158.23 input  175.53 | X-H torsion
[ 8008 7997 7996 7995 ] final   94.43 input   59.86 | X-H torsion
[ 10167 10162 10161 10158 ] final   57.49 input  -65.29 | X-H torsion
[ 10718 10713 10712 10709 ] final  112.38 input   66.30 | X-H torsion
[ 10763 10752 10751 10750 ] final  132.69 input  -60.55 | X-H torsion
[ 11005 11000 10999 10996 ] final   69.88 input  -57.11 | X-H torsion

> <Gold.Protein.ActiveResidues>
 VAL166  LYS551  ARG553  GLY616  TRP617  ASP618  TYR619  PRO620  LYS621  CYS622 
 ASP623  PHE694  ASN695  SER759  ASP760  ASP761  ALA762  ILE779  LEU786  VAL792 
 PHE793  MET794  SER795  GLU796  ALA797  LYS798  CYS799  TRP800  GLU811  SER814 

> <Gold.Protein.RotatedAtoms>
  152.0727  133.4114  159.4465 H   0  0  0  0  0  0  0  0  0  0  0  0  # atno 6907 bound_to 6896
  150.6863  134.3073  159.4741 H   0  0  0  0  0  0  0  0  0  0  0  0  # atno 6908 bound_to 6896
  152.0906  134.9409  160.0622 H   0  0  0  0  0  0  0  0  0  0  0  0  # atno 6909 bound_to 6896
  144.7857  139.7450  143.6241 H   0  0  0  0  0  0  0  0  0  0  0  0  # atno 7974 bound_to 7965
  156.0578  140.3300  155.7426 H   0  0  0  0  0  0  0  0  0  0  0  0  # atno 8008 bound_to 7997
  155.5502  140.0609  157.2869 H   0  0  0  0  0  0  0  0  0  0  0  0  # atno 8009 bound_to 7997
  154.4466  140.1895  156.0667 H   0  0  0  0  0  0  0  0  0  0  0  0  # atno 8010 bound_to 7997
  140.1974  144.4023  150.6544 H   0  0  0  0  0  0  0  0  0  0  0  0  # atno 10167 bound_to 10162
  157.6395  131.0966  150.6887 H   0  0  0  0  0  0  0  0  0  0  0  0  # atno 10718 bound_to 10713
  153.7948  135.3150  155.3383 H   0  0  0  0  0  0  0  0  0  0  0  0  # atno 10763 bound_to 10752
  154.8112  135.4666  154.0524 H   0  0  0  0  0  0  0  0  0  0  0  0  # atno 10764 bound_to 10752
  153.1853  135.6900  153.8510 H   0  0  0  0  0  0  0  0  0  0  0  0  # atno 10765 bound_to 10752
  139.9629  134.7030  156.0608 H   0  0  0  0  0  0  0  0  0  0  0  0  # atno 11005 bound_to 11000
  146.2088  139.5430  142.9695 LP  0  0  0  0  0  0  0  0  0  0  0  0  # atno 17320 bound_to 7965
  145.5927  141.0367  143.2061 LP  0  0  0  0  0  0  0  0  0  0  0  0  # atno 17321 bound_to 7965
  140.6414  143.2204  151.6281 LP  0  0  0  0  0  0  0  0  0  0  0  0  # atno 17342 bound_to 10162
  139.5231  144.3143  152.0966 LP  0  0  0  0  0  0  0  0  0  0  0  0  # atno 17343 bound_to 10162
  156.7213  130.4681  149.5522 LP  0  0  0  0  0  0  0  0  0  0  0  0  # atno 17370 bound_to 10713
  156.1664  130.6408  151.0783 LP  0  0  0  0  0  0  0  0  0  0  0  0  # atno 17371 bound_to 10713
  141.1307  133.6587  156.3457 LP  0  0  0  0  0  0  0  0  0  0  0  0  # atno 17394 bound_to 11000
  140.5461  134.6073  157.5394 LP  0  0  0  0  0  0  0  0  0  0  0  0  # atno 17395 bound_to 11000

$$$$
