AV-unprocessed.smi:460|AV-procd|sdf|2627|dock2
  -GOLD-   2262023 33D 1   1.00000     0.00000
 Structure written by MMmdl.
 46 48  0  0  0  0  0  0  0  0  1 V2000
  147.5620  140.6892  153.5740 C   0  0  0  0  0  0  0  0  0  0  0  0
  148.5271  141.4511  154.4960 C   0  0  0  0  0  0  0  0  0  0  0  0
  149.5811  140.5740  155.2057 C   0  0  1  0  0  0  0  0  0  0  0  0
  150.4505  140.0346  154.2285 O   0  0  0  0  0  0  0  0  0  0  0  0
  150.3215  141.2940  156.3031 C   0  0  0  0  0  0  0  0  0  0  0  0
  150.6551  142.5845  156.2148 N   0  0  0  0  0  0  0  0  0  0  0  0
  151.2934  142.8214  157.4154 C   0  0  0  0  0  0  0  0  0  0  0  0
  151.8917  143.9976  157.9213 C   0  0  0  0  0  0  0  0  0  0  0  0
  152.5005  143.9984  159.1936 C   0  0  0  0  0  0  0  0  0  0  0  0
  152.5166  142.8267  159.9775 C   0  0  0  0  0  0  0  0  0  0  0  0
  151.9219  141.6461  159.4934 C   0  0  0  0  0  0  0  0  0  0  0  0
  151.3193  141.6490  158.2210 C   0  0  0  0  0  0  0  0  0  0  0  0
  150.6733  140.6775  157.4612 N   0  0  0  0  0  0  0  0  0  0  0  0
  150.4542  139.2914  157.8546 C   0  0  0  0  0  0  0  0  0  0  0  0
  148.9599  138.9615  157.9854 C   0  0  0  0  0  0  0  0  0  0  0  0
  148.7587  138.2597  159.2038 O   0  0  0  0  0  0  0  0  0  0  0  0
  148.5619  136.8970  159.1672 C   0  0  0  0  0  0  0  0  0  0  0  0
  148.8439  136.0914  158.0361 C   0  0  0  0  0  0  0  0  0  0  0  0
  148.6118  134.7044  158.0749 C   0  0  0  0  0  0  0  0  0  0  0  0
  148.0980  134.1101  159.2404 C   0  0  0  0  0  0  0  0  0  0  0  0
  147.8161  134.9019  160.3687 C   0  0  0  0  0  0  0  0  0  0  0  0
  148.0455  136.3008  160.3403 C   0  0  0  0  0  0  0  0  0  0  0  0
  147.7962  137.1405  161.4066 O   0  0  0  0  0  0  0  0  0  0  0  0
  147.3261  136.5707  162.6185 C   0  0  0  0  0  0  0  0  0  0  0  0
  146.8228  141.3670  153.1468 H   0  0  0  0  0  0  0  0  0  0  0  0
  147.0229  139.9129  154.1174 H   0  0  0  0  0  0  0  0  0  0  0  0
  148.0885  140.2163  152.7447 H   0  0  0  0  0  0  0  0  0  0  0  0
  149.0351  142.2111  153.9023 H   0  0  0  0  0  0  0  0  0  0  0  0
  147.9506  141.9969  155.2440 H   0  0  0  0  0  0  0  0  0  0  0  0
  149.0759  139.7120  155.6407 H   0  0  0  0  0  0  0  0  0  0  0  0
  150.9378  139.3266  154.6209 H   0  0  0  0  0  0  0  0  0  0  0  0
  151.8856  144.8996  157.3276 H   0  0  0  0  0  0  0  0  0  0  0  0
  152.9583  144.9018  159.5692 H   0  0  0  0  0  0  0  0  0  0  0  0
  152.9878  142.8335  160.9494 H   0  0  0  0  0  0  0  0  0  0  0  0
  151.9384  140.7455  160.0890 H   0  0  0  0  0  0  0  0  0  0  0  0
  150.9112  138.6452  157.1045 H   0  0  0  0  0  0  0  0  0  0  0  0
  150.9760  139.0840  158.7878 H   0  0  0  0  0  0  0  0  0  0  0  0
  148.3776  139.8837  157.9786 H   0  0  0  0  0  0  0  0  0  0  0  0
  148.6406  138.3517  157.1389 H   0  0  0  0  0  0  0  0  0  0  0  0
  149.2361  136.5161  157.1246 H   0  0  0  0  0  0  0  0  0  0  0  0
  148.8274  134.0964  157.2087 H   0  0  0  0  0  0  0  0  0  0  0  0
  147.9188  133.0452  159.2697 H   0  0  0  0  0  0  0  0  0  0  0  0
  147.4219  134.4114  161.2454 H   0  0  0  0  0  0  0  0  0  0  0  0
  147.2042  137.3595  163.3609 H   0  0  0  0  0  0  0  0  0  0  0  0
  148.0360  135.8467  163.0206 H   0  0  0  0  0  0  0  0  0  0  0  0
  146.3555  136.0916  162.4837 H   0  0  0  0  0  0  0  0  0  0  0  0
  1  2  1  0  0  0  0
  1 25  1  0  0  0  0
  1 26  1  0  0  0  0
  1 27  1  0  0  0  0
  2  3  1  0  0  0  0
  2 28  1  0  0  0  0
  2 29  1  0  0  0  0
  3  4  1  0  0  0  0
  3  5  1  0  0  0  0
  3 30  1  0  0  0  0
  4 31  1  0  0  0  0
  5 13  1  0  0  0  0
  5  6  2  0  0  0  0
  6  7  1  0  0  0  0
  7 12  2  0  0  0  0
  7  8  1  0  0  0  0
  8  9  2  0  0  0  0
  8 32  1  0  0  0  0
  9 10  1  0  0  0  0
  9 33  1  0  0  0  0
 10 11  2  0  0  0  0
 10 34  1  0  0  0  0
 11 12  1  0  0  0  0
 11 35  1  0  0  0  0
 12 13  1  0  0  0  0
 13 14  1  0  0  0  0
 14 15  1  0  0  0  0
 14 36  1  0  0  0  0
 14 37  1  0  0  0  0
 15 16  1  0  0  0  0
 15 38  1  0  0  0  0
 15 39  1  0  0  0  0
 16 17  1  0  0  0  0
 17 22  1  0  0  0  0
 17 18  2  0  0  0  0
 18 19  1  0  0  0  0
 18 40  1  0  0  0  0
 19 20  2  0  0  0  0
 19 41  1  0  0  0  0
 20 21  1  0  0  0  0
 20 42  1  0  0  0  0
 21 22  2  0  0  0  0
 21 43  1  0  0  0  0
 22 23  1  0  0  0  0
 23 24  1  0  0  0  0
 24 44  1  0  0  0  0
 24 45  1  0  0  0  0
 24 46  1  0  0  0  0
M  END
> <s_m_source_file>
AV-unprocessed.smi

> <i_m_source_file_index>
460

> <i_lp_mmshare_version>
43012

> <i_f3d_flags>
0

> <s_epik_input>
W2NIXTFbY0hdW2NIXVtjSF1jKGMxMiluKGMobjIpW0NAQEhdKFtPSF0pW0NIMl1bQ0gzXSlbQ0gyXVtDSDJdT2MzW2NIXVtjSF1bY0hdW2NIXWMzT1tDSDNd

> <s_epik_cmdline>
J2VwaWtfcHl0aG9uJywgJy1waCcsICc3LjAnLCAnLXRuJywgJzgnLCAnLW1hJywgJzIwMCcsICctbWV0YWxfYmluZGluZycsICctaW1hZScsICc8aW5maWxlLm1hZT4nLCAnLW9tYWUnLCAnPG91dGZpbGUubWFlPic=

> <r_lp_tautomer_probability>
1

> <r_epik_Ionization_Penalty>
0.0507825

> <r_epik_Ionization_Penalty_Charging>
0

> <r_epik_Ionization_Penalty_Neutral>
0.0507825

> <r_epik_State_Penalty>
0.0434615

> <r_epik_Charging_Adjusted_Penalty>
0.0434615

> <i_epik_Tot_Q>
0

> <i_epik_Tot_abs_Q>
0

> <r_epik_Metal_State_Penalty>
4.50935e-05

> <b_epik_Metal_Only>
0

> <s_lp_Force_Field>
OPLS_2005

> <r_lp_Energy>
20.6013

> <b_lp_Chiralities_Consistent>
1

> <s_lp_Variant>
AV-unprocessed.smi:460-2

> <Gold.Version>
5.8.1

> <Gold.Id.Protein>
6NUR|6NUR_protein|mol2

> <Gold.PLP.Fitness>
53.6191

> <Gold.PLP.PLP>
-48.2142

> <Gold.PLP.part.hbond>
-5.5361

> <Gold.PLP.part.metal>
0.0000

> <Gold.PLP.part.buried>
-4.4861

> <Gold.PLP.part.nonpolar>
-40.3609

> <Gold.PLP.part.repulsive>
1.9780

> <Gold.PLP.ligand.clash>
0.0000

> <Gold.PLP.ligand.torsion>
1.5831

> <Gold.PLP.Chemscore.Hbond>
2.8000

> <Gold.PLP.Chemscore.CHOScore>
0.0000

> <Gold.PLP.Chemscore.Metal>
0.0000

> <Gold.Chemscore.Hbonds>
donor molecule, donor type, donor heavy atom, donor atom, acceptor molecule, acceptor atom, score
      P1  H  6931  6943       L1    23  1.00
      P1  H  6934  6947       L1    23  0.77
      P1  H  7989  7998       L1     4  1.00

> <Gold.PLP.Chemscore.Internal.Correction>
0.1711

> <Gold.Rescore>
     Score         DG    S(hbond)    S(metal)    S(lipo)     H(rot)  DE(clash)    DE(int)     intcor
     19.24     -21.31       2.33        0.00     120.33       2.36       0.32       1.75       ----

> <Gold.Chemscore.Fitness>
19.2394

> <Gold.Chemscore.DG>
-21.3108

> <Gold.Chemscore.ZeroCoef>
-5.4800

> <Gold.Chemscore.Hbond>
2.3326

> <Gold.Chemscore.Metal>
0.0000

> <Gold.Chemscore.Lipo>
120.3279

> <Gold.Chemscore.Internal_Hbond>
0.0000

> <Gold.Chemscore.DEClash>
0.3235

> <Gold.Chemscore.DEInternal>
1.7479

> <Gold.Chemscore.Rot>
2.3587

> <Gold.Chemscore.Internal.Correction>
   9.000000E+99

> <Gold.Chemscore.Hbonds>
donor molecule, donor type, donor heavy atom, donor atom, acceptor molecule, acceptor atom, score
      P1  H  6931  6943       L1    23  0.42
      P1  H  6934  6947       L1    23  0.63
      P1  H  7989  7998       L1     4  0.34

> <Gold.Chemscore.Hbond.Weighted>
-7.7908

> <Gold.Chemscore.Metal.Weighted>
-0.0000

> <Gold.Chemscore.Lipo.Weighted>
-14.0784

> <Gold.Chemscore.Internal_Hbond.Weighted>
0.0000

> <Gold.Chemscore.DEClash.Weighted>
0.3235

> <Gold.Chemscore.DEInternal.Weighted>
1.7479

> <Gold.Chemscore.Rot.Weighted>
6.0384

> <Gold.Chemscore.Internal.Correction.Weighted>
   9.000000E+99

> <Gold.Protein.RotatedTorsions>
[ 6907 6896 6895 6894 ] final   79.73 input  -60.11 | X-H torsion
[ 7974 7965 7964 7962 ] final  101.08 input  175.53 | X-H torsion
[ 8008 7997 7996 7995 ] final   49.74 input   59.86 | X-H torsion
[ 10167 10162 10161 10158 ] final  -41.69 input  -65.29 | X-H torsion
[ 10718 10713 10712 10709 ] final    6.89 input   66.30 | X-H torsion
[ 10763 10752 10751 10750 ] final  107.48 input  -60.55 | X-H torsion
[ 11005 11000 10999 10996 ] final  151.36 input  -57.11 | X-H torsion

> <Gold.Protein.ActiveResidues>
 VAL166  LYS551  ARG553  GLY616  TRP617  ASP618  TYR619  PRO620  LYS621  CYS622 
 ASP623  PHE694  ASN695  SER759  ASP760  ASP761  ALA762  ILE779  LEU786  VAL792 
 PHE793  MET794  SER795  GLU796  ALA797  LYS798  CYS799  TRP800  GLU811  SER814 

> <Gold.Protein.RotatedAtoms>
  152.5209  134.3466  159.9235 H   0  0  0  0  0  0  0  0  0  0  0  0  # atno 6907 bound_to 6896
  151.3416  133.3954  159.2679 H   0  0  0  0  0  0  0  0  0  0  0  0  # atno 6908 bound_to 6896
  150.9799  134.9174  159.7896 H   0  0  0  0  0  0  0  0  0  0  0  0  # atno 6909 bound_to 6896
  145.3771  139.2387  143.3424 H   0  0  0  0  0  0  0  0  0  0  0  0  # atno 7974 bound_to 7965
  155.4071  140.3440  155.4261 H   0  0  0  0  0  0  0  0  0  0  0  0  # atno 8008 bound_to 7997
  156.1470  140.1559  156.8863 H   0  0  0  0  0  0  0  0  0  0  0  0  # atno 8009 bound_to 7997
  154.5019  140.0812  156.7796 H   0  0  0  0  0  0  0  0  0  0  0  0  # atno 8010 bound_to 7997
  140.6994  143.3080  151.3102 H   0  0  0  0  0  0  0  0  0  0  0  0  # atno 10167 bound_to 10162
  156.9288  130.5818  149.5649 H   0  0  0  0  0  0  0  0  0  0  0  0  # atno 10718 bound_to 10713
  153.4074  135.3843  155.2027 H   0  0  0  0  0  0  0  0  0  0  0  0  # atno 10763 bound_to 10752
  154.8735  135.3786  154.4544 H   0  0  0  0  0  0  0  0  0  0  0  0  # atno 10764 bound_to 10752
  153.5048  135.7088  153.5874 H   0  0  0  0  0  0  0  0  0  0  0  0  # atno 10765 bound_to 10752
  140.1212  134.8862  157.2075 H   0  0  0  0  0  0  0  0  0  0  0  0  # atno 11005 bound_to 11000
  146.2859  140.4432  142.8758 LP  0  0  0  0  0  0  0  0  0  0  0  0  # atno 17320 bound_to 7965
  144.8534  140.7035  143.6153 LP  0  0  0  0  0  0  0  0  0  0  0  0  # atno 17321 bound_to 7965
  139.6493  144.0393  152.2614 LP  0  0  0  0  0  0  0  0  0  0  0  0  # atno 17342 bound_to 10162
  139.9924  144.6352  150.7803 LP  0  0  0  0  0  0  0  0  0  0  0  0  # atno 17343 bound_to 10162
  156.0457  130.5533  150.8874 LP  0  0  0  0  0  0  0  0  0  0  0  0  # atno 17370 bound_to 10713
  157.5860  131.0945  150.9195 LP  0  0  0  0  0  0  0  0  0  0  0  0  # atno 17371 bound_to 10713
  140.2962  134.3183  155.7301 LP  0  0  0  0  0  0  0  0  0  0  0  0  # atno 17394 bound_to 11000
  141.2152  133.7564  156.9575 LP  0  0  0  0  0  0  0  0  0  0  0  0  # atno 17395 bound_to 11000

$$$$
