AV-unprocessed.smi:2364|AV-procd|sdf|9417|dock6
  -GOLD-   2272013 53D 1   1.00000     0.00000
 Structure written by MMmdl.
 46 47  0  0  0  0  0  0  0  0  1 V2000
  139.5816  139.2679  157.0202 C   0  0  0  0  0  0  0  0  0  0  0  0
  140.7159  138.8325  156.0761 C   0  0  0  0  0  0  0  0  0  0  0  0
  140.6883  139.4601  154.6508 C   0  0  1  0  0  0  0  0  0  0  0  0
  139.3625  139.1013  153.9398 C   0  0  0  0  0  0  0  0  0  0  0  0
  140.8275  141.0026  154.7135 C   0  0  0  0  0  0  0  0  0  0  0  0
  140.6536  141.6181  153.4527 O   0  0  0  0  0  0  0  0  0  0  0  0
  141.8199  138.9871  153.8396 N   0  0  0  0  0  0  0  0  0  0  0  0
  142.2200  137.7246  153.6075 C   0  0  0  0  0  0  0  0  0  0  0  0
  141.6595  136.7282  154.0645 O   0  0  0  0  0  0  0  0  0  0  0  0
  143.3033  137.7030  152.8108 N   0  0  0  0  0  0  0  0  0  0  0  0
  144.0701  136.5797  152.4047 C   0  0  0  0  0  0  0  0  0  0  0  0
  145.2606  136.7785  151.7711 N   0  0  0  0  0  0  0  0  0  0  0  0
  145.6250  135.5134  151.6079 C   0  0  0  0  0  0  0  0  0  0  0  0
  144.7379  134.6181  152.0612 N   0  0  0  0  0  0  0  0  0  0  0  0
  144.8200  133.1567  152.1506 C   0  0  0  0  0  0  0  0  0  0  0  0
  146.1861  132.6206  151.6623 C   0  0  0  0  0  0  0  0  0  0  0  0
  146.3694  132.8115  150.1452 C   0  0  0  0  0  0  0  0  0  0  0  0
  145.2348  132.1296  149.3624 C   0  0  0  0  0  0  0  0  0  0  0  0
  143.8529  132.6050  149.8406 C   0  0  0  0  0  0  0  0  0  0  0  0
  143.7007  132.4287  151.3638 C   0  0  0  0  0  0  0  0  0  0  0  0
  143.7228  135.3126  152.6348 N   0  0  0  0  0  0  0  0  0  0  0  0
  139.6931  138.7899  157.9935 H   0  0  0  0  0  0  0  0  0  0  0  0
  138.6032  138.9863  156.6323 H   0  0  0  0  0  0  0  0  0  0  0  0
  139.5829  140.3451  157.1863 H   0  0  0  0  0  0  0  0  0  0  0  0
  141.6658  139.0597  156.5603 H   0  0  0  0  0  0  0  0  0  0  0  0
  140.7019  137.7451  155.9969 H   0  0  0  0  0  0  0  0  0  0  0  0
  138.5014  139.4976  154.4786 H   0  0  0  0  0  0  0  0  0  0  0  0
  139.2154  138.0240  153.8639 H   0  0  0  0  0  0  0  0  0  0  0  0
  139.3307  139.5083  152.9285 H   0  0  0  0  0  0  0  0  0  0  0  0
  140.1028  141.4329  155.4052 H   0  0  0  0  0  0  0  0  0  0  0  0
  141.8120  141.2806  155.0921 H   0  0  0  0  0  0  0  0  0  0  0  0
  140.4553  140.9483  152.8163 H   0  0  0  0  0  0  0  0  0  0  0  0
  142.3657  139.7157  153.4036 H   0  0  0  0  0  0  0  0  0  0  0  0
  143.6305  138.5951  152.4708 H   0  0  0  0  0  0  0  0  0  0  0  0
  146.5650  135.2403  151.1524 H   0  0  0  0  0  0  0  0  0  0  0  0
  144.7118  132.9081  153.2071 H   0  0  0  0  0  0  0  0  0  0  0  0
  147.0068  133.0915  152.2032 H   0  0  0  0  0  0  0  0  0  0  0  0
  146.2564  131.5576  151.8965 H   0  0  0  0  0  0  0  0  0  0  0  0
  146.3965  133.8744  149.9022 H   0  0  0  0  0  0  0  0  0  0  0  0
  147.3304  132.4012  149.8343 H   0  0  0  0  0  0  0  0  0  0  0  0
  145.3475  132.3255  148.2957 H   0  0  0  0  0  0  0  0  0  0  0  0
  145.3085  131.0485  149.4868 H   0  0  0  0  0  0  0  0  0  0  0  0
  143.7111  133.6511  149.5680 H   0  0  0  0  0  0  0  0  0  0  0  0
  143.0714  132.0472  149.3239 H   0  0  0  0  0  0  0  0  0  0  0  0
  143.7359  131.3645  151.6004 H   0  0  0  0  0  0  0  0  0  0  0  0
  142.7135  132.7633  151.6851 H   0  0  0  0  0  0  0  0  0  0  0  0
  1  2  1  0  0  0  0
  1 22  1  0  0  0  0
  1 23  1  0  0  0  0
  1 24  1  0  0  0  0
  2  3  1  0  0  0  0
  2 25  1  0  0  0  0
  2 26  1  0  0  0  0
  3  4  1  0  0  0  0
  3  5  1  0  0  0  0
  3  7  1  0  0  0  0
  4 27  1  0  0  0  0
  4 28  1  0  0  0  0
  4 29  1  0  0  0  0
  5  6  1  0  0  0  0
  5 30  1  0  0  0  0
  5 31  1  0  0  0  0
  6 32  1  0  0  0  0
  7  8  1  0  0  0  0
  7 33  1  0  0  0  0
  8  9  2  0  0  0  0
  8 10  1  0  0  0  0
 10 11  1  0  0  0  0
 10 34  1  0  0  0  0
 11 21  2  0  0  0  0
 11 12  1  0  0  0  0
 12 13  2  0  0  0  0
 13 14  1  0  0  0  0
 13 35  1  0  0  0  0
 14 15  1  0  0  0  0
 14 21  1  0  0  0  0
 15 20  1  0  0  0  0
 15 16  1  0  0  0  0
 15 36  1  0  0  0  0
 16 17  1  0  0  0  0
 16 37  1  0  0  0  0
 16 38  1  0  0  0  0
 17 18  1  0  0  0  0
 17 39  1  0  0  0  0
 17 40  1  0  0  0  0
 18 19  1  0  0  0  0
 18 41  1  0  0  0  0
 18 42  1  0  0  0  0
 19 20  1  0  0  0  0
 19 43  1  0  0  0  0
 19 44  1  0  0  0  0
 20 45  1  0  0  0  0
 20 46  1  0  0  0  0
M  END
> <s_m_source_file>
AV-unprocessed.smi

> <i_m_source_file_index>
2364

> <i_lp_mmshare_version>
43012

> <i_f3d_flags>
0

> <s_epik_input>
W0NIM11bQ0gyXVtDQEBdKFtDSDNdKShbQ0gyXVtPSF0pW05IXUMoPU8pW05IXWMxbltjSF1uKG4xKVtDSF0yW0NIMl1bQ0gyXVtDSDJdW0NIMl1bQ0gyXTI=

> <s_epik_cmdline>
J2VwaWtfcHl0aG9uJywgJy1waCcsICc3LjAnLCAnLXRuJywgJzgnLCAnLW1hJywgJzIwMCcsICctbWV0YWxfYmluZGluZycsICctaW1hZScsICc8aW5maWxlLm1hZT4nLCAnLW9tYWUnLCAnPG91dGZpbGUubWFlPic=

> <r_lp_tautomer_probability>
1

> <r_epik_Ionization_Penalty>
9.31261e-05

> <r_epik_Ionization_Penalty_Charging>
0

> <r_epik_Ionization_Penalty_Neutral>
9.31261e-05

> <r_epik_State_Penalty>
-0

> <r_epik_Charging_Adjusted_Penalty>
0

> <i_epik_Tot_Q>
0

> <i_epik_Tot_abs_Q>
0

> <r_epik_Metal_State_Penalty>
-0

> <b_epik_Metal_Only>
0

> <s_lp_Force_Field>
OPLS_2005

> <r_lp_Energy>
23.546

> <b_lp_Chiralities_Consistent>
1

> <s_lp_Variant>
AV-unprocessed.smi:2364-1

> <Gold.Version>
5.8.1

> <Gold.Id.Protein>
6NUR|6NUR_protein|mol2

> <Gold.PLP.Fitness>
49.5602

> <Gold.PLP.PLP>
-35.0487

> <Gold.PLP.part.hbond>
-5.7336

> <Gold.PLP.part.metal>
0.0000

> <Gold.PLP.part.buried>
-1.3195

> <Gold.PLP.part.nonpolar>
-26.2257

> <Gold.PLP.part.repulsive>
0.9832

> <Gold.PLP.ligand.clash>
0.0000

> <Gold.PLP.ligand.torsion>
0.2555

> <Gold.PLP.Chemscore.Hbond>
3.9920

> <Gold.PLP.Chemscore.CHOScore>
0.9695

> <Gold.PLP.Chemscore.Metal>
0.0000

> <Gold.Chemscore.Hbonds>
donor molecule, donor type, donor heavy atom, donor atom, acceptor molecule, acceptor atom, score
      L1  H     6    32       P1 10160  0.86
      L1  H     7    33       P1 10175  1.00
      L1  H    10    34       P1 10175  1.00
      P1  H 10162 10167       L1     6  0.48
      L1  C    13    35       P1  7948  0.69

> <Gold.PLP.Chemscore.Internal.Correction>
0.1381

> <Gold.Rescore>
     Score         DG    S(hbond)    S(metal)    S(lipo)     H(rot)  DE(clash)    DE(int)     intcor
     16.54     -18.83       3.36        0.00      69.25       2.34       0.85       1.44       ----

> <Gold.Chemscore.Fitness>
16.5406

> <Gold.Chemscore.DG>
-18.8285

> <Gold.Chemscore.ZeroCoef>
-5.4800

> <Gold.Chemscore.Hbond>
3.3609

> <Gold.Chemscore.Metal>
0.0000

> <Gold.Chemscore.Lipo>
69.2469

> <Gold.Chemscore.Internal_Hbond>
0.0000

> <Gold.Chemscore.DEClash>
0.8520

> <Gold.Chemscore.DEInternal>
1.4359

> <Gold.Chemscore.Rot>
2.3354

> <Gold.Chemscore.Internal.Correction>
   9.000000E+99

> <Gold.Chemscore.Hbonds>
donor molecule, donor type, donor heavy atom, donor atom, acceptor molecule, acceptor atom, score
      L1  H     6    32       P1 10160  0.83
      L1  H     7    33       P1 10175  0.96
      L1  H    10    34       P1 10175  0.97
      P1  H 10162 10167       L1     6  0.07

> <Gold.Chemscore.Hbond.Weighted>
-11.2253

> <Gold.Chemscore.Metal.Weighted>
-0.0000

> <Gold.Chemscore.Lipo.Weighted>
-8.1019

> <Gold.Chemscore.Internal_Hbond.Weighted>
0.0000

> <Gold.Chemscore.DEClash.Weighted>
0.8520

> <Gold.Chemscore.DEInternal.Weighted>
1.4359

> <Gold.Chemscore.Rot.Weighted>
5.9787

> <Gold.Chemscore.Internal.Correction.Weighted>
   9.000000E+99

> <Gold.Protein.RotatedTorsions>
[ 6907 6896 6895 6894 ] final  -75.80 input  -60.11 | X-H torsion
[ 7974 7965 7964 7962 ] final -145.35 input  175.53 | X-H torsion
[ 8008 7997 7996 7995 ] final  114.65 input   59.86 | X-H torsion
[ 10167 10162 10161 10158 ] final -104.48 input  -65.29 | X-H torsion
[ 10718 10713 10712 10709 ] final   87.21 input   66.30 | X-H torsion
[ 10763 10752 10751 10750 ] final  -70.78 input  -60.55 | X-H torsion
[ 11005 11000 10999 10996 ] final  -88.55 input  -57.11 | X-H torsion

> <Gold.Protein.ActiveResidues>
 VAL166  LYS551  ARG553  GLY616  TRP617  ASP618  TYR619  PRO620  LYS621  CYS622 
 ASP623  PHE694  ASN695  SER759  ASP760  ASP761  ALA762  ILE779  LEU786  VAL792 
 PHE793  MET794  SER795  GLU796  ALA797  LYS798  CYS799  TRP800  GLU811  SER814 

> <Gold.Protein.RotatedAtoms>
  150.7047  134.4666  159.5405 H   0  0  0  0  0  0  0  0  0  0  0  0  # atno 6907 bound_to 6896
  152.2331  134.8300  160.0480 H   0  0  0  0  0  0  0  0  0  0  0  0  # atno 6908 bound_to 6896
  151.9109  133.3526  159.3900 H   0  0  0  0  0  0  0  0  0  0  0  0  # atno 6909 bound_to 6896
  144.8233  140.5594  143.5564 H   0  0  0  0  0  0  0  0  0  0  0  0  # atno 7974 bound_to 7965
  156.2334  140.2955  156.0248 H   0  0  0  0  0  0  0  0  0  0  0  0  # atno 8008 bound_to 7997
  155.2161  140.0414  157.2958 H   0  0  0  0  0  0  0  0  0  0  0  0  # atno 8009 bound_to 7997
  154.6035  140.2433  155.7768 H   0  0  0  0  0  0  0  0  0  0  0  0  # atno 8010 bound_to 7997
  140.2088  143.3762  152.1068 H   0  0  0  0  0  0  0  0  0  0  0  0  # atno 10167 bound_to 10162
  157.6937  131.0246  150.3089 H   0  0  0  0  0  0  0  0  0  0  0  0  # atno 10718 bound_to 10713
  154.4225  135.5983  153.6019 H   0  0  0  0  0  0  0  0  0  0  0  0  # atno 10763 bound_to 10752
  152.9794  135.5956  154.3937 H   0  0  0  0  0  0  0  0  0  0  0  0  # atno 10764 bound_to 10752
  154.3765  135.2841  155.2215 H   0  0  0  0  0  0  0  0  0  0  0  0  # atno 10765 bound_to 10752
  141.1600  133.7576  156.9467 H   0  0  0  0  0  0  0  0  0  0  0  0  # atno 11005 bound_to 11000
  145.5056  139.1481  143.3633 LP  0  0  0  0  0  0  0  0  0  0  0  0  # atno 17320 bound_to 7965
  146.2539  140.5196  142.8882 LP  0  0  0  0  0  0  0  0  0  0  0  0  # atno 17321 bound_to 7965
  139.5188  144.7010  151.5492 LP  0  0  0  0  0  0  0  0  0  0  0  0  # atno 17342 bound_to 10162
  140.6338  143.9024  150.6629 LP  0  0  0  0  0  0  0  0  0  0  0  0  # atno 17343 bound_to 10162
  156.3593  130.3844  149.7264 LP  0  0  0  0  0  0  0  0  0  0  0  0  # atno 17370 bound_to 10713
  156.4716  130.7999  151.3017 LP  0  0  0  0  0  0  0  0  0  0  0  0  # atno 17371 bound_to 10713
  140.1285  134.9371  157.2303 LP  0  0  0  0  0  0  0  0  0  0  0  0  # atno 17394 bound_to 11000
  140.2983  134.3161  155.7296 LP  0  0  0  0  0  0  0  0  0  0  0  0  # atno 17395 bound_to 11000

$$$$
