#       Name:                AV-unprocessed.smi:2399
#       Creating user name   scv26
#       Creation time:       Fri Mar 27 13:13:07 2020


#       File generated by GOLD software.
#

@<TRIPOS>MOLECULE
AV-unprocessed.smi:2399
    58    60     1
SMALL
NO_CHARGES


@<TRIPOS>ATOM
      1 ****        -4.5414  -4.0774   0.0592 C.3            1 S1                 0.0000
      2 ****        -3.9297  -2.8008  -0.0511 O.3            1 S1                 0.0000
      3 ****        -4.7020  -1.6823   0.1954 C.ar           1 S1                 0.0000
      4 ****        -6.0757  -1.7382   0.5436 C.ar           1 S1                 0.0000
      5 ****        -6.7785  -0.5435   0.7768 C.ar           1 S1                 0.0000
      6 ****        -6.0825   0.6720   0.6529 C.ar           1 S1                 0.0000
      7 ****        -6.7760   1.9966   0.8914 C.3            1 S1                 0.0000
      8 ****        -4.7766   0.7378   0.3245 N.ar           1 S1                 0.0000
      9 ****        -4.0869  -0.4074   0.0978 C.ar           1 S1                 0.0000
     10 ****        -2.7089  -0.4206  -0.2538 N.am           1 S1                 0.0000
     11 ****        -1.8604   0.6175  -0.3513 C.2            1 S1                 0.0000
     12 ****        -2.1454   1.7964  -0.1386 O.2            1 S1                 0.0000
     13 ****        -0.6335   0.2078  -0.7051 N.am           1 S1                 0.0000
     14 ****         0.5276   1.0771  -0.8711 C.3            1 S1                 0.0000
     15 ****         1.5434   0.4136  -1.8175 C.3            1 S1                 0.0000
     16 ****         2.8420   1.2375  -1.9111 C.3            1 S1                 0.0000
     17 ****         3.4539   1.4694  -0.5731 N.4            1 S1                 1.0000
     18 ****         4.1028   0.2649   0.0274 C.3            1 S1                 0.0000
     19 ****         4.8542   0.5543   1.3338 C.3            1 S1                 0.0000
     20 ****         5.8097  -0.6289   1.5072 C.3            1 S1                 0.0000
     21 ****         6.0940  -1.1542   0.0937 C.3            1 S1                 0.0000
     22 ****         5.2056  -0.3400  -0.8540 C.3            1 S1                 0.0000
     23 ****         2.4916   2.1670   0.3237 C.3            1 S1                 0.0000
     24 ****         1.1817   1.3749   0.4923 C.3            1 S1                 0.0000
     25 ****        -3.8038  -4.8491  -0.1603 H              1 S1                 0.0000
     26 ****        -5.3591  -4.1908  -0.6537 H              1 S1                 0.0000
     27 ****        -4.9136  -4.2557   1.0689 H              1 S1                 0.0000
     28 ****        -6.6056  -2.6737   0.6374 H              1 S1                 0.0000
     29 ****        -7.8248  -0.5644   1.0443 H              1 S1                 0.0000
     30 ****        -7.8578   1.8714   0.9441 H              1 S1                 0.0000
     31 ****        -6.5552   2.6957   0.0842 H              1 S1                 0.0000
     32 ****        -6.4363   2.4362   1.8292 H              1 S1                 0.0000
     33 ****        -2.3252  -1.3351  -0.4418 H              1 S1                 0.0000
     34 ****        -0.4906  -0.7795  -0.8612 H              1 S1                 0.0000
     35 ****         0.2100   2.0188  -1.3233 H              1 S1                 0.0000
     36 ****         1.7703  -0.5978  -1.4781 H              1 S1                 0.0000
     37 ****         1.1065   0.3074  -2.8113 H              1 S1                 0.0000
     38 ****         3.5471   0.7629  -2.5921 H              1 S1                 0.0000
     39 ****         2.6182   2.2085  -2.3552 H              1 S1                 0.0000
     40 ****         3.3554  -0.5045   0.2244 H              1 S1                 0.0000
     41 ****         5.4309   1.4758   1.2385 H              1 S1                 0.0000
     42 ****         4.1901   0.6624   2.1919 H              1 S1                 0.0000
     43 ****         6.7214  -0.3403   2.0312 H              1 S1                 0.0000
     44 ****         5.3277  -1.4101   2.0966 H              1 S1                 0.0000
     45 ****         7.1466  -1.0496  -0.1720 H              1 S1                 0.0000
     46 ****         5.8476  -2.2151   0.0340 H              1 S1                 0.0000
     47 ****         4.8090  -0.9559  -1.6619 H              1 S1                 0.0000
     48 ****         5.7996   0.4561  -1.3056 H              1 S1                 0.0000
     49 ****         2.9373   2.3816   1.2940 H              1 S1                 0.0000
     50 ****         2.2652   3.1408  -0.1128 H              1 S1                 0.0000
     51 ****         0.4937   1.9444   1.1181 H              1 S1                 0.0000
     52 ****         1.3763   0.4445   1.0270 H              1 S1                 0.0000
     53 ****         4.2092   2.1227  -0.7257 H              1 S1                 0.0000
     54 ****        -3.5799  -2.7195  -0.9844 LP             1 S1                 0.0000
     55 ****        -3.1659  -2.7815   0.5940 LP             1 S1                 0.0000
     56 ****        -4.3201   1.6243   0.2487 LP             1 S1                 0.0000
     57 ****        -3.0755   2.0450   0.1316 LP             1 S1                 0.0000
     58 ****        -1.4467   2.5051  -0.2361 LP             1 S1                 0.0000
@<TRIPOS>BOND
    1    1    2 1     
    2    1   25 1     
    3    1   26 1     
    4    1   27 1     
    5    2    3 1     
    6    3    9 ar    
    7    3    4 ar    
    8    4    5 ar    
    9    4   28 1     
   10    5    6 ar    
   11    5   29 1     
   12    6    7 1     
   13    6    8 ar    
   14    7   30 1     
   15    7   31 1     
   16    7   32 1     
   17    8    9 ar    
   18    9   10 1     
   19   10   11 am    
   20   10   33 1     
   21   11   12 2     
   22   11   13 am    
   23   13   14 1     
   24   13   34 1     
   25   14   24 1     
   26   14   15 1     
   27   14   35 1     
   28   15   16 1     
   29   15   36 1     
   30   15   37 1     
   31   16   17 1     
   32   16   38 1     
   33   16   39 1     
   34   17   18 1     
   35   17   23 1     
   36   17   53 1     
   37   18   22 1     
   38   18   19 1     
   39   18   40 1     
   40   19   20 1     
   41   19   41 1     
   42   19   42 1     
   43   20   21 1     
   44   20   43 1     
   45   20   44 1     
   46   21   22 1     
   47   21   45 1     
   48   21   46 1     
   49   22   47 1     
   50   22   48 1     
   51   23   24 1     
   52   23   49 1     
   53   23   50 1     
   54   24   51 1     
   55   24   52 1     
   56    2   54 1     
   57    2   55 1     
   58    8   56 1     
   59   12   57 1     
   60   12   58 1     
@<TRIPOS>SUBSTRUCTURE
      1 S1             1
@<TRIPOS>SET
LONE_PAIRS      STATIC     ATOMS    <user>   **** ""
5 54 55 56 57 58
DONOR_HYDROGENS      STATIC     ATOMS    <user>   **** ""
3 33 34 53
ATOM$BLUE        STATIC     ATOMS    COLORGROUP SYSTEM
5 54 55 56 57 58
ATOM$RED        STATIC     ATOMS    COLORGROUP SYSTEM
3 33 34 53
