#       Name:                AV-unprocessed.smi:1894
#       Creating user name   scv26
#       Creation time:       Fri Mar 27 09:42:05 2020


#       File generated by GOLD software.
#

@<TRIPOS>MOLECULE
AV-unprocessed.smi:1894
    36    38     1
SMALL
NO_CHARGES


@<TRIPOS>ATOM
      1 ****        -0.8574   1.4838  -1.5270 O.2            1 S1                 0.0000
      2 ****        -1.2651   0.5236  -0.8742 C.2            1 S1                 0.0000
      3 ****        -2.7663   0.3259  -0.6654 C.3            1 S1                 0.0000
      4 ****        -3.1886   0.8789   0.6079 N.pl3          1 S1                 0.0000
      5 ****        -3.4356   2.1401   0.9664 C.2            1 S1                 0.0000
      6 ****        -3.7997   2.2746   2.2342 N.2            1 S1                 0.0000
      7 ****        -3.7536   0.9661   2.6249 C.2            1 S1                 0.0000
      8 ****        -3.3927   0.0885   1.6885 N.2            1 S1                 0.0000
      9 ****        -0.4597  -0.3888  -0.3083 N.am           1 S1                 0.0000
     10 ****         0.9983  -0.3883  -0.3589 C.3            1 S1                 0.0000
     11 ****         1.5403  -1.0322  -1.6250 C.3            1 S1                 0.0000
     12 ****         2.9296  -0.7222  -2.1317 C.3            1 S1                 0.0000
     13 ****         1.7207  -0.2398  -2.8990 C.3            1 S1                 0.0000
     14 ****         1.5944  -1.0548   0.8678 C.3            1 S1                 0.0000
     15 ****         1.7427  -0.3028   2.1687 C.3            1 S1                 0.0000
     16 ****         2.9699  -0.6920   1.3756 C.3            1 S1                 0.0000
     17 ****        -3.3214   0.8202  -1.4636 H              1 S1                 0.0000
     18 ****        -3.0191  -0.7350  -0.7060 H              1 S1                 0.0000
     19 ****        -3.3445   2.9752   0.2872 H              1 S1                 0.0000
     20 ****        -3.9933   0.6509   3.6298 H              1 S1                 0.0000
     21 ****        -0.8929  -1.1375   0.2129 H              1 S1                 0.0000
     22 ****         1.3347   0.6508  -0.3483 H              1 S1                 0.0000
     23 ****         1.2185  -2.0641  -1.7541 H              1 S1                 0.0000
     24 ****         3.5126   0.0278  -1.6015 H              1 S1                 0.0000
     25 ****         3.5028  -1.5425  -2.5586 H              1 S1                 0.0000
     26 ****         1.4858  -0.7385  -3.8369 H              1 S1                 0.0000
     27 ****         1.5075   0.8267  -2.8723 H              1 S1                 0.0000
     28 ****         1.3241  -2.1053   0.9617 H              1 S1                 0.0000
     29 ****         1.4666   0.7499   2.1806 H              1 S1                 0.0000
     30 ****         1.5431  -0.8478   3.0890 H              1 S1                 0.0000
     31 ****         3.5883  -1.4975   1.7664 H              1 S1                 0.0000
     32 ****         3.5091   0.1064   0.8700 H              1 S1                 0.0000
     33 ****        -1.5080   2.1336  -1.9201 LP             1 S1                 0.0000
     34 ****         0.1245   1.6143  -1.6644 LP             1 S1                 0.0000
     35 ****        -4.0386   3.0951   2.7535 LP             1 S1                 0.0000
     36 ****        -3.2968  -0.9040   1.7648 LP             1 S1                 0.0000
@<TRIPOS>BOND
    1    1    2 2     
    2    2    3 1     
    3    2    9 am    
    4    3    4 1     
    5    3   17 1     
    6    3   18 1     
    7    4    8 1     
    8    4    5 1     
    9    5    6 2     
   10    5   19 1     
   11    6    7 1     
   12    7    8 2     
   13    7   20 1     
   14    9   10 1     
   15    9   21 1     
   16   10   11 1     
   17   10   14 1     
   18   10   22 1     
   19   11   13 1     
   20   11   12 1     
   21   11   23 1     
   22   12   13 1     
   23   12   24 1     
   24   12   25 1     
   25   13   26 1     
   26   13   27 1     
   27   14   16 1     
   28   14   15 1     
   29   14   28 1     
   30   15   16 1     
   31   15   29 1     
   32   15   30 1     
   33   16   31 1     
   34   16   32 1     
   35    1   33 1     
   36    1   34 1     
   37    6   35 1     
   38    8   36 1     
@<TRIPOS>SUBSTRUCTURE
      1 S1             1
@<TRIPOS>SET
LONE_PAIRS      STATIC     ATOMS    <user>   **** ""
4 33 34 35 36
DONOR_HYDROGENS      STATIC     ATOMS    <user>   **** ""
1 21
ATOM$BLUE        STATIC     ATOMS    COLORGROUP SYSTEM
4 33 34 35 36
ATOM$RED        STATIC     ATOMS    COLORGROUP SYSTEM
1 21
