AV-unprocessed.smi:2016|AV-procd|sdf|8166|dock3
  -GOLD-   2272010413D 1   1.00000     0.00000
 Structure written by MMmdl.
 42 43  0  0  0  0  0  0  0  0  1 V2000
  144.0346  143.7341  155.9638 C   0  0  0  0  0  0  0  0  0  0  0  0
  144.9679  143.0058  154.9940 C   0  0  0  0  0  0  0  0  0  0  0  0
  144.9354  143.3303  153.8068 O   0  0  0  0  0  0  0  0  0  0  0  0
  145.7877  142.0357  155.4659 N   0  0  0  0  0  0  0  0  0  0  0  0
  146.7834  141.3038  154.6731 C   0  0  0  0  0  0  0  0  0  0  0  0
  148.1895  141.7669  155.0932 C   0  0  0  0  0  0  0  0  0  0  0  0
  148.4104  141.5872  156.6137 C   0  0  0  0  0  0  0  0  0  0  0  0
  149.6608  142.2148  157.0296 N   0  0  0  0  0  0  0  0  0  0  0  0
  150.5142  141.7189  157.9383 C   0  0  0  0  0  0  0  0  0  0  0  0
  150.3305  140.6508  158.5241 O   0  0  0  0  0  0  0  0  0  0  0  0
  151.7734  142.5575  158.2013 C   0  0  0  0  0  0  0  0  0  0  0  0
  152.4776  142.1849  159.4404 N   0  0  0  0  0  0  0  0  0  0  0  0
  152.3934  143.0874  160.5157 C   0  0  0  0  0  0  0  0  0  0  0  0
  152.9972  142.8470  161.6873 C   0  0  0  0  0  0  0  0  0  0  0  0
  153.7481  141.6235  161.8295 C   0  0  0  0  0  0  0  0  0  0  0  0
  153.8509  140.7381  160.8113 C   0  0  0  0  0  0  0  0  0  0  0  0
  154.6403  139.4377  160.9453 C   0  0  0  0  0  0  0  0  0  0  0  0
  155.6667  139.4230  160.0942 F   0  0  0  0  0  0  0  0  0  0  0  0
  155.1290  139.2795  162.1762 F   0  0  0  0  0  0  0  0  0  0  0  0
  153.8628  138.3877  160.6783 F   0  0  0  0  0  0  0  0  0  0  0  0
  153.1839  141.0147  159.5226 C   0  0  0  0  0  0  0  0  0  0  0  0
  153.2514  140.2413  158.5655 O   0  0  0  0  0  0  0  0  0  0  0  0
  147.2400  142.1807  157.4276 C   0  0  0  0  0  0  0  0  0  0  0  0
  145.8801  141.6984  156.8910 C   0  0  0  0  0  0  0  0  0  0  0  0
  143.3641  143.0309  156.4587 H   0  0  0  0  0  0  0  0  0  0  0  0
  143.4194  144.4610  155.4319 H   0  0  0  0  0  0  0  0  0  0  0  0
  144.6068  144.2725  156.7198 H   0  0  0  0  0  0  0  0  0  0  0  0
  146.6739  140.2345  154.8600 H   0  0  0  0  0  0  0  0  0  0  0  0
  146.6596  141.4231  153.5979 H   0  0  0  0  0  0  0  0  0  0  0  0
  148.9432  141.2111  154.5345 H   0  0  0  0  0  0  0  0  0  0  0  0
  148.3153  142.8164  154.8219 H   0  0  0  0  0  0  0  0  0  0  0  0
  148.4564  140.5184  156.8324 H   0  0  0  0  0  0  0  0  0  0  0  0
  149.8929  143.0961  156.5951 H   0  0  0  0  0  0  0  0  0  0  0  0
  152.4349  142.4537  157.3401 H   0  0  0  0  0  0  0  0  0  0  0  0
  151.5043  143.6154  158.2258 H   0  0  0  0  0  0  0  0  0  0  0  0
  151.8187  143.9822  160.3248 H   0  0  0  0  0  0  0  0  0  0  0  0
  152.9264  143.5524  162.5022 H   0  0  0  0  0  0  0  0  0  0  0  0
  154.2322  141.4261  162.7742 H   0  0  0  0  0  0  0  0  0  0  0  0
  147.3409  141.9121  158.4799 H   0  0  0  0  0  0  0  0  0  0  0  0
  147.2726  143.2706  157.3826 H   0  0  0  0  0  0  0  0  0  0  0  0
  145.0728  142.1335  157.4816 H   0  0  0  0  0  0  0  0  0  0  0  0
  145.7885  140.6183  157.0147 H   0  0  0  0  0  0  0  0  0  0  0  0
  1  2  1  0  0  0  0
  1 25  1  0  0  0  0
  1 26  1  0  0  0  0
  1 27  1  0  0  0  0
  2  3  2  0  0  0  0
  2  4  1  0  0  0  0
  4 24  1  0  0  0  0
  4  5  1  0  0  0  0
  5  6  1  0  0  0  0
  5 28  1  0  0  0  0
  5 29  1  0  0  0  0
  6  7  1  0  0  0  0
  6 30  1  0  0  0  0
  6 31  1  0  0  0  0
  7  8  1  0  0  0  0
  7 23  1  0  0  0  0
  7 32  1  0  0  0  0
  8  9  1  0  0  0  0
  8 33  1  0  0  0  0
  9 10  2  0  0  0  0
  9 11  1  0  0  0  0
 11 12  1  0  0  0  0
 11 34  1  0  0  0  0
 11 35  1  0  0  0  0
 12 21  1  0  0  0  0
 12 13  1  0  0  0  0
 13 14  2  0  0  0  0
 13 36  1  0  0  0  0
 14 15  1  0  0  0  0
 14 37  1  0  0  0  0
 15 16  2  0  0  0  0
 15 38  1  0  0  0  0
 16 17  1  0  0  0  0
 16 21  1  0  0  0  0
 17 18  1  0  0  0  0
 17 19  1  0  0  0  0
 17 20  1  0  0  0  0
 21 22  2  0  0  0  0
 23 24  1  0  0  0  0
 23 39  1  0  0  0  0
 23 40  1  0  0  0  0
 24 41  1  0  0  0  0
 24 42  1  0  0  0  0
M  END
> <s_m_source_file>
AV-unprocessed.smi

> <i_m_source_file_index>
2016

> <i_lp_mmshare_version>
43012

> <i_f3d_flags>
0

> <s_epik_input>
W0NIM11DKD1PKU4xW0NIMl1bQ0gyXVtDSF0oW0NIMl1bQ0gyXTEpW05IXUMoPU8pW0NIMl1uMltjSF1bY0hdW2NIXWMoQyhGKShGKUYpYzI9Tw==

> <s_epik_cmdline>
J2VwaWtfcHl0aG9uJywgJy1waCcsICc3LjAnLCAnLXRuJywgJzgnLCAnLW1hJywgJzIwMCcsICctbWV0YWxfYmluZGluZycsICctaW1hZScsICc8aW5maWxlLm1hZT4nLCAnLW9tYWUnLCAnPG91dGZpbGUubWFlPic=

> <r_lp_tautomer_probability>
1

> <r_epik_Ionization_Penalty>
1.12606e-06

> <r_epik_Ionization_Penalty_Charging>
2.00242e-09

> <r_epik_Ionization_Penalty_Neutral>
1.12405e-06

> <r_epik_State_Penalty>
-0

> <r_epik_Charging_Adjusted_Penalty>
2.00242e-09

> <i_epik_Tot_Q>
0

> <i_epik_Tot_abs_Q>
0

> <r_epik_Metal_State_Penalty>
-0

> <b_epik_Metal_Only>
0

> <s_lp_Force_Field>
OPLS_2005

> <r_lp_Energy>
31.7258

> <b_lp_Chiralities_Consistent>
1

> <s_lp_Variant>
AV-unprocessed.smi:2016-1

> <Gold.Version>
5.8.1

> <Gold.Id.Protein>
6NUR|6NUR_protein|mol2

> <Gold.PLP.Fitness>
47.5045

> <Gold.PLP.PLP>
-45.2653

> <Gold.PLP.part.hbond>
-2.0000

> <Gold.PLP.part.metal>
0.0000

> <Gold.PLP.part.buried>
-1.0779

> <Gold.PLP.part.nonpolar>
-40.5077

> <Gold.PLP.part.repulsive>
0.2568

> <Gold.PLP.ligand.clash>
0.2701

> <Gold.PLP.ligand.torsion>
0.7094

> <Gold.PLP.Chemscore.Hbond>
1.2019

> <Gold.PLP.Chemscore.CHOScore>
0.0000

> <Gold.PLP.Chemscore.Metal>
0.0000

> <Gold.Chemscore.Hbonds>
donor molecule, donor type, donor heavy atom, donor atom, acceptor molecule, acceptor atom, score
      L1  H     8    33       P1  8028  0.59
      P1  H  7997  8008       L1    22  0.90

> <Gold.PLP.Chemscore.Internal.Correction>
0.3222

> <Gold.Rescore>
     Score         DG    S(hbond)    S(metal)    S(lipo)     H(rot)  DE(clash)    DE(int)     intcor
     11.38     -15.02       1.14        0.00      84.97       1.64       0.56       3.07       ----

> <Gold.Chemscore.Fitness>
11.3848

> <Gold.Chemscore.DG>
-15.0166

> <Gold.Chemscore.ZeroCoef>
-5.4800

> <Gold.Chemscore.Hbond>
1.1385

> <Gold.Chemscore.Metal>
0.0000

> <Gold.Chemscore.Lipo>
84.9701

> <Gold.Chemscore.Internal_Hbond>
0.0000

> <Gold.Chemscore.DEClash>
0.5577

> <Gold.Chemscore.DEInternal>
3.0741

> <Gold.Chemscore.Rot>
1.6435

> <Gold.Chemscore.Internal.Correction>
   9.000000E+99

> <Gold.Chemscore.Hbonds>
donor molecule, donor type, donor heavy atom, donor atom, acceptor molecule, acceptor atom, score
      L1  H     8    33       P1  8028  0.58
      P1  H  7997  8008       L1    22  0.83

> <Gold.Chemscore.Hbond.Weighted>
-3.8025

> <Gold.Chemscore.Metal.Weighted>
-0.0000

> <Gold.Chemscore.Lipo.Weighted>
-9.9415

> <Gold.Chemscore.Internal_Hbond.Weighted>
0.0000

> <Gold.Chemscore.DEClash.Weighted>
0.5577

> <Gold.Chemscore.DEInternal.Weighted>
3.0741

> <Gold.Chemscore.Rot.Weighted>
4.2074

> <Gold.Chemscore.Internal.Correction.Weighted>
   9.000000E+99

> <Gold.Protein.RotatedTorsions>
[ 6907 6896 6895 6894 ] final   93.93 input  -60.11 | X-H torsion
[ 7974 7965 7964 7962 ] final  -23.76 input  175.53 | X-H torsion
[ 8008 7997 7996 7995 ] final  -93.17 input   59.86 | X-H torsion
[ 10167 10162 10161 10158 ] final -104.26 input  -65.29 | X-H torsion
[ 10718 10713 10712 10709 ] final   84.98 input   66.30 | X-H torsion
[ 10763 10752 10751 10750 ] final  -79.99 input  -60.55 | X-H torsion
[ 11005 11000 10999 10996 ] final  -94.37 input  -57.11 | X-H torsion

> <Gold.Protein.ActiveResidues>
 VAL166  LYS551  ARG553  GLY616  TRP617  ASP618  TYR619  PRO620  LYS621  CYS622 
 ASP623  PHE694  ASN695  SER759  ASP760  ASP761  ALA762  ILE779  LEU786  VAL792 
 PHE793  MET794  SER795  GLU796  ALA797  LYS798  CYS799  TRP800  GLU811  SER814 

> <Gold.Protein.RotatedAtoms>
  152.5451  134.1272  159.8423 H   0  0  0  0  0  0  0  0  0  0  0  0  # atno 6907 bound_to 6896
  151.1321  133.5022  159.2606 H   0  0  0  0  0  0  0  0  0  0  0  0  # atno 6908 bound_to 6896
  151.1663  135.0307  159.8787 H   0  0  0  0  0  0  0  0  0  0  0  0  # atno 6909 bound_to 6896
  146.1596  140.4660  142.8577 H   0  0  0  0  0  0  0  0  0  0  0  0  # atno 7974 bound_to 7965
  154.7323  140.0501  157.0737 H   0  0  0  0  0  0  0  0  0  0  0  0  # atno 8008 bound_to 7997
  155.0286  140.3155  155.4747 H   0  0  0  0  0  0  0  0  0  0  0  0  # atno 8009 bound_to 7997
  156.2844  140.2154  156.5406 H   0  0  0  0  0  0  0  0  0  0  0  0  # atno 8010 bound_to 7997
  140.2112  143.3745  152.1049 H   0  0  0  0  0  0  0  0  0  0  0  0  # atno 10167 bound_to 10162
  157.6907  131.0156  150.2753 H   0  0  0  0  0  0  0  0  0  0  0  0  # atno 10718 bound_to 10713
  154.5456  135.5676  153.6877 H   0  0  0  0  0  0  0  0  0  0  0  0  # atno 10763 bound_to 10752
  152.9975  135.6238  154.2443 H   0  0  0  0  0  0  0  0  0  0  0  0  # atno 10764 bound_to 10752
  154.2376  135.2863  155.2846 H   0  0  0  0  0  0  0  0  0  0  0  0  # atno 10765 bound_to 10752
  141.1472  133.7951  157.0288 H   0  0  0  0  0  0  0  0  0  0  0  0  # atno 11005 bound_to 11000
  144.8009  140.6212  143.6478 LP  0  0  0  0  0  0  0  0  0  0  0  0  # atno 17320 bound_to 7965
  145.4621  139.1512  143.3860 LP  0  0  0  0  0  0  0  0  0  0  0  0  # atno 17321 bound_to 7965
  139.5179  144.6999  151.5524 LP  0  0  0  0  0  0  0  0  0  0  0  0  # atno 17342 bound_to 10162
  140.6322  143.9053  150.6616 LP  0  0  0  0  0  0  0  0  0  0  0  0  # atno 17343 bound_to 10162
  156.3309  130.3800  149.7492 LP  0  0  0  0  0  0  0  0  0  0  0  0  # atno 17370 bound_to 10713
  156.5032  130.8138  151.3140 LP  0  0  0  0  0  0  0  0  0  0  0  0  # atno 17371 bound_to 10713
  140.0767  134.9671  157.1558 LP  0  0  0  0  0  0  0  0  0  0  0  0  # atno 17394 bound_to 11000
  140.3633  134.2470  155.7185 LP  0  0  0  0  0  0  0  0  0  0  0  0  # atno 17395 bound_to 11000

$$$$
