AV-unprocessed.smi:610|AV-procd|sdf|3059|dock4
  -GOLD-   2262023583D 1   1.00000     0.00000
 Structure written by MMmdl.
 37 38  0  0  0  0  0  0  0  0  1 V2000
  152.0492  140.3775  157.5762 C   0  0  0  0  0  0  0  0  0  0  0  0
  151.0114  141.4050  157.0994 C   0  0  2  0  0  0  0  0  0  0  0  0
  150.2905  142.0741  158.2849 C   0  0  0  0  0  0  0  0  0  0  0  0
  150.9060  143.3332  158.6621 N   0  0  0  0  0  0  0  0  0  0  0  0
  152.2476  143.5624  158.9394 C   0  0  0  0  0  0  0  0  0  0  0  0
  152.3610  144.8977  159.2544 C   0  0  0  0  0  0  0  0  0  0  0  0
  151.1103  145.5057  159.1765 N   0  0  0  0  0  0  0  0  0  0  0  0
  150.2995  144.5177  158.8202 C   0  0  0  0  0  0  0  0  0  0  0  0
  150.0359  140.7564  156.2263 N   0  0  0  0  0  0  0  0  0  0  0  0
  150.3163  140.0498  155.1177 C   0  0  0  0  0  0  0  0  0  0  0  0
  151.4719  139.8518  154.7398 O   0  0  0  0  0  0  0  0  0  0  0  0
  149.1314  139.4678  154.3046 C   0  0  0  0  0  0  0  0  0  0  0  0
  149.5840  138.7296  153.1315 N   0  0  0  0  0  0  0  0  0  0  0  0
  148.2475  138.5310  155.1735 C   0  0  0  0  0  0  0  0  0  0  0  0
  146.8448  139.1499  155.2196 C   0  0  0  0  0  0  0  0  0  0  0  0
  147.0424  140.6200  154.8660 C   0  0  0  0  0  0  0  0  0  0  0  0
  148.1808  140.5992  153.8473 C   0  0  0  0  0  0  0  0  0  0  0  0
  152.7959  140.8451  158.2182 H   0  0  0  0  0  0  0  0  0  0  0  0
  152.5768  139.9285  156.7340 H   0  0  0  0  0  0  0  0  0  0  0  0
  151.5800  139.5727  158.1431 H   0  0  0  0  0  0  0  0  0  0  0  0
  151.5369  142.1830  156.5422 H   0  0  0  0  0  0  0  0  0  0  0  0
  149.2403  142.2524  158.0485 H   0  0  0  0  0  0  0  0  0  0  0  0
  150.3080  141.4170  159.1555 H   0  0  0  0  0  0  0  0  0  0  0  0
  152.9888  142.7780  158.8938 H   0  0  0  0  0  0  0  0  0  0  0  0
  153.2395  145.4630  159.5290 H   0  0  0  0  0  0  0  0  0  0  0  0
  149.2384  144.6578  158.6739 H   0  0  0  0  0  0  0  0  0  0  0  0
  149.0620  140.8613  156.4730 H   0  0  0  0  0  0  0  0  0  0  0  0
  149.0705  137.8621  153.0694 H   0  0  0  0  0  0  0  0  0  0  0  0
  149.3514  139.2542  152.3006 H   0  0  0  0  0  0  0  0  0  0  0  0
  148.1987  137.5117  154.7867 H   0  0  0  0  0  0  0  0  0  0  0  0
  148.6331  138.4429  156.1906 H   0  0  0  0  0  0  0  0  0  0  0  0
  146.2143  138.6784  154.4649 H   0  0  0  0  0  0  0  0  0  0  0  0
  146.3593  139.0147  156.1866 H   0  0  0  0  0  0  0  0  0  0  0  0
  146.1368  141.0839  154.4748 H   0  0  0  0  0  0  0  0  0  0  0  0
  147.3460  141.1772  155.7532 H   0  0  0  0  0  0  0  0  0  0  0  0
  148.6699  141.5722  153.7747 H   0  0  0  0  0  0  0  0  0  0  0  0
  147.7652  140.3851  152.8609 H   0  0  0  0  0  0  0  0  0  0  0  0
  1  2  1  0  0  0  0
  1 18  1  0  0  0  0
  1 19  1  0  0  0  0
  1 20  1  0  0  0  0
  2  3  1  0  0  0  0
  2  9  1  0  0  0  0
  2 21  1  0  0  0  0
  3  4  1  0  0  0  0
  3 22  1  0  0  0  0
  3 23  1  0  0  0  0
  4  8  1  0  0  0  0
  4  5  1  0  0  0  0
  5  6  2  0  0  0  0
  5 24  1  0  0  0  0
  6  7  1  0  0  0  0
  6 25  1  0  0  0  0
  7  8  2  0  0  0  0
  8 26  1  0  0  0  0
  9 10  1  0  0  0  0
  9 27  1  0  0  0  0
 10 11  2  0  0  0  0
 10 12  1  0  0  0  0
 12 17  1  0  0  0  0
 12 13  1  0  0  0  0
 12 14  1  0  0  0  0
 13 28  1  0  0  0  0
 13 29  1  0  0  0  0
 14 15  1  0  0  0  0
 14 30  1  0  0  0  0
 14 31  1  0  0  0  0
 15 16  1  0  0  0  0
 15 32  1  0  0  0  0
 15 33  1  0  0  0  0
 16 17  1  0  0  0  0
 16 34  1  0  0  0  0
 16 35  1  0  0  0  0
 17 36  1  0  0  0  0
 17 37  1  0  0  0  0
M  END
> <s_m_source_file>
AV-unprocessed.smi

> <i_m_source_file_index>
610

> <i_lp_mmshare_version>
43012

> <i_f3d_flags>
0

> <s_epik_input>
W2NIXTFuW2NIXVtjSF1uMVtDSDJdW0NAQEhdKFtDSDNdKVtOSF1DKD1PKUMyKFtOSDJdKVtDSDJdW0NIMl1bQ0gyXVtDSDJdMg==

> <s_epik_cmdline>
J2VwaWtfcHl0aG9uJywgJy1waCcsICc3LjAnLCAnLXRuJywgJzgnLCAnLW1hJywgJzIwMCcsICctbWV0YWxfYmluZGluZycsICctaW1hZScsICc8aW5maWxlLm1hZT4nLCAnLW9tYWUnLCAnPG91dGZpbGUubWFlPic=

> <r_lp_tautomer_probability>
1

> <r_epik_Ionization_Penalty>
1.91974

> <r_epik_Ionization_Penalty_Charging>
0.644069

> <r_epik_Ionization_Penalty_Neutral>
1.27567

> <r_epik_State_Penalty>
1.9806

> <r_epik_Charging_Adjusted_Penalty>
2.62467

> <i_epik_Tot_Q>
0

> <i_epik_Tot_abs_Q>
0

> <r_epik_Metal_State_Penalty>
1.61835

> <b_epik_Metal_Only>
0

> <s_lp_Force_Field>
OPLS_2005

> <r_lp_Energy>
21.9363

> <b_lp_Chiralities_Consistent>
1

> <s_lp_Variant>
AV-unprocessed.smi:610-7

> <Gold.Version>
5.8.1

> <Gold.Id.Protein>
6NUR|6NUR_protein|mol2

> <Gold.PLP.Fitness>
40.3367

> <Gold.PLP.PLP>
-30.5360

> <Gold.PLP.part.hbond>
-3.6303

> <Gold.PLP.part.metal>
0.0000

> <Gold.PLP.part.buried>
-4.5388

> <Gold.PLP.part.nonpolar>
-22.6184

> <Gold.PLP.part.repulsive>
0.2719

> <Gold.PLP.ligand.clash>
0.0000

> <Gold.PLP.ligand.torsion>
0.5756

> <Gold.PLP.Chemscore.Hbond>
2.6400

> <Gold.PLP.Chemscore.CHOScore>
1.0000

> <Gold.PLP.Chemscore.Metal>
0.0000

> <Gold.Chemscore.Hbonds>
donor molecule, donor type, donor heavy atom, donor atom, acceptor molecule, acceptor atom, score
      L1  H    13    28       P1  7948  0.75
      L1  H    13    29       P1  7957  0.67
      P1  H  7989  7998       L1    11  1.00
      L1  C     8    26       P1  8029  1.00

> <Gold.PLP.Chemscore.Internal.Correction>
0.0321

> <Gold.Rescore>
     Score         DG    S(hbond)    S(metal)    S(lipo)     H(rot)  DE(clash)    DE(int)     intcor
     13.23     -15.09       2.20        0.00      62.02       1.95       0.03       1.82       ----

> <Gold.Chemscore.Fitness>
13.2318

> <Gold.Chemscore.DG>
-15.0886

> <Gold.Chemscore.ZeroCoef>
-5.4800

> <Gold.Chemscore.Hbond>
2.1974

> <Gold.Chemscore.Metal>
0.0000

> <Gold.Chemscore.Lipo>
62.0195

> <Gold.Chemscore.Internal_Hbond>
0.0000

> <Gold.Chemscore.DEClash>
0.0331

> <Gold.Chemscore.DEInternal>
1.8237

> <Gold.Chemscore.Rot>
1.9480

> <Gold.Chemscore.Internal.Correction>
   9.000000E+99

> <Gold.Chemscore.Hbonds>
donor molecule, donor type, donor heavy atom, donor atom, acceptor molecule, acceptor atom, score
      L1  H    13    28       P1  7948  0.71
      L1  H    13    29       P1  7957  0.65
      P1  H  7989  7998       L1    11  0.44

> <Gold.Chemscore.Hbond.Weighted>
-7.3392

> <Gold.Chemscore.Metal.Weighted>
-0.0000

> <Gold.Chemscore.Lipo.Weighted>
-7.2563

> <Gold.Chemscore.Internal_Hbond.Weighted>
0.0000

> <Gold.Chemscore.DEClash.Weighted>
0.0331

> <Gold.Chemscore.DEInternal.Weighted>
1.8237

> <Gold.Chemscore.Rot.Weighted>
4.9869

> <Gold.Chemscore.Internal.Correction.Weighted>
   9.000000E+99

> <Gold.Protein.RotatedTorsions>
[ 6907 6896 6895 6894 ] final  -13.98 input  -60.11 | X-H torsion
[ 7974 7965 7964 7962 ] final -176.19 input  175.53 | X-H torsion
[ 8008 7997 7996 7995 ] final -118.88 input   59.86 | X-H torsion
[ 10167 10162 10161 10158 ] final -165.78 input  -65.29 | X-H torsion
[ 10718 10713 10712 10709 ] final  -53.47 input   66.30 | X-H torsion
[ 10763 10752 10751 10750 ] final   71.47 input  -60.55 | X-H torsion
[ 11005 11000 10999 10996 ] final -104.12 input  -57.11 | X-H torsion

> <Gold.Protein.ActiveResidues>
 VAL166  LYS551  ARG553  GLY616  TRP617  ASP618  TYR619  PRO620  LYS621  CYS622 
 ASP623  PHE694  ASN695  SER759  ASP760  ASP761  ALA762  ILE779  LEU786  VAL792 
 PHE793  MET794  SER795  GLU796  ALA797  LYS798  CYS799  TRP800  GLU811  SER814 

> <Gold.Protein.RotatedAtoms>
  151.3465  135.0875  159.9388 H   0  0  0  0  0  0  0  0  0  0  0  0  # atno 6907 bound_to 6896
  152.5198  133.9395  159.7630 H   0  0  0  0  0  0  0  0  0  0  0  0  # atno 6908 bound_to 6896
  150.9762  133.6239  159.2759 H   0  0  0  0  0  0  0  0  0  0  0  0  # atno 6909 bound_to 6896
  144.7127  140.1208  143.6405 H   0  0  0  0  0  0  0  0  0  0  0  0  # atno 7974 bound_to 7965
  155.1068  140.0396  157.2713 H   0  0  0  0  0  0  0  0  0  0  0  0  # atno 8008 bound_to 7997
  154.6716  140.2613  155.6976 H   0  0  0  0  0  0  0  0  0  0  0  0  # atno 8009 bound_to 7997
  156.2660  140.2796  156.1226 H   0  0  0  0  0  0  0  0  0  0  0  0  # atno 8010 bound_to 7997
  139.6159  144.0721  152.1887 H   0  0  0  0  0  0  0  0  0  0  0  0  # atno 10167 bound_to 10162
  156.1532  130.4151  149.9911 H   0  0  0  0  0  0  0  0  0  0  0  0  # atno 10718 bound_to 10713
  153.0401  135.5136  154.7598 H   0  0  0  0  0  0  0  0  0  0  0  0  # atno 10763 bound_to 10752
  154.6542  135.2929  154.9951 H   0  0  0  0  0  0  0  0  0  0  0  0  # atno 10764 bound_to 10752
  154.0824  135.6662  153.4892 H   0  0  0  0  0  0  0  0  0  0  0  0  # atno 10765 bound_to 10752
  141.1115  133.8697  157.1572 H   0  0  0  0  0  0  0  0  0  0  0  0  # atno 11005 bound_to 11000
  145.9373  139.2645  143.1290 LP  0  0  0  0  0  0  0  0  0  0  0  0  # atno 17320 bound_to 7965
  145.9461  140.8944  143.0283 LP  0  0  0  0  0  0  0  0  0  0  0  0  # atno 17321 bound_to 7965
  140.0351  144.6051  150.7456 LP  0  0  0  0  0  0  0  0  0  0  0  0  # atno 17342 bound_to 10162
  140.7350  143.2736  151.3811 LP  0  0  0  0  0  0  0  0  0  0  0  0  # atno 17343 bound_to 10162
  156.7762  130.9204  151.3645 LP  0  0  0  0  0  0  0  0  0  0  0  0  # atno 17370 bound_to 10713
  157.6674  130.9020  149.9963 LP  0  0  0  0  0  0  0  0  0  0  0  0  # atno 17371 bound_to 10713
  140.0011  135.0027  157.0192 LP  0  0  0  0  0  0  0  0  0  0  0  0  # atno 17394 bound_to 11000
  140.4763  134.1335  155.7210 LP  0  0  0  0  0  0  0  0  0  0  0  0  # atno 17395 bound_to 11000

$$$$
