AV-unprocessed.smi:1768|AV-procd|sdf|7147|dock8
  -GOLD-   22720 8383D 1   1.00000     0.00000
 Structure written by MMmdl.
 32 33  0  0  0  0  0  0  0  0  2 V2000
  150.4485  135.1652  155.1898 C   0  0  0  0  0  0  0  0  0  0  0  0
  151.1245  136.4922  155.1419 C   0  0  0  0  0  0  0  0  0  0  0  0
  152.3273  136.6692  154.5902 N   0  0  0  0  0  0  0  0  0  0  0  0
  152.7465  137.9900  154.6629 N   0  0  0  0  0  0  0  0  0  0  0  0
  151.8539  138.7929  155.2591 C   0  0  0  0  0  0  0  0  0  0  0  0
  152.0708  140.1074  155.4315 N   0  5  0  0  0  0  0  0  0  0  0  0
  151.2781  140.8208  156.2636 C   0  0  0  0  0  0  0  0  0  0  0  0
  150.1057  141.1407  156.0561 O   0  0  0  0  0  0  0  0  0  0  0  0
  151.8843  141.1771  157.4057 N   0  0  0  0  0  0  0  0  0  0  0  0
  151.2979  141.9296  158.5145 C   0  0  2  0  0  0  0  0  0  0  0  0
  150.6123  143.1871  157.9611 C   0  0  0  0  0  0  0  0  0  0  0  0
  152.3881  142.2737  159.5475 C   0  0  2  0  0  0  0  0  0  0  0  0
  153.1501  141.0692  160.0990 C   0  0  0  0  0  0  0  0  0  0  0  0
  153.7182  141.6007  161.4017 C   0  0  0  0  0  0  0  0  0  0  0  0
  152.7705  142.7455  161.7748 C   0  0  0  0  0  0  0  0  0  0  0  0
  151.8130  142.8212  160.7246 O   0  0  0  0  0  0  0  0  0  0  0  0
  150.4049  137.9493  155.8063 S   0  0  0  0  0  0  0  0  0  0  0  0
  150.2499  134.8108  154.1782 H   0  0  0  0  0  0  0  0  0  0  0  0
  149.5023  135.2401  155.7260 H   0  0  0  0  0  0  0  0  0  0  0  0
  151.0820  134.4390  155.6995 H   0  0  0  0  0  0  0  0  0  0  0  0
  152.8441  140.8859  157.5197 H   0  0  0  0  0  0  0  0  0  0  0  0
  150.5364  141.3323  159.0183 H   0  0  0  0  0  0  0  0  0  0  0  0
  150.1460  143.7651  158.7594 H   0  0  0  0  0  0  0  0  0  0  0  0
  149.8309  142.9241  157.2475 H   0  0  0  0  0  0  0  0  0  0  0  0
  151.3244  143.8369  157.4517 H   0  0  0  0  0  0  0  0  0  0  0  0
  153.0940  142.9956  159.1317 H   0  0  0  0  0  0  0  0  0  0  0  0
  152.4602  140.2492  160.3032 H   0  0  0  0  0  0  0  0  0  0  0  0
  153.9189  140.7027  159.4181 H   0  0  0  0  0  0  0  0  0  0  0  0
  153.7644  140.8288  162.1703 H   0  0  0  0  0  0  0  0  0  0  0  0
  154.7275  141.9852  161.2493 H   0  0  0  0  0  0  0  0  0  0  0  0
  152.2687  142.5714  162.7271 H   0  0  0  0  0  0  0  0  0  0  0  0
  153.3136  143.6887  161.8450 H   0  0  0  0  0  0  0  0  0  0  0  0
  1  2  1  0  0  0  0
  1 18  1  0  0  0  0
  1 19  1  0  0  0  0
  1 20  1  0  0  0  0
  2 17  1  0  0  0  0
  2  3  2  0  0  0  0
  3  4  1  0  0  0  0
  4  5  2  0  0  0  0
  5  6  1  0  0  0  0
  5 17  1  0  0  0  0
  6  7  1  0  0  0  0
  7  8  2  0  0  0  0
  7  9  1  0  0  0  0
  9 10  1  0  0  0  0
  9 21  1  0  0  0  0
 10 11  1  0  0  0  0
 10 12  1  0  0  0  0
 10 22  1  0  0  0  0
 11 23  1  0  0  0  0
 11 24  1  0  0  0  0
 11 25  1  0  0  0  0
 12 16  1  0  0  0  0
 12 13  1  0  0  0  0
 12 26  1  0  0  0  0
 13 14  1  0  0  0  0
 13 27  1  0  0  0  0
 13 28  1  0  0  0  0
 14 15  1  0  0  0  0
 14 29  1  0  0  0  0
 14 30  1  0  0  0  0
 15 16  1  0  0  0  0
 15 31  1  0  0  0  0
 15 32  1  0  0  0  0
M  CHG  1   6  -1
M  END
> <s_m_source_file>
AV-unprocessed.smi

> <i_m_source_file_index>
1768

> <i_lp_mmshare_version>
43012

> <i_f3d_flags>
0

> <s_epik_input>
W0NIM11jMW5uYyhzMSlbTkhdQyg9TylbTkhdW0NASF0oW0NIM10pW0NAQEhdMltDSDJdW0NIMl1bQ0gyXU8y

> <s_epik_cmdline>
J2VwaWtfcHl0aG9uJywgJy1waCcsICc3LjAnLCAnLXRuJywgJzgnLCAnLW1hJywgJzIwMCcsICctbWV0YWxfYmluZGluZycsICctaW1hZScsICc8aW5maWxlLm1hZT4nLCAnLW9tYWUnLCAnPG91dGZpbGUubWFlPic=

> <r_lp_tautomer_probability>
1

> <r_epik_Ionization_Penalty>
4.3376

> <r_epik_Ionization_Penalty_Charging>
4.19392

> <r_epik_Ionization_Penalty_Neutral>
0.143681

> <r_epik_State_Penalty>
4.19342

> <r_epik_Charging_Adjusted_Penalty>
8.38735

> <i_epik_Tot_Q>
-1

> <i_epik_Tot_abs_Q>
1

> <r_epik_Metal_State_Penalty>
0.686065

> <b_epik_Metal_Only>
1

> <s_lp_Force_Field>
OPLS_2005

> <r_lp_Energy>
15.5769

> <b_lp_Chiralities_Consistent>
1

> <s_lp_Variant>
AV-unprocessed.smi:1768-5

> <Gold.Version>
5.8.1

> <Gold.Id.Protein>
6NUR|6NUR_protein|mol2

> <Gold.PLP.Fitness>
37.0168

> <Gold.PLP.PLP>
-33.1354

> <Gold.PLP.part.hbond>
-2.9308

> <Gold.PLP.part.metal>
0.0000

> <Gold.PLP.part.buried>
-5.9315

> <Gold.PLP.part.nonpolar>
-25.1231

> <Gold.PLP.part.repulsive>
0.6499

> <Gold.PLP.ligand.clash>
0.0000

> <Gold.PLP.ligand.torsion>
0.8275

> <Gold.PLP.Chemscore.Hbond>
1.8320

> <Gold.PLP.Chemscore.CHOScore>
0.0000

> <Gold.PLP.Chemscore.Metal>
0.0000

> <Gold.Chemscore.Hbonds>
donor molecule, donor type, donor heavy atom, donor atom, acceptor molecule, acceptor atom, score
      P1  H  7989  7998       L1     6  0.61
      P1  H 10752 10764       L1     3  0.18

> <Gold.PLP.Chemscore.Internal.Correction>
0.0406

> <Gold.Rescore>
     Score         DG    S(hbond)    S(metal)    S(lipo)     H(rot)  DE(clash)    DE(int)     intcor
     14.40     -16.44       1.74        0.00      71.98       1.28       0.06       1.99       ----

> <Gold.Chemscore.Fitness>
14.3956

> <Gold.Chemscore.DG>
-16.4439

> <Gold.Chemscore.ZeroCoef>
-5.4800

> <Gold.Chemscore.Hbond>
1.7404

> <Gold.Chemscore.Metal>
0.0000

> <Gold.Chemscore.Lipo>
71.9795

> <Gold.Chemscore.Internal_Hbond>
0.0000

> <Gold.Chemscore.DEClash>
0.0577

> <Gold.Chemscore.DEInternal>
1.9906

> <Gold.Chemscore.Rot>
1.2776

> <Gold.Chemscore.Internal.Correction>
   9.000000E+99

> <Gold.Chemscore.Hbonds>
donor molecule, donor type, donor heavy atom, donor atom, acceptor molecule, acceptor atom, score
      P1  H  7989  7998       L1     6  0.11
      P1  H  7997  8008       L1     6  0.02
      P1  H 10752 10764       L1     3  0.17

> <Gold.Chemscore.Hbond.Weighted>
-5.8129

> <Gold.Chemscore.Metal.Weighted>
-0.0000

> <Gold.Chemscore.Lipo.Weighted>
-8.4216

> <Gold.Chemscore.Internal_Hbond.Weighted>
0.0000

> <Gold.Chemscore.DEClash.Weighted>
0.0577

> <Gold.Chemscore.DEInternal.Weighted>
1.9906

> <Gold.Chemscore.Rot.Weighted>
3.2706

> <Gold.Chemscore.Internal.Correction.Weighted>
   9.000000E+99

> <Gold.Protein.RotatedTorsions>
[ 6907 6896 6895 6894 ] final    0.90 input  -60.11 | X-H torsion
[ 7974 7965 7964 7962 ] final    2.70 input  175.53 | X-H torsion
[ 8008 7997 7996 7995 ] final  -13.33 input   59.86 | X-H torsion
[ 10167 10162 10161 10158 ] final  140.12 input  -65.29 | X-H torsion
[ 10718 10713 10712 10709 ] final  -91.66 input   66.30 | X-H torsion
[ 10763 10752 10751 10750 ] final  -75.68 input  -60.55 | X-H torsion
[ 11005 11000 10999 10996 ] final   -2.95 input  -57.11 | X-H torsion

> <Gold.Protein.ActiveResidues>
 VAL166  LYS551  ARG553  GLY616  TRP617  ASP618  TYR619  PRO620  LYS621  CYS622 
 ASP623  PHE694  ASN695  SER759  ASP760  ASP761  ALA762  ILE779  LEU786  VAL792 
 PHE793  MET794  SER795  GLU796  ALA797  LYS798  CYS799  TRP800  GLU811  SER814 

> <Gold.Protein.RotatedAtoms>
  151.5840  135.1057  160.0023 H   0  0  0  0  0  0  0  0  0  0  0  0  # atno 6907 bound_to 6896
  152.4340  133.7323  159.6605 H   0  0  0  0  0  0  0  0  0  0  0  0  # atno 6908 bound_to 6896
  150.8235  133.8141  159.3151 H   0  0  0  0  0  0  0  0  0  0  0  0  # atno 6909 bound_to 6896
  146.2444  140.0796  142.8358 H   0  0  0  0  0  0  0  0  0  0  0  0  # atno 7974 bound_to 7965
  154.5301  140.2252  155.8819 H   0  0  0  0  0  0  0  0  0  0  0  0  # atno 8008 bound_to 7997
  156.1755  140.3112  155.9015 H   0  0  0  0  0  0  0  0  0  0  0  0  # atno 8009 bound_to 7997
  155.3469  140.0453  157.3036 H   0  0  0  0  0  0  0  0  0  0  0  0  # atno 8010 bound_to 7997
  139.5058  144.6254  151.5951 H   0  0  0  0  0  0  0  0  0  0  0  0  # atno 10167 bound_to 10162
  155.9995  130.4957  150.5509 H   0  0  0  0  0  0  0  0  0  0  0  0  # atno 10718 bound_to 10713
  154.4898  135.5823  153.6450 H   0  0  0  0  0  0  0  0  0  0  0  0  # atno 10763 bound_to 10752
  152.9860  135.6110  154.3140 H   0  0  0  0  0  0  0  0  0  0  0  0  # atno 10764 bound_to 10752
  154.3039  135.2846  155.2577 H   0  0  0  0  0  0  0  0  0  0  0  0  # atno 10765 bound_to 10752
  140.6640  133.9295  155.8453 H   0  0  0  0  0  0  0  0  0  0  0  0  # atno 11005 bound_to 11000
  145.0744  140.9178  143.4862 LP  0  0  0  0  0  0  0  0  0  0  0  0  # atno 17320 bound_to 7965
  145.0936  139.2872  143.5722 LP  0  0  0  0  0  0  0  0  0  0  0  0  # atno 17321 bound_to 7965
  140.5969  143.9680  150.6360 LP  0  0  0  0  0  0  0  0  0  0  0  0  # atno 17342 bound_to 10162
  140.2879  143.3344  152.1090 LP  0  0  0  0  0  0  0  0  0  0  0  0  # atno 17343 bound_to 10162
  157.3432  131.0720  151.1772 LP  0  0  0  0  0  0  0  0  0  0  0  0  # atno 17370 bound_to 10713
  157.2613  130.6660  149.5976 LP  0  0  0  0  0  0  0  0  0  0  0  0  # atno 17371 bound_to 10713
  141.0444  134.0576  157.3863 LP  0  0  0  0  0  0  0  0  0  0  0  0  # atno 17394 bound_to 11000
  139.9003  135.0162  156.7238 LP  0  0  0  0  0  0  0  0  0  0  0  0  # atno 17395 bound_to 11000

$$$$
