AV-unprocessed.smi:1023|AV-procd|sdf|4463|dock1
  -GOLD-   22720 2433D 1   1.00000     0.00000
 Structure written by MMmdl.
 31 32  0  0  0  0  0  0  0  0  2 V2000
  148.4842  131.6593  153.4869 C   0  0  0  0  0  0  0  0  0  0  0  0
  149.4356  132.6685  154.1459 C   0  0  0  0  0  0  0  0  0  0  0  0
  150.0639  132.0739  155.4193 C   0  0  0  0  0  0  0  0  0  0  0  0
  148.7153  134.0046  154.4125 C   0  0  0  0  0  0  0  0  0  0  0  0
  149.6427  135.1261  154.3464 N   0  0  0  0  0  0  0  0  0  0  0  0
  150.6407  135.3785  155.2133 C   0  0  0  0  0  0  0  0  0  0  0  0
  150.7918  134.6312  156.1789 O   0  0  0  0  0  0  0  0  0  0  0  0
  151.4343  136.4547  154.9679 N   0  5  0  0  0  0  0  0  0  0  0  0
  150.9394  137.6999  154.8377 C   0  0  0  0  0  0  0  0  0  0  0  0
  151.7244  138.7748  154.6794 N   0  0  0  0  0  0  0  0  0  0  0  0
  151.0113  139.9613  154.5922 N   0  0  0  0  0  0  0  0  0  0  0  0
  149.6934  139.7645  154.6739 C   0  0  0  0  0  0  0  0  0  0  0  0
  148.7126  140.8874  154.6161 C   0  0  0  0  0  0  0  0  0  0  0  0
  147.2480  140.6470  154.9009 C   0  0  0  0  0  0  0  0  0  0  0  0
  147.6929  140.9948  153.5032 C   0  0  0  0  0  0  0  0  0  0  0  0
  149.2184  138.0833  154.8554 S   0  0  0  0  0  0  0  0  0  0  0  0
  147.6498  131.4140  154.1446 H   0  0  0  0  0  0  0  0  0  0  0  0
  149.0019  130.7307  153.2449 H   0  0  0  0  0  0  0  0  0  0  0  0
  148.0712  132.0562  152.5593 H   0  0  0  0  0  0  0  0  0  0  0  0
  150.2446  132.8621  153.4401 H   0  0  0  0  0  0  0  0  0  0  0  0
  149.3071  131.8833  156.1808 H   0  0  0  0  0  0  0  0  0  0  0  0
  150.8099  132.7416  155.8516 H   0  0  0  0  0  0  0  0  0  0  0  0
  150.5645  131.1296  155.2047 H   0  0  0  0  0  0  0  0  0  0  0  0
  147.9234  134.1552  153.6771 H   0  0  0  0  0  0  0  0  0  0  0  0
  148.2417  133.9886  155.3954 H   0  0  0  0  0  0  0  0  0  0  0  0
  149.5317  135.7600  153.5689 H   0  0  0  0  0  0  0  0  0  0  0  0
  149.1598  141.8071  154.9883 H   0  0  0  0  0  0  0  0  0  0  0  0
  146.9301  139.6225  155.0851 H   0  0  0  0  0  0  0  0  0  0  0  0
  146.7151  141.4100  155.4647 H   0  0  0  0  0  0  0  0  0  0  0  0
  147.4575  141.9907  153.1340 H   0  0  0  0  0  0  0  0  0  0  0  0
  147.6551  140.2018  152.7590 H   0  0  0  0  0  0  0  0  0  0  0  0
  1  2  1  0  0  0  0
  1 17  1  0  0  0  0
  1 18  1  0  0  0  0
  1 19  1  0  0  0  0
  2  3  1  0  0  0  0
  2  4  1  0  0  0  0
  2 20  1  0  0  0  0
  3 21  1  0  0  0  0
  3 22  1  0  0  0  0
  3 23  1  0  0  0  0
  4  5  1  0  0  0  0
  4 24  1  0  0  0  0
  4 25  1  0  0  0  0
  5  6  1  0  0  0  0
  5 26  1  0  0  0  0
  6  7  2  0  0  0  0
  6  8  1  0  0  0  0
  8  9  1  0  0  0  0
  9 16  1  0  0  0  0
  9 10  2  0  0  0  0
 10 11  1  0  0  0  0
 11 12  2  0  0  0  0
 12 13  1  0  0  0  0
 12 16  1  0  0  0  0
 13 15  1  0  0  0  0
 13 14  1  0  0  0  0
 13 27  1  0  0  0  0
 14 15  1  0  0  0  0
 14 28  1  0  0  0  0
 14 29  1  0  0  0  0
 15 30  1  0  0  0  0
 15 31  1  0  0  0  0
M  CHG  1   8  -1
M  END
> <s_m_source_file>
AV-unprocessed.smi

> <i_m_source_file_index>
1023

> <i_lp_mmshare_version>
43012

> <i_f3d_flags>
0

> <s_epik_input>
W0NIM11bQ0hdKFtDSDNdKVtDSDJdW05IXUMoPU8pW05IXWMxbm5jKHMxKVtDSF0yW0NIMl1bQ0gyXTI=

> <s_epik_cmdline>
J2VwaWtfcHl0aG9uJywgJy1waCcsICc3LjAnLCAnLXRuJywgJzgnLCAnLW1hJywgJzIwMCcsICctbWV0YWxfYmluZGluZycsICctaW1hZScsICc8aW5maWxlLm1hZT4nLCAnLW9tYWUnLCAnPG91dGZpbGUubWFlPic=

> <r_lp_tautomer_probability>
1

> <r_epik_Ionization_Penalty>
3.99087

> <r_epik_Ionization_Penalty_Charging>
3.83446

> <r_epik_Ionization_Penalty_Neutral>
0.156418

> <r_epik_State_Penalty>
3.83354

> <r_epik_Charging_Adjusted_Penalty>
7.668

> <i_epik_Tot_Q>
-1

> <i_epik_Tot_abs_Q>
1

> <r_epik_Metal_State_Penalty>
0.575872

> <b_epik_Metal_Only>
1

> <s_lp_Force_Field>
OPLS_2005

> <r_lp_Energy>
2.18617

> <b_lp_Chiralities_Consistent>
1

> <s_lp_Variant>
AV-unprocessed.smi:1023-2

> <Gold.Version>
5.8.1

> <Gold.Id.Protein>
6NUR|6NUR_protein|mol2

> <Gold.PLP.Fitness>
38.5079

> <Gold.PLP.PLP>
-28.1847

> <Gold.PLP.part.hbond>
-3.0138

> <Gold.PLP.part.metal>
0.0000

> <Gold.PLP.part.buried>
-4.5228

> <Gold.PLP.part.nonpolar>
-21.8292

> <Gold.PLP.part.repulsive>
0.3472

> <Gold.PLP.ligand.clash>
0.0000

> <Gold.PLP.ligand.torsion>
0.9690

> <Gold.PLP.Chemscore.Hbond>
4.0000

> <Gold.PLP.Chemscore.CHOScore>
0.0000

> <Gold.PLP.Chemscore.Metal>
0.0000

> <Gold.Chemscore.Hbonds>
donor molecule, donor type, donor heavy atom, donor atom, acceptor molecule, acceptor atom, score
      L1  H     5    26       P1  7948  1.00
      P1  H  7989  7998       L1    11  1.00
      P1  H 10752 10763       L1     8  1.90

> <Gold.PLP.Chemscore.Internal.Correction>
0.2612

> <Gold.Rescore>
     Score         DG    S(hbond)    S(metal)    S(lipo)     H(rot)  DE(clash)    DE(int)     intcor
     14.25     -16.38       2.70        0.00      46.55       1.39       0.01       2.12       ----

> <Gold.Chemscore.Fitness>
14.2469

> <Gold.Chemscore.DG>
-16.3792

> <Gold.Chemscore.ZeroCoef>
-5.4800

> <Gold.Chemscore.Hbond>
2.6989

> <Gold.Chemscore.Metal>
0.0000

> <Gold.Chemscore.Lipo>
46.5475

> <Gold.Chemscore.Internal_Hbond>
0.0000

> <Gold.Chemscore.DEClash>
0.0106

> <Gold.Chemscore.DEInternal>
2.1218

> <Gold.Chemscore.Rot>
1.3911

> <Gold.Chemscore.Internal.Correction>
   9.000000E+99

> <Gold.Chemscore.Hbonds>
donor molecule, donor type, donor heavy atom, donor atom, acceptor molecule, acceptor atom, score
      L1  H     5    26       P1  7948  0.25
      P1  H  7989  7998       L1    11  0.70
      P1  H 10752 10763       L1     8  0.22

> <Gold.Chemscore.Hbond.Weighted>
-9.0143

> <Gold.Chemscore.Metal.Weighted>
-0.0000

> <Gold.Chemscore.Lipo.Weighted>
-5.4461

> <Gold.Chemscore.Internal_Hbond.Weighted>
0.0000

> <Gold.Chemscore.DEClash.Weighted>
0.0106

> <Gold.Chemscore.DEInternal.Weighted>
2.1218

> <Gold.Chemscore.Rot.Weighted>
3.5612

> <Gold.Chemscore.Internal.Correction.Weighted>
   9.000000E+99

> <Gold.Protein.RotatedTorsions>
[ 6907 6896 6895 6894 ] final -136.19 input  -60.11 | X-H torsion
[ 7974 7965 7964 7962 ] final  141.32 input  175.53 | X-H torsion
[ 8008 7997 7996 7995 ] final   75.56 input   59.86 | X-H torsion
[ 10167 10162 10161 10158 ] final -108.60 input  -65.29 | X-H torsion
[ 10718 10713 10712 10709 ] final -157.15 input   66.30 | X-H torsion
[ 10763 10752 10751 10750 ] final   54.15 input  -60.55 | X-H torsion
[ 11005 11000 10999 10996 ] final   34.79 input  -57.11 | X-H torsion

> <Gold.Protein.ActiveResidues>
 VAL166  LYS551  ARG553  GLY616  TRP617  ASP618  TYR619  PRO620  LYS621  CYS622 
 ASP623  PHE694  ASN695  SER759  ASP760  ASP761  ALA762  ILE779  LEU786  VAL792 
 PHE793  MET794  SER795  GLU796  ALA797  LYS798  CYS799  TRP800  GLU811  SER814 

> <Gold.Protein.RotatedAtoms>
  151.0071  133.6001  159.2687 H   0  0  0  0  0  0  0  0  0  0  0  0  # atno 6907 bound_to 6896
  151.3166  135.0807  159.9301 H   0  0  0  0  0  0  0  0  0  0  0  0  # atno 6908 bound_to 6896
  152.5289  133.9726  159.7823 H   0  0  0  0  0  0  0  0  0  0  0  0  # atno 6909 bound_to 6896
  144.9107  139.5297  143.5710 H   0  0  0  0  0  0  0  0  0  0  0  0  # atno 7974 bound_to 7965
  155.8147  140.3472  155.5478 H   0  0  0  0  0  0  0  0  0  0  0  0  # atno 8008 bound_to 7997
  155.8404  140.0941  157.1758 H   0  0  0  0  0  0  0  0  0  0  0  0  # atno 8009 bound_to 7997
  154.4005  140.1395  156.3709 H   0  0  0  0  0  0  0  0  0  0  0  0  # atno 8010 bound_to 7997
  140.1644  143.4094  152.1402 H   0  0  0  0  0  0  0  0  0  0  0  0  # atno 10167 bound_to 10162
  156.5364  130.8543  151.2734 H   0  0  0  0  0  0  0  0  0  0  0  0  # atno 10718 bound_to 10713
  152.9802  135.5755  154.4857 H   0  0  0  0  0  0  0  0  0  0  0  0  # atno 10763 bound_to 10752
  154.4399  135.2775  155.1857 H   0  0  0  0  0  0  0  0  0  0  0  0  # atno 10764 bound_to 10752
  154.3529  135.6205  153.5705 H   0  0  0  0  0  0  0  0  0  0  0  0  # atno 10765 bound_to 10752
  140.2493  134.3323  155.7896 H   0  0  0  0  0  0  0  0  0  0  0  0  # atno 11005 bound_to 11000
  146.3157  139.7911  142.8985 LP  0  0  0  0  0  0  0  0  0  0  0  0  # atno 17320 bound_to 7965
  145.3459  141.0297  143.3366 LP  0  0  0  0  0  0  0  0  0  0  0  0  # atno 17321 bound_to 7965
  139.5366  144.7216  151.4872 LP  0  0  0  0  0  0  0  0  0  0  0  0  # atno 17342 bound_to 10162
  140.6622  143.8473  150.6901 LP  0  0  0  0  0  0  0  0  0  0  0  0  # atno 17343 bound_to 10162
  157.7413  130.9867  150.2436 LP  0  0  0  0  0  0  0  0  0  0  0  0  # atno 17370 bound_to 10713
  156.3012  130.3759  149.7748 LP  0  0  0  0  0  0  0  0  0  0  0  0  # atno 17371 bound_to 10713
  141.2203  133.7344  156.9010 LP  0  0  0  0  0  0  0  0  0  0  0  0  # atno 17394 bound_to 11000
  140.1575  134.9188  157.2672 LP  0  0  0  0  0  0  0  0  0  0  0  0  # atno 17395 bound_to 11000

$$$$
