AV-unprocessed.smi:1599|AV-procd|sdf|6425|dock2
  -GOLD-   22720 7 63D 1   1.00000     0.00000
 Structure written by MMmdl.
 39 40  0  0  0  0  0  0  0  0  1 V2000
  148.2359  140.0234  154.1361 C   0  0  0  0  0  0  0  0  0  0  0  0
  146.8439  140.1333  154.7753 C   0  0  2  0  0  0  0  0  0  0  0  0
  145.8846  139.4188  153.9341 N   0  0  0  0  0  0  0  0  0  0  0  0
  145.9614  138.1289  153.5756 C   0  0  0  0  0  0  0  0  0  0  0  0
  146.8706  137.3750  153.9232 O   0  0  0  0  0  0  0  0  0  0  0  0
  144.9211  137.7763  152.8028 N   0  0  0  0  0  0  0  0  0  0  0  0
  144.6516  136.4965  152.2555 C   0  0  0  0  0  0  0  0  0  0  0  0
  143.4001  135.8313  152.3262 C   0  0  0  0  0  0  0  0  0  0  0  0
  143.4512  134.6499  151.7298 N   0  0  0  0  0  0  0  0  0  0  0  0
  144.7238  134.5404  151.2717 N   0  0  0  0  0  0  0  0  0  0  0  0
  145.1332  133.3423  150.5597 C   0  0  0  0  0  0  0  0  0  0  0  0
  143.9566  132.6964  149.8241 C   0  0  0  0  0  0  0  0  0  0  0  0
  142.9103  132.3107  150.5602 N   0  0  0  0  0  0  0  0  0  0  0  0
  143.9948  132.5389  148.6058 O   0  0  0  0  0  0  0  0  0  0  0  0
  145.4835  135.6536  151.5745 C   0  0  0  0  0  0  0  0  0  0  0  0
  146.4134  141.6036  154.9603 C   0  0  1  0  0  0  0  0  0  0  0  0
  146.2966  142.4160  153.6688 C   0  0  0  0  0  0  0  0  0  0  0  0
  145.3555  143.5208  154.0897 C   0  0  0  0  0  0  0  0  0  0  0  0
  144.3810  142.7708  154.9925 C   0  0  0  0  0  0  0  0  0  0  0  0
  145.1127  141.6765  155.5402 O   0  0  0  0  0  0  0  0  0  0  0  0
  148.9916  140.5153  154.7490 H   0  0  0  0  0  0  0  0  0  0  0  0
  148.2580  140.4851  153.1483 H   0  0  0  0  0  0  0  0  0  0  0  0
  148.5354  138.9808  154.0237 H   0  0  0  0  0  0  0  0  0  0  0  0
  146.8968  139.6619  155.7583 H   0  0  0  0  0  0  0  0  0  0  0  0
  145.0966  139.9540  153.5995 H   0  0  0  0  0  0  0  0  0  0  0  0
  144.2447  138.4956  152.5939 H   0  0  0  0  0  0  0  0  0  0  0  0
  142.4766  136.1572  152.7814 H   0  0  0  0  0  0  0  0  0  0  0  0
  145.9242  133.5954  149.8519 H   0  0  0  0  0  0  0  0  0  0  0  0
  145.5582  132.6351  151.2731 H   0  0  0  0  0  0  0  0  0  0  0  0
  142.1135  131.8754  150.1187 H   0  0  0  0  0  0  0  0  0  0  0  0
  142.9236  132.4525  151.5600 H   0  0  0  0  0  0  0  0  0  0  0  0
  146.5205  135.7345  151.2846 H   0  0  0  0  0  0  0  0  0  0  0  0
  147.1037  142.1129  155.6352 H   0  0  0  0  0  0  0  0  0  0  0  0
  147.2563  142.7866  153.3076 H   0  0  0  0  0  0  0  0  0  0  0  0
  145.8393  141.8196  152.8779 H   0  0  0  0  0  0  0  0  0  0  0  0
  145.8966  144.2742  154.6635 H   0  0  0  0  0  0  0  0  0  0  0  0
  144.8665  144.0146  153.2496 H   0  0  0  0  0  0  0  0  0  0  0  0
  143.9699  143.4074  155.7761 H   0  0  0  0  0  0  0  0  0  0  0  0
  143.5502  142.3716  154.4097 H   0  0  0  0  0  0  0  0  0  0  0  0
  1  2  1  0  0  0  0
  1 21  1  0  0  0  0
  1 22  1  0  0  0  0
  1 23  1  0  0  0  0
  2  3  1  0  0  0  0
  2 16  1  0  0  0  0
  2 24  1  0  0  0  0
  3  4  1  0  0  0  0
  3 25  1  0  0  0  0
  4  5  2  0  0  0  0
  4  6  1  0  0  0  0
  6  7  1  0  0  0  0
  6 26  1  0  0  0  0
  7 15  2  0  0  0  0
  7  8  1  0  0  0  0
  8  9  2  0  0  0  0
  8 27  1  0  0  0  0
  9 10  1  0  0  0  0
 10 11  1  0  0  0  0
 10 15  1  0  0  0  0
 11 12  1  0  0  0  0
 11 28  1  0  0  0  0
 11 29  1  0  0  0  0
 12 13  1  0  0  0  0
 12 14  2  0  0  0  0
 13 30  1  0  0  0  0
 13 31  1  0  0  0  0
 15 32  1  0  0  0  0
 16 20  1  0  0  0  0
 16 17  1  0  0  0  0
 16 33  1  0  0  0  0
 17 18  1  0  0  0  0
 17 34  1  0  0  0  0
 17 35  1  0  0  0  0
 18 19  1  0  0  0  0
 18 36  1  0  0  0  0
 18 37  1  0  0  0  0
 19 20  1  0  0  0  0
 19 38  1  0  0  0  0
 19 39  1  0  0  0  0
M  END
> <s_m_source_file>
AV-unprocessed.smi

> <i_m_source_file_index>
1599

> <i_lp_mmshare_version>
43012

> <i_f3d_flags>
0

> <s_epik_input>
TzFbQ0gyXVtDSDJdW0NIMl1bQ0BIXTFbQ0BIXShbQ0gzXSlbTkhdQyg9TylbTkhdYzJbY0hdbm4oW2NIXTIpW0NIMl1DKD1PKVtOSDJd

> <s_epik_cmdline>
J2VwaWtfcHl0aG9uJywgJy1waCcsICc3LjAnLCAnLXRuJywgJzgnLCAnLW1hJywgJzIwMCcsICctbWV0YWxfYmluZGluZycsICctaW1hZScsICc8aW5maWxlLm1hZT4nLCAnLW9tYWUnLCAnPG91dGZpbGUubWFlPic=

> <r_lp_tautomer_probability>
1

> <r_epik_Ionization_Penalty>
4.15391e-05

> <r_epik_Ionization_Penalty_Charging>
0

> <r_epik_Ionization_Penalty_Neutral>
4.15391e-05

> <r_epik_State_Penalty>
-0

> <r_epik_Charging_Adjusted_Penalty>
0

> <i_epik_Tot_Q>
0

> <i_epik_Tot_abs_Q>
0

> <r_epik_Metal_State_Penalty>
-0

> <b_epik_Metal_Only>
0

> <s_lp_Force_Field>
OPLS_2005

> <r_lp_Energy>
20.4971

> <b_lp_Chiralities_Consistent>
1

> <s_lp_Variant>
AV-unprocessed.smi:1599-3

> <Gold.Version>
5.8.1

> <Gold.Id.Protein>
6NUR|6NUR_protein|mol2

> <Gold.PLP.Fitness>
43.6417

> <Gold.PLP.PLP>
-33.3588

> <Gold.PLP.part.hbond>
-4.3847

> <Gold.PLP.part.metal>
0.0000

> <Gold.PLP.part.buried>
-8.0794

> <Gold.PLP.part.nonpolar>
-23.3932

> <Gold.PLP.part.repulsive>
0.9977

> <Gold.PLP.ligand.clash>
0.0000

> <Gold.PLP.ligand.torsion>
0.8034

> <Gold.PLP.Chemscore.Hbond>
2.9338

> <Gold.PLP.Chemscore.CHOScore>
1.0000

> <Gold.PLP.Chemscore.Metal>
0.0000

> <Gold.Chemscore.Hbonds>
donor molecule, donor type, donor heavy atom, donor atom, acceptor molecule, acceptor atom, score
      L1  H     3    25       P1 10175  1.00
      L1  H     6    26       P1 10175  0.99
      L1  H    13    30       P1 10952  0.91
      L1  C    15    32       P1  7948  1.00

> <Gold.PLP.Chemscore.Internal.Correction>
0.0885

> <Gold.Rescore>
     Score         DG    S(hbond)    S(metal)    S(lipo)     H(rot)  DE(clash)    DE(int)     intcor
     13.72     -14.59       2.70        0.00      50.67       2.28       0.01       0.86       ----

> <Gold.Chemscore.Fitness>
13.7237

> <Gold.Chemscore.DG>
-14.5909

> <Gold.Chemscore.ZeroCoef>
-5.4800

> <Gold.Chemscore.Hbond>
2.7023

> <Gold.Chemscore.Metal>
0.0000

> <Gold.Chemscore.Lipo>
50.6653

> <Gold.Chemscore.Internal_Hbond>
0.0000

> <Gold.Chemscore.DEClash>
0.0115

> <Gold.Chemscore.DEInternal>
0.8556

> <Gold.Chemscore.Rot>
2.2823

> <Gold.Chemscore.Internal.Correction>
   9.000000E+99

> <Gold.Chemscore.Hbonds>
donor molecule, donor type, donor heavy atom, donor atom, acceptor molecule, acceptor atom, score
      L1  H     3    25       P1 10175  0.99
      L1  H     6    26       P1 10175  0.90
      L1  H    13    30       P1 10952  0.74

> <Gold.Chemscore.Hbond.Weighted>
-9.0257

> <Gold.Chemscore.Metal.Weighted>
-0.0000

> <Gold.Chemscore.Lipo.Weighted>
-5.9278

> <Gold.Chemscore.Internal_Hbond.Weighted>
0.0000

> <Gold.Chemscore.DEClash.Weighted>
0.0115

> <Gold.Chemscore.DEInternal.Weighted>
0.8556

> <Gold.Chemscore.Rot.Weighted>
5.8427

> <Gold.Chemscore.Internal.Correction.Weighted>
   9.000000E+99

> <Gold.Protein.RotatedTorsions>
[ 6907 6896 6895 6894 ] final   -1.76 input  -60.11 | X-H torsion
[ 7974 7965 7964 7962 ] final  -62.22 input  175.53 | X-H torsion
[ 8008 7997 7996 7995 ] final -116.14 input   59.86 | X-H torsion
[ 10167 10162 10161 10158 ] final  146.05 input  -65.29 | X-H torsion
[ 10718 10713 10712 10709 ] final  130.37 input   66.30 | X-H torsion
[ 10763 10752 10751 10750 ] final   97.27 input  -60.55 | X-H torsion
[ 11005 11000 10999 10996 ] final -115.03 input  -57.11 | X-H torsion

> <Gold.Protein.ActiveResidues>
 VAL166  LYS551  ARG553  GLY616  TRP617  ASP618  TYR619  PRO620  LYS621  CYS622 
 ASP623  PHE694  ASN695  SER759  ASP760  ASP761  ALA762  ILE779  LEU786  VAL792 
 PHE793  MET794  SER795  GLU796  ALA797  LYS798  CYS799  TRP800  GLU811  SER814 

> <Gold.Protein.RotatedAtoms>
  151.5408  135.1068  159.9925 H   0  0  0  0  0  0  0  0  0  0  0  0  # atno 6907 bound_to 6896
  152.4536  133.7674  159.6791 H   0  0  0  0  0  0  0  0  0  0  0  0  # atno 6908 bound_to 6896
  150.8472  133.7776  159.3063 H   0  0  0  0  0  0  0  0  0  0  0  0  # atno 6909 bound_to 6896
  145.7939  140.8694  143.0266 H   0  0  0  0  0  0  0  0  0  0  0  0  # atno 7974 bound_to 7965
  155.0631  140.0393  157.2583 H   0  0  0  0  0  0  0  0  0  0  0  0  # atno 8008 bound_to 7997
  154.7043  140.2680  155.6665 H   0  0  0  0  0  0  0  0  0  0  0  0  # atno 8009 bound_to 7997
  156.2770  140.2734  156.1664 H   0  0  0  0  0  0  0  0  0  0  0  0  # atno 8010 bound_to 7997
  139.4914  144.5858  151.6782 H   0  0  0  0  0  0  0  0  0  0  0  0  # atno 10167 bound_to 10162
  157.5068  131.1096  150.9349 H   0  0  0  0  0  0  0  0  0  0  0  0  # atno 10718 bound_to 10713
  153.2749  135.4189  155.1023 H   0  0  0  0  0  0  0  0  0  0  0  0  # atno 10763 bound_to 10752
  154.8469  135.3481  154.6192 H   0  0  0  0  0  0  0  0  0  0  0  0  # atno 10764 bound_to 10752
  153.6612  135.7048  153.5234 H   0  0  0  0  0  0  0  0  0  0  0  0  # atno 10765 bound_to 10752
  141.0514  133.9682  157.2830 H   0  0  0  0  0  0  0  0  0  0  0  0  # atno 11005 bound_to 11000
  144.6778  140.0163  143.7484 LP  0  0  0  0  0  0  0  0  0  0  0  0  # atno 17320 bound_to 7965
  145.9948  139.3044  143.0963 LP  0  0  0  0  0  0  0  0  0  0  0  0  # atno 17321 bound_to 7965
  140.5473  144.0482  150.6112 LP  0  0  0  0  0  0  0  0  0  0  0  0  # atno 17342 bound_to 10162
  140.3524  143.2955  152.0472 LP  0  0  0  0  0  0  0  0  0  0  0  0  # atno 17343 bound_to 10162
  157.0002  130.5597  149.5311 LP  0  0  0  0  0  0  0  0  0  0  0  0  # atno 17370 bound_to 10713
  156.0264  130.5357  150.8417 LP  0  0  0  0  0  0  0  0  0  0  0  0  # atno 17371 bound_to 10713
  139.9353  135.0197  156.8536 LP  0  0  0  0  0  0  0  0  0  0  0  0  # atno 17394 bound_to 11000
  140.6048  134.0137  155.7552 LP  0  0  0  0  0  0  0  0  0  0  0  0  # atno 17395 bound_to 11000

$$$$
