AV-unprocessed.smi:2702|AV-procd|sdf|10431|dock8
  -GOLD-   2272014473D 1   1.00000     0.00000
 Structure written by MMmdl.
 47 48  0  0  0  0  0  0  0  0  1 V2000
  146.7208  138.3465  151.9067 C   0  0  0  0  0  0  0  0  0  0  0  0
  146.6362  137.3361  152.8961 O   0  0  0  0  0  0  0  0  0  0  0  0
  146.3927  137.8617  154.1897 C   0  0  0  0  0  0  0  0  0  0  0  0
  147.4805  138.8436  154.5742 C   0  0  0  0  0  0  0  0  0  0  0  0
  148.7860  138.6055  154.3077 C   0  0  0  0  0  0  0  0  0  0  0  0
  149.8161  139.5652  154.7054 C   0  0  0  0  0  0  0  0  0  0  0  0
  151.0120  139.3913  154.4695 O   0  0  0  0  0  0  0  0  0  0  0  0
  149.3504  140.6689  155.3613 N   0  0  0  0  0  0  0  0  0  0  0  0
  150.2662  141.7230  155.8351 C   0  0  0  0  0  0  0  0  0  0  0  0
  150.4966  141.7050  157.3534 C   0  0  0  0  0  0  0  0  0  0  0  0
  149.5780  141.9417  158.1395 O   0  0  0  0  0  0  0  0  0  0  0  0
  151.7428  141.4054  157.7483 N   0  0  0  0  0  0  0  0  0  0  0  0
  152.1954  141.3237  159.1350 C   0  0  1  0  0  0  0  0  0  0  0  0
  153.6479  140.8115  159.1789 C   0  0  0  0  0  0  0  0  0  0  0  0
  154.1477  140.6788  160.6250 C   0  0  0  0  0  0  0  0  0  0  0  0
  153.9907  141.9967  161.3998 C   0  0  0  0  0  0  0  0  0  0  0  0
  152.5378  142.5114  161.3495 C   0  0  1  0  0  0  0  0  0  0  0  0
  152.3494  143.7727  162.2087 C   0  0  0  0  0  0  0  0  0  0  0  0
  152.0393  142.6735  159.8884 C   0  0  1  0  0  0  0  0  0  0  0  0
  152.6852  143.8652  159.1432 C   0  0  0  0  0  0  0  0  0  0  0  0
  147.9783  140.8659  155.6159 C   0  0  0  0  0  0  0  0  0  0  0  0
  147.0853  140.0023  155.2498 N   0  0  0  0  0  0  0  0  0  0  0  0
  146.9095  137.8910  150.9345 H   0  0  0  0  0  0  0  0  0  0  0  0
  147.5367  139.0389  152.1184 H   0  0  0  0  0  0  0  0  0  0  0  0
  145.7900  138.9113  151.8390 H   0  0  0  0  0  0  0  0  0  0  0  0
  145.4268  138.3695  154.2125 H   0  0  0  0  0  0  0  0  0  0  0  0
  146.3504  137.0551  154.9237 H   0  0  0  0  0  0  0  0  0  0  0  0
  149.0770  137.7009  153.7938 H   0  0  0  0  0  0  0  0  0  0  0  0
  151.2376  141.6526  155.3423 H   0  0  0  0  0  0  0  0  0  0  0  0
  149.8800  142.7042  155.5519 H   0  0  0  0  0  0  0  0  0  0  0  0
  152.4339  141.2254  157.0346 H   0  0  0  0  0  0  0  0  0  0  0  0
  151.5790  140.5787  159.6427 H   0  0  0  0  0  0  0  0  0  0  0  0
  153.7154  139.8422  158.6834 H   0  0  0  0  0  0  0  0  0  0  0  0
  154.3034  141.4841  158.6246 H   0  0  0  0  0  0  0  0  0  0  0  0
  153.5874  139.8918  161.1315 H   0  0  0  0  0  0  0  0  0  0  0  0
  155.1921  140.3658  160.6306 H   0  0  0  0  0  0  0  0  0  0  0  0
  154.2938  141.8422  162.4359 H   0  0  0  0  0  0  0  0  0  0  0  0
  154.6708  142.7461  160.9937 H   0  0  0  0  0  0  0  0  0  0  0  0
  151.9149  141.7415  161.8082 H   0  0  0  0  0  0  0  0  0  0  0  0
  153.0074  144.5821  161.8925 H   0  0  0  0  0  0  0  0  0  0  0  0
  152.5728  143.5647  163.2553 H   0  0  0  0  0  0  0  0  0  0  0  0
  151.3219  144.1339  162.1586 H   0  0  0  0  0  0  0  0  0  0  0  0
  150.9714  142.8913  159.9406 H   0  0  0  0  0  0  0  0  0  0  0  0
  153.7662  143.7596  159.0583 H   0  0  0  0  0  0  0  0  0  0  0  0
  152.4849  144.8088  159.6494 H   0  0  0  0  0  0  0  0  0  0  0  0
  152.2869  143.9708  158.1342 H   0  0  0  0  0  0  0  0  0  0  0  0
  147.7260  141.7914  156.1361 H   0  0  0  0  0  0  0  0  0  0  0  0
  1  2  1  0  0  0  0
  1 23  1  0  0  0  0
  1 24  1  0  0  0  0
  1 25  1  0  0  0  0
  2  3  1  0  0  0  0
  3  4  1  0  0  0  0
  3 26  1  0  0  0  0
  3 27  1  0  0  0  0
  4 22  1  0  0  0  0
  4  5  2  0  0  0  0
  5  6  1  0  0  0  0
  5 28  1  0  0  0  0
  6  7  2  0  0  0  0
  6  8  1  0  0  0  0
  8  9  1  0  0  0  0
  8 21  1  0  0  0  0
  9 10  1  0  0  0  0
  9 29  1  0  0  0  0
  9 30  1  0  0  0  0
 10 11  2  0  0  0  0
 10 12  1  0  0  0  0
 12 13  1  0  0  0  0
 12 31  1  0  0  0  0
 13 19  1  0  0  0  0
 13 14  1  0  0  0  0
 13 32  1  0  0  0  0
 14 15  1  0  0  0  0
 14 33  1  0  0  0  0
 14 34  1  0  0  0  0
 15 16  1  0  0  0  0
 15 35  1  0  0  0  0
 15 36  1  0  0  0  0
 16 17  1  0  0  0  0
 16 37  1  0  0  0  0
 16 38  1  0  0  0  0
 17 18  1  0  0  0  0
 17 19  1  0  0  0  0
 17 39  1  0  0  0  0
 18 40  1  0  0  0  0
 18 41  1  0  0  0  0
 18 42  1  0  0  0  0
 19 20  1  0  0  0  0
 19 43  1  0  0  0  0
 20 44  1  0  0  0  0
 20 45  1  0  0  0  0
 20 46  1  0  0  0  0
 21 22  2  0  0  0  0
 21 47  1  0  0  0  0
M  END
> <s_m_source_file>
AV-unprocessed.smi

> <i_m_source_file_index>
2702

> <i_lp_mmshare_version>
43012

> <i_f3d_flags>
0

> <s_epik_input>
W0NIM11PW0NIMl1jMVtjSF1jKD1PKW4oW2NIXW4xKVtDSDJdQyg9TylbTkhdW0NAQEhdMltDSDJdW0NIMl1bQ0gyXVtDQEBIXShbQ0gzXSlbQ0BIXTJbQ0gzXQ==

> <s_epik_cmdline>
J2VwaWtfcHl0aG9uJywgJy1waCcsICc3LjAnLCAnLXRuJywgJzgnLCAnLW1hJywgJzIwMCcsICctbWV0YWxfYmluZGluZycsICctaW1hZScsICc8aW5maWxlLm1hZT4nLCAnLW9tYWUnLCAnPG91dGZpbGUubWFlPic=

> <r_lp_tautomer_probability>
1

> <r_epik_Ionization_Penalty>
1.22164e-06

> <r_epik_Ionization_Penalty_Charging>
3.17988e-07

> <r_epik_Ionization_Penalty_Neutral>
9.03656e-07

> <r_epik_State_Penalty>
-0

> <r_epik_Charging_Adjusted_Penalty>
3.17988e-07

> <i_epik_Tot_Q>
0

> <i_epik_Tot_abs_Q>
0

> <r_epik_Metal_State_Penalty>
-0

> <b_epik_Metal_Only>
0

> <s_lp_Force_Field>
OPLS_2005

> <r_lp_Energy>
18.9829

> <b_lp_Chiralities_Consistent>
1

> <s_lp_Variant>
AV-unprocessed.smi:2702-2

> <Gold.Version>
5.8.1

> <Gold.Id.Protein>
6NUR|6NUR_protein|mol2

> <Gold.PLP.Fitness>
49.1774

> <Gold.PLP.PLP>
-44.1245

> <Gold.PLP.part.hbond>
-1.0000

> <Gold.PLP.part.metal>
0.0000

> <Gold.PLP.part.buried>
-0.8451

> <Gold.PLP.part.nonpolar>
-40.7772

> <Gold.PLP.part.repulsive>
0.7807

> <Gold.PLP.ligand.clash>
0.0000

> <Gold.PLP.ligand.torsion>
0.5038

> <Gold.PLP.Chemscore.Hbond>
1.0000

> <Gold.PLP.Chemscore.CHOScore>
1.0000

> <Gold.PLP.Chemscore.Metal>
0.0000

> <Gold.Chemscore.Hbonds>
donor molecule, donor type, donor heavy atom, donor atom, acceptor molecule, acceptor atom, score
      P1  H  7989  7998       L1     7  1.00

> <Gold.PLP.Chemscore.Internal.Correction>
0.0605

> <Gold.Rescore>
     Score         DG    S(hbond)    S(metal)    S(lipo)     H(rot)  DE(clash)    DE(int)     intcor
     16.36     -16.92       0.85        0.00     115.70       1.93       0.17       0.39       ----

> <Gold.Chemscore.Fitness>
16.3627

> <Gold.Chemscore.DG>
-16.9173

> <Gold.Chemscore.ZeroCoef>
-5.4800

> <Gold.Chemscore.Hbond>
0.8495

> <Gold.Chemscore.Metal>
0.0000

> <Gold.Chemscore.Lipo>
115.6973

> <Gold.Chemscore.Internal_Hbond>
0.0000

> <Gold.Chemscore.DEClash>
0.1679

> <Gold.Chemscore.DEInternal>
0.3867

> <Gold.Chemscore.Rot>
1.9284

> <Gold.Chemscore.Internal.Correction>
   9.000000E+99

> <Gold.Chemscore.Hbonds>
donor molecule, donor type, donor heavy atom, donor atom, acceptor molecule, acceptor atom, score
      P1  H  7989  7998       L1     7  0.70

> <Gold.Chemscore.Hbond.Weighted>
-2.8375

> <Gold.Chemscore.Metal.Weighted>
-0.0000

> <Gold.Chemscore.Lipo.Weighted>
-13.5366

> <Gold.Chemscore.Internal_Hbond.Weighted>
0.0000

> <Gold.Chemscore.DEClash.Weighted>
0.1679

> <Gold.Chemscore.DEInternal.Weighted>
0.3867

> <Gold.Chemscore.Rot.Weighted>
4.9368

> <Gold.Chemscore.Internal.Correction.Weighted>
   9.000000E+99

> <Gold.Protein.RotatedTorsions>
[ 6907 6896 6895 6894 ] final  109.82 input  -60.11 | X-H torsion
[ 7974 7965 7964 7962 ] final -171.01 input  175.53 | X-H torsion
[ 8008 7997 7996 7995 ] final   35.40 input   59.86 | X-H torsion
[ 10167 10162 10161 10158 ] final -122.80 input  -65.29 | X-H torsion
[ 10718 10713 10712 10709 ] final  137.79 input   66.30 | X-H torsion
[ 10763 10752 10751 10750 ] final  101.70 input  -60.55 | X-H torsion
[ 11005 11000 10999 10996 ] final -142.86 input  -57.11 | X-H torsion

> <Gold.Protein.ActiveResidues>
 VAL166  LYS551  ARG553  GLY616  TRP617  ASP618  TYR619  PRO620  LYS621  CYS622 
 ASP623  PHE694  ASN695  SER759  ASP760  ASP761  ALA762  ILE779  LEU786  VAL792 
 PHE793  MET794  SER795  GLU796  ALA797  LYS798  CYS799  TRP800  GLU811  SER814 

> <Gold.Protein.RotatedAtoms>
  152.5049  133.8890  159.7383 H   0  0  0  0  0  0  0  0  0  0  0  0  # atno 6907 bound_to 6896
  150.9333  133.6732  159.2813 H   0  0  0  0  0  0  0  0  0  0  0  0  # atno 6908 bound_to 6896
  151.4069  135.0984  159.9626 H   0  0  0  0  0  0  0  0  0  0  0  0  # atno 6909 bound_to 6896
  144.7162  140.1986  143.6341 H   0  0  0  0  0  0  0  0  0  0  0  0  # atno 7974 bound_to 7965
  155.1705  140.3291  155.4393 H   0  0  0  0  0  0  0  0  0  0  0  0  # atno 8008 bound_to 7997
  156.2512  140.1944  156.6759 H   0  0  0  0  0  0  0  0  0  0  0  0  # atno 8009 bound_to 7997
  154.6341  140.0579  156.9753 H   0  0  0  0  0  0  0  0  0  0  0  0  # atno 8010 bound_to 7997
  140.0104  143.5448  152.2265 H   0  0  0  0  0  0  0  0  0  0  0  0  # atno 10167 bound_to 10162
  157.4323  131.1050  151.0236 H   0  0  0  0  0  0  0  0  0  0  0  0  # atno 10718 bound_to 10713
  153.3300  135.4036  155.1487 H   0  0  0  0  0  0  0  0  0  0  0  0  # atno 10763 bound_to 10752
  154.8621  135.3608  154.5483 H   0  0  0  0  0  0  0  0  0  0  0  0  # atno 10764 bound_to 10752
  153.5921  135.7073  153.5478 H   0  0  0  0  0  0  0  0  0  0  0  0  # atno 10765 bound_to 10752
  140.8183  134.2662  157.4911 H   0  0  0  0  0  0  0  0  0  0  0  0  # atno 11005 bound_to 11000
  145.8701  139.2268  143.1666 LP  0  0  0  0  0  0  0  0  0  0  0  0  # atno 17320 bound_to 7965
  146.0092  140.8450  142.9979 LP  0  0  0  0  0  0  0  0  0  0  0  0  # atno 17321 bound_to 7965
  139.6209  144.7629  151.2743 LP  0  0  0  0  0  0  0  0  0  0  0  0  # atno 17342 bound_to 10162
  140.7384  143.6650  150.8131 LP  0  0  0  0  0  0  0  0  0  0  0  0  # atno 17343 bound_to 10162
  157.1128  130.6028  149.5486 LP  0  0  0  0  0  0  0  0  0  0  0  0  # atno 17370 bound_to 10713
  155.9918  130.4974  150.7313 LP  0  0  0  0  0  0  0  0  0  0  0  0  # atno 17371 bound_to 10713
  139.8710  134.9521  156.4105 LP  0  0  0  0  0  0  0  0  0  0  0  0  # atno 17394 bound_to 11000
  140.9126  133.7701  155.9810 LP  0  0  0  0  0  0  0  0  0  0  0  0  # atno 17395 bound_to 11000

$$$$
