AV-unprocessed.smi:2276|AV-procd|sdf|9172|dock4
  -GOLD-   2272012383D 1   1.00000     0.00000
 Structure written by MMmdl.
 53 54  0  0  0  0  0  0  0  0  2 V2000
  152.5927  143.6042  162.0385 C   0  0  0  0  0  0  0  0  0  0  0  0
  152.6275  142.7058  160.8201 C   0  0  0  0  0  0  0  0  0  0  0  0
  153.6401  141.7403  160.6621 C   0  0  0  0  0  0  0  0  0  0  0  0
  153.6171  140.9354  159.5067 C   0  0  0  0  0  0  0  0  0  0  0  0
  154.6773  139.8799  159.2726 C   0  0  0  0  0  0  0  0  0  0  0  0
  152.6742  141.0513  158.5474 N   0  0  0  0  0  0  0  0  0  0  0  0
  151.6889  141.9724  158.6927 C   0  0  0  0  0  0  0  0  0  0  0  0
  150.6660  142.1836  157.7309 N   0  0  0  0  0  0  0  0  0  0  0  0
  150.3515  141.3999  156.6853 C   0  0  0  0  0  0  0  0  0  0  0  0
  150.7320  140.2387  156.5319 O   0  0  0  0  0  0  0  0  0  0  0  0
  149.5813  142.0516  155.8017 N   0  0  0  0  0  0  0  0  0  0  0  0
  149.1769  141.5533  154.4879 C   0  0  0  0  0  0  0  0  0  0  0  0
  147.6900  141.1305  154.4637 C   0  0  2  0  0  0  0  0  0  0  0  0
  147.3557  140.4166  153.1445 C   0  0  0  0  0  0  0  0  0  0  0  0
  146.7390  142.3356  154.6754 C   0  0  0  0  0  0  0  0  0  0  0  0
  145.3425  141.9576  154.9126 N   0  0  0  0  0  0  0  0  0  0  0  0
  145.1279  141.0633  156.0586 C   0  0  0  0  0  0  0  0  0  0  0  0
  145.4243  141.7476  157.4107 C   0  0  0  0  0  0  0  0  0  0  0  0
  144.6033  142.9695  157.5701 N   0  3  0  0  0  0  0  0  0  0  0  0
  144.8401  143.6433  158.8643 C   0  0  0  0  0  0  0  0  0  0  0  0
  144.7800  143.8781  156.4131 C   0  0  0  0  0  0  0  0  0  0  0  0
  144.4890  143.1368  155.0884 C   0  0  0  0  0  0  0  0  0  0  0  0
  151.6413  142.8228  159.8198 C   0  0  0  0  0  0  0  0  0  0  0  0
  153.4691  143.4514  162.6691 H   0  0  0  0  0  0  0  0  0  0  0  0
  151.7031  143.3982  162.6338 H   0  0  0  0  0  0  0  0  0  0  0  0
  152.5695  144.6514  161.7363 H   0  0  0  0  0  0  0  0  0  0  0  0
  154.4132  141.6189  161.4070 H   0  0  0  0  0  0  0  0  0  0  0  0
  155.2375  139.6757  160.1854 H   0  0  0  0  0  0  0  0  0  0  0  0
  155.3794  140.2125  158.5083 H   0  0  0  0  0  0  0  0  0  0  0  0
  154.2224  138.9466  158.9393 H   0  0  0  0  0  0  0  0  0  0  0  0
  150.1963  143.0752  157.7850 H   0  0  0  0  0  0  0  0  0  0  0  0
  149.3026  142.9955  156.0268 H   0  0  0  0  0  0  0  0  0  0  0  0
  149.3831  142.2847  153.7046 H   0  0  0  0  0  0  0  0  0  0  0  0
  149.8078  140.6910  154.2704 H   0  0  0  0  0  0  0  0  0  0  0  0
  147.5633  140.3995  155.2606 H   0  0  0  0  0  0  0  0  0  0  0  0
  147.5035  141.0743  152.2875 H   0  0  0  0  0  0  0  0  0  0  0  0
  146.3186  140.0805  153.1319 H   0  0  0  0  0  0  0  0  0  0  0  0
  147.9855  139.5381  153.0010 H   0  0  0  0  0  0  0  0  0  0  0  0
  147.0791  142.9605  155.4930 H   0  0  0  0  0  0  0  0  0  0  0  0
  146.7919  142.9739  153.7923 H   0  0  0  0  0  0  0  0  0  0  0  0
  144.0875  140.7357  156.0430 H   0  0  0  0  0  0  0  0  0  0  0  0
  145.7213  140.1558  155.9636 H   0  0  0  0  0  0  0  0  0  0  0  0
  145.1928  141.0559  158.2213 H   0  0  0  0  0  0  0  0  0  0  0  0
  146.4817  141.9900  157.5107 H   0  0  0  0  0  0  0  0  0  0  0  0
  145.8721  143.9869  158.9408 H   0  0  0  0  0  0  0  0  0  0  0  0
  144.6450  142.9629  159.6937 H   0  0  0  0  0  0  0  0  0  0  0  0
  144.1827  144.5059  158.9765 H   0  0  0  0  0  0  0  0  0  0  0  0
  144.0927  144.7188  156.5129 H   0  0  0  0  0  0  0  0  0  0  0  0
  145.7854  144.3014  156.4177 H   0  0  0  0  0  0  0  0  0  0  0  0
  144.6165  143.8121  154.2416 H   0  0  0  0  0  0  0  0  0  0  0  0
  143.4458  142.8187  155.0693 H   0  0  0  0  0  0  0  0  0  0  0  0
  150.8562  143.5583  159.9204 H   0  0  0  0  0  0  0  0  0  0  0  0
  143.6376  142.6739  157.5621 H   0  0  0  0  0  0  0  0  0  0  0  0
  1  2  1  0  0  0  0
  1 24  1  0  0  0  0
  1 25  1  0  0  0  0
  1 26  1  0  0  0  0
  2 23  1  0  0  0  0
  2  3  2  0  0  0  0
  3  4  1  0  0  0  0
  3 27  1  0  0  0  0
  4  5  1  0  0  0  0
  4  6  2  0  0  0  0
  5 28  1  0  0  0  0
  5 29  1  0  0  0  0
  5 30  1  0  0  0  0
  6  7  1  0  0  0  0
  7  8  1  0  0  0  0
  7 23  2  0  0  0  0
  8  9  1  0  0  0  0
  8 31  1  0  0  0  0
  9 10  2  0  0  0  0
  9 11  1  0  0  0  0
 11 12  1  0  0  0  0
 11 32  1  0  0  0  0
 12 13  1  0  0  0  0
 12 33  1  0  0  0  0
 12 34  1  0  0  0  0
 13 14  1  0  0  0  0
 13 15  1  0  0  0  0
 13 35  1  0  0  0  0
 14 36  1  0  0  0  0
 14 37  1  0  0  0  0
 14 38  1  0  0  0  0
 15 16  1  0  0  0  0
 15 39  1  0  0  0  0
 15 40  1  0  0  0  0
 16 22  1  0  0  0  0
 16 17  1  0  0  0  0
 17 18  1  0  0  0  0
 17 41  1  0  0  0  0
 17 42  1  0  0  0  0
 18 19  1  0  0  0  0
 18 43  1  0  0  0  0
 18 44  1  0  0  0  0
 19 20  1  0  0  0  0
 19 21  1  0  0  0  0
 19 53  1  0  0  0  0
 20 45  1  0  0  0  0
 20 46  1  0  0  0  0
 20 47  1  0  0  0  0
 21 22  1  0  0  0  0
 21 48  1  0  0  0  0
 21 49  1  0  0  0  0
 22 50  1  0  0  0  0
 22 51  1  0  0  0  0
 23 52  1  0  0  0  0
M  CHG  1  19   1
M  END
> <s_m_source_file>
AV-unprocessed.smi

> <i_m_source_file_index>
2276

> <i_lp_mmshare_version>
43012

> <i_f3d_flags>
0

> <s_epik_input>
W0NIM11jMVtjSF1jKFtDSDNdKW5jKFtjSF0xKVtOSF1DKD1PKVtOSF1bQ0gyXVtDQEhdKFtDSDNdKVtDSDJdTjJbQ0gyXVtDSDJdTihbQ0gzXSlbQ0gyXVtDSDJdMg==

> <s_epik_cmdline>
J2VwaWtfcHl0aG9uJywgJy1waCcsICc3LjAnLCAnLXRuJywgJzgnLCAnLW1hJywgJzIwMCcsICctbWV0YWxfYmluZGluZycsICctaW1hZScsICc8aW5maWxlLm1hZT4nLCAnLW9tYWUnLCAnPG91dGZpbGUubWFlPic=

> <r_epik_Ionization_Penalty>
0.0247364

> <r_epik_Ionization_Penalty_Charging>
0.0230248

> <r_epik_Ionization_Penalty_Neutral>
0.00171164

> <r_epik_State_Penalty>
0.239056

> <r_epik_Charging_Adjusted_Penalty>
0.262081

> <i_epik_Tot_Q>
1

> <i_epik_Tot_abs_Q>
1

> <r_epik_Metal_State_Penalty>
0.239048

> <b_epik_Metal_Only>
0

> <s_lp_Force_Field>
OPLS_2005

> <r_lp_Energy>
20.3682

> <b_lp_Chiralities_Consistent>
1

> <s_lp_Variant>
AV-unprocessed.smi:2276-1

> <Gold.Version>
5.8.1

> <Gold.Id.Protein>
6NUR|6NUR_protein|mol2

> <Gold.PLP.Fitness>
43.0090

> <Gold.PLP.PLP>
-40.3492

> <Gold.PLP.part.hbond>
-1.0000

> <Gold.PLP.part.metal>
0.0000

> <Gold.PLP.part.buried>
-3.8689

> <Gold.PLP.part.nonpolar>
-34.5131

> <Gold.PLP.part.repulsive>
0.3692

> <Gold.PLP.ligand.clash>
0.0000

> <Gold.PLP.ligand.torsion>
0.1859

> <Gold.PLP.Chemscore.Hbond>
1.0000

> <Gold.PLP.Chemscore.CHOScore>
0.0000

> <Gold.PLP.Chemscore.Metal>
0.0000

> <Gold.Chemscore.Hbonds>
donor molecule, donor type, donor heavy atom, donor atom, acceptor molecule, acceptor atom, score
      L1  H    11    32       P1  8028  1.00

> <Gold.PLP.Chemscore.Internal.Correction>
0.0316

> <Gold.Rescore>
     Score         DG    S(hbond)    S(metal)    S(lipo)     H(rot)  DE(clash)    DE(int)     intcor
     15.14     -16.79       1.00        0.00     103.86       1.63       0.20       1.45       ----

> <Gold.Chemscore.Fitness>
15.1396

> <Gold.Chemscore.DG>
-16.7922

> <Gold.Chemscore.ZeroCoef>
-5.4800

> <Gold.Chemscore.Hbond>
0.9965

> <Gold.Chemscore.Metal>
0.0000

> <Gold.Chemscore.Lipo>
103.8626

> <Gold.Chemscore.Internal_Hbond>
0.0000

> <Gold.Chemscore.DEClash>
0.2000

> <Gold.Chemscore.DEInternal>
1.4527

> <Gold.Chemscore.Rot>
1.6282

> <Gold.Chemscore.Internal.Correction>
   9.000000E+99

> <Gold.Chemscore.Hbonds>
donor molecule, donor type, donor heavy atom, donor atom, acceptor molecule, acceptor atom, score
      L1  H    11    32       P1  8028  0.98

> <Gold.Chemscore.Hbond.Weighted>
-3.3284

> <Gold.Chemscore.Metal.Weighted>
-0.0000

> <Gold.Chemscore.Lipo.Weighted>
-12.1519

> <Gold.Chemscore.Internal_Hbond.Weighted>
0.0000

> <Gold.Chemscore.DEClash.Weighted>
0.2000

> <Gold.Chemscore.DEInternal.Weighted>
1.4527

> <Gold.Chemscore.Rot.Weighted>
4.1682

> <Gold.Chemscore.Internal.Correction.Weighted>
   9.000000E+99

> <Gold.Protein.RotatedTorsions>
[ 6907 6896 6895 6894 ] final -175.55 input  -60.11 | X-H torsion
[ 7974 7965 7964 7962 ] final  -41.25 input  175.53 | X-H torsion
[ 8008 7997 7996 7995 ] final  114.28 input   59.86 | X-H torsion
[ 10167 10162 10161 10158 ] final  150.75 input  -65.29 | X-H torsion
[ 10718 10713 10712 10709 ] final  165.03 input   66.30 | X-H torsion
[ 10763 10752 10751 10750 ] final   67.28 input  -60.55 | X-H torsion
[ 11005 11000 10999 10996 ] final  -45.69 input  -57.11 | X-H torsion

> <Gold.Protein.ActiveResidues>
 VAL166  LYS551  ARG553  GLY616  TRP617  ASP618  TYR619  PRO620  LYS621  CYS622 
 ASP623  PHE694  ASN695  SER759  ASP760  ASP761  ALA762  ILE779  LEU786  VAL792 
 PHE793  MET794  SER795  GLU796  ALA797  LYS798  CYS799  TRP800  GLU811  SER814 

> <Gold.Protein.RotatedAtoms>
  151.5904  133.3367  159.3026 H   0  0  0  0  0  0  0  0  0  0  0  0  # atno 6907 bound_to 6896
  150.8263  134.7499  159.6827 H   0  0  0  0  0  0  0  0  0  0  0  0  # atno 6908 bound_to 6896
  152.4352  134.5706  159.9971 H   0  0  0  0  0  0  0  0  0  0  0  0  # atno 6909 bound_to 6896
  146.0229  140.6828  142.9170 H   0  0  0  0  0  0  0  0  0  0  0  0  # atno 7974 bound_to 7965
  156.2311  140.2962  156.0192 H   0  0  0  0  0  0  0  0  0  0  0  0  # atno 8008 bound_to 7997
  155.2221  140.0416  157.2967 H   0  0  0  0  0  0  0  0  0  0  0  0  # atno 8009 bound_to 7997
  154.5998  140.2424  155.7816 H   0  0  0  0  0  0  0  0  0  0  0  0  # atno 8010 bound_to 7997
  139.4847  144.5497  151.7423 H   0  0  0  0  0  0  0  0  0  0  0  0  # atno 10167 bound_to 10162
  157.0860  131.0405  151.2556 H   0  0  0  0  0  0  0  0  0  0  0  0  # atno 10718 bound_to 10713
  153.0179  135.5290  154.6955 H   0  0  0  0  0  0  0  0  0  0  0  0  # atno 10763 bound_to 10752
  154.6078  135.2875  155.0468 H   0  0  0  0  0  0  0  0  0  0  0  0  # atno 10764 bound_to 10752
  154.1501  135.6564  153.5014 H   0  0  0  0  0  0  0  0  0  0  0  0  # atno 10765 bound_to 10752
  141.0531  133.6735  156.3049 H   0  0  0  0  0  0  0  0  0  0  0  0  # atno 11005 bound_to 11000
  144.6997  140.3597  143.7166 LP  0  0  0  0  0  0  0  0  0  0  0  0  # atno 17320 bound_to 7965
  145.7165  139.1698  143.2509 LP  0  0  0  0  0  0  0  0  0  0  0  0  # atno 17321 bound_to 7965
  140.5049  144.1114  150.5980 LP  0  0  0  0  0  0  0  0  0  0  0  0  # atno 17342 bound_to 10162
  140.4019  143.2699  151.9937 LP  0  0  0  0  0  0  0  0  0  0  0  0  # atno 17343 bound_to 10162
  157.4761  130.7737  149.7369 LP  0  0  0  0  0  0  0  0  0  0  0  0  # atno 17370 bound_to 10713
  155.9911  130.3940  150.3001 LP  0  0  0  0  0  0  0  0  0  0  0  0  # atno 17371 bound_to 10713
  140.6016  134.5549  157.5518 LP  0  0  0  0  0  0  0  0  0  0  0  0  # atno 17394 bound_to 11000
  139.9367  134.7861  156.0783 LP  0  0  0  0  0  0  0  0  0  0  0  0  # atno 17395 bound_to 11000

$$$$
