#       Name:                AV-unprocessed.smi:611
#       Creating user name   scv26
#       Creation time:       Thu Mar 26 23:58:38 2020


#       File generated by GOLD software.
#

@<TRIPOS>MOLECULE
AV-unprocessed.smi:611
    45    46     1
SMALL
NO_CHARGES


@<TRIPOS>ATOM
      1 ****        -5.2551  -1.7709  -0.1291 C.3            1 S1                 0.0000
      2 ****        -4.6459  -0.3564  -0.2755 C.3            1 S1                 0.0000
      3 ****        -5.0756   0.2529  -1.6227 C.3            1 S1                 0.0000
      4 ****        -5.2336   0.4836   0.8831 C.3            1 S1                 0.0000
      5 ****        -3.1098  -0.4048  -0.1988 C.ar           1 S1                 0.0000
      6 ****        -2.5044  -1.4694  -0.7421 N.ar           1 S1                 0.0000
      7 ****        -1.1547  -1.4749  -0.7826 C.ar           1 S1                 0.0000
      8 ****        -0.3938  -0.3846  -0.2976 C.ar           1 S1                 0.0000
      9 ****         1.0240  -0.3016  -0.3114 N.am           1 S1                 0.0000
     10 ****         1.9234  -1.2972  -0.4339 C.2            1 S1                 0.0000
     11 ****         1.6393  -2.4848  -0.5704 O.2            1 S1                 0.0000
     12 ****         3.2048  -0.8916  -0.3706 N.am           1 S1                 0.0000
     13 ****         4.4196  -1.7054  -0.4668 C.3            1 S1                 0.0000
     14 ****         5.6407  -0.9221   0.0537 C.3            1 S1                 0.0000
     15 ****         6.7375  -1.0945  -0.9983 C.3            1 S1                 0.0000
     16 ****         5.9773  -1.2567  -2.3102 C.3            1 S1                 0.0000
     17 ****         4.7454  -2.0772  -1.9286 C.3            1 S1                 0.0000
     18 ****        -1.1347   0.7063   0.1980 C.ar           1 S1                 0.0000
     19 ****        -2.4837   0.6979   0.2333 N.ar           1 S1                 0.0000
     20 ****        -6.3451  -1.7363  -0.1295 H              1 S1                 0.0000
     21 ****        -4.9427  -2.2431   0.8030 H              1 S1                 0.0000
     22 ****        -4.9619  -2.4295  -0.9476 H              1 S1                 0.0000
     23 ****        -4.7050  -0.3380  -2.4611 H              1 S1                 0.0000
     24 ****        -4.6908   1.2666  -1.7393 H              1 S1                 0.0000
     25 ****        -6.1615   0.3015  -1.7090 H              1 S1                 0.0000
     26 ****        -6.3240   0.4802   0.8631 H              1 S1                 0.0000
     27 ****        -4.9225   1.5275   0.8297 H              1 S1                 0.0000
     28 ****        -4.9222   0.0949   1.8535 H              1 S1                 0.0000
     29 ****        -0.7074  -2.3495  -1.2280 H              1 S1                 0.0000
     30 ****         1.4060   0.6178  -0.1437 H              1 S1                 0.0000
     31 ****         3.3535   0.0963  -0.2240 H              1 S1                 0.0000
     32 ****         4.3032  -2.6147   0.1257 H              1 S1                 0.0000
     33 ****         5.4060   0.1395   0.1471 H              1 S1                 0.0000
     34 ****         5.9629  -1.2667   1.0368 H              1 S1                 0.0000
     35 ****         7.4371  -0.2584  -1.0175 H              1 S1                 0.0000
     36 ****         7.3076  -2.0010  -0.7908 H              1 S1                 0.0000
     37 ****         5.6678  -0.2779  -2.6792 H              1 S1                 0.0000
     38 ****         6.5752  -1.7336  -3.0872 H              1 S1                 0.0000
     39 ****         4.9918  -3.1384  -1.9801 H              1 S1                 0.0000
     40 ****         3.9171  -1.9087  -2.6182 H              1 S1                 0.0000
     41 ****        -0.6443   1.5947   0.5686 H              1 S1                 0.0000
     42 ****        -3.0349  -2.2351  -1.1058 LP             1 S1                 0.0000
     43 ****         0.6811  -2.7698  -0.5968 LP             1 S1                 0.0000
     44 ****         2.3662  -3.1663  -0.6550 LP             1 S1                 0.0000
     45 ****        -2.9978   1.4868   0.5701 LP             1 S1                 0.0000
@<TRIPOS>BOND
    1    1    2 1     
    2    1   20 1     
    3    1   21 1     
    4    1   22 1     
    5    2    3 1     
    6    2    4 1     
    7    2    5 1     
    8    3   23 1     
    9    3   24 1     
   10    3   25 1     
   11    4   26 1     
   12    4   27 1     
   13    4   28 1     
   14    5   19 ar    
   15    5    6 ar    
   16    6    7 ar    
   17    7    8 ar    
   18    7   29 1     
   19    8    9 1     
   20    8   18 ar    
   21    9   10 am    
   22    9   30 1     
   23   10   11 2     
   24   10   12 am    
   25   12   13 1     
   26   12   31 1     
   27   13   17 1     
   28   13   14 1     
   29   13   32 1     
   30   14   15 1     
   31   14   33 1     
   32   14   34 1     
   33   15   16 1     
   34   15   35 1     
   35   15   36 1     
   36   16   17 1     
   37   16   37 1     
   38   16   38 1     
   39   17   39 1     
   40   17   40 1     
   41   18   19 ar    
   42   18   41 1     
   43    6   42 1     
   44   11   43 1     
   45   11   44 1     
   46   19   45 1     
@<TRIPOS>SUBSTRUCTURE
      1 S1             1
@<TRIPOS>SET
LONE_PAIRS      STATIC     ATOMS    <user>   **** ""
4 42 43 44 45
DONOR_HYDROGENS      STATIC     ATOMS    <user>   **** ""
2 30 31
ATOM$BLUE        STATIC     ATOMS    COLORGROUP SYSTEM
4 42 43 44 45
ATOM$RED        STATIC     ATOMS    COLORGROUP SYSTEM
2 30 31
