AV-unprocessed.smi:2344|AV-procd|sdf|9360|dock9
  -GOLD-   2272012583D 1   1.00000     0.00000
 Structure written by MMmdl.
 35 36  0  0  0  0  0  0  0  0  1 V2000
  150.7389  141.9909  156.7156 C   0  0  0  0  0  0  0  0  0  0  0  0
  150.0619  140.8794  155.9415 C   0  0  0  0  0  0  0  0  0  0  0  0
  150.7895  140.0602  155.0579 C   0  0  0  0  0  0  0  0  0  0  0  0
  150.1108  139.0398  154.3641 C   0  0  0  0  0  0  0  0  0  0  0  0
  148.7242  138.8618  154.5699 C   0  0  0  0  0  0  0  0  0  0  0  0
  148.1358  137.8083  153.8210 N   0  0  0  0  0  0  0  0  0  0  0  0
  146.8514  137.4106  153.8126 C   0  0  0  0  0  0  0  0  0  0  0  0
  145.9450  137.9098  154.4803 O   0  0  0  0  0  0  0  0  0  0  0  0
  146.6694  136.3787  152.9766 N   0  0  0  0  0  0  0  0  0  0  0  0
  145.3999  135.6941  152.7612 C   0  0  1  0  0  0  0  0  0  0  0  0
  144.8728  135.9920  151.3832 C   0  0  0  0  0  0  0  0  0  0  0  0
  144.7061  134.8956  150.6469 C   0  0  0  0  0  0  0  0  0  0  0  0
  145.1000  133.6394  151.3800 C   0  0  1  0  0  0  0  0  0  0  0  0
  146.1659  132.8143  150.6337 C   0  0  0  0  0  0  0  0  0  0  0  0
  146.5633  131.6776  151.3760 O   0  0  0  0  0  0  0  0  0  0  0  0
  145.5482  134.1490  152.7740 C   0  0  0  0  0  0  0  0  0  0  0  0
  148.0323  139.6555  155.4249 N   0  0  0  0  0  0  0  0  0  0  0  0
  148.6832  140.6328  156.0896 C   0  0  0  0  0  0  0  0  0  0  0  0
  144.6621  136.0219  153.4955 H   0  0  0  0  0  0  0  0  0  0  0  0
  144.2016  133.0314  151.4927 H   0  0  0  0  0  0  0  0  0  0  0  0
  151.6762  142.2837  156.2417 H   0  0  0  0  0  0  0  0  0  0  0  0
  150.9553  141.6631  157.7324 H   0  0  0  0  0  0  0  0  0  0  0  0
  150.0963  142.8703  156.7670 H   0  0  0  0  0  0  0  0  0  0  0  0
  151.8494  140.2077  154.9116 H   0  0  0  0  0  0  0  0  0  0  0  0
  150.6540  138.4022  153.6816 H   0  0  0  0  0  0  0  0  0  0  0  0
  148.7677  137.2948  153.2247 H   0  0  0  0  0  0  0  0  0  0  0  0
  147.4675  136.0269  152.4683 H   0  0  0  0  0  0  0  0  0  0  0  0
  144.6515  136.9977  151.0572 H   0  0  0  0  0  0  0  0  0  0  0  0
  144.3325  134.8777  149.6337 H   0  0  0  0  0  0  0  0  0  0  0  0
  145.7812  132.4872  149.6674 H   0  0  0  0  0  0  0  0  0  0  0  0
  147.0462  133.4266  150.4355 H   0  0  0  0  0  0  0  0  0  0  0  0
  147.4835  131.5256  151.2230 H   0  0  0  0  0  0  0  0  0  0  0  0
  146.5700  133.8419  153.0024 H   0  0  0  0  0  0  0  0  0  0  0  0
  144.9178  133.7188  153.5530 H   0  0  0  0  0  0  0  0  0  0  0  0
  148.0849  141.2344  156.7581 H   0  0  0  0  0  0  0  0  0  0  0  0
  1  2  1  0  0  0  0
  1 21  1  0  0  0  0
  1 22  1  0  0  0  0
  1 23  1  0  0  0  0
  2 18  1  0  0  0  0
  2  3  2  0  0  0  0
  3  4  1  0  0  0  0
  3 24  1  0  0  0  0
  4  5  2  0  0  0  0
  4 25  1  0  0  0  0
  5  6  1  0  0  0  0
  5 17  1  0  0  0  0
  6  7  1  0  0  0  0
  6 26  1  0  0  0  0
  7  8  2  0  0  0  0
  7  9  1  0  0  0  0
  9 10  1  0  0  0  0
  9 27  1  0  0  0  0
 10 19  1  0  0  0  0
 10 16  1  0  0  0  0
 10 11  1  0  0  0  0
 11 12  2  0  0  0  0
 11 28  1  0  0  0  0
 12 13  1  0  0  0  0
 12 29  1  0  0  0  0
 13 20  1  0  0  0  0
 13 14  1  0  0  0  0
 13 16  1  0  0  0  0
 14 15  1  0  0  0  0
 14 30  1  0  0  0  0
 14 31  1  0  0  0  0
 15 32  1  0  0  0  0
 16 33  1  0  0  0  0
 16 34  1  0  0  0  0
 17 18  2  0  0  0  0
 18 35  1  0  0  0  0
M  END
> <s_m_source_file>
AV-unprocessed.smi

> <i_m_source_file_index>
2344

> <i_lp_mmshare_version>
43012

> <i_f3d_flags>
0

> <s_epik_input>
W0NIM11jMVtjSF1bY0hdYyhuW2NIXTEpW05IXUMoPU8pW05IXVtDQEBIXTJbQ0hdPVtDSF1bQ0BASF0oW0NIMl0yKVtDSDJdW09IXQ==

> <s_epik_cmdline>
J2VwaWtfcHl0aG9uJywgJy1waCcsICc3LjAnLCAnLXRuJywgJzgnLCAnLW1hJywgJzIwMCcsICctbWV0YWxfYmluZGluZycsICctaW1hZScsICc8aW5maWxlLm1hZT4nLCAnLW9tYWUnLCAnPG91dGZpbGUubWFlPic=

> <r_lp_tautomer_probability>
1

> <r_epik_Ionization_Penalty>
5.7643e-05

> <r_epik_Ionization_Penalty_Charging>
0

> <r_epik_Ionization_Penalty_Neutral>
5.7643e-05

> <r_epik_State_Penalty>
-0

> <r_epik_Charging_Adjusted_Penalty>
0

> <i_epik_Tot_Q>
0

> <i_epik_Tot_abs_Q>
0

> <r_epik_Metal_State_Penalty>
-0

> <b_epik_Metal_Only>
0

> <s_lp_Force_Field>
OPLS_2005

> <r_lp_Energy>
18.1017

> <b_lp_Chiralities_Consistent>
1

> <s_lp_Variant>
AV-unprocessed.smi:2344-4

> <Gold.Version>
5.8.1

> <Gold.Id.Protein>
6NUR|6NUR_protein|mol2

> <Gold.PLP.Fitness>
35.1443

> <Gold.PLP.PLP>
-26.4716

> <Gold.PLP.part.hbond>
-3.0000

> <Gold.PLP.part.metal>
0.0000

> <Gold.PLP.part.buried>
-1.4743

> <Gold.PLP.part.nonpolar>
-22.7080

> <Gold.PLP.part.repulsive>
0.1307

> <Gold.PLP.ligand.clash>
0.0000

> <Gold.PLP.ligand.torsion>
0.1343

> <Gold.PLP.Chemscore.Hbond>
2.9760

> <Gold.PLP.Chemscore.CHOScore>
0.0000

> <Gold.PLP.Chemscore.Metal>
0.0000

> <Gold.Chemscore.Hbonds>
donor molecule, donor type, donor heavy atom, donor atom, acceptor molecule, acceptor atom, score
      L1  H     6    26       P1  7948  0.96
      L1  H     9    27       P1  7948  1.00
      L1  H    15    32       P1 10747  1.00

> <Gold.PLP.Chemscore.Internal.Correction>
0.0132

> <Gold.Rescore>
     Score         DG    S(hbond)    S(metal)    S(lipo)     H(rot)  DE(clash)    DE(int)     intcor
     16.30     -17.86       2.88        0.00      63.46       1.82       0.13       1.43       ----

> <Gold.Chemscore.Fitness>
16.3025

> <Gold.Chemscore.DG>
-17.8607

> <Gold.Chemscore.ZeroCoef>
-5.4800

> <Gold.Chemscore.Hbond>
2.8775

> <Gold.Chemscore.Metal>
0.0000

> <Gold.Chemscore.Lipo>
63.4609

> <Gold.Chemscore.Internal_Hbond>
0.0000

> <Gold.Chemscore.DEClash>
0.1303

> <Gold.Chemscore.DEInternal>
1.4279

> <Gold.Chemscore.Rot>
1.8184

> <Gold.Chemscore.Internal.Correction>
   9.000000E+99

> <Gold.Chemscore.Hbonds>
donor molecule, donor type, donor heavy atom, donor atom, acceptor molecule, acceptor atom, score
      L1  H     6    26       P1  7948  0.92
      L1  H     9    27       P1  7948  0.95
      L1  H    15    32       P1 10747  0.98

> <Gold.Chemscore.Hbond.Weighted>
-9.6109

> <Gold.Chemscore.Metal.Weighted>
-0.0000

> <Gold.Chemscore.Lipo.Weighted>
-7.4249

> <Gold.Chemscore.Internal_Hbond.Weighted>
0.0000

> <Gold.Chemscore.DEClash.Weighted>
0.1303

> <Gold.Chemscore.DEInternal.Weighted>
1.4279

> <Gold.Chemscore.Rot.Weighted>
4.6551

> <Gold.Chemscore.Internal.Correction.Weighted>
   9.000000E+99

> <Gold.Protein.RotatedTorsions>
[ 6907 6896 6895 6894 ] final   91.04 input  -60.11 | X-H torsion
[ 7974 7965 7964 7962 ] final  160.53 input  175.53 | X-H torsion
[ 8008 7997 7996 7995 ] final  -14.38 input   59.86 | X-H torsion
[ 10167 10162 10161 10158 ] final  -69.53 input  -65.29 | X-H torsion
[ 10718 10713 10712 10709 ] final    5.58 input   66.30 | X-H torsion
[ 10763 10752 10751 10750 ] final   47.99 input  -60.55 | X-H torsion
[ 11005 11000 10999 10996 ] final   13.77 input  -57.11 | X-H torsion

> <Gold.Protein.ActiveResidues>
 VAL166  LYS551  ARG553  GLY616  TRP617  ASP618  TYR619  PRO620  LYS621  CYS622 
 ASP623  PHE694  ASN695  SER759  ASP760  ASP761  ALA762  ILE779  LEU786  VAL792 
 PHE793  MET794  SER795  GLU796  ALA797  LYS798  CYS799  TRP800  GLU811  SER814 

> <Gold.Protein.RotatedAtoms>
  152.5448  134.1719  159.8599 H   0  0  0  0  0  0  0  0  0  0  0  0  # atno 6907 bound_to 6896
  151.1728  133.4766  159.2601 H   0  0  0  0  0  0  0  0  0  0  0  0  # atno 6908 bound_to 6896
  151.1257  135.0115  159.8614 H   0  0  0  0  0  0  0  0  0  0  0  0  # atno 6909 bound_to 6896
  144.7732  139.7771  143.6289 H   0  0  0  0  0  0  0  0  0  0  0  0  # atno 7974 bound_to 7965
  154.5215  140.2224  155.8967 H   0  0  0  0  0  0  0  0  0  0  0  0  # atno 8008 bound_to 7997
  156.1667  140.3130  155.8866 H   0  0  0  0  0  0  0  0  0  0  0  0  # atno 8009 bound_to 7997
  155.3642  140.0463  157.3037 H   0  0  0  0  0  0  0  0  0  0  0  0  # atno 8010 bound_to 7997
  140.5423  143.2314  151.7066 H   0  0  0  0  0  0  0  0  0  0  0  0  # atno 10167 bound_to 10162
  156.9096  130.5751  149.5647 H   0  0  0  0  0  0  0  0  0  0  0  0  # atno 10718 bound_to 10713
  152.9795  135.5958  154.3853 H   0  0  0  0  0  0  0  0  0  0  0  0  # atno 10763 bound_to 10752
  154.3513  135.2767  155.2372 H   0  0  0  0  0  0  0  0  0  0  0  0  # atno 10764 bound_to 10752
  154.4410  135.6013  153.6184 H   0  0  0  0  0  0  0  0  0  0  0  0  # atno 10765 bound_to 10752
  140.4770  134.0974  155.7743 H   0  0  0  0  0  0  0  0  0  0  0  0  # atno 11005 bound_to 11000
  146.1893  139.5125  142.9815 LP  0  0  0  0  0  0  0  0  0  0  0  0  # atno 17320 bound_to 7965
  145.6263  141.0313  143.1888 LP  0  0  0  0  0  0  0  0  0  0  0  0  # atno 17321 bound_to 7965
  139.4994  144.3949  152.0242 LP  0  0  0  0  0  0  0  0  0  0  0  0  # atno 17342 bound_to 10162
  140.3059  144.3594  150.6047 LP  0  0  0  0  0  0  0  0  0  0  0  0  # atno 17343 bound_to 10162
  156.0542  130.5607  150.9056 LP  0  0  0  0  0  0  0  0  0  0  0  0  # atno 17370 bound_to 10713
  157.5976  131.0942  150.9015 LP  0  0  0  0  0  0  0  0  0  0  0  0  # atno 17371 bound_to 10713
  141.1550  133.8900  157.2001 LP  0  0  0  0  0  0  0  0  0  0  0  0  # atno 17394 bound_to 11000
  139.9850  135.0085  156.9840 LP  0  0  0  0  0  0  0  0  0  0  0  0  # atno 17395 bound_to 11000

$$$$
