#       Name:                AV-unprocessed.smi:1331
#       Creating user name   scv26
#       Creation time:       Fri Mar 27 05:06:35 2020


#       File generated by GOLD software.
#

@<TRIPOS>MOLECULE
AV-unprocessed.smi:1331
    41    42     1
SMALL
NO_CHARGES


@<TRIPOS>ATOM
      1 ****         0.2409  -3.1710   1.9181 C.3            1 S1                 0.0000
      2 ****         0.7827  -2.3653   0.7279 C.3            1 S1                 0.0000
      3 ****         2.3231  -2.3442   0.7079 C.3            1 S1                 0.0000
      4 ****         2.8481  -1.6994  -0.4835 N.pl3          1 S1                 0.0000
      5 ****         2.9952  -2.2288  -1.7482 C.2            1 S1                 0.0000
      6 ****         3.5170  -1.2473  -2.5411 C.2            1 S1                 0.0000
      7 ****         3.6558  -0.1388  -1.6599 C.2            1 S1                 0.0000
      8 ****         3.2558  -0.4125  -0.4288 N.2            1 S1                 0.0000
      9 ****         0.2647  -1.0001   0.7775 N.am           1 S1                 0.0000
     10 ****        -0.8589  -0.5692   0.1847 C.2            1 S1                 0.0000
     11 ****        -1.6177  -1.3067  -0.4452 O.2            1 S1                 0.0000
     12 ****        -1.1673   0.9275   0.3199 C.3            1 S1                 0.0000
     13 ****        -2.5343   1.1551   1.0002 C.3            1 S1                 0.0000
     14 ****        -2.8553   2.6537   1.1216 C.3            1 S1                 0.0000
     15 ****        -2.8085   3.3456  -0.2498 C.3            1 S1                 0.0000
     16 ****        -1.4538   3.1203  -0.9400 C.3            1 S1                 0.0000
     17 ****        -1.1306   1.6218  -1.0584 C.3            1 S1                 0.0000
     18 ****         0.6031  -4.1988   1.8926 H              1 S1                 0.0000
     19 ****        -0.8491  -3.2078   1.9059 H              1 S1                 0.0000
     20 ****         0.5493  -2.7326   2.8678 H              1 S1                 0.0000
     21 ****         0.4442  -2.8502  -0.1899 H              1 S1                 0.0000
     22 ****         2.7145  -1.8392   1.5927 H              1 S1                 0.0000
     23 ****         2.7123  -3.3627   0.7341 H              1 S1                 0.0000
     24 ****         2.7160  -3.2471  -1.9759 H              1 S1                 0.0000
     25 ****         3.7610  -1.3109  -3.5910 H              1 S1                 0.0000
     26 ****         4.0329   0.8498  -1.8769 H              1 S1                 0.0000
     27 ****         0.8269  -0.3208   1.2699 H              1 S1                 0.0000
     28 ****        -0.3979   1.3806   0.9482 H              1 S1                 0.0000
     29 ****        -3.3259   0.6652   0.4306 H              1 S1                 0.0000
     30 ****        -2.5408   0.6999   1.9914 H              1 S1                 0.0000
     31 ****        -3.8391   2.7878   1.5722 H              1 S1                 0.0000
     32 ****        -2.1399   3.1276   1.7950 H              1 S1                 0.0000
     33 ****        -3.6087   2.9579  -0.8813 H              1 S1                 0.0000
     34 ****        -2.9949   4.4137  -0.1346 H              1 S1                 0.0000
     35 ****        -1.4605   3.5779  -1.9297 H              1 S1                 0.0000
     36 ****        -0.6670   3.6199  -0.3736 H              1 S1                 0.0000
     37 ****        -0.1477   1.4964  -1.5152 H              1 S1                 0.0000
     38 ****        -1.8471   1.1535  -1.7354 H              1 S1                 0.0000
     39 ****         3.2554   0.1965   0.3643 LP             1 S1                 0.0000
     40 ****        -1.4086  -2.2805  -0.5344 LP             1 S1                 0.0000
     41 ****        -2.4429  -0.9318  -0.8675 LP             1 S1                 0.0000
@<TRIPOS>BOND
    1    1    2 1     
    2    1   18 1     
    3    1   19 1     
    4    1   20 1     
    5    2    3 1     
    6    2    9 1     
    7    2   21 1     
    8    3    4 1     
    9    3   22 1     
   10    3   23 1     
   11    4    8 1     
   12    4    5 1     
   13    5    6 2     
   14    5   24 1     
   15    6    7 1     
   16    6   25 1     
   17    7    8 2     
   18    7   26 1     
   19    9   10 am    
   20    9   27 1     
   21   10   11 2     
   22   10   12 1     
   23   12   17 1     
   24   12   13 1     
   25   12   28 1     
   26   13   14 1     
   27   13   29 1     
   28   13   30 1     
   29   14   15 1     
   30   14   31 1     
   31   14   32 1     
   32   15   16 1     
   33   15   33 1     
   34   15   34 1     
   35   16   17 1     
   36   16   35 1     
   37   16   36 1     
   38   17   37 1     
   39   17   38 1     
   40    8   39 1     
   41   11   40 1     
   42   11   41 1     
@<TRIPOS>SUBSTRUCTURE
      1 S1             1
@<TRIPOS>SET
LONE_PAIRS      STATIC     ATOMS    <user>   **** ""
3 39 40 41
DONOR_HYDROGENS      STATIC     ATOMS    <user>   **** ""
1 27
ATOM$BLUE        STATIC     ATOMS    COLORGROUP SYSTEM
3 39 40 41
ATOM$RED        STATIC     ATOMS    COLORGROUP SYSTEM
1 27
