AV-unprocessed.smi:2264|AV-procd|sdf|9141|dock1
  -GOLD-   2272012343D 1   1.00000     0.00000
 Structure written by MMmdl.
 44 45  0  0  0  0  0  0  0  0  1 V2000
  151.5394  145.8948  160.0904 C   0  0  0  0  0  0  0  0  0  0  0  0
  151.6182  144.5649  159.3695 C   0  0  0  0  0  0  0  0  0  0  0  0
  150.9163  144.3629  158.1657 C   0  0  0  0  0  0  0  0  0  0  0  0
  150.9893  143.1233  157.5023 C   0  0  0  0  0  0  0  0  0  0  0  0
  151.7662  142.0641  158.0363 C   0  0  0  0  0  0  0  0  0  0  0  0
  151.8811  140.8237  157.4441 O   0  0  0  0  0  0  0  0  0  0  0  0
  151.4156  140.6596  156.1104 C   0  0  0  0  0  0  0  0  0  0  0  0
  150.7244  139.2934  155.9631 C   0  0  2  0  0  0  0  0  0  0  0  0
  151.7260  138.3280  155.7119 O   0  0  0  0  0  0  0  0  0  0  0  0
  149.6604  139.2716  154.8424 C   0  0  0  0  0  0  0  0  0  0  0  0
  148.4616  140.0483  155.1978 N   0  0  0  0  0  0  0  0  0  0  0  0
  147.9986  140.9560  154.2315 C   0  0  0  0  0  0  0  0  0  0  0  0
  146.9516  141.6873  154.4333 N   0  0  0  0  0  0  0  0  0  0  0  0
  146.2506  141.5841  155.6383 C   0  0  0  0  0  0  0  0  0  0  0  0
  145.0379  142.4882  155.7718 C   0  0  0  0  0  0  0  0  0  0  0  0
  146.6455  140.7214  156.6142 C   0  0  0  0  0  0  0  0  0  0  0  0
  145.9218  140.5647  157.9456 C   0  0  0  0  0  0  0  0  0  0  0  0
  147.8334  139.8800  156.3974 C   0  0  0  0  0  0  0  0  0  0  0  0
  148.2409  139.0705  157.2328 O   0  0  0  0  0  0  0  0  0  0  0  0
  152.4684  142.2748  159.2455 C   0  0  0  0  0  0  0  0  0  0  0  0
  153.3073  141.1592  159.8402 C   0  0  0  0  0  0  0  0  0  0  0  0
  152.3933  143.5189  159.9059 C   0  0  0  0  0  0  0  0  0  0  0  0
  151.0699  146.6568  159.4675 H   0  0  0  0  0  0  0  0  0  0  0  0
  152.5375  146.2434  160.3572 H   0  0  0  0  0  0  0  0  0  0  0  0
  150.9545  145.7926  161.0047 H   0  0  0  0  0  0  0  0  0  0  0  0
  150.3175  145.1574  157.7448 H   0  0  0  0  0  0  0  0  0  0  0  0
  150.4355  143.0109  156.5829 H   0  0  0  0  0  0  0  0  0  0  0  0
  150.7343  141.4641  155.8269 H   0  0  0  0  0  0  0  0  0  0  0  0
  152.2695  140.6934  155.4317 H   0  0  0  0  0  0  0  0  0  0  0  0
  150.2704  139.0470  156.9235 H   0  0  0  0  0  0  0  0  0  0  0  0
  151.6158  138.0015  154.8321 H   0  0  0  0  0  0  0  0  0  0  0  0
  150.0875  139.6979  153.9325 H   0  0  0  0  0  0  0  0  0  0  0  0
  149.4181  138.2430  154.5660 H   0  0  0  0  0  0  0  0  0  0  0  0
  148.5780  140.9952  153.3074 H   0  0  0  0  0  0  0  0  0  0  0  0
  145.1581  143.1660  156.6171 H   0  0  0  0  0  0  0  0  0  0  0  0
  144.1351  141.8963  155.9246 H   0  0  0  0  0  0  0  0  0  0  0  0
  144.8926  143.0936  154.8761 H   0  0  0  0  0  0  0  0  0  0  0  0
  145.5752  139.5376  158.0668 H   0  0  0  0  0  0  0  0  0  0  0  0
  145.0557  141.2171  158.0436 H   0  0  0  0  0  0  0  0  0  0  0  0
  146.5986  140.7923  158.7696 H   0  0  0  0  0  0  0  0  0  0  0  0
  153.8016  141.4762  160.7590 H   0  0  0  0  0  0  0  0  0  0  0  0
  154.0756  140.8443  159.1336 H   0  0  0  0  0  0  0  0  0  0  0  0
  152.6801  140.2980  160.0719 H   0  0  0  0  0  0  0  0  0  0  0  0
  152.9306  143.6734  160.8303 H   0  0  0  0  0  0  0  0  0  0  0  0
  1  2  1  0  0  0  0
  1 23  1  0  0  0  0
  1 24  1  0  0  0  0
  1 25  1  0  0  0  0
  2 22  1  0  0  0  0
  2  3  2  0  0  0  0
  3  4  1  0  0  0  0
  3 26  1  0  0  0  0
  4  5  2  0  0  0  0
  4 27  1  0  0  0  0
  5  6  1  0  0  0  0
  5 20  1  0  0  0  0
  6  7  1  0  0  0  0
  7  8  1  0  0  0  0
  7 28  1  0  0  0  0
  7 29  1  0  0  0  0
  8  9  1  0  0  0  0
  8 10  1  0  0  0  0
  8 30  1  0  0  0  0
  9 31  1  0  0  0  0
 10 11  1  0  0  0  0
 10 32  1  0  0  0  0
 10 33  1  0  0  0  0
 11 18  1  0  0  0  0
 11 12  1  0  0  0  0
 12 13  2  0  0  0  0
 12 34  1  0  0  0  0
 13 14  1  0  0  0  0
 14 15  1  0  0  0  0
 14 16  2  0  0  0  0
 15 35  1  0  0  0  0
 15 36  1  0  0  0  0
 15 37  1  0  0  0  0
 16 17  1  0  0  0  0
 16 18  1  0  0  0  0
 17 38  1  0  0  0  0
 17 39  1  0  0  0  0
 17 40  1  0  0  0  0
 18 19  2  0  0  0  0
 20 21  1  0  0  0  0
 20 22  2  0  0  0  0
 21 41  1  0  0  0  0
 21 42  1  0  0  0  0
 21 43  1  0  0  0  0
 22 44  1  0  0  0  0
M  END
> <s_m_source_file>
AV-unprocessed.smi

> <i_m_source_file_index>
2264

> <i_lp_mmshare_version>
43012

> <i_f3d_flags>
0

> <s_epik_input>
W0NIM11jMVtjSF1bY0hdYyhjKFtDSDNdKVtjSF0xKU9bQ0gyXVtDQEhdKFtPSF0pW0NIMl1uMltjSF1uYyhbQ0gzXSljKFtDSDNdKWMyPU8=

> <s_epik_cmdline>
J2VwaWtfcHl0aG9uJywgJy1waCcsICc3LjAnLCAnLXRuJywgJzgnLCAnLW1hJywgJzIwMCcsICctbWV0YWxfYmluZGluZycsICctaW1hZScsICc8aW5maWxlLm1hZT4nLCAnLW9tYWUnLCAnPG91dGZpbGUubWFlPic=

> <r_lp_tautomer_probability>
1

> <r_epik_Ionization_Penalty>
3.7476e-05

> <r_epik_Ionization_Penalty_Charging>
8.44705e-08

> <r_epik_Ionization_Penalty_Neutral>
3.73915e-05

> <r_epik_State_Penalty>
-0

> <r_epik_Charging_Adjusted_Penalty>
8.44705e-08

> <i_epik_Tot_Q>
0

> <i_epik_Tot_abs_Q>
0

> <r_epik_Metal_State_Penalty>
-0

> <b_epik_Metal_Only>
0

> <s_lp_Force_Field>
OPLS_2005

> <r_lp_Energy>
23.9382

> <b_lp_Chiralities_Consistent>
1

> <s_lp_Variant>
AV-unprocessed.smi:2264-1

> <Gold.Version>
5.8.1

> <Gold.Id.Protein>
6NUR|6NUR_protein|mol2

> <Gold.PLP.Fitness>
45.8762

> <Gold.PLP.PLP>
-44.3882

> <Gold.PLP.part.hbond>
0.0000

> <Gold.PLP.part.metal>
0.0000

> <Gold.PLP.part.buried>
-3.7400

> <Gold.PLP.part.nonpolar>
-39.5463

> <Gold.PLP.part.repulsive>
0.1646

> <Gold.PLP.ligand.clash>
0.0000

> <Gold.PLP.ligand.torsion>
0.8771

> <Gold.PLP.Chemscore.Hbond>
0.0000

> <Gold.PLP.Chemscore.CHOScore>
1.0000

> <Gold.PLP.Chemscore.Metal>
0.0000

> <Gold.Chemscore.Hbonds>
donor molecule, donor type, donor heavy atom, donor atom, acceptor molecule, acceptor atom, score
      L1  C    12    34       P1  7957  0.93

> <Gold.PLP.Chemscore.Internal.Correction>
0.2422

> <Gold.Rescore>
     Score         DG    S(hbond)    S(metal)    S(lipo)     H(rot)  DE(clash)    DE(int)     intcor
     11.31     -13.50       0.00        0.00     119.42       2.32       0.11       2.08       ----

> <Gold.Chemscore.Fitness>
11.3130

> <Gold.Chemscore.DG>
-13.5046

> <Gold.Chemscore.ZeroCoef>
-5.4800

> <Gold.Chemscore.Hbond>
0.0004

> <Gold.Chemscore.Metal>
0.0000

> <Gold.Chemscore.Lipo>
119.4161

> <Gold.Chemscore.Internal_Hbond>
0.0000

> <Gold.Chemscore.DEClash>
0.1126

> <Gold.Chemscore.DEInternal>
2.0790

> <Gold.Chemscore.Rot>
2.3236

> <Gold.Chemscore.Internal.Correction>
   9.000000E+99

> <Gold.Chemscore.Hbond.Weighted>
-0.0013

> <Gold.Chemscore.Metal.Weighted>
-0.0000

> <Gold.Chemscore.Lipo.Weighted>
-13.9717

> <Gold.Chemscore.Internal_Hbond.Weighted>
0.0000

> <Gold.Chemscore.DEClash.Weighted>
0.1126

> <Gold.Chemscore.DEInternal.Weighted>
2.0790

> <Gold.Chemscore.Rot.Weighted>
5.9484

> <Gold.Chemscore.Internal.Correction.Weighted>
   9.000000E+99

> <Gold.Protein.RotatedTorsions>
[ 6907 6896 6895 6894 ] final   55.71 input  -60.11 | X-H torsion
[ 7974 7965 7964 7962 ] final  157.42 input  175.53 | X-H torsion
[ 8008 7997 7996 7995 ] final  175.71 input   59.86 | X-H torsion
[ 10167 10162 10161 10158 ] final   98.69 input  -65.29 | X-H torsion
[ 10718 10713 10712 10709 ] final   47.90 input   66.30 | X-H torsion
[ 10763 10752 10751 10750 ] final  146.32 input  -60.55 | X-H torsion
[ 11005 11000 10999 10996 ] final    4.66 input  -57.11 | X-H torsion

> <Gold.Protein.ActiveResidues>
 VAL166  LYS551  ARG553  GLY616  TRP617  ASP618  TYR619  PRO620  LYS621  CYS622 
 ASP623  PHE694  ASN695  SER759  ASP760  ASP761  ALA762  ILE779  LEU786  VAL792 
 PHE793  MET794  SER795  GLU796  ALA797  LYS798  CYS799  TRP800  GLU811  SER814 

> <Gold.Protein.RotatedAtoms>
  152.3565  134.6933  160.0220 H   0  0  0  0  0  0  0  0  0  0  0  0  # atno 6907 bound_to 6896
  151.7270  133.3311  159.3338 H   0  0  0  0  0  0  0  0  0  0  0  0  # atno 6908 bound_to 6896
  150.7575  134.6331  159.6242 H   0  0  0  0  0  0  0  0  0  0  0  0  # atno 6909 bound_to 6896
  144.7904  139.7338  143.6223 H   0  0  0  0  0  0  0  0  0  0  0  0  # atno 7974 bound_to 7965
  156.0841  140.1402  156.9675 H   0  0  0  0  0  0  0  0  0  0  0  0  # atno 8008 bound_to 7997
  154.4602  140.0946  156.6921 H   0  0  0  0  0  0  0  0  0  0  0  0  # atno 8009 bound_to 7997
  155.5027  140.3451  155.4376 H   0  0  0  0  0  0  0  0  0  0  0  0  # atno 8010 bound_to 7997
  139.7685  144.6930  151.0189 H   0  0  0  0  0  0  0  0  0  0  0  0  # atno 10167 bound_to 10162
  157.4632  130.8209  149.7908 H   0  0  0  0  0  0  0  0  0  0  0  0  # atno 10718 bound_to 10713
  154.0200  135.2907  155.3382 H   0  0  0  0  0  0  0  0  0  0  0  0  # atno 10763 bound_to 10752
  154.7052  135.5172  153.8587 H   0  0  0  0  0  0  0  0  0  0  0  0  # atno 10764 bound_to 10752
  153.0685  135.6639  154.0423 H   0  0  0  0  0  0  0  0  0  0  0  0  # atno 10765 bound_to 10752
  140.5794  134.0027  155.8041 H   0  0  0  0  0  0  0  0  0  0  0  0  # atno 11005 bound_to 11000
  146.2154  139.5540  142.9653 LP  0  0  0  0  0  0  0  0  0  0  0  0  # atno 17320 bound_to 7965
  145.5809  141.0382  143.2123 LP  0  0  0  0  0  0  0  0  0  0  0  0  # atno 17321 bound_to 7965
  140.7812  143.4615  151.0271 LP  0  0  0  0  0  0  0  0  0  0  0  0  # atno 17342 bound_to 10162
  139.8299  143.7705  152.3179 LP  0  0  0  0  0  0  0  0  0  0  0  0  # atno 17343 bound_to 10162
  156.0038  130.3866  150.2506 LP  0  0  0  0  0  0  0  0  0  0  0  0  # atno 17370 bound_to 10713
  157.0685  131.0110  151.3198 LP  0  0  0  0  0  0  0  0  0  0  0  0  # atno 17371 bound_to 10713
  141.1006  133.9774  157.3086 LP  0  0  0  0  0  0  0  0  0  0  0  0  # atno 17394 bound_to 11000
  139.9324  135.0199  156.8445 LP  0  0  0  0  0  0  0  0  0  0  0  0  # atno 17395 bound_to 11000

$$$$
