#       Name:                AV-unprocessed.smi:893
#       Creating user name   scv26
#       Creation time:       Fri Mar 27 01:55:47 2020


#       File generated by GOLD software.
#

@<TRIPOS>MOLECULE
AV-unprocessed.smi:893
    32    33     1
SMALL
NO_CHARGES


@<TRIPOS>ATOM
      1 ****        -2.4991   2.2246   0.1435 C.3            1 S1                 0.0000
      2 ****        -1.8678   0.8228   0.0385 C.3            1 S1                 0.0000
      3 ****        -0.3155   0.7596   0.0563 C.3            1 S1                 0.0000
      4 ****         0.1570  -0.6859   0.0711 C.2            1 S1                 0.0000
      5 ****        -0.1188  -1.6852   1.0521 C.2            1 S1                 0.0000
      6 ****         0.4381  -2.8540   0.7800 N.2            1 S1                 0.0000
      7 ****         1.0867  -2.6500  -0.3836 N.pl3          1 S1                 0.0000
      8 ****         1.8226  -3.7375  -0.9916 C.3            1 S1                 0.0000
      9 ****         0.9336  -1.3576  -0.8350 C.2            1 S1                 0.0000
     10 ****         0.2386   1.5027  -1.0687 N.pl3          1 S1                -1.0000
     11 ****         1.0647   2.4642  -0.5917 C.2            1 S1                 0.0000
     12 ****         1.7237   3.2768  -1.2362 O.2            1 S1                 0.0000
     13 ****         1.0917   2.4436   0.7446 N.am           1 S1                 0.0000
     14 ****         0.3020   1.4953   1.2395 C.2            1 S1                 0.0000
     15 ****         0.0917   1.2474   2.4267 O.2            1 S1                 0.0000
     16 ****        -3.5861   2.1587   0.0966 H              1 S1                 0.0000
     17 ****        -2.1762   2.8711  -0.6725 H              1 S1                 0.0000
     18 ****        -2.2442   2.7148   1.0829 H              1 S1                 0.0000
     19 ****        -2.2611   0.2200   0.8580 H              1 S1                 0.0000
     20 ****        -2.2311   0.3470  -0.8734 H              1 S1                 0.0000
     21 ****        -0.7054  -1.5912   1.9541 H              1 S1                 0.0000
     22 ****         2.2929  -3.3998  -1.9157 H              1 S1                 0.0000
     23 ****         1.1444  -4.5604  -1.2192 H              1 S1                 0.0000
     24 ****         2.5964  -4.0878  -0.3079 H              1 S1                 0.0000
     25 ****         1.3866  -1.0213  -1.7562 H              1 S1                 0.0000
     26 ****         1.6338   3.0810   1.3085 H              1 S1                 0.0000
     27 ****         0.3890  -3.6969   1.3157 LP             1 S1                 0.0000
     28 ****         0.0413   1.3309  -2.0339 LP             1 S1                 0.0000
     29 ****         1.6833   3.2732  -2.2354 LP             1 S1                 0.0000
     30 ****         2.3004   3.9417  -0.7615 LP             1 S1                 0.0000
     31 ****        -0.5313   0.5075   2.6802 LP             1 S1                 0.0000
     32 ****         0.5440   1.7860   3.1376 LP             1 S1                 0.0000
@<TRIPOS>BOND
    1    1    2 1     
    2    1   16 1     
    3    1   17 1     
    4    1   18 1     
    5    2    3 1     
    6    2   19 1     
    7    2   20 1     
    8    3   14 1     
    9    3    4 1     
   10    3   10 1     
   11    4    9 2     
   12    4    5 1     
   13    5    6 2     
   14    5   21 1     
   15    6    7 1     
   16    7    8 1     
   17    7    9 1     
   18    8   22 1     
   19    8   23 1     
   20    8   24 1     
   21    9   25 1     
   22   10   11 1     
   23   11   12 2     
   24   11   13 am    
   25   13   14 am    
   26   13   26 1     
   27   14   15 2     
   28    6   27 1     
   29   10   28 1     
   30   12   29 1     
   31   12   30 1     
   32   15   31 1     
   33   15   32 1     
@<TRIPOS>SUBSTRUCTURE
      1 S1             1
@<TRIPOS>SET
LONE_PAIRS      STATIC     ATOMS    <user>   **** ""
6 27 28 29 30 31 32
DONOR_HYDROGENS      STATIC     ATOMS    <user>   **** ""
1 26
ATOM$BLUE        STATIC     ATOMS    COLORGROUP SYSTEM
6 27 28 29 30 31 32
ATOM$RED        STATIC     ATOMS    COLORGROUP SYSTEM
1 26
