AV-unprocessed.smi:1823|AV-procd|sdf|7392|dock7
  -GOLD-   22720 9 63D 1   1.00000     0.00000
 Structure written by MMmdl.
 43 44  0  0  0  0  0  0  0  0  1 V2000
  143.9848  144.7547  154.6026 C   0  0  0  0  0  0  0  0  0  0  0  0
  144.9910  143.6681  154.7682 C   0  0  0  0  0  0  0  0  0  0  0  0
  145.3181  143.2165  155.9726 N   0  0  0  0  0  0  0  0  0  0  0  0
  146.2607  142.2156  155.6972 O   0  0  0  0  0  0  0  0  0  0  0  0
  146.3965  142.1962  154.3488 C   0  0  0  0  0  0  0  0  0  0  0  0
  147.2945  141.1746  153.7278 C   0  0  0  0  0  0  0  0  0  0  0  0
  148.7848  141.3451  154.0830 C   0  0  0  0  0  0  0  0  0  0  0  0
  149.0703  141.0304  155.4815 N   0  0  0  0  0  0  0  0  0  0  0  0
  150.2714  140.6803  155.9688 C   0  0  0  0  0  0  0  0  0  0  0  0
  151.2897  140.6205  155.2782 O   0  0  0  0  0  0  0  0  0  0  0  0
  150.3301  140.3230  157.4620 C   0  0  1  0  0  0  0  0  0  0  0  0
  151.5693  139.4617  157.7762 C   0  0  0  0  0  0  0  0  0  0  0  0
  152.4817  140.4043  158.5435 C   0  0  0  0  0  0  0  0  0  0  0  0
  153.6312  140.1057  158.8636 O   0  0  0  0  0  0  0  0  0  0  0  0
  151.8696  141.5693  158.7868 N   0  0  0  0  0  0  0  0  0  0  0  0
  152.4286  142.7234  159.4888 C   0  0  0  0  0  0  0  0  0  0  0  0
  151.6954  144.0421  159.1540 C   0  0  0  0  0  0  0  0  0  0  0  0
  152.2256  144.7306  157.8840 C   0  0  0  0  0  0  0  0  0  0  0  0
  151.7486  145.0051  160.3496 C   0  0  0  0  0  0  0  0  0  0  0  0
  150.4799  141.5684  158.3608 C   0  0  0  0  0  0  0  0  0  0  0  0
  145.6250  143.0777  153.7176 N   0  0  0  0  0  0  0  0  0  0  0  0
  144.3196  145.6599  155.1096 H   0  0  0  0  0  0  0  0  0  0  0  0
  143.0281  144.4510  155.0280 H   0  0  0  0  0  0  0  0  0  0  0  0
  143.8348  144.9856  153.5475 H   0  0  0  0  0  0  0  0  0  0  0  0
  146.9557  140.1847  154.0345 H   0  0  0  0  0  0  0  0  0  0  0  0
  147.1679  141.2191  152.6454 H   0  0  0  0  0  0  0  0  0  0  0  0
  149.3968  140.7311  153.4202 H   0  0  0  0  0  0  0  0  0  0  0  0
  149.0857  142.3766  153.8998 H   0  0  0  0  0  0  0  0  0  0  0  0
  148.2896  141.0544  156.1216 H   0  0  0  0  0  0  0  0  0  0  0  0
  149.4213  139.7836  157.7344 H   0  0  0  0  0  0  0  0  0  0  0  0
  151.3084  138.6132  158.4091 H   0  0  0  0  0  0  0  0  0  0  0  0
  152.0744  139.0776  156.8884 H   0  0  0  0  0  0  0  0  0  0  0  0
  152.3711  142.5326  160.5614 H   0  0  0  0  0  0  0  0  0  0  0  0
  153.4916  142.8184  159.2599 H   0  0  0  0  0  0  0  0  0  0  0  0
  150.6450  143.8041  158.9801 H   0  0  0  0  0  0  0  0  0  0  0  0
  153.2941  144.9341  157.9601 H   0  0  0  0  0  0  0  0  0  0  0  0
  151.7176  145.6798  157.7119 H   0  0  0  0  0  0  0  0  0  0  0  0
  152.0628  144.1183  156.9971 H   0  0  0  0  0  0  0  0  0  0  0  0
  152.7743  145.2982  160.5767 H   0  0  0  0  0  0  0  0  0  0  0  0
  151.3272  144.5460  161.2444 H   0  0  0  0  0  0  0  0  0  0  0  0
  151.1793  145.9134  160.1493 H   0  0  0  0  0  0  0  0  0  0  0  0
  150.2285  142.4989  157.8488 H   0  0  0  0  0  0  0  0  0  0  0  0
  149.8351  141.4913  159.2374 H   0  0  0  0  0  0  0  0  0  0  0  0
  1  2  1  0  0  0  0
  1 22  1  0  0  0  0
  1 23  1  0  0  0  0
  1 24  1  0  0  0  0
  2 21  1  0  0  0  0
  2  3  2  0  0  0  0
  3  4  1  0  0  0  0
  4  5  1  0  0  0  0
  5  6  1  0  0  0  0
  5 21  2  0  0  0  0
  6  7  1  0  0  0  0
  6 25  1  0  0  0  0
  6 26  1  0  0  0  0
  7  8  1  0  0  0  0
  7 27  1  0  0  0  0
  7 28  1  0  0  0  0
  8  9  1  0  0  0  0
  8 29  1  0  0  0  0
  9 10  2  0  0  0  0
  9 11  1  0  0  0  0
 11 20  1  0  0  0  0
 11 12  1  0  0  0  0
 11 30  1  0  0  0  0
 12 13  1  0  0  0  0
 12 31  1  0  0  0  0
 12 32  1  0  0  0  0
 13 14  2  0  0  0  0
 13 15  1  0  0  0  0
 15 16  1  0  0  0  0
 15 20  1  0  0  0  0
 16 17  1  0  0  0  0
 16 33  1  0  0  0  0
 16 34  1  0  0  0  0
 17 18  1  0  0  0  0
 17 19  1  0  0  0  0
 17 35  1  0  0  0  0
 18 36  1  0  0  0  0
 18 37  1  0  0  0  0
 18 38  1  0  0  0  0
 19 39  1  0  0  0  0
 19 40  1  0  0  0  0
 19 41  1  0  0  0  0
 20 42  1  0  0  0  0
 20 43  1  0  0  0  0
M  END
> <s_m_source_file>
AV-unprocessed.smi

> <i_m_source_file_index>
1823

> <i_lp_mmshare_version>
43012

> <i_f3d_flags>
0

> <s_epik_input>
W0NIM11jMW5vYyhuMSlbQ0gyXVtDSDJdW05IXUMoPU8pW0NAQEhdMltDSDJdQyg9TylOKFtDSDJdMilbQ0gyXVtDSF0oW0NIM10pW0NIM10=

> <s_epik_cmdline>
J2VwaWtfcHl0aG9uJywgJy1waCcsICc3LjAnLCAnLXRuJywgJzgnLCAnLW1hJywgJzIwMCcsICctbWV0YWxfYmluZGluZycsICctaW1hZScsICc8aW5maWxlLm1hZT4nLCAnLW9tYWUnLCAnPG91dGZpbGUubWFlPic=

> <r_lp_tautomer_probability>
1

> <r_epik_Ionization_Penalty>
3.64678e-08

> <r_epik_Ionization_Penalty_Charging>
0

> <r_epik_Ionization_Penalty_Neutral>
3.64678e-08

> <r_epik_State_Penalty>
-0

> <r_epik_Charging_Adjusted_Penalty>
0

> <i_epik_Tot_Q>
0

> <i_epik_Tot_abs_Q>
0

> <r_epik_Metal_State_Penalty>
-0

> <b_epik_Metal_Only>
0

> <s_lp_Force_Field>
OPLS_2005

> <r_lp_Energy>
11.154

> <b_lp_Chiralities_Consistent>
1

> <s_lp_Variant>
AV-unprocessed.smi:1823-2

> <Gold.Version>
5.8.1

> <Gold.Id.Protein>
6NUR|6NUR_protein|mol2

> <Gold.PLP.Fitness>
46.4469

> <Gold.PLP.PLP>
-43.7086

> <Gold.PLP.part.hbond>
-2.0000

> <Gold.PLP.part.metal>
0.0000

> <Gold.PLP.part.buried>
-6.1974

> <Gold.PLP.part.nonpolar>
-35.8590

> <Gold.PLP.part.repulsive>
0.6291

> <Gold.PLP.ligand.clash>
0.0000

> <Gold.PLP.ligand.torsion>
1.4911

> <Gold.PLP.Chemscore.Hbond>
1.8640

> <Gold.PLP.Chemscore.CHOScore>
0.0000

> <Gold.PLP.Chemscore.Metal>
0.0000

> <Gold.Chemscore.Hbonds>
donor molecule, donor type, donor heavy atom, donor atom, acceptor molecule, acceptor atom, score
      P1  H  7989  7998       L1    10  0.85
      P1  H  7997  8008       L1    14  0.99

> <Gold.PLP.Chemscore.Internal.Correction>
0.1286

> <Gold.Rescore>
     Score         DG    S(hbond)    S(metal)    S(lipo)     H(rot)  DE(clash)    DE(int)     intcor
     13.59     -14.87       1.70        0.00      84.19       2.40       0.19       1.09       ----

> <Gold.Chemscore.Fitness>
13.5908

> <Gold.Chemscore.DG>
-14.8739

> <Gold.Chemscore.ZeroCoef>
-5.4800

> <Gold.Chemscore.Hbond>
1.6995

> <Gold.Chemscore.Metal>
0.0000

> <Gold.Chemscore.Lipo>
84.1915

> <Gold.Chemscore.Internal_Hbond>
0.0000

> <Gold.Chemscore.DEClash>
0.1942

> <Gold.Chemscore.DEInternal>
1.0889

> <Gold.Chemscore.Rot>
2.3957

> <Gold.Chemscore.Internal.Correction>
   9.000000E+99

> <Gold.Chemscore.Hbonds>
donor molecule, donor type, donor heavy atom, donor atom, acceptor molecule, acceptor atom, score
      P1  H  7989  7998       L1    10  0.83
      P1  H  7997  8008       L1    14  0.58

> <Gold.Chemscore.Hbond.Weighted>
-5.6764

> <Gold.Chemscore.Metal.Weighted>
-0.0000

> <Gold.Chemscore.Lipo.Weighted>
-9.8504

> <Gold.Chemscore.Internal_Hbond.Weighted>
0.0000

> <Gold.Chemscore.DEClash.Weighted>
0.1942

> <Gold.Chemscore.DEInternal.Weighted>
1.0889

> <Gold.Chemscore.Rot.Weighted>
6.1329

> <Gold.Chemscore.Internal.Correction.Weighted>
   9.000000E+99

> <Gold.Protein.RotatedTorsions>
[ 6907 6896 6895 6894 ] final  -22.55 input  -60.11 | X-H torsion
[ 7974 7965 7964 7962 ] final  136.25 input  175.53 | X-H torsion
[ 8008 7997 7996 7995 ] final  -98.02 input   59.86 | X-H torsion
[ 10167 10162 10161 10158 ] final   60.96 input  -65.29 | X-H torsion
[ 10718 10713 10712 10709 ] final   54.51 input   66.30 | X-H torsion
[ 10763 10752 10751 10750 ] final   39.01 input  -60.55 | X-H torsion
[ 11005 11000 10999 10996 ] final   35.01 input  -57.11 | X-H torsion

> <Gold.Protein.ActiveResidues>
 VAL166  LYS551  ARG553  GLY616  TRP617  ASP618  TYR619  PRO620  LYS621  CYS622 
 ASP623  PHE694  ASN695  SER759  ASP760  ASP761  ALA762  ILE779  LEU786  VAL792 
 PHE793  MET794  SER795  GLU796  ALA797  LYS798  CYS799  TRP800  GLU811  SER814 

> <Gold.Protein.RotatedAtoms>
  151.2169  135.0503  159.8933 H   0  0  0  0  0  0  0  0  0  0  0  0  # atno 6907 bound_to 6896
  152.5419  134.0683  159.8193 H   0  0  0  0  0  0  0  0  0  0  0  0  # atno 6908 bound_to 6896
  151.0844  133.5317  159.2650 H   0  0  0  0  0  0  0  0  0  0  0  0  # atno 6909 bound_to 6896
  144.9584  139.4738  143.5492 H   0  0  0  0  0  0  0  0  0  0  0  0  # atno 7974 bound_to 7965
  154.7956  140.0458  157.1234 H   0  0  0  0  0  0  0  0  0  0  0  0  # atno 8008 bound_to 7997
  154.9539  140.3069  155.5042 H   0  0  0  0  0  0  0  0  0  0  0  0  # atno 8009 bound_to 7997
  156.2955  140.2283  156.4619 H   0  0  0  0  0  0  0  0  0  0  0  0  # atno 8010 bound_to 7997
  140.1600  144.4380  150.6714 H   0  0  0  0  0  0  0  0  0  0  0  0  # atno 10167 bound_to 10162
  157.5264  130.8600  149.8627 H   0  0  0  0  0  0  0  0  0  0  0  0  # atno 10718 bound_to 10713
  152.9981  135.6233  154.2396 H   0  0  0  0  0  0  0  0  0  0  0  0  # atno 10763 bound_to 10752
  154.2136  135.2799  155.2951 H   0  0  0  0  0  0  0  0  0  0  0  0  # atno 10764 bound_to 10752
  154.5586  135.5712  153.7045 H   0  0  0  0  0  0  0  0  0  0  0  0  # atno 10765 bound_to 10752
  140.2470  134.3348  155.7904 H   0  0  0  0  0  0  0  0  0  0  0  0  # atno 11005 bound_to 11000
  146.3345  139.8717  142.8839 LP  0  0  0  0  0  0  0  0  0  0  0  0  # atno 17320 bound_to 7965
  145.2738  141.0117  143.3757 LP  0  0  0  0  0  0  0  0  0  0  0  0  # atno 17321 bound_to 7965
  140.6649  143.2264  151.5767 LP  0  0  0  0  0  0  0  0  0  0  0  0  # atno 17342 bound_to 10162
  139.5386  144.2712  152.1303 LP  0  0  0  0  0  0  0  0  0  0  0  0  # atno 17343 bound_to 10162
  156.0390  130.3744  150.1485 LP  0  0  0  0  0  0  0  0  0  0  0  0  # atno 17370 bound_to 10713
  156.9671  130.9823  151.3467 LP  0  0  0  0  0  0  0  0  0  0  0  0  # atno 17371 bound_to 10713
  141.2205  133.7331  156.8976 LP  0  0  0  0  0  0  0  0  0  0  0  0  # atno 17394 bound_to 11000
  140.1596  134.9174  157.2698 LP  0  0  0  0  0  0  0  0  0  0  0  0  # atno 17395 bound_to 11000

$$$$
