AV-unprocessed.smi:1412|AV-procd|sdf|5743|dock5
  -GOLD-   22720 5383D 1   1.00000     0.00000
 Structure written by MMmdl.
 42 43  0  0  0  0  0  0  0  0  2 V2000
  149.3449  133.1881  155.3708 C   0  0  0  0  0  0  0  0  0  0  0  0
  149.8678  134.5247  154.8157 C   0  0  0  0  0  0  0  0  0  0  0  0
  149.1307  135.8072  155.3097 C   0  0  2  0  0  0  0  0  0  0  0  0
  149.2003  135.8696  156.8580 C   0  0  0  0  0  0  0  0  0  0  0  0
  147.6239  135.7305  154.9077 C   0  0  0  0  0  0  0  0  0  0  0  0
  147.3848  135.1100  153.6032 N   0  0  0  0  0  0  0  0  0  0  0  0
  146.2983  134.4018  153.2631 C   0  0  0  0  0  0  0  0  0  0  0  0
  145.3453  134.2174  154.0198 O   0  0  0  0  0  0  0  0  0  0  0  0
  146.3966  133.9334  152.0062 N   0  0  0  0  0  0  0  0  0  0  0  0
  145.4609  133.1424  151.2876 C   0  0  0  0  0  0  0  0  0  0  0  0
  145.7652  132.4591  150.1731 N   0  0  0  0  0  0  0  0  0  0  0  0
  144.6692  131.7700  149.6709 N   0  0  0  0  0  0  0  0  0  0  0  0
  143.5830  131.9594  150.4253 C   0  0  0  0  0  0  0  0  0  0  0  0
  143.7938  132.9956  151.8262 S   0  0  0  0  0  0  0  0  0  0  0  0
  149.7611  137.0499  154.7285 N   0  3  0  0  0  0  0  0  0  0  0  0
  149.0446  138.3330  154.9789 C   0  0  0  0  0  0  0  0  0  0  0  0
  149.6834  139.4734  154.1678 C   0  0  0  0  0  0  0  0  0  0  0  0
  151.0610  139.5872  154.4960 O   0  0  0  0  0  0  0  0  0  0  0  0
  151.7769  138.4002  154.1857 C   0  0  0  0  0  0  0  0  0  0  0  0
  151.2134  137.2317  155.0100 C   0  0  0  0  0  0  0  0  0  0  0  0
  149.9277  132.3588  154.9695 H   0  0  0  0  0  0  0  0  0  0  0  0
  148.3058  133.0108  155.0954 H   0  0  0  0  0  0  0  0  0  0  0  0
  149.4227  133.1376  156.4564 H   0  0  0  0  0  0  0  0  0  0  0  0
  150.9274  134.5867  155.0613 H   0  0  0  0  0  0  0  0  0  0  0  0
  149.8184  134.4609  153.7291 H   0  0  0  0  0  0  0  0  0  0  0  0
  148.5424  135.1354  157.3237 H   0  0  0  0  0  0  0  0  0  0  0  0
  148.9001  136.8473  157.2361 H   0  0  0  0  0  0  0  0  0  0  0  0
  150.2028  135.6634  157.2334 H   0  0  0  0  0  0  0  0  0  0  0  0
  147.0663  135.1510  155.6436 H   0  0  0  0  0  0  0  0  0  0  0  0
  147.1635  136.7192  154.9337 H   0  0  0  0  0  0  0  0  0  0  0  0
  148.1229  135.1967  152.9198 H   0  0  0  0  0  0  0  0  0  0  0  0
  147.2445  134.1575  151.5069 H   0  0  0  0  0  0  0  0  0  0  0  0
  142.6512  131.4853  150.1549 H   0  0  0  0  0  0  0  0  0  0  0  0
  147.9965  138.2741  154.6921 H   0  0  0  0  0  0  0  0  0  0  0  0
  149.0750  138.5824  156.0396 H   0  0  0  0  0  0  0  0  0  0  0  0
  149.5644  139.3029  153.0965 H   0  0  0  0  0  0  0  0  0  0  0  0
  149.1887  140.4176  154.3959 H   0  0  0  0  0  0  0  0  0  0  0  0
  151.7174  138.1894  153.1166 H   0  0  0  0  0  0  0  0  0  0  0  0
  152.8301  138.5529  154.4220 H   0  0  0  0  0  0  0  0  0  0  0  0
  151.3715  137.4348  156.0693 H   0  0  0  0  0  0  0  0  0  0  0  0
  151.7854  136.3380  154.7672 H   0  0  0  0  0  0  0  0  0  0  0  0
  149.7009  136.9115  153.7298 H   0  0  0  0  0  0  0  0  0  0  0  0
  1  2  1  0  0  0  0
  1 21  1  0  0  0  0
  1 22  1  0  0  0  0
  1 23  1  0  0  0  0
  2  3  1  0  0  0  0
  2 24  1  0  0  0  0
  2 25  1  0  0  0  0
  3  4  1  0  0  0  0
  3  5  1  0  0  0  0
  3 15  1  0  0  0  0
  4 26  1  0  0  0  0
  4 27  1  0  0  0  0
  4 28  1  0  0  0  0
  5  6  1  0  0  0  0
  5 29  1  0  0  0  0
  5 30  1  0  0  0  0
  6  7  1  0  0  0  0
  6 31  1  0  0  0  0
  7  8  2  0  0  0  0
  7  9  1  0  0  0  0
  9 10  1  0  0  0  0
  9 32  1  0  0  0  0
 10 14  1  0  0  0  0
 10 11  2  0  0  0  0
 11 12  1  0  0  0  0
 12 13  2  0  0  0  0
 13 14  1  0  0  0  0
 13 33  1  0  0  0  0
 15 20  1  0  0  0  0
 15 16  1  0  0  0  0
 15 42  1  0  0  0  0
 16 17  1  0  0  0  0
 16 34  1  0  0  0  0
 16 35  1  0  0  0  0
 17 18  1  0  0  0  0
 17 36  1  0  0  0  0
 17 37  1  0  0  0  0
 18 19  1  0  0  0  0
 19 20  1  0  0  0  0
 19 38  1  0  0  0  0
 19 39  1  0  0  0  0
 20 40  1  0  0  0  0
 20 41  1  0  0  0  0
M  CHG  1  15   1
M  END
> <s_m_source_file>
AV-unprocessed.smi

> <i_m_source_file_index>
1412

> <i_lp_mmshare_version>
43012

> <i_f3d_flags>
0

> <s_epik_input>
W0NIMl0xW0NIMl1PW0NIMl1bQ0gyXU4xW0NAQF0oW0NIM10pKFtDSDJdW0NIM10pW0NIMl1bTkhdQyg9TylbTkhdYzJubltjSF1zMg==

> <s_epik_cmdline>
J2VwaWtfcHl0aG9uJywgJy1waCcsICc3LjAnLCAnLXRuJywgJzgnLCAnLW1hJywgJzIwMCcsICctbWV0YWxfYmluZGluZycsICctaW1hZScsICc8aW5maWxlLm1hZT4nLCAnLW9tYWUnLCAnPG91dGZpbGUubWFlPic=

> <r_lp_tautomer_probability>
1

> <r_epik_Ionization_Penalty>
0.554649

> <r_epik_Ionization_Penalty_Charging>
0.553838

> <r_epik_Ionization_Penalty_Neutral>
0.000811527

> <r_epik_State_Penalty>
0.564424

> <r_epik_Charging_Adjusted_Penalty>
1.11826

> <i_epik_Tot_Q>
1

> <i_epik_Tot_abs_Q>
1

> <r_epik_Metal_State_Penalty>
0.786249

> <b_epik_Metal_Only>
0

> <s_lp_Force_Field>
OPLS_2005

> <r_lp_Energy>
32.8849

> <b_lp_Chiralities_Consistent>
1

> <s_lp_Variant>
AV-unprocessed.smi:1412-4

> <Gold.Version>
5.8.1

> <Gold.Id.Protein>
6NUR|6NUR_protein|mol2

> <Gold.PLP.Fitness>
41.9219

> <Gold.PLP.PLP>
-28.2339

> <Gold.PLP.part.hbond>
-3.4300

> <Gold.PLP.part.metal>
0.0000

> <Gold.PLP.part.buried>
-5.2267

> <Gold.PLP.part.nonpolar>
-20.7177

> <Gold.PLP.part.repulsive>
0.9422

> <Gold.PLP.ligand.clash>
0.0000

> <Gold.PLP.ligand.torsion>
0.7062

> <Gold.PLP.Chemscore.Hbond>
3.9825

> <Gold.PLP.Chemscore.CHOScore>
1.0000

> <Gold.PLP.Chemscore.Metal>
0.0000

> <Gold.Chemscore.Hbonds>
donor molecule, donor type, donor heavy atom, donor atom, acceptor molecule, acceptor atom, score
      L1  H     6    31       P1  7948  0.96
      L1  H    15    42       P1  7948  1.69
      P1  H  7989  7998       L1    18  1.00
      L1  C    13    33       P1 10952  1.00

> <Gold.PLP.Chemscore.Internal.Correction>
0.1528

> <Gold.Rescore>
     Score         DG    S(hbond)    S(metal)    S(lipo)     H(rot)  DE(clash)    DE(int)     intcor
     12.18     -14.28       1.95        0.00      61.49       1.91       0.09       2.01       ----

> <Gold.Chemscore.Fitness>
12.1782

> <Gold.Chemscore.DG>
-14.2809

> <Gold.Chemscore.ZeroCoef>
-5.4800

> <Gold.Chemscore.Hbond>
1.9479

> <Gold.Chemscore.Metal>
0.0000

> <Gold.Chemscore.Lipo>
61.4925

> <Gold.Chemscore.Internal_Hbond>
0.0000

> <Gold.Chemscore.DEClash>
0.0885

> <Gold.Chemscore.DEInternal>
2.0141

> <Gold.Chemscore.Rot>
1.9140

> <Gold.Chemscore.Internal.Correction>
   9.000000E+99

> <Gold.Chemscore.Hbonds>
donor molecule, donor type, donor heavy atom, donor atom, acceptor molecule, acceptor atom, score
      L1  H     6    31       P1  7948  0.90
      L1  H    15    42       P1  7948  0.57
      P1  H  7989  7998       L1    18  0.33

> <Gold.Chemscore.Hbond.Weighted>
-6.5061

> <Gold.Chemscore.Metal.Weighted>
-0.0000

> <Gold.Chemscore.Lipo.Weighted>
-7.1946

> <Gold.Chemscore.Internal_Hbond.Weighted>
0.0000

> <Gold.Chemscore.DEClash.Weighted>
0.0885

> <Gold.Chemscore.DEInternal.Weighted>
2.0141

> <Gold.Chemscore.Rot.Weighted>
4.8998

> <Gold.Chemscore.Internal.Correction.Weighted>
   9.000000E+99

> <Gold.Protein.RotatedTorsions>
[ 6907 6896 6895 6894 ] final   88.47 input  -60.11 | X-H torsion
[ 7974 7965 7964 7962 ] final  118.72 input  175.53 | X-H torsion
[ 8008 7997 7996 7995 ] final  -48.54 input   59.86 | X-H torsion
[ 10167 10162 10161 10158 ] final -165.74 input  -65.29 | X-H torsion
[ 10718 10713 10712 10709 ] final   -0.57 input   66.30 | X-H torsion
[ 10763 10752 10751 10750 ] final  -37.89 input  -60.55 | X-H torsion
[ 11005 11000 10999 10996 ] final  -13.28 input  -57.11 | X-H torsion

> <Gold.Protein.ActiveResidues>
 VAL166  LYS551  ARG553  GLY616  TRP617  ASP618  TYR619  PRO620  LYS621  CYS622 
 ASP623  PHE694  ASN695  SER759  ASP760  ASP761  ALA762  ILE779  LEU786  VAL792 
 PHE793  MET794  SER795  GLU796  ALA797  LYS798  CYS799  TRP800  GLU811  SER814 

> <Gold.Protein.RotatedAtoms>
  152.5425  134.2116  159.8751 H   0  0  0  0  0  0  0  0  0  0  0  0  # atno 6907 bound_to 6896
  151.2098  133.4555  159.2605 H   0  0  0  0  0  0  0  0  0  0  0  0  # atno 6908 bound_to 6896
  151.0907  134.9927  159.8457 H   0  0  0  0  0  0  0  0  0  0  0  0  # atno 6909 bound_to 6896
  145.1518  139.3206  143.4563 H   0  0  0  0  0  0  0  0  0  0  0  0  # atno 7974 bound_to 7965
  154.4030  140.1319  156.4355 H   0  0  0  0  0  0  0  0  0  0  0  0  # atno 8008 bound_to 7997
  155.7509  140.3488  155.5130 H   0  0  0  0  0  0  0  0  0  0  0  0  # atno 8009 bound_to 7997
  155.8950  140.1009  157.1381 H   0  0  0  0  0  0  0  0  0  0  0  0  # atno 8010 bound_to 7997
  139.6162  144.0716  152.1889 H   0  0  0  0  0  0  0  0  0  0  0  0  # atno 10167 bound_to 10162
  156.8184  130.5448  149.5700 H   0  0  0  0  0  0  0  0  0  0  0  0  # atno 10718 bound_to 10713
  153.9038  135.6799  153.4754 H   0  0  0  0  0  0  0  0  0  0  0  0  # atno 10763 bound_to 10752
  153.1115  135.4781  154.9041 H   0  0  0  0  0  0  0  0  0  0  0  0  # atno 10764 bound_to 10752
  154.7562  135.3198  154.8420 H   0  0  0  0  0  0  0  0  0  0  0  0  # atno 10765 bound_to 10752
  140.7744  133.8412  155.9236 H   0  0  0  0  0  0  0  0  0  0  0  0  # atno 11005 bound_to 11000
  146.3493  140.1595  142.8591 LP  0  0  0  0  0  0  0  0  0  0  0  0  # atno 17320 bound_to 7965
  145.0423  140.8955  143.5045 LP  0  0  0  0  0  0  0  0  0  0  0  0  # atno 17321 bound_to 7965
  140.0346  144.6054  150.7460 LP  0  0  0  0  0  0  0  0  0  0  0  0  # atno 17342 bound_to 10162
  140.7352  143.2738  151.3805 LP  0  0  0  0  0  0  0  0  0  0  0  0  # atno 17343 bound_to 10162
  156.1003  130.5964  150.9883 LP  0  0  0  0  0  0  0  0  0  0  0  0  # atno 17370 bound_to 10713
  157.6470  131.0902  150.8133 LP  0  0  0  0  0  0  0  0  0  0  0  0  # atno 17371 bound_to 10713
  140.9543  134.1739  157.4704 LP  0  0  0  0  0  0  0  0  0  0  0  0  # atno 17394 bound_to 11000
  139.8751  134.9921  156.5579 LP  0  0  0  0  0  0  0  0  0  0  0  0  # atno 17395 bound_to 11000

$$$$
