AV-unprocessed.smi:269|AV-procd|sdf|2042|dock2
  -GOLD-   2262021263D 1   1.00000     0.00000
 Structure written by MMmdl.
 62 65  0  0  0  0  0  0  0  0  2 V2000
  145.8084  131.7345  150.3297 C   0  0  0  0  0  0  0  0  0  0  0  0
  144.2815  131.8811  150.2886 C   0  0  0  0  0  0  0  0  0  0  0  0
  143.8014  132.8071  151.3079 N   0  0  0  0  0  0  0  0  0  0  0  0
  144.2719  134.0481  151.5042 C   0  0  0  0  0  0  0  0  0  0  0  0
  145.1645  134.5498  150.8201 O   0  0  0  0  0  0  0  0  0  0  0  0
  143.6229  134.8479  152.6388 C   0  0  0  0  0  0  0  0  0  0  0  0
  143.9777  134.3353  153.9871 N   0  3  0  0  0  0  0  0  0  0  0  0
  143.3759  135.1279  155.0933 C   0  0  0  0  0  0  0  0  0  0  0  0
  143.7018  134.5039  156.4613 C   0  0  0  0  0  0  0  0  0  0  0  0
  145.1439  134.3385  156.6235 N   0  0  0  0  0  0  0  0  0  0  0  0
  145.8115  135.3833  157.1834 C   0  0  0  0  0  0  0  0  0  0  0  0
  145.8055  135.5436  158.5337 N   0  0  0  0  0  0  0  0  0  0  0  0
  146.4692  136.5553  159.0995 C   0  0  0  0  0  0  0  0  0  0  0  0
  147.1901  137.5105  158.5116 N   0  0  0  0  0  0  0  0  0  0  0  0
  147.1892  137.3702  157.1557 C   0  0  0  0  0  0  0  0  0  0  0  0
  146.5349  136.3428  156.4174 C   0  0  0  0  0  0  0  0  0  0  0  0
  146.7575  136.5275  155.0583 N   0  0  0  0  0  0  0  0  0  0  0  0
  147.5121  137.5897  154.9982 C   0  0  0  0  0  0  0  0  0  0  0  0
  147.8066  138.1731  156.2106 N   0  0  0  0  0  0  0  0  0  0  0  0
  148.6251  139.3584  156.4337 C   0  0  0  0  0  0  0  0  0  0  0  0
  149.1627  140.0476  155.1385 C   0  0  0  0  0  0  0  0  0  0  0  0
  147.9948  140.5126  154.2282 C   0  0  0  0  0  0  0  0  0  0  0  0
  148.4521  141.1917  153.0754 O   0  0  0  0  0  0  0  0  0  0  0  0
  150.0277  141.2910  155.4661 C   0  0  0  0  0  0  0  0  0  0  0  0
  151.3844  140.9263  156.0969 C   0  0  0  0  0  0  0  0  0  0  0  0
  152.0980  140.0499  155.2348 O   0  0  0  0  0  0  0  0  0  0  0  0
  151.4229  138.8165  155.0257 C   0  0  0  0  0  0  0  0  0  0  0  0
  150.0646  139.0682  154.3455 C   0  0  0  0  0  0  0  0  0  0  0  0
  145.7779  133.5768  155.5470 C   0  0  0  0  0  0  0  0  0  0  0  0
  145.4432  134.1667  154.1621 C   0  0  0  0  0  0  0  0  0  0  0  0
  146.1528  131.0625  149.5433 H   0  0  0  0  0  0  0  0  0  0  0  0
  146.1437  131.3249  151.2831 H   0  0  0  0  0  0  0  0  0  0  0  0
  146.3017  132.6962  150.1844 H   0  0  0  0  0  0  0  0  0  0  0  0
  143.9753  132.2603  149.3133 H   0  0  0  0  0  0  0  0  0  0  0  0
  143.8033  130.9073  150.4065 H   0  0  0  0  0  0  0  0  0  0  0  0
  143.0615  132.4757  151.9103 H   0  0  0  0  0  0  0  0  0  0  0  0
  143.9713  135.8765  152.5359 H   0  0  0  0  0  0  0  0  0  0  0  0
  142.5378  134.8709  152.5224 H   0  0  0  0  0  0  0  0  0  0  0  0
  143.7522  136.1514  155.0522 H   0  0  0  0  0  0  0  0  0  0  0  0
  142.2938  135.1847  154.9749 H   0  0  0  0  0  0  0  0  0  0  0  0
  143.2653  135.1131  157.2512 H   0  0  0  0  0  0  0  0  0  0  0  0
  143.2333  133.5223  156.5415 H   0  0  0  0  0  0  0  0  0  0  0  0
  146.4156  136.6070  160.1772 H   0  0  0  0  0  0  0  0  0  0  0  0
  147.8703  137.9826  154.0578 H   0  0  0  0  0  0  0  0  0  0  0  0
  148.0398  140.0540  157.0335 H   0  0  0  0  0  0  0  0  0  0  0  0
  149.4590  139.0663  157.0729 H   0  0  0  0  0  0  0  0  0  0  0  0
  147.3750  139.6708  153.9201 H   0  0  0  0  0  0  0  0  0  0  0  0
  147.3331  141.1898  154.7699 H   0  0  0  0  0  0  0  0  0  0  0  0
  149.1128  140.6625  152.6560 H   0  0  0  0  0  0  0  0  0  0  0  0
  150.2292  141.8434  154.5472 H   0  0  0  0  0  0  0  0  0  0  0  0
  149.4883  141.9857  156.1092 H   0  0  0  0  0  0  0  0  0  0  0  0
  151.9781  141.8285  156.2436 H   0  0  0  0  0  0  0  0  0  0  0  0
  151.2655  140.4691  157.0789 H   0  0  0  0  0  0  0  0  0  0  0  0
  152.0433  138.1862  154.3883 H   0  0  0  0  0  0  0  0  0  0  0  0
  151.3074  138.2840  155.9702 H   0  0  0  0  0  0  0  0  0  0  0  0
  149.5533  138.1176  154.1890 H   0  0  0  0  0  0  0  0  0  0  0  0
  150.2564  139.4731  153.3508 H   0  0  0  0  0  0  0  0  0  0  0  0
  146.8574  133.5152  155.6908 H   0  0  0  0  0  0  0  0  0  0  0  0
  145.4102  132.5516  155.6023 H   0  0  0  0  0  0  0  0  0  0  0  0
  145.8349  133.5087  153.3856 H   0  0  0  0  0  0  0  0  0  0  0  0
  145.9326  135.1330  154.0324 H   0  0  0  0  0  0  0  0  0  0  0  0
  143.5804  133.4083  154.0477 H   0  0  0  0  0  0  0  0  0  0  0  0
  1  2  1  0  0  0  0
  1 31  1  0  0  0  0
  1 32  1  0  0  0  0
  1 33  1  0  0  0  0
  2  3  1  0  0  0  0
  2 34  1  0  0  0  0
  2 35  1  0  0  0  0
  3  4  1  0  0  0  0
  3 36  1  0  0  0  0
  4  5  2  0  0  0  0
  4  6  1  0  0  0  0
  6  7  1  0  0  0  0
  6 37  1  0  0  0  0
  6 38  1  0  0  0  0
  7 30  1  0  0  0  0
  7  8  1  0  0  0  0
  7 62  1  0  0  0  0
  8  9  1  0  0  0  0
  8 39  1  0  0  0  0
  8 40  1  0  0  0  0
  9 10  1  0  0  0  0
  9 41  1  0  0  0  0
  9 42  1  0  0  0  0
 10 11  1  0  0  0  0
 10 29  1  0  0  0  0
 11 16  1  0  0  0  0
 11 12  2  0  0  0  0
 12 13  1  0  0  0  0
 13 14  2  0  0  0  0
 13 43  1  0  0  0  0
 14 15  1  0  0  0  0
 15 19  1  0  0  0  0
 15 16  2  0  0  0  0
 16 17  1  0  0  0  0
 17 18  2  0  0  0  0
 18 19  1  0  0  0  0
 18 44  1  0  0  0  0
 19 20  1  0  0  0  0
 20 21  1  0  0  0  0
 20 45  1  0  0  0  0
 20 46  1  0  0  0  0
 21 28  1  0  0  0  0
 21 22  1  0  0  0  0
 21 24  1  0  0  0  0
 22 23  1  0  0  0  0
 22 47  1  0  0  0  0
 22 48  1  0  0  0  0
 23 49  1  0  0  0  0
 24 25  1  0  0  0  0
 24 50  1  0  0  0  0
 24 51  1  0  0  0  0
 25 26  1  0  0  0  0
 25 52  1  0  0  0  0
 25 53  1  0  0  0  0
 26 27  1  0  0  0  0
 27 28  1  0  0  0  0
 27 54  1  0  0  0  0
 27 55  1  0  0  0  0
 28 56  1  0  0  0  0
 28 57  1  0  0  0  0
 29 30  1  0  0  0  0
 29 58  1  0  0  0  0
 29 59  1  0  0  0  0
 30 60  1  0  0  0  0
 30 61  1  0  0  0  0
M  CHG  1   7   1
M  END
> <s_m_source_file>
AV-unprocessed.smi

> <i_m_source_file_index>
269

> <i_lp_mmshare_version>
43012

> <i_f3d_flags>
0

> <s_epik_input>
W0NIM11bQ0gyXVtOSF1DKD1PKVtDSDJdTjFbQ0gyXVtDSDJdTihbQ0gyXVtDSDJdMSljKG5bY0hdbjIpYyhjMjMpbltjSF1uM1tDSDJdQzQoW0NIMl1bT0hdKVtDSDJdW0NIMl1PW0NIMl1bQ0gyXTQ=

> <s_epik_cmdline>
J2VwaWtfcHl0aG9uJywgJy1waCcsICc3LjAnLCAnLXRuJywgJzgnLCAnLW1hJywgJzIwMCcsICctbWV0YWxfYmluZGluZycsICctaW1hZScsICc8aW5maWxlLm1hZT4nLCAnLW9tYWUnLCAnPG91dGZpbGUubWFlPic=

> <r_lp_tautomer_probability>
1

> <r_epik_Ionization_Penalty>
0.146524

> <r_epik_Ionization_Penalty_Charging>
0.146459

> <r_epik_Ionization_Penalty_Neutral>
6.45448e-05

> <r_epik_State_Penalty>
0.136576

> <r_epik_Charging_Adjusted_Penalty>
0.283035

> <i_epik_Tot_Q>
1

> <i_epik_Tot_abs_Q>
1

> <r_epik_Metal_State_Penalty>
0.148847

> <b_epik_Metal_Only>
0

> <s_lp_Force_Field>
OPLS_2005

> <r_lp_Energy>
42.6281

> <b_lp_Chiralities_Consistent>
1

> <s_lp_Variant>
AV-unprocessed.smi:269-1

> <Gold.Version>
5.8.1

> <Gold.Id.Protein>
6NUR|6NUR_protein|mol2

> <Gold.PLP.Fitness>
43.8371

> <Gold.PLP.PLP>
-33.0661

> <Gold.PLP.part.hbond>
-4.0000

> <Gold.PLP.part.metal>
0.0000

> <Gold.PLP.part.buried>
-5.2734

> <Gold.PLP.part.nonpolar>
-24.4187

> <Gold.PLP.part.repulsive>
0.3588

> <Gold.PLP.ligand.clash>
0.0000

> <Gold.PLP.ligand.torsion>
0.6785

> <Gold.PLP.Chemscore.Hbond>
3.7840

> <Gold.PLP.Chemscore.CHOScore>
0.0000

> <Gold.PLP.Chemscore.Metal>
0.0000

> <Gold.Chemscore.Hbonds>
donor molecule, donor type, donor heavy atom, donor atom, acceptor molecule, acceptor atom, score
      L1  H     7    62       P1 10957  2.00
      L1  H    23    49       P1  7957  0.85
      P1  H  7989  7998       L1    26  0.69

> <Gold.PLP.Chemscore.Internal.Correction>
0.7760

> <Gold.Rescore>
     Score         DG    S(hbond)    S(metal)    S(lipo)     H(rot)  DE(clash)    DE(int)     intcor
      8.73     -12.47       2.12        0.00      72.95       3.37       0.10       3.64       ----

> <Gold.Chemscore.Fitness>
8.7335

> <Gold.Chemscore.DG>
-12.4731

> <Gold.Chemscore.ZeroCoef>
-5.4800

> <Gold.Chemscore.Hbond>
2.1242

> <Gold.Chemscore.Metal>
0.0000

> <Gold.Chemscore.Lipo>
72.9506

> <Gold.Chemscore.Internal_Hbond>
0.0000

> <Gold.Chemscore.DEClash>
0.1019

> <Gold.Chemscore.DEInternal>
3.6377

> <Gold.Chemscore.Rot>
3.3738

> <Gold.Chemscore.Internal.Correction>
   9.000000E+99

> <Gold.Chemscore.Hbonds>
donor molecule, donor type, donor heavy atom, donor atom, acceptor molecule, acceptor atom, score
      L1  H     7    62       P1 10957  0.94
      L1  H    23    49       P1  7957  0.85
      P1  H  7989  7998       L1    26  0.03

> <Gold.Chemscore.Hbond.Weighted>
-7.0948

> <Gold.Chemscore.Metal.Weighted>
-0.0000

> <Gold.Chemscore.Lipo.Weighted>
-8.5352

> <Gold.Chemscore.Internal_Hbond.Weighted>
0.0000

> <Gold.Chemscore.DEClash.Weighted>
0.1019

> <Gold.Chemscore.DEInternal.Weighted>
3.6377

> <Gold.Chemscore.Rot.Weighted>
8.6369

> <Gold.Chemscore.Internal.Correction.Weighted>
   9.000000E+99

> <Gold.Protein.RotatedTorsions>
[ 6907 6896 6895 6894 ] final   81.16 input  -60.11 | X-H torsion
[ 7974 7965 7964 7962 ] final   85.49 input  175.53 | X-H torsion
[ 8008 7997 7996 7995 ] final   38.58 input   59.86 | X-H torsion
[ 10167 10162 10161 10158 ] final  131.02 input  -65.29 | X-H torsion
[ 10718 10713 10712 10709 ] final  171.33 input   66.30 | X-H torsion
[ 10763 10752 10751 10750 ] final  -19.25 input  -60.55 | X-H torsion
[ 11005 11000 10999 10996 ] final  124.13 input  -57.11 | X-H torsion

> <Gold.Protein.ActiveResidues>
 VAL166  LYS551  ARG553  GLY616  TRP617  ASP618  TYR619  PRO620  LYS621  CYS622 
 ASP623  PHE694  ASN695  SER759  ASP760  ASP761  ALA762  ILE779  LEU786  VAL792 
 PHE793  MET794  SER795  GLU796  ALA797  LYS798  CYS799  TRP800  GLU811  SER814 

> <Gold.Protein.RotatedAtoms>
  152.5259  134.3246  159.9160 H   0  0  0  0  0  0  0  0  0  0  0  0  # atno 6907 bound_to 6896
  151.3195  133.4039  159.2661 H   0  0  0  0  0  0  0  0  0  0  0  0  # atno 6908 bound_to 6896
  150.9971  134.9309  159.7990 H   0  0  0  0  0  0  0  0  0  0  0  0  # atno 6909 bound_to 6896
  145.5848  139.2330  143.2332 H   0  0  0  0  0  0  0  0  0  0  0  0  # atno 7974 bound_to 7965
  155.2224  140.3332  155.4314 H   0  0  0  0  0  0  0  0  0  0  0  0  # atno 8008 bound_to 7997
  156.2328  140.1858  156.7246 H   0  0  0  0  0  0  0  0  0  0  0  0  # atno 8009 bound_to 7997
  154.6006  140.0623  156.9349 H   0  0  0  0  0  0  0  0  0  0  0  0  # atno 8010 bound_to 7997
  139.5403  144.6724  151.4647 H   0  0  0  0  0  0  0  0  0  0  0  0  # atno 10167 bound_to 10162
  156.9952  131.0159  151.2846 H   0  0  0  0  0  0  0  0  0  0  0  0  # atno 10718 bound_to 10713
  153.6019  135.6999  153.5381 H   0  0  0  0  0  0  0  0  0  0  0  0  # atno 10763 bound_to 10752
  153.3090  135.4107  155.1319 H   0  0  0  0  0  0  0  0  0  0  0  0  # atno 10764 bound_to 10752
  154.8581  135.3667  154.5554 H   0  0  0  0  0  0  0  0  0  0  0  0  # atno 10765 bound_to 10752
  139.9344  134.9640  156.8363 H   0  0  0  0  0  0  0  0  0  0  0  0  # atno 11005 bound_to 11000
  146.1690  140.6675  142.9242 LP  0  0  0  0  0  0  0  0  0  0  0  0  # atno 17320 bound_to 7965
  144.7377  140.4856  143.6891 LP  0  0  0  0  0  0  0  0  0  0  0  0  # atno 17321 bound_to 7965
  140.6630  143.8459  150.6909 LP  0  0  0  0  0  0  0  0  0  0  0  0  # atno 17342 bound_to 10162
  140.1859  143.4076  152.1899 LP  0  0  0  0  0  0  0  0  0  0  0  0  # atno 17343 bound_to 10162
  157.5430  130.8132  149.8052 LP  0  0  0  0  0  0  0  0  0  0  0  0  # atno 17370 bound_to 10713
  156.0192  130.3802  150.2015 LP  0  0  0  0  0  0  0  0  0  0  0  0  # atno 17371 bound_to 10713
  140.6114  134.0079  155.7578 LP  0  0  0  0  0  0  0  0  0  0  0  0  # atno 17394 bound_to 11000
  141.0951  133.9857  157.3174 LP  0  0  0  0  0  0  0  0  0  0  0  0  # atno 17395 bound_to 11000

$$$$
