AV-unprocessed.smi:1062|AV-procd|sdf|4661|dock10
  -GOLD-   22720 3173D 1   1.00000     0.00000
 Structure written by MMmdl.
 38 40  0  0  0  0  0  0  0  0  1 V2000
  151.0317  137.8896  154.8454 C   0  0  0  0  0  0  0  0  0  0  0  0
  150.2700  138.9720  154.0628 C   0  0  0  0  0  0  0  0  0  0  0  0
  149.7572  140.0348  154.9419 N   0  0  0  0  0  0  0  0  0  0  0  0
  150.6040  140.7428  155.7317 C   0  0  0  0  0  0  0  0  0  0  0  0
  151.7730  140.3924  155.9101 O   0  0  0  0  0  0  0  0  0  0  0  0
  150.0992  142.0313  156.4127 C   0  0  0  0  0  0  0  0  0  0  0  0
  151.1245  142.6052  157.3501 C   0  0  0  0  0  0  0  0  0  0  0  0
  151.5332  143.9145  157.4245 C   0  0  0  0  0  0  0  0  0  0  0  0
  152.7404  144.1531  158.6579 S   0  0  0  0  0  0  0  0  0  0  0  0
  152.6511  142.4291  159.0309 C   0  0  0  0  0  0  0  0  0  0  0  0
  153.4007  141.7383  160.0288 N   0  0  0  0  0  0  0  0  0  0  0  0
  153.5428  142.2656  161.3824 C   0  0  0  0  0  0  0  0  0  0  0  0
  154.4072  141.2275  162.0909 C   0  0  0  0  0  0  0  0  0  0  0  0
  154.6334  140.2570  161.0461 N   0  0  0  0  0  0  0  0  0  0  0  0
  154.0549  140.5689  159.8842 C   0  0  0  0  0  0  0  0  0  0  0  0
  154.1301  139.8759  158.8714 O   0  0  0  0  0  0  0  0  0  0  0  0
  151.7748  141.7704  158.2653 N   0  0  0  0  0  0  0  0  0  0  0  0
  148.3807  140.3845  154.7096 C   0  0  0  0  0  0  0  0  0  0  0  0
  147.8728  140.5895  153.2939 C   0  0  0  0  0  0  0  0  0  0  0  0
  148.0345  141.7735  154.2087 C   0  0  0  0  0  0  0  0  0  0  0  0
  151.4385  137.1388  154.1678 H   0  0  0  0  0  0  0  0  0  0  0  0
  150.3861  137.3734  155.5562 H   0  0  0  0  0  0  0  0  0  0  0  0
  151.8654  138.3198  155.4010 H   0  0  0  0  0  0  0  0  0  0  0  0
  150.9361  139.3843  153.3048 H   0  0  0  0  0  0  0  0  0  0  0  0
  149.4477  138.5194  153.5060 H   0  0  0  0  0  0  0  0  0  0  0  0
  149.8404  142.7821  155.6658 H   0  0  0  0  0  0  0  0  0  0  0  0
  149.1827  141.8004  156.9558 H   0  0  0  0  0  0  0  0  0  0  0  0
  151.1928  144.7521  156.8340 H   0  0  0  0  0  0  0  0  0  0  0  0
  154.0262  143.2435  161.3664 H   0  0  0  0  0  0  0  0  0  0  0  0
  152.5678  142.3665  161.8615 H   0  0  0  0  0  0  0  0  0  0  0  0
  155.3526  141.6471  162.4362 H   0  0  0  0  0  0  0  0  0  0  0  0
  153.8904  140.7703  162.9357 H   0  0  0  0  0  0  0  0  0  0  0  0
  155.1837  139.4231  161.1926 H   0  0  0  0  0  0  0  0  0  0  0  0
  147.6700  139.9464  155.4081 H   0  0  0  0  0  0  0  0  0  0  0  0
  148.5789  140.5085  152.4698 H   0  0  0  0  0  0  0  0  0  0  0  0
  146.8602  140.2587  153.0726 H   0  0  0  0  0  0  0  0  0  0  0  0
  147.1293  142.2355  154.5975 H   0  0  0  0  0  0  0  0  0  0  0  0
  148.8481  142.4611  153.9850 H   0  0  0  0  0  0  0  0  0  0  0  0
  1  2  1  0  0  0  0
  1 21  1  0  0  0  0
  1 22  1  0  0  0  0
  1 23  1  0  0  0  0
  2  3  1  0  0  0  0
  2 24  1  0  0  0  0
  2 25  1  0  0  0  0
  3  4  1  0  0  0  0
  3 18  1  0  0  0  0
  4  5  2  0  0  0  0
  4  6  1  0  0  0  0
  6  7  1  0  0  0  0
  6 26  1  0  0  0  0
  6 27  1  0  0  0  0
  7 17  1  0  0  0  0
  7  8  2  0  0  0  0
  8  9  1  0  0  0  0
  8 28  1  0  0  0  0
  9 10  1  0  0  0  0
 10 11  1  0  0  0  0
 10 17  2  0  0  0  0
 11 15  1  0  0  0  0
 11 12  1  0  0  0  0
 12 13  1  0  0  0  0
 12 29  1  0  0  0  0
 12 30  1  0  0  0  0
 13 14  1  0  0  0  0
 13 31  1  0  0  0  0
 13 32  1  0  0  0  0
 14 15  1  0  0  0  0
 14 33  1  0  0  0  0
 15 16  2  0  0  0  0
 18 20  1  0  0  0  0
 18 19  1  0  0  0  0
 18 34  1  0  0  0  0
 19 20  1  0  0  0  0
 19 35  1  0  0  0  0
 19 36  1  0  0  0  0
 20 37  1  0  0  0  0
 20 38  1  0  0  0  0
M  END
> <s_m_source_file>
AV-unprocessed.smi

> <i_m_source_file_index>
1062

> <i_lp_mmshare_version>
43012

> <i_f3d_flags>
0

> <s_epik_input>
W0NIMl0xW0NIMl1bQ0hdMU4oW0NIMl1bQ0gzXSlDKD1PKVtDSDJdYzJbY0hdc2MobjIpTjNbQ0gyXVtDSDJdW05IXUMzPU8=

> <s_epik_cmdline>
J2VwaWtfcHl0aG9uJywgJy1waCcsICc3LjAnLCAnLXRuJywgJzgnLCAnLW1hJywgJzIwMCcsICctbWV0YWxfYmluZGluZycsICctaW1hZScsICc8aW5maWxlLm1hZT4nLCAnLW9tYWUnLCAnPG91dGZpbGUubWFlPic=

> <r_lp_tautomer_probability>
1

> <r_epik_Ionization_Penalty>
0.000125669

> <r_epik_Ionization_Penalty_Charging>
0

> <r_epik_Ionization_Penalty_Neutral>
0.000125669

> <r_epik_State_Penalty>
-0

> <r_epik_Charging_Adjusted_Penalty>
0

> <i_epik_Tot_Q>
0

> <i_epik_Tot_abs_Q>
0

> <r_epik_Metal_State_Penalty>
-0

> <b_epik_Metal_Only>
0

> <s_lp_Force_Field>
OPLS_2005

> <r_lp_Energy>
60.5217

> <b_lp_Chiralities_Consistent>
1

> <s_lp_Variant>
AV-unprocessed.smi:1062-1

> <Gold.Version>
5.8.1

> <Gold.Id.Protein>
6NUR|6NUR_protein|mol2

> <Gold.PLP.Fitness>
49.4447

> <Gold.PLP.PLP>
-45.8479

> <Gold.PLP.part.hbond>
-1.0127

> <Gold.PLP.part.metal>
0.0000

> <Gold.PLP.part.buried>
2.1326

> <Gold.PLP.part.nonpolar>
-46.1617

> <Gold.PLP.part.repulsive>
0.0107

> <Gold.PLP.ligand.clash>
0.0000

> <Gold.PLP.ligand.torsion>
1.1890

> <Gold.PLP.Chemscore.Hbond>
1.0000

> <Gold.PLP.Chemscore.CHOScore>
0.8760

> <Gold.PLP.Chemscore.Metal>
0.0000

> <Gold.Chemscore.Hbonds>
donor molecule, donor type, donor heavy atom, donor atom, acceptor molecule, acceptor atom, score
      P1  H  7997  8008       L1    16  1.00
      L1  C     8    28       P1  8028  0.82

> <Gold.PLP.Chemscore.Internal.Correction>
0.3467

> <Gold.Rescore>
     Score         DG    S(hbond)    S(metal)    S(lipo)     H(rot)  DE(clash)    DE(int)     intcor
     11.65     -15.75       0.98        0.00      96.00       1.65       0.03       4.07       ----

> <Gold.Chemscore.Fitness>
11.6468

> <Gold.Chemscore.DG>
-15.7525

> <Gold.Chemscore.ZeroCoef>
-5.4800

> <Gold.Chemscore.Hbond>
0.9755

> <Gold.Chemscore.Metal>
0.0000

> <Gold.Chemscore.Lipo>
96.0048

> <Gold.Chemscore.Internal_Hbond>
0.0000

> <Gold.Chemscore.DEClash>
0.0333

> <Gold.Chemscore.DEInternal>
4.0724

> <Gold.Chemscore.Rot>
1.6477

> <Gold.Chemscore.Internal.Correction>
   9.000000E+99

> <Gold.Chemscore.Hbonds>
donor molecule, donor type, donor heavy atom, donor atom, acceptor molecule, acceptor atom, score
      P1  H  7997  8008       L1    16  0.95

> <Gold.Chemscore.Hbond.Weighted>
-3.2580

> <Gold.Chemscore.Metal.Weighted>
-0.0000

> <Gold.Chemscore.Lipo.Weighted>
-11.2326

> <Gold.Chemscore.Internal_Hbond.Weighted>
0.0000

> <Gold.Chemscore.DEClash.Weighted>
0.0333

> <Gold.Chemscore.DEInternal.Weighted>
4.0724

> <Gold.Chemscore.Rot.Weighted>
4.2181

> <Gold.Chemscore.Internal.Correction.Weighted>
   9.000000E+99

> <Gold.Protein.RotatedTorsions>
[ 6907 6896 6895 6894 ] final   19.79 input  -60.11 | X-H torsion
[ 7974 7965 7964 7962 ] final   81.73 input  175.53 | X-H torsion
[ 8008 7997 7996 7995 ] final -119.12 input   59.86 | X-H torsion
[ 10167 10162 10161 10158 ] final  -20.70 input  -65.29 | X-H torsion
[ 10718 10713 10712 10709 ] final  -57.11 input   66.30 | X-H torsion
[ 10763 10752 10751 10750 ] final   87.18 input  -60.55 | X-H torsion
[ 11005 11000 10999 10996 ] final  115.16 input  -57.11 | X-H torsion

> <Gold.Protein.ActiveResidues>
 VAL166  LYS551  ARG553  GLY616  TRP617  ASP618  TYR619  PRO620  LYS621  CYS622 
 ASP623  PHE694  ASN695  SER759  ASP760  ASP761  ALA762  ILE779  LEU786  VAL792 
 PHE793  MET794  SER795  GLU796  ALA797  LYS798  CYS799  TRP800  GLU811  SER814 

> <Gold.Protein.RotatedAtoms>
  151.8863  135.0434  160.0493 H   0  0  0  0  0  0  0  0  0  0  0  0  # atno 6907 bound_to 6896
  152.2472  133.5180  159.5312 H   0  0  0  0  0  0  0  0  0  0  0  0  # atno 6908 bound_to 6896
  150.7072  134.0926  159.3979 H   0  0  0  0  0  0  0  0  0  0  0  0  # atno 6909 bound_to 6896
  145.6343  139.2411  143.2067 H   0  0  0  0  0  0  0  0  0  0  0  0  # atno 7974 bound_to 7965
  155.1106  140.0397  157.2723 H   0  0  0  0  0  0  0  0  0  0  0  0  # atno 8008 bound_to 7997
  154.6688  140.2607  155.7004 H   0  0  0  0  0  0  0  0  0  0  0  0  # atno 8009 bound_to 7997
  156.2650  140.2802  156.1189 H   0  0  0  0  0  0  0  0  0  0  0  0  # atno 8010 bound_to 7997
  140.7278  143.4698  151.0263 H   0  0  0  0  0  0  0  0  0  0  0  0  # atno 10167 bound_to 10162
  156.1236  130.4164  150.0397 H   0  0  0  0  0  0  0  0  0  0  0  0  # atno 10718 bound_to 10713
  153.1643  135.4553  154.9815 H   0  0  0  0  0  0  0  0  0  0  0  0  # atno 10763 bound_to 10752
  154.7920  135.3224  154.7757 H   0  0  0  0  0  0  0  0  0  0  0  0  # atno 10764 bound_to 10752
  153.8242  135.6944  153.4877 H   0  0  0  0  0  0  0  0  0  0  0  0  # atno 10765 bound_to 10752
  139.9002  134.9579  156.7003 H   0  0  0  0  0  0  0  0  0  0  0  0  # atno 11005 bound_to 11000
  146.1332  140.7158  142.9402 LP  0  0  0  0  0  0  0  0  0  0  0  0  # atno 17320 bound_to 7965
  144.7181  140.4281  143.7028 LP  0  0  0  0  0  0  0  0  0  0  0  0  # atno 17321 bound_to 7965
  139.8389  143.7591  152.3180 LP  0  0  0  0  0  0  0  0  0  0  0  0  # atno 17342 bound_to 10162
  139.7732  144.7469  151.0194 LP  0  0  0  0  0  0  0  0  0  0  0  0  # atno 17343 bound_to 10162
  156.8328  130.9398  151.3636 LP  0  0  0  0  0  0  0  0  0  0  0  0  # atno 17370 bound_to 10713
  157.6418  130.8812  149.9463 LP  0  0  0  0  0  0  0  0  0  0  0  0  # atno 17371 bound_to 10713
  140.7155  133.9186  155.8112 LP  0  0  0  0  0  0  0  0  0  0  0  0  # atno 17394 bound_to 11000
  141.0267  134.0813  157.4060 LP  0  0  0  0  0  0  0  0  0  0  0  0  # atno 17395 bound_to 11000

$$$$
