AV-unprocessed.smi:2195|AV-procd|sdf|8907|dock3
  -GOLD-   2272012123D 1   1.00000     0.00000
 Structure written by MMmdl.
 40 42  0  0  0  0  0  0  0  0  2 V2000
  145.5879  133.5388  162.4990 C   0  0  0  0  0  0  0  0  0  0  0  0
  146.5399  134.5059  161.8258 C   0  0  0  0  0  0  0  0  0  0  0  0
  147.0105  135.6387  162.5185 C   0  0  0  0  0  0  0  0  0  0  0  0
  147.8970  136.5336  161.8889 C   0  0  0  0  0  0  0  0  0  0  0  0
  148.3293  136.3120  160.5652 C   0  0  0  0  0  0  0  0  0  0  0  0
  149.1983  137.2372  160.0273 O   0  0  0  0  0  0  0  0  0  0  0  0
  149.5348  137.1237  158.6509 C   0  0  0  0  0  0  0  0  0  0  0  0
  149.4848  138.5172  158.0064 C   0  0  1  0  0  0  0  0  0  0  0  0
  148.1823  139.0406  158.1769 O   0  0  0  0  0  0  0  0  0  0  0  0
  150.5281  139.4808  158.6069 C   0  0  0  0  0  0  0  0  0  0  0  0
  150.5571  140.7852  157.9295 N   0  0  0  0  0  0  0  0  0  0  0  0
  149.7705  141.2581  156.9251 C   0  0  0  0  0  0  0  0  0  0  0  0
  150.1863  142.5223  156.6363 N   0  3  0  0  0  0  0  0  0  0  0  0
  151.2544  142.8634  157.4688 C   0  0  0  0  0  0  0  0  0  0  0  0
  152.0062  144.0314  157.5528 C   0  0  0  0  0  0  0  0  0  0  0  0
  153.0324  144.0553  158.5202 C   0  0  0  0  0  0  0  0  0  0  0  0
  153.2776  142.9482  159.3582 C   0  0  0  0  0  0  0  0  0  0  0  0
  152.5097  141.7690  159.2636 C   0  0  0  0  0  0  0  0  0  0  0  0
  151.4984  141.7519  158.3034 C   0  0  0  0  0  0  0  0  0  0  0  0
  147.8544  135.1680  159.8751 C   0  0  0  0  0  0  0  0  0  0  0  0
  146.9660  134.2734  160.5032 C   0  0  0  0  0  0  0  0  0  0  0  0
  145.0344  134.0277  163.3014 H   0  0  0  0  0  0  0  0  0  0  0  0
  146.1417  132.7017  162.9244 H   0  0  0  0  0  0  0  0  0  0  0  0
  144.8661  133.1455  161.7825 H   0  0  0  0  0  0  0  0  0  0  0  0
  146.6941  135.8260  163.5343 H   0  0  0  0  0  0  0  0  0  0  0  0
  148.2494  137.4000  162.4288 H   0  0  0  0  0  0  0  0  0  0  0  0
  150.5422  136.7137  158.5589 H   0  0  0  0  0  0  0  0  0  0  0  0
  148.8465  136.4493  158.1383 H   0  0  0  0  0  0  0  0  0  0  0  0
  149.6575  138.4188  156.9337 H   0  0  0  0  0  0  0  0  0  0  0  0
  147.6411  138.7357  157.4643 H   0  0  0  0  0  0  0  0  0  0  0  0
  150.3631  139.6313  159.6740 H   0  0  0  0  0  0  0  0  0  0  0  0
  151.5266  139.0525  158.5127 H   0  0  0  0  0  0  0  0  0  0  0  0
  148.9623  140.7262  156.4439 H   0  0  0  0  0  0  0  0  0  0  0  0
  151.8191  144.8819  156.9138 H   0  0  0  0  0  0  0  0  0  0  0  0
  153.6428  144.9408  158.6227 H   0  0  0  0  0  0  0  0  0  0  0  0
  154.0702  143.0045  160.0902 H   0  0  0  0  0  0  0  0  0  0  0  0
  152.7022  140.9293  159.9147 H   0  0  0  0  0  0  0  0  0  0  0  0
  148.1570  134.9522  158.8618 H   0  0  0  0  0  0  0  0  0  0  0  0
  146.6130  133.4063  159.9646 H   0  0  0  0  0  0  0  0  0  0  0  0
  149.7695  143.1074  155.9235 H   0  0  0  0  0  0  0  0  0  0  0  0
  1  2  1  0  0  0  0
  1 22  1  0  0  0  0
  1 23  1  0  0  0  0
  1 24  1  0  0  0  0
  2 21  1  0  0  0  0
  2  3  2  0  0  0  0
  3  4  1  0  0  0  0
  3 25  1  0  0  0  0
  4  5  2  0  0  0  0
  4 26  1  0  0  0  0
  5  6  1  0  0  0  0
  5 20  1  0  0  0  0
  6  7  1  0  0  0  0
  7  8  1  0  0  0  0
  7 27  1  0  0  0  0
  7 28  1  0  0  0  0
  8  9  1  0  0  0  0
  8 10  1  0  0  0  0
  8 29  1  0  0  0  0
  9 30  1  0  0  0  0
 10 11  1  0  0  0  0
 10 31  1  0  0  0  0
 10 32  1  0  0  0  0
 11 19  1  0  0  0  0
 11 12  1  0  0  0  0
 12 13  2  0  0  0  0
 12 33  1  0  0  0  0
 13 14  1  0  0  0  0
 13 40  1  0  0  0  0
 14 19  2  0  0  0  0
 14 15  1  0  0  0  0
 15 16  2  0  0  0  0
 15 34  1  0  0  0  0
 16 17  1  0  0  0  0
 16 35  1  0  0  0  0
 17 18  2  0  0  0  0
 17 36  1  0  0  0  0
 18 19  1  0  0  0  0
 18 37  1  0  0  0  0
 20 21  2  0  0  0  0
 20 38  1  0  0  0  0
 21 39  1  0  0  0  0
M  CHG  1  13   1
M  END
> <s_m_source_file>
AV-unprocessed.smi

> <i_m_source_file_index>
2195

> <i_lp_mmshare_version>
43012

> <i_f3d_flags>
0

> <s_epik_input>
W0NIM11jMVtjSF1bY0hdYyhbY0hdW2NIXTEpT1tDSDJdW0NASF0oW09IXSlbQ0gyXW4oW2NIXW4yKWMoYzIzKVtjSF1bY0hdW2NIXVtjSF0z

> <s_epik_cmdline>
J2VwaWtfcHl0aG9uJywgJy1waCcsICc3LjAnLCAnLXRuJywgJzgnLCAnLW1hJywgJzIwMCcsICctbWV0YWxfYmluZGluZycsICctaW1hZScsICc8aW5maWxlLm1hZT4nLCAnLW9tYWUnLCAnPG91dGZpbGUubWFlPic=

> <r_lp_tautomer_probability>
1

> <r_epik_Ionization_Penalty>
1.3774

> <r_epik_Ionization_Penalty_Charging>
1.37739

> <r_epik_Ionization_Penalty_Neutral>
2.3993e-06

> <r_epik_State_Penalty>
1.45762

> <r_epik_Charging_Adjusted_Penalty>
2.83501

> <i_epik_Tot_Q>
1

> <i_epik_Tot_abs_Q>
1

> <r_epik_Metal_State_Penalty>
5.49752

> <b_epik_Metal_Only>
0

> <s_lp_Force_Field>
OPLS_2005

> <r_lp_Energy>
19.9339

> <b_lp_Chiralities_Consistent>
1

> <s_lp_Variant>
AV-unprocessed.smi:2195-4

> <Gold.Version>
5.8.1

> <Gold.Id.Protein>
6NUR|6NUR_protein|mol2

> <Gold.PLP.Fitness>
53.2301

> <Gold.PLP.PLP>
-47.4719

> <Gold.PLP.part.hbond>
-3.0000

> <Gold.PLP.part.metal>
0.0000

> <Gold.PLP.part.buried>
-4.9985

> <Gold.PLP.part.nonpolar>
-40.5988

> <Gold.PLP.part.repulsive>
0.0329

> <Gold.PLP.ligand.clash>
0.0000

> <Gold.PLP.ligand.torsion>
0.3849

> <Gold.PLP.Chemscore.Hbond>
2.1516

> <Gold.PLP.Chemscore.CHOScore>
0.0000

> <Gold.PLP.Chemscore.Metal>
0.0000

> <Gold.Chemscore.Hbonds>
donor molecule, donor type, donor heavy atom, donor atom, acceptor molecule, acceptor atom, score
      L1  H    13    40       P1  8028  1.73
      P1  H  6931  6943       L1     6  0.12

> <Gold.PLP.Chemscore.Internal.Correction>
0.0731

> <Gold.Rescore>
     Score         DG    S(hbond)    S(metal)    S(lipo)     H(rot)  DE(clash)    DE(int)     intcor
     17.27     -18.04       0.97        0.00     129.39       2.27       0.11       0.66       ----

> <Gold.Chemscore.Fitness>
17.2704

> <Gold.Chemscore.DG>
-18.0410

> <Gold.Chemscore.ZeroCoef>
-5.4800

> <Gold.Chemscore.Hbond>
0.9698

> <Gold.Chemscore.Metal>
0.0000

> <Gold.Chemscore.Lipo>
129.3909

> <Gold.Chemscore.Internal_Hbond>
0.0000

> <Gold.Chemscore.DEClash>
0.1075

> <Gold.Chemscore.DEInternal>
0.6631

> <Gold.Chemscore.Rot>
2.2723

> <Gold.Chemscore.Internal.Correction>
   9.000000E+99

> <Gold.Chemscore.Hbonds>
donor molecule, donor type, donor heavy atom, donor atom, acceptor molecule, acceptor atom, score
      L1  H    13    40       P1  8028  0.85

> <Gold.Chemscore.Hbond.Weighted>
-3.2393

> <Gold.Chemscore.Metal.Weighted>
-0.0000

> <Gold.Chemscore.Lipo.Weighted>
-15.1387

> <Gold.Chemscore.Internal_Hbond.Weighted>
0.0000

> <Gold.Chemscore.DEClash.Weighted>
0.1075

> <Gold.Chemscore.DEInternal.Weighted>
0.6631

> <Gold.Chemscore.Rot.Weighted>
5.8170

> <Gold.Chemscore.Internal.Correction.Weighted>
   9.000000E+99

> <Gold.Protein.RotatedTorsions>
[ 6907 6896 6895 6894 ] final  -22.53 input  -60.11 | X-H torsion
[ 7974 7965 7964 7962 ] final  120.15 input  175.53 | X-H torsion
[ 8008 7997 7996 7995 ] final   86.21 input   59.86 | X-H torsion
[ 10167 10162 10161 10158 ] final   34.13 input  -65.29 | X-H torsion
[ 10718 10713 10712 10709 ] final  -35.46 input   66.30 | X-H torsion
[ 10763 10752 10751 10750 ] final -123.59 input  -60.55 | X-H torsion
[ 11005 11000 10999 10996 ] final   91.10 input  -57.11 | X-H torsion

> <Gold.Protein.ActiveResidues>
 VAL166  LYS551  ARG553  GLY616  TRP617  ASP618  TYR619  PRO620  LYS621  CYS622 
 ASP623  PHE694  ASN695  SER759  ASP760  ASP761  ALA762  ILE779  LEU786  VAL792 
 PHE793  MET794  SER795  GLU796  ALA797  LYS798  CYS799  TRP800  GLU811  SER814 

> <Gold.Protein.RotatedAtoms>
  151.2173  135.0504  159.8935 H   0  0  0  0  0  0  0  0  0  0  0  0  # atno 6907 bound_to 6896
  152.5419  134.0679  159.8191 H   0  0  0  0  0  0  0  0  0  0  0  0  # atno 6908 bound_to 6896
  151.0841  133.5319  159.2650 H   0  0  0  0  0  0  0  0  0  0  0  0  # atno 6909 bound_to 6896
  145.1346  139.3306  143.4647 H   0  0  0  0  0  0  0  0  0  0  0  0  # atno 7974 bound_to 7965
  155.9599  140.3394  155.6481 H   0  0  0  0  0  0  0  0  0  0  0  0  # atno 8008 bound_to 7997
  155.6812  140.0738  157.2502 H   0  0  0  0  0  0  0  0  0  0  0  0  # atno 8009 bound_to 7997
  154.4141  140.1674  156.1971 H   0  0  0  0  0  0  0  0  0  0  0  0  # atno 8010 bound_to 7997
  140.4343  144.1279  150.6164 H   0  0  0  0  0  0  0  0  0  0  0  0  # atno 10167 bound_to 10162
  156.3384  130.4290  149.7809 H   0  0  0  0  0  0  0  0  0  0  0  0  # atno 10718 bound_to 10713
  154.8710  135.4093  154.2967 H   0  0  0  0  0  0  0  0  0  0  0  0  # atno 10763 bound_to 10752
  153.3834  135.7012  153.6554 H   0  0  0  0  0  0  0  0  0  0  0  0  # atno 10764 bound_to 10752
  153.5367  135.3656  155.2671 H   0  0  0  0  0  0  0  0  0  0  0  0  # atno 10765 bound_to 10752
  139.8844  134.8654  156.3380 H   0  0  0  0  0  0  0  0  0  0  0  0  # atno 11005 bound_to 11000
  146.3511  140.1358  142.8596 LP  0  0  0  0  0  0  0  0  0  0  0  0  # atno 17320 bound_to 7965
  145.0599  140.9080  143.4945 LP  0  0  0  0  0  0  0  0  0  0  0  0  # atno 17321 bound_to 7965
  140.4391  143.2534  151.9496 LP  0  0  0  0  0  0  0  0  0  0  0  0  # atno 17342 bound_to 10162
  139.4786  144.5671  151.8147 LP  0  0  0  0  0  0  0  0  0  0  0  0  # atno 17343 bound_to 10162
  156.5055  130.8148  151.3149 LP  0  0  0  0  0  0  0  0  0  0  0  0  # atno 17370 bound_to 10713
  157.7442  130.9931  150.2659 LP  0  0  0  0  0  0  0  0  0  0  0  0  # atno 17371 bound_to 10713
  140.9678  133.7347  156.0491 LP  0  0  0  0  0  0  0  0  0  0  0  0  # atno 17394 bound_to 11000
  140.7909  134.3619  157.5465 LP  0  0  0  0  0  0  0  0  0  0  0  0  # atno 17395 bound_to 11000

$$$$
