AV-unprocessed.smi:2704|AV-procd|sdf|10442|dock5
  -GOLD-   2272014483D 1   1.00000     0.00000
 Structure written by MMmdl.
 43 44  0  0  0  0  0  0  0  0  1 V2000
  155.4388  129.5913  154.5641 C   0  0  0  0  0  0  0  0  0  0  0  0
  154.2803  128.8227  155.2170 C   0  0  0  0  0  0  0  0  0  0  0  0
  154.1021  127.4099  154.6430 C   0  0  0  0  0  0  0  0  0  0  0  0
  153.0044  129.6078  155.1786 C   0  0  0  0  0  0  0  0  0  0  0  0
  152.8592  130.7184  155.8923 N   0  0  0  0  0  0  0  0  0  0  0  0
  151.5653  131.1486  155.5664 O   0  0  0  0  0  0  0  0  0  0  0  0
  151.0887  130.2455  154.6769 C   0  0  0  0  0  0  0  0  0  0  0  0
  149.6947  130.4093  154.1626 C   0  0  0  0  0  0  0  0  0  0  0  0
  149.2447  131.8746  154.0130 C   0  0  0  0  0  0  0  0  0  0  0  0
  148.3285  132.0696  152.8926 N   0  0  0  0  0  0  0  0  0  0  0  0
  147.1783  132.7656  152.9278 C   0  0  0  0  0  0  0  0  0  0  0  0
  146.7780  133.3245  153.9498 O   0  0  0  0  0  0  0  0  0  0  0  0
  146.3353  132.8441  151.6339 C   0  0  0  0  0  0  0  0  0  0  0  0
  147.1516  132.6054  150.4957 O   0  0  0  0  0  0  0  0  0  0  0  0
  145.2271  131.7628  151.6701 C   0  0  0  0  0  0  0  0  0  0  0  0
  144.2366  131.8780  150.4974 C   0  0  0  0  0  0  0  0  0  0  0  0
  143.6252  133.2838  150.4189 C   0  0  0  0  0  0  0  0  0  0  0  0
  144.7200  134.3554  150.3177 C   0  0  0  0  0  0  0  0  0  0  0  0
  145.7107  134.2556  151.4920 C   0  0  0  0  0  0  0  0  0  0  0  0
  151.9358  129.2540  154.4100 N   0  0  0  0  0  0  0  0  0  0  0  0
  155.5892  130.5573  155.0473 H   0  0  0  0  0  0  0  0  0  0  0  0
  155.2492  129.7737  153.5058 H   0  0  0  0  0  0  0  0  0  0  0  0
  156.3727  129.0343  154.6425 H   0  0  0  0  0  0  0  0  0  0  0  0
  154.5500  128.6944  156.2667 H   0  0  0  0  0  0  0  0  0  0  0  0
  153.3216  126.8661  155.1758 H   0  0  0  0  0  0  0  0  0  0  0  0
  155.0229  126.8325  154.7286 H   0  0  0  0  0  0  0  0  0  0  0  0
  153.8291  127.4423  153.5881 H   0  0  0  0  0  0  0  0  0  0  0  0
  149.6257  129.9069  153.1973 H   0  0  0  0  0  0  0  0  0  0  0  0
  149.0144  129.8814  154.8319 H   0  0  0  0  0  0  0  0  0  0  0  0
  148.7973  132.2271  154.9437 H   0  0  0  0  0  0  0  0  0  0  0  0
  150.1183  132.5035  153.8409 H   0  0  0  0  0  0  0  0  0  0  0  0
  148.5817  131.6390  152.0147 H   0  0  0  0  0  0  0  0  0  0  0  0
  147.7537  131.9074  150.7038 H   0  0  0  0  0  0  0  0  0  0  0  0
  145.6754  130.7685  151.6723 H   0  0  0  0  0  0  0  0  0  0  0  0
  144.6629  131.8419  152.6007 H   0  0  0  0  0  0  0  0  0  0  0  0
  144.7420  131.6447  149.5594 H   0  0  0  0  0  0  0  0  0  0  0  0
  143.4450  131.1367  150.6103 H   0  0  0  0  0  0  0  0  0  0  0  0
  142.9570  133.3519  149.5599 H   0  0  0  0  0  0  0  0  0  0  0  0
  143.0134  133.4674  151.3031 H   0  0  0  0  0  0  0  0  0  0  0  0
  145.2525  134.2477  149.3722 H   0  0  0  0  0  0  0  0  0  0  0  0
  144.2666  135.3469  150.3013 H   0  0  0  0  0  0  0  0  0  0  0  0
  145.1791  134.5216  152.4074 H   0  0  0  0  0  0  0  0  0  0  0  0
  146.4949  135.0047  151.3722 H   0  0  0  0  0  0  0  0  0  0  0  0
  1  2  1  0  0  0  0
  1 21  1  0  0  0  0
  1 22  1  0  0  0  0
  1 23  1  0  0  0  0
  2  3  1  0  0  0  0
  2  4  1  0  0  0  0
  2 24  1  0  0  0  0
  3 25  1  0  0  0  0
  3 26  1  0  0  0  0
  3 27  1  0  0  0  0
  4 20  1  0  0  0  0
  4  5  2  0  0  0  0
  5  6  1  0  0  0  0
  6  7  1  0  0  0  0
  7  8  1  0  0  0  0
  7 20  2  0  0  0  0
  8  9  1  0  0  0  0
  8 28  1  0  0  0  0
  8 29  1  0  0  0  0
  9 10  1  0  0  0  0
  9 30  1  0  0  0  0
  9 31  1  0  0  0  0
 10 11  1  0  0  0  0
 10 32  1  0  0  0  0
 11 12  2  0  0  0  0
 11 13  1  0  0  0  0
 13 19  1  0  0  0  0
 13 14  1  0  0  0  0
 13 15  1  0  0  0  0
 14 33  1  0  0  0  0
 15 16  1  0  0  0  0
 15 34  1  0  0  0  0
 15 35  1  0  0  0  0
 16 17  1  0  0  0  0
 16 36  1  0  0  0  0
 16 37  1  0  0  0  0
 17 18  1  0  0  0  0
 17 38  1  0  0  0  0
 17 39  1  0  0  0  0
 18 19  1  0  0  0  0
 18 40  1  0  0  0  0
 18 41  1  0  0  0  0
 19 42  1  0  0  0  0
 19 43  1  0  0  0  0
M  END
> <s_m_source_file>
AV-unprocessed.smi

> <i_m_source_file_index>
2704

> <i_lp_mmshare_version>
43012

> <i_f3d_flags>
0

> <s_epik_input>
W0NIM11bQ0hdKFtDSDNdKWMxbm9jKG4xKVtDSDJdW0NIMl1bTkhdQyg9TylDMihbT0hdKVtDSDJdW0NIMl1bQ0gyXVtDSDJdW0NIMl0y

> <s_epik_cmdline>
J2VwaWtfcHl0aG9uJywgJy1waCcsICc3LjAnLCAnLXRuJywgJzgnLCAnLW1hJywgJzIwMCcsICctbWV0YWxfYmluZGluZycsICctaW1hZScsICc8aW5maWxlLm1hZT4nLCAnLW9tYWUnLCAnPG91dGZpbGUubWFlPic=

> <r_lp_tautomer_probability>
1

> <r_epik_Ionization_Penalty>
7.72761e-08

> <r_epik_Ionization_Penalty_Charging>
0

> <r_epik_Ionization_Penalty_Neutral>
7.72761e-08

> <r_epik_State_Penalty>
-0

> <r_epik_Charging_Adjusted_Penalty>
0

> <i_epik_Tot_Q>
0

> <i_epik_Tot_abs_Q>
0

> <r_epik_Metal_State_Penalty>
-0

> <b_epik_Metal_Only>
0

> <s_lp_Force_Field>
OPLS_2005

> <r_lp_Energy>
5.6077

> <b_lp_Chiralities_Consistent>
1

> <s_lp_Variant>
AV-unprocessed.smi:2704-1

> <Gold.Version>
5.8.1

> <Gold.Id.Protein>
6NUR|6NUR_protein|mol2

> <Gold.PLP.Fitness>
36.6778

> <Gold.PLP.PLP>
-34.3685

> <Gold.PLP.part.hbond>
-2.0000

> <Gold.PLP.part.metal>
0.0000

> <Gold.PLP.part.buried>
-4.5230

> <Gold.PLP.part.nonpolar>
-28.0048

> <Gold.PLP.part.repulsive>
0.4583

> <Gold.PLP.ligand.clash>
0.0000

> <Gold.PLP.ligand.torsion>
1.8979

> <Gold.PLP.Chemscore.Hbond>
2.0000

> <Gold.PLP.Chemscore.CHOScore>
0.0000

> <Gold.PLP.Chemscore.Metal>
0.0000

> <Gold.Chemscore.Hbonds>
donor molecule, donor type, donor heavy atom, donor atom, acceptor molecule, acceptor atom, score
      L1  H    10    32       P1 10747  1.00
      L1  H    14    33       P1 10747  1.00

> <Gold.PLP.Chemscore.Internal.Correction>
0.1052

> <Gold.Rescore>
     Score         DG    S(hbond)    S(metal)    S(lipo)     H(rot)  DE(clash)    DE(int)     intcor
     12.36     -14.13       1.97        0.00      72.48       2.50       0.04       1.73       ----

> <Gold.Chemscore.Fitness>
12.3605

> <Gold.Chemscore.DG>
-14.1292

> <Gold.Chemscore.ZeroCoef>
-5.4800

> <Gold.Chemscore.Hbond>
1.9668

> <Gold.Chemscore.Metal>
0.0000

> <Gold.Chemscore.Lipo>
72.4810

> <Gold.Chemscore.Internal_Hbond>
0.0000

> <Gold.Chemscore.DEClash>
0.0396

> <Gold.Chemscore.DEInternal>
1.7291

> <Gold.Chemscore.Rot>
2.5001

> <Gold.Chemscore.Internal.Correction>
   9.000000E+99

> <Gold.Chemscore.Hbonds>
donor molecule, donor type, donor heavy atom, donor atom, acceptor molecule, acceptor atom, score
      L1  H    10    32       P1 10747  0.98
      L1  H    14    33       P1 10747  0.94

> <Gold.Chemscore.Hbond.Weighted>
-6.5691

> <Gold.Chemscore.Metal.Weighted>
-0.0000

> <Gold.Chemscore.Lipo.Weighted>
-8.4803

> <Gold.Chemscore.Internal_Hbond.Weighted>
0.0000

> <Gold.Chemscore.DEClash.Weighted>
0.0396

> <Gold.Chemscore.DEInternal.Weighted>
1.7291

> <Gold.Chemscore.Rot.Weighted>
6.4002

> <Gold.Chemscore.Internal.Correction.Weighted>
   9.000000E+99

> <Gold.Protein.RotatedTorsions>
[ 6907 6896 6895 6894 ] final   93.50 input  -60.11 | X-H torsion
[ 7974 7965 7964 7962 ] final   -5.38 input  175.53 | X-H torsion
[ 8008 7997 7996 7995 ] final -133.00 input   59.86 | X-H torsion
[ 10167 10162 10161 10158 ] final  105.08 input  -65.29 | X-H torsion
[ 10718 10713 10712 10709 ] final   89.67 input   66.30 | X-H torsion
[ 10763 10752 10751 10750 ] final  157.96 input  -60.55 | X-H torsion
[ 11005 11000 10999 10996 ] final -155.83 input  -57.11 | X-H torsion

> <Gold.Protein.ActiveResidues>
 VAL166  LYS551  ARG553  GLY616  TRP617  ASP618  TYR619  PRO620  LYS621  CYS622 
 ASP623  PHE694  ASN695  SER759  ASP760  ASP761  ALA762  ILE779  LEU786  VAL792 
 PHE793  MET794  SER795  GLU796  ALA797  LYS798  CYS799  TRP800  GLU811  SER814 

> <Gold.Protein.RotatedAtoms>
  152.5452  134.1338  159.8449 H   0  0  0  0  0  0  0  0  0  0  0  0  # atno 6907 bound_to 6896
  151.1381  133.4983  159.2605 H   0  0  0  0  0  0  0  0  0  0  0  0  # atno 6908 bound_to 6896
  151.1603  135.0280  159.8762 H   0  0  0  0  0  0  0  0  0  0  0  0  # atno 6909 bound_to 6896
  146.2354  140.2013  142.8334 H   0  0  0  0  0  0  0  0  0  0  0  0  # atno 7974 bound_to 7965
  155.3383  140.0470  157.3044 H   0  0  0  0  0  0  0  0  0  0  0  0  # atno 8008 bound_to 7997
  154.5291  140.2251  155.8801 H   0  0  0  0  0  0  0  0  0  0  0  0  # atno 8009 bound_to 7997
  156.1770  140.3083  155.9084 H   0  0  0  0  0  0  0  0  0  0  0  0  # atno 8010 bound_to 7997
  139.7123  144.7075  151.1007 H   0  0  0  0  0  0  0  0  0  0  0  0  # atno 10167 bound_to 10162
  157.6956  131.0342  150.3461 H   0  0  0  0  0  0  0  0  0  0  0  0  # atno 10718 bound_to 10713
  154.2084  135.2787  155.2967 H   0  0  0  0  0  0  0  0  0  0  0  0  # atno 10763 bound_to 10752
  154.5798  135.5593  153.7177 H   0  0  0  0  0  0  0  0  0  0  0  0  # atno 10764 bound_to 10752
  153.0070  135.6342  154.2223 H   0  0  0  0  0  0  0  0  0  0  0  0  # atno 10765 bound_to 10752
  140.6822  134.4132  157.5226 H   0  0  0  0  0  0  0  0  0  0  0  0  # atno 11005 bound_to 11000
  144.9780  140.8432  143.5415 LP  0  0  0  0  0  0  0  0  0  0  0  0  # atno 17320 bound_to 7965
  145.2002  139.2256  143.5197 LP  0  0  0  0  0  0  0  0  0  0  0  0  # atno 17321 bound_to 7965
  140.7736  143.5277  150.9461 LP  0  0  0  0  0  0  0  0  0  0  0  0  # atno 17342 bound_to 10162
  139.8962  143.6892  152.3138 LP  0  0  0  0  0  0  0  0  0  0  0  0  # atno 17343 bound_to 10162
  156.3916  130.3899  149.7026 LP  0  0  0  0  0  0  0  0  0  0  0  0  # atno 17370 bound_to 10713
  156.4374  130.7844  151.2865 LP  0  0  0  0  0  0  0  0  0  0  0  0  # atno 17371 bound_to 10713
  139.8948  134.8697  156.2159 LP  0  0  0  0  0  0  0  0  0  0  0  0  # atno 17394 bound_to 11000
  141.0308  133.6989  156.1427 LP  0  0  0  0  0  0  0  0  0  0  0  0  # atno 17395 bound_to 11000

$$$$
