AV-unprocessed.smi:3112|AV-procd|sdf|11844|dock10
  -GOLD-   2272017223D 1   1.00000     0.00000
 Structure written by MMmdl.
 36 36  0  0  0  0  0  0  0  0  1 V2000
  151.8691  144.3908  160.2585 C   0  0  0  0  0  0  0  0  0  0  0  0
  152.5715  144.0188  158.9454 C   0  0  0  0  0  0  0  0  0  0  0  0
  151.6066  143.8987  157.7489 C   0  0  2  0  0  0  0  0  0  0  0  0
  150.6465  144.9313  157.8397 O   0  0  0  0  0  0  0  0  0  0  0  0
  150.8460  142.5622  157.7202 C   0  0  0  0  0  0  0  0  0  0  0  0
  150.7519  142.0314  156.3591 N   0  0  0  0  0  0  0  0  0  0  0  0
  149.4654  141.4131  156.0238 C   0  0  2  0  0  0  0  0  0  0  0  0
  149.1021  140.4244  157.1479 C   0  0  0  0  0  0  0  0  0  0  0  0
  149.4978  140.7299  154.6234 C   0  0  2  0  0  0  0  0  0  0  0  0
  148.1469  140.1485  154.1662 C   0  0  0  0  0  0  0  0  0  0  0  0
  150.5228  139.6953  154.5503 N   0  0  0  0  0  0  0  0  0  0  0  0
  150.4105  138.4172  154.0425 C   0  0  0  0  0  0  0  0  0  0  0  0
  151.6269  137.8132  154.1821 C   0  0  0  0  0  0  0  0  0  0  0  0
  152.4319  138.8128  154.7958 C   0  0  0  0  0  0  0  0  0  0  0  0
  151.7702  139.9372  155.0147 N   0  0  0  0  0  0  0  0  0  0  0  0
  152.5916  144.4922  161.0685 H   0  0  0  0  0  0  0  0  0  0  0  0
  151.1468  143.6301  160.5552 H   0  0  0  0  0  0  0  0  0  0  0  0
  151.3394  145.3395  160.1662 H   0  0  0  0  0  0  0  0  0  0  0  0
  153.3190  144.7843  158.7352 H   0  0  0  0  0  0  0  0  0  0  0  0
  153.1231  143.0868  159.0751 H   0  0  0  0  0  0  0  0  0  0  0  0
  152.1518  144.0263  156.8127 H   0  0  0  0  0  0  0  0  0  0  0  0
  150.2485  145.0459  156.9902 H   0  0  0  0  0  0  0  0  0  0  0  0
  151.3472  141.8417  158.3681 H   0  0  0  0  0  0  0  0  0  0  0  0
  149.8535  142.7070  158.1424 H   0  0  0  0  0  0  0  0  0  0  0  0
  151.4942  141.3529  156.2219 H   0  0  0  0  0  0  0  0  0  0  0  0
  148.6874  142.1782  156.0207 H   0  0  0  0  0  0  0  0  0  0  0  0
  148.0965  140.0215  157.0268 H   0  0  0  0  0  0  0  0  0  0  0  0
  149.1295  140.9130  158.1225 H   0  0  0  0  0  0  0  0  0  0  0  0
  149.7970  139.5844  157.1780 H   0  0  0  0  0  0  0  0  0  0  0  0
  149.7806  141.4902  153.8933 H   0  0  0  0  0  0  0  0  0  0  0  0
  147.4254  140.9377  153.9574 H   0  0  0  0  0  0  0  0  0  0  0  0
  147.7200  139.4843  154.9182 H   0  0  0  0  0  0  0  0  0  0  0  0
  148.2590  139.5771  153.2442 H   0  0  0  0  0  0  0  0  0  0  0  0
  149.4845  138.0483  153.6268 H   0  0  0  0  0  0  0  0  0  0  0  0
  151.9005  136.8100  153.8907 H   0  0  0  0  0  0  0  0  0  0  0  0
  153.4705  138.7555  155.0867 H   0  0  0  0  0  0  0  0  0  0  0  0
  1  2  1  0  0  0  0
  1 16  1  0  0  0  0
  1 17  1  0  0  0  0
  1 18  1  0  0  0  0
  2  3  1  0  0  0  0
  2 19  1  0  0  0  0
  2 20  1  0  0  0  0
  3  4  1  0  0  0  0
  3  5  1  0  0  0  0
  3 21  1  0  0  0  0
  4 22  1  0  0  0  0
  5  6  1  0  0  0  0
  5 23  1  0  0  0  0
  5 24  1  0  0  0  0
  6  7  1  0  0  0  0
  6 25  1  0  0  0  0
  7  8  1  0  0  0  0
  7  9  1  0  0  0  0
  7 26  1  0  0  0  0
  8 27  1  0  0  0  0
  8 28  1  0  0  0  0
  8 29  1  0  0  0  0
  9 10  1  0  0  0  0
  9 11  1  0  0  0  0
  9 30  1  0  0  0  0
 10 31  1  0  0  0  0
 10 32  1  0  0  0  0
 10 33  1  0  0  0  0
 11 15  1  0  0  0  0
 11 12  1  0  0  0  0
 12 13  2  0  0  0  0
 12 34  1  0  0  0  0
 13 14  1  0  0  0  0
 13 35  1  0  0  0  0
 14 15  2  0  0  0  0
 14 36  1  0  0  0  0
M  END
> <s_m_source_file>
AV-unprocessed.smi

> <i_m_source_file_index>
3112

> <i_lp_mmshare_version>
43012

> <i_f3d_flags>
0

> <s_epik_input>
W0NIM11bQ0gyXVtDQEhdKFtPSF0pW0NIMl1bTkhdW0NASF0oW0NIM10pW0NASF0oW0NIM10pbjFbY0hdW2NIXVtjSF1uMQ==

> <s_epik_cmdline>
J2VwaWtfcHl0aG9uJywgJy1waCcsICc3LjAnLCAnLXRuJywgJzgnLCAnLW1hJywgJzIwMCcsICctbWV0YWxfYmluZGluZycsICctaW1hZScsICc8aW5maWxlLm1hZT4nLCAnLW9tYWUnLCAnPG91dGZpbGUubWFlPic=

> <r_lp_tautomer_probability>
1

> <r_epik_Ionization_Penalty>
2.16876

> <r_epik_Ionization_Penalty_Charging>
0

> <r_epik_Ionization_Penalty_Neutral>
2.16876

> <r_epik_State_Penalty>
2.30854

> <r_epik_Charging_Adjusted_Penalty>
2.30854

> <i_epik_Tot_Q>
0

> <i_epik_Tot_abs_Q>
0

> <r_epik_Metal_State_Penalty>
2.3073

> <b_epik_Metal_Only>
0

> <s_lp_Force_Field>
OPLS_2005

> <r_lp_Energy>
16.1769

> <b_lp_Chiralities_Consistent>
1

> <s_lp_Variant>
AV-unprocessed.smi:3112-9

> <Gold.Version>
5.8.1

> <Gold.Id.Protein>
6NUR|6NUR_protein|mol2

> <Gold.PLP.Fitness>
39.8084

> <Gold.PLP.PLP>
-36.4489

> <Gold.PLP.part.hbond>
-2.9948

> <Gold.PLP.part.metal>
0.0000

> <Gold.PLP.part.buried>
-1.9096

> <Gold.PLP.part.nonpolar>
-32.3994

> <Gold.PLP.part.repulsive>
0.0361

> <Gold.PLP.ligand.clash>
0.0000

> <Gold.PLP.ligand.torsion>
1.2884

> <Gold.PLP.Chemscore.Hbond>
1.0000

> <Gold.PLP.Chemscore.CHOScore>
0.9290

> <Gold.PLP.Chemscore.Metal>
0.0000

> <Gold.Chemscore.Hbonds>
donor molecule, donor type, donor heavy atom, donor atom, acceptor molecule, acceptor atom, score
      L1  H     4    22       P1  8028  0.95
      L1  C    12    34       P1  7948  0.93

> <Gold.PLP.Chemscore.Internal.Correction>
0.1493

> <Gold.Rescore>
     Score         DG    S(hbond)    S(metal)    S(lipo)     H(rot)  DE(clash)    DE(int)     intcor
      9.77     -12.58       0.59        0.00      94.29       2.31       0.38       2.42       ----

> <Gold.Chemscore.Fitness>
9.7746

> <Gold.Chemscore.DG>
-12.5757

> <Gold.Chemscore.ZeroCoef>
-5.4800

> <Gold.Chemscore.Hbond>
0.5926

> <Gold.Chemscore.Metal>
0.0000

> <Gold.Chemscore.Lipo>
94.2920

> <Gold.Chemscore.Internal_Hbond>
0.0000

> <Gold.Chemscore.DEClash>
0.3801

> <Gold.Chemscore.DEInternal>
2.4210

> <Gold.Chemscore.Rot>
2.3108

> <Gold.Chemscore.Internal.Correction>
   9.000000E+99

> <Gold.Chemscore.Hbonds>
donor molecule, donor type, donor heavy atom, donor atom, acceptor molecule, acceptor atom, score
      L1  H     4    22       P1  8028  0.21

> <Gold.Chemscore.Hbond.Weighted>
-1.9792

> <Gold.Chemscore.Metal.Weighted>
-0.0000

> <Gold.Chemscore.Lipo.Weighted>
-11.0322

> <Gold.Chemscore.Internal_Hbond.Weighted>
0.0000

> <Gold.Chemscore.DEClash.Weighted>
0.3801

> <Gold.Chemscore.DEInternal.Weighted>
2.4210

> <Gold.Chemscore.Rot.Weighted>
5.9157

> <Gold.Chemscore.Internal.Correction.Weighted>
   9.000000E+99

> <Gold.Protein.RotatedTorsions>
[ 6907 6896 6895 6894 ] final   22.17 input  -60.11 | X-H torsion
[ 7974 7965 7964 7962 ] final -133.00 input  175.53 | X-H torsion
[ 8008 7997 7996 7995 ] final  -28.93 input   59.86 | X-H torsion
[ 10167 10162 10161 10158 ] final  -45.66 input  -65.29 | X-H torsion
[ 10718 10713 10712 10709 ] final  120.04 input   66.30 | X-H torsion
[ 10763 10752 10751 10750 ] final  127.15 input  -60.55 | X-H torsion
[ 11005 11000 10999 10996 ] final  -33.42 input  -57.11 | X-H torsion

> <Gold.Protein.ActiveResidues>
 VAL166  LYS551  ARG553  GLY616  TRP617  ASP618  TYR619  PRO620  LYS621  CYS622 
 ASP623  PHE694  ASN695  SER759  ASP760  ASP761  ALA762  ILE779  LEU786  VAL792 
 PHE793  MET794  SER795  GLU796  ALA797  LYS798  CYS799  TRP800  GLU811  SER814 

> <Gold.Protein.RotatedAtoms>
  151.9231  135.0290  160.0523 H   0  0  0  0  0  0  0  0  0  0  0  0  # atno 6907 bound_to 6896
  152.2183  133.4959  159.5156 H   0  0  0  0  0  0  0  0  0  0  0  0  # atno 6908 bound_to 6896
  150.6993  134.1293  159.4106 H   0  0  0  0  0  0  0  0  0  0  0  0  # atno 6909 bound_to 6896
  144.9234  140.7041  143.4951 H   0  0  0  0  0  0  0  0  0  0  0  0  # atno 7974 bound_to 7965
  154.4311  140.1832  156.1167 H   0  0  0  0  0  0  0  0  0  0  0  0  # atno 8008 bound_to 7997
  156.0175  140.3344  155.6979 H   0  0  0  0  0  0  0  0  0  0  0  0  # atno 8009 bound_to 7997
  155.6023  140.0641  157.2720 H   0  0  0  0  0  0  0  0  0  0  0  0  # atno 8010 bound_to 7997
  140.6849  143.2868  151.3671 H   0  0  0  0  0  0  0  0  0  0  0  0  # atno 10167 bound_to 10162
  157.5919  131.1063  150.7979 H   0  0  0  0  0  0  0  0  0  0  0  0  # atno 10718 bound_to 10713
  153.7047  135.3278  155.3233 H   0  0  0  0  0  0  0  0  0  0  0  0  # atno 10763 bound_to 10752
  154.8402  135.4462  154.1375 H   0  0  0  0  0  0  0  0  0  0  0  0  # atno 10764 bound_to 10752
  153.2452  135.6975  153.7818 H   0  0  0  0  0  0  0  0  0  0  0  0  # atno 10765 bound_to 10752
  140.9634  133.7151  156.1405 H   0  0  0  0  0  0  0  0  0  0  0  0  # atno 11005 bound_to 11000
  145.3259  139.1774  143.4562 LP  0  0  0  0  0  0  0  0  0  0  0  0  # atno 17320 bound_to 7965
  146.3215  140.3283  142.8638 LP  0  0  0  0  0  0  0  0  0  0  0  0  # atno 17321 bound_to 7965
  139.6199  144.0927  152.2381 LP  0  0  0  0  0  0  0  0  0  0  0  0  # atno 17342 bound_to 10162
  140.0368  144.6038  150.7443 LP  0  0  0  0  0  0  0  0  0  0  0  0  # atno 17343 bound_to 10162
  156.8399  130.5044  149.5322 LP  0  0  0  0  0  0  0  0  0  0  0  0  # atno 17370 bound_to 10713
  156.0975  130.5944  150.9839 LP  0  0  0  0  0  0  0  0  0  0  0  0  # atno 17371 bound_to 10713
  140.7435  134.4124  157.5551 LP  0  0  0  0  0  0  0  0  0  0  0  0  # atno 17394 bound_to 11000
  139.8886  134.8853  156.2467 LP  0  0  0  0  0  0  0  0  0  0  0  0  # atno 17395 bound_to 11000

$$$$
