#       Name:                AV-unprocessed.smi:2083
#       Creating user name   scv26
#       Creation time:       Fri Mar 27 11:20:42 2020


#       File generated by GOLD software.
#

@<TRIPOS>MOLECULE
AV-unprocessed.smi:2083
    50    51     1
SMALL
NO_CHARGES


@<TRIPOS>ATOM
      1 ****        -4.2578   6.9696   2.3600 C.3            1 S1                 0.0000
      2 ****        -3.6256   5.6467   2.0935 C.2            1 S1                 0.0000
      3 ****        -3.0547   5.0961   0.9807 C.2            1 S1                 0.0000
      4 ****        -2.6617   3.8068   1.4275 C.2            1 S1                 0.0000
      5 ****        -2.0185   2.8979   0.5493 N.am           1 S1                 0.0000
      6 ****        -1.6102   1.6467   0.8209 C.2            1 S1                 0.0000
      7 ****        -1.7332   1.0796   1.9067 O.2            1 S1                 0.0000
      8 ****        -1.0384   1.0773  -0.2507 N.am           1 S1                 0.0000
      9 ****        -0.5230  -0.2887  -0.3131 C.3            1 S1                 0.0000
     10 ****         1.0294  -0.3520  -0.2793 C.3            1 S1                 0.0000
     11 ****         1.5771   0.3173   1.0011 C.3            1 S1                 0.0000
     12 ****         1.5950  -1.7374  -0.4000 N.4            1 S1                 1.0000
     13 ****         2.9843  -1.7249  -0.9416 C.3            1 S1                 0.0000
     14 ****         3.6347  -3.1136  -0.8656 C.3            1 S1                 0.0000
     15 ****         2.7970  -4.1442  -1.6271 C.3            1 S1                 0.0000
     16 ****         1.3599  -4.1502  -1.0866 C.3            1 S1                 0.0000
     17 ****         0.4835  -5.1591  -1.8428 C.3            1 S1                 0.0000
     18 ****         0.7542  -2.7312  -1.1321 C.3            1 S1                 0.0000
     19 ****        -2.9623   3.5902   2.6988 N.2            1 S1                 0.0000
     20 ****        -3.5823   4.7684   3.1320 O.3            1 S1                 0.0000
     21 ****        -4.0391   7.6743   1.5574 H              1 S1                 0.0000
     22 ****        -3.8881   7.3954   3.2930 H              1 S1                 0.0000
     23 ****        -5.3405   6.8709   2.4378 H              1 S1                 0.0000
     24 ****        -2.9409   5.5458   0.0055 H              1 S1                 0.0000
     25 ****        -1.8581   3.2361  -0.3878 H              1 S1                 0.0000
     26 ****        -0.9781   1.6228  -1.0982 H              1 S1                 0.0000
     27 ****        -0.9476  -0.8994   0.4858 H              1 S1                 0.0000
     28 ****        -0.9025  -0.6941  -1.2509 H              1 S1                 0.0000
     29 ****         1.3803   0.2207  -1.1396 H              1 S1                 0.0000
     30 ****         1.2837   1.3646   1.0670 H              1 S1                 0.0000
     31 ****         2.6646   0.3063   1.0492 H              1 S1                 0.0000
     32 ****         1.2056  -0.1857   1.8947 H              1 S1                 0.0000
     33 ****         2.9659  -1.3815  -1.9771 H              1 S1                 0.0000
     34 ****         3.6107  -1.0213  -0.3956 H              1 S1                 0.0000
     35 ****         4.6428  -3.0761  -1.2798 H              1 S1                 0.0000
     36 ****         3.7387  -3.4166   0.1770 H              1 S1                 0.0000
     37 ****         2.7961  -3.9051  -2.6917 H              1 S1                 0.0000
     38 ****         3.2447  -5.1338  -1.5285 H              1 S1                 0.0000
     39 ****         1.3950  -4.4659  -0.0426 H              1 S1                 0.0000
     40 ****         0.4068  -4.9045  -2.9004 H              1 S1                 0.0000
     41 ****        -0.5266  -5.1881  -1.4335 H              1 S1                 0.0000
     42 ****         0.8947  -6.1666  -1.7727 H              1 S1                 0.0000
     43 ****        -0.2358  -2.7973  -0.6823 H              1 S1                 0.0000
     44 ****         0.6226  -2.4058  -2.1654 H              1 S1                 0.0000
     45 ****         1.6556  -2.0882   0.5453 H              1 S1                 0.0000
     46 ****        -2.1663   1.5546   2.6727 LP             1 S1                 0.0000
     47 ****        -1.3999   0.1439   2.0227 LP             1 S1                 0.0000
     48 ****        -2.7849   2.7640   3.2336 LP             1 S1                 0.0000
     49 ****        -4.5118   4.5657   3.4401 LP             1 S1                 0.0000
     50 ****        -3.0600   5.1654   3.8868 LP             1 S1                 0.0000
@<TRIPOS>BOND
    1    1    2 1     
    2    1   21 1     
    3    1   22 1     
    4    1   23 1     
    5    2   20 1     
    6    2    3 2     
    7    3    4 1     
    8    3   24 1     
    9    4    5 1     
   10    4   19 2     
   11    5    6 am    
   12    5   25 1     
   13    6    7 2     
   14    6    8 am    
   15    8    9 1     
   16    8   26 1     
   17    9   10 1     
   18    9   27 1     
   19    9   28 1     
   20   10   11 1     
   21   10   12 1     
   22   10   29 1     
   23   11   30 1     
   24   11   31 1     
   25   11   32 1     
   26   12   18 1     
   27   12   13 1     
   28   12   45 1     
   29   13   14 1     
   30   13   33 1     
   31   13   34 1     
   32   14   15 1     
   33   14   35 1     
   34   14   36 1     
   35   15   16 1     
   36   15   37 1     
   37   15   38 1     
   38   16   17 1     
   39   16   18 1     
   40   16   39 1     
   41   17   40 1     
   42   17   41 1     
   43   17   42 1     
   44   18   43 1     
   45   18   44 1     
   46   19   20 1     
   47    7   46 1     
   48    7   47 1     
   49   19   48 1     
   50   20   49 1     
   51   20   50 1     
@<TRIPOS>SUBSTRUCTURE
      1 S1             1
@<TRIPOS>SET
LONE_PAIRS      STATIC     ATOMS    <user>   **** ""
5 46 47 48 49 50
DONOR_HYDROGENS      STATIC     ATOMS    <user>   **** ""
3 25 26 45
ATOM$BLUE        STATIC     ATOMS    COLORGROUP SYSTEM
5 46 47 48 49 50
ATOM$RED        STATIC     ATOMS    COLORGROUP SYSTEM
3 25 26 45
