AV-unprocessed.smi:44|AV-procd|sdf|406|dock3
  -GOLD-   2262016263D 1   1.00000     0.00000
 Structure written by MMmdl.
 28 30  0  0  0  0  0  0  0  0  2 V2000
  153.3027  138.8840  155.6297 O   0  0  0  0  0  0  0  0  0  0  0  0
  152.1740  138.4832  155.3526 C   0  0  0  0  0  0  0  0  0  0  0  0
  151.8202  137.1698  155.1803 N   0  5  0  0  0  0  0  0  0  0  0  0
  150.5010  136.8461  154.8691 C   0  0  0  0  0  0  0  0  0  0  0  0
  149.5086  137.6538  154.7085 N   0  0  0  0  0  0  0  0  0  0  0  0
  149.8389  138.9830  154.8740 C   0  0  0  0  0  0  0  0  0  0  0  0
  151.0773  139.4777  155.1820 C   0  0  0  0  0  0  0  0  0  0  0  0
  151.0553  140.8637  155.2776 N   0  0  0  0  0  0  0  0  0  0  0  0
  149.7780  141.1413  155.0158 C   0  0  0  0  0  0  0  0  0  0  0  0
  148.9896  140.0760  154.7566 N   0  0  0  0  0  0  0  0  0  0  0  0
  147.5278  140.0492  154.4295 C   0  0  2  0  0  0  0  0  0  0  0  0
  147.2222  141.0982  153.3596 C   0  0  0  0  0  0  0  0  0  0  0  0
  146.9660  142.3210  154.2111 C   0  0  0  0  0  0  0  0  0  0  0  0
  146.2154  141.7109  155.3947 C   0  0  2  0  0  0  0  0  0  0  0  0
  146.3170  142.5481  156.6786 C   0  0  0  0  0  0  0  0  0  0  0  0
  147.6634  142.6417  157.0907 O   0  0  0  0  0  0  0  0  0  0  0  0
  146.8145  140.4250  155.5734 O   0  0  0  0  0  0  0  0  0  0  0  0
  147.3289  139.0199  154.1291 H   0  0  0  0  0  0  0  0  0  0  0  0
  145.1719  141.5702  155.1066 H   0  0  0  0  0  0  0  0  0  0  0  0
  150.3621  135.7671  154.7636 H   0  0  0  0  0  0  0  0  0  0  0  0
  149.4093  142.1554  155.0142 H   0  0  0  0  0  0  0  0  0  0  0  0
  148.0375  141.2146  152.6446 H   0  0  0  0  0  0  0  0  0  0  0  0
  146.3193  140.8021  152.8242 H   0  0  0  0  0  0  0  0  0  0  0  0
  147.9109  142.7611  154.5338 H   0  0  0  0  0  0  0  0  0  0  0  0
  146.3910  143.0889  153.6932 H   0  0  0  0  0  0  0  0  0  0  0  0
  145.8903  143.5418  156.5462 H   0  0  0  0  0  0  0  0  0  0  0  0
  145.7630  142.0646  157.4838 H   0  0  0  0  0  0  0  0  0  0  0  0
  148.1126  143.2437  156.5173 H   0  0  0  0  0  0  0  0  0  0  0  0
  1  2  2  0  0  0  0
  2  7  1  0  0  0  0
  2  3  1  0  0  0  0
  3  4  1  0  0  0  0
  4  5  2  0  0  0  0
  4 20  1  0  0  0  0
  5  6  1  0  0  0  0
  6 10  1  0  0  0  0
  6  7  2  0  0  0  0
  7  8  1  0  0  0  0
  8  9  2  0  0  0  0
  9 10  1  0  0  0  0
  9 21  1  0  0  0  0
 10 11  1  0  0  0  0
 11 18  1  0  0  0  0
 11 17  1  0  0  0  0
 11 12  1  0  0  0  0
 12 13  1  0  0  0  0
 12 22  1  0  0  0  0
 12 23  1  0  0  0  0
 13 14  1  0  0  0  0
 13 24  1  0  0  0  0
 13 25  1  0  0  0  0
 14 19  1  0  0  0  0
 14 15  1  0  0  0  0
 14 17  1  0  0  0  0
 15 16  1  0  0  0  0
 15 26  1  0  0  0  0
 15 27  1  0  0  0  0
 16 28  1  0  0  0  0
M  CHG  1   3  -1
M  END
> <s_m_source_file>
AV-unprocessed.smi

> <i_m_source_file_index>
44

> <i_lp_mmshare_version>
43012

> <i_f3d_flags>
0

> <s_epik_input>
bjFbY0hdW25IXWMoPU8pYyhjMTIpbltjSF1uMltDQEhdM1tDSDJdW0NIMl1bQ0BIXShPMylbQ0gyXVtPSF0=

> <s_epik_cmdline>
J2VwaWtfcHl0aG9uJywgJy1waCcsICc3LjAnLCAnLXRuJywgJzgnLCAnLW1hJywgJzIwMCcsICctbWV0YWxfYmluZGluZycsICctaW1hZScsICc8aW5maWxlLm1hZT4nLCAnLW9tYWUnLCAnPG91dGZpbGUubWFlPic=

> <r_lp_tautomer_probability>
0.85571

> <r_epik_Ionization_Penalty>
2.55863

> <r_epik_Ionization_Penalty_Charging>
1.36424e-10

> <r_epik_Ionization_Penalty_Neutral>
2.55863

> <r_epik_State_Penalty>
2.63326

> <r_epik_Charging_Adjusted_Penalty>
2.63326

> <i_epik_Tot_Q>
-1

> <i_epik_Tot_abs_Q>
1

> <r_epik_Metal_State_Penalty>
0.475154

> <b_epik_Metal_Only>
1

> <s_epik_Chemistry_Notes>
This compound contains an acetal/aminal-like group ( X-CH(R)-Y where X, Y are N, S, or O) that may be acid/base labile, releasing an aldehyde.

> <s_lp_Force_Field>
OPLS_2005

> <r_lp_Energy>
44.8592

> <b_lp_Chiralities_Consistent>
1

> <s_lp_Variant>
AV-unprocessed.smi:44-12

> <Gold.Version>
5.8.1

> <Gold.Id.Protein>
6NUR|6NUR_protein|mol2

> <Gold.PLP.Fitness>
41.9716

> <Gold.PLP.PLP>
-27.9515

> <Gold.PLP.part.hbond>
-4.0363

> <Gold.PLP.part.metal>
0.0000

> <Gold.PLP.part.buried>
-2.4866

> <Gold.PLP.part.nonpolar>
-21.5923

> <Gold.PLP.part.repulsive>
0.3721

> <Gold.PLP.ligand.clash>
0.0000

> <Gold.PLP.ligand.torsion>
0.2390

> <Gold.PLP.Chemscore.Hbond>
4.2285

> <Gold.PLP.Chemscore.CHOScore>
0.5977

> <Gold.PLP.Chemscore.Metal>
0.0000

> <Gold.Chemscore.Hbonds>
donor molecule, donor type, donor heavy atom, donor atom, acceptor molecule, acceptor atom, score
      L1  H    16    28       P1  8028  1.00
      P1  H  7989  7998       L1     8  0.21
      P1  H  7997  8009       L1     1  1.00
      P1  H 10752 10763       L1     3  2.00
      L1  C     9    21       P1  8028  0.61

> <Gold.PLP.Chemscore.Internal.Correction>
0.0195

> <Gold.Rescore>
     Score         DG    S(hbond)    S(metal)    S(lipo)     H(rot)  DE(clash)    DE(int)     intcor
     10.77     -11.20       2.46        0.00      28.15       2.26       0.17       0.26       ----

> <Gold.Chemscore.Fitness>
10.7740

> <Gold.Chemscore.DG>
-11.1963

> <Gold.Chemscore.ZeroCoef>
-5.4800

> <Gold.Chemscore.Hbond>
2.4567

> <Gold.Chemscore.Metal>
0.0000

> <Gold.Chemscore.Lipo>
28.1484

> <Gold.Chemscore.Internal_Hbond>
0.0000

> <Gold.Chemscore.DEClash>
0.1656

> <Gold.Chemscore.DEInternal>
0.2567

> <Gold.Chemscore.Rot>
2.2588

> <Gold.Chemscore.Internal.Correction>
   9.000000E+99

> <Gold.Chemscore.Hbonds>
donor molecule, donor type, donor heavy atom, donor atom, acceptor molecule, acceptor atom, score
      L1  H    16    28       P1  8028  0.26
      P1  H  7997  8009       L1     1  0.95
      P1  H 10752 10763       L1     3  0.54

> <Gold.Chemscore.Hbond.Weighted>
-8.2055

> <Gold.Chemscore.Metal.Weighted>
-0.0000

> <Gold.Chemscore.Lipo.Weighted>
-3.2934

> <Gold.Chemscore.Internal_Hbond.Weighted>
0.0000

> <Gold.Chemscore.DEClash.Weighted>
0.1656

> <Gold.Chemscore.DEInternal.Weighted>
0.2567

> <Gold.Chemscore.Rot.Weighted>
5.7825

> <Gold.Chemscore.Internal.Correction.Weighted>
   9.000000E+99

> <Gold.Protein.RotatedTorsions>
[ 6907 6896 6895 6894 ] final -135.89 input  -60.11 | X-H torsion
[ 7974 7965 7964 7962 ] final   81.24 input  175.53 | X-H torsion
[ 8008 7997 7996 7995 ] final -142.85 input   59.86 | X-H torsion
[ 10167 10162 10161 10158 ] final   89.11 input  -65.29 | X-H torsion
[ 10718 10713 10712 10709 ] final  -56.67 input   66.30 | X-H torsion
[ 10763 10752 10751 10750 ] final   60.15 input  -60.55 | X-H torsion
[ 11005 11000 10999 10996 ] final  128.47 input  -57.11 | X-H torsion

> <Gold.Protein.ActiveResidues>
 VAL166  LYS551  ARG553  GLY616  TRP617  ASP618  TYR619  PRO620  LYS621  CYS622 
 ASP623  PHE694  ASN695  SER759  ASP760  ASP761  ALA762  ILE779  LEU786  VAL792 
 PHE793  MET794  SER795  GLU796  ALA797  LYS798  CYS799  TRP800  GLU811  SER814 

> <Gold.Protein.RotatedAtoms>
  151.0034  133.6034  159.2691 H   0  0  0  0  0  0  0  0  0  0  0  0  # atno 6907 bound_to 6896
  151.3212  135.0818  159.9316 H   0  0  0  0  0  0  0  0  0  0  0  0  # atno 6908 bound_to 6896
  152.5280  133.9681  159.7803 H   0  0  0  0  0  0  0  0  0  0  0  0  # atno 6909 bound_to 6896
  145.6408  139.2425  143.2032 H   0  0  0  0  0  0  0  0  0  0  0  0  # atno 7974 bound_to 7965
  155.5010  140.0575  157.2939 H   0  0  0  0  0  0  0  0  0  0  0  0  # atno 8008 bound_to 7997
  154.4587  140.1985  156.0256 H   0  0  0  0  0  0  0  0  0  0  0  0  # atno 8009 bound_to 7997
  156.0848  140.3242  155.7744 H   0  0  0  0  0  0  0  0  0  0  0  0  # atno 8010 bound_to 7997
  139.8605  144.6546  150.9064 H   0  0  0  0  0  0  0  0  0  0  0  0  # atno 10167 bound_to 10162
  156.1270  130.4162  150.0337 H   0  0  0  0  0  0  0  0  0  0  0  0  # atno 10718 bound_to 10713
  152.9913  135.5546  154.5827 H   0  0  0  0  0  0  0  0  0  0  0  0  # atno 10763 bound_to 10752
  154.5205  135.2807  155.1268 H   0  0  0  0  0  0  0  0  0  0  0  0  # atno 10764 bound_to 10752
  154.2624  135.6378  153.5332 H   0  0  0  0  0  0  0  0  0  0  0  0  # atno 10765 bound_to 10752
  139.9562  134.9612  156.9007 H   0  0  0  0  0  0  0  0  0  0  0  0  # atno 11005 bound_to 11000
  146.1282  140.7220  142.9424 LP  0  0  0  0  0  0  0  0  0  0  0  0  # atno 17320 bound_to 7965
  144.7158  140.4205  143.7045 LP  0  0  0  0  0  0  0  0  0  0  0  0  # atno 17321 bound_to 7965
  140.7775  143.3748  151.1583 LP  0  0  0  0  0  0  0  0  0  0  0  0  # atno 17342 bound_to 10162
  139.7378  143.8971  152.3040 LP  0  0  0  0  0  0  0  0  0  0  0  0  # atno 17343 bound_to 10162
  156.8259  130.9375  151.3639 LP  0  0  0  0  0  0  0  0  0  0  0  0  # atno 17370 bound_to 10713
  157.6451  130.8837  149.9523 LP  0  0  0  0  0  0  0  0  0  0  0  0  # atno 17371 bound_to 10713
  140.5603  134.0542  155.7396 LP  0  0  0  0  0  0  0  0  0  0  0  0  # atno 17394 bound_to 11000
  141.1234  133.9423  157.2684 LP  0  0  0  0  0  0  0  0  0  0  0  0  # atno 17395 bound_to 11000

$$$$
