AV-unprocessed.smi:2131|AV-procd|sdf|8690|dock9
  -GOLD-   2272011443D 1   1.00000     0.00000
 Structure written by MMmdl.
 41 43  0  0  0  0  0  0  0  0  2 V2000
  148.0163  130.6095  153.7670 N   0  0  0  0  0  0  0  0  0  0  0  0
  148.8593  130.9437  154.4857 C   0  0  0  0  0  0  0  0  0  0  0  0
  149.9306  131.3684  155.3994 C   0  0  0  0  0  0  0  0  0  0  0  0
  150.1061  132.8727  155.4075 C   0  0  0  0  0  0  0  0  0  0  0  0
  151.0876  133.4671  156.2244 C   0  0  0  0  0  0  0  0  0  0  0  0
  151.2456  134.8661  156.2334 C   0  0  0  0  0  0  0  0  0  0  0  0
  150.4290  135.6909  155.4326 C   0  0  0  0  0  0  0  0  0  0  0  0
  150.6501  137.0495  155.5051 O   0  0  0  0  0  0  0  0  0  0  0  0
  151.9639  137.5029  155.8042 C   0  0  0  0  0  0  0  0  0  0  0  0
  151.9509  139.0357  155.8952 C   0  0  1  0  0  0  0  0  0  0  0  0
  151.4241  139.5566  154.6908 O   0  0  0  0  0  0  0  0  0  0  0  0
  151.1184  139.5467  157.0881 C   0  0  0  0  0  0  0  0  0  0  0  0
  151.0421  141.0122  157.1430 N   0  0  0  0  0  0  0  0  0  0  0  0
  150.4002  141.8867  156.3217 C   0  0  0  0  0  0  0  0  0  0  0  0
  150.6373  143.1423  156.7935 N   0  3  0  0  0  0  0  0  0  0  0  0
  151.4425  143.0684  157.9324 C   0  0  0  0  0  0  0  0  0  0  0  0
  151.9494  144.0671  158.7583 C   0  0  0  0  0  0  0  0  0  0  0  0
  152.7466  143.6468  159.8435 C   0  0  0  0  0  0  0  0  0  0  0  0
  153.0115  142.2813  160.0758 C   0  0  0  0  0  0  0  0  0  0  0  0
  152.4907  141.2769  159.2334 C   0  0  0  0  0  0  0  0  0  0  0  0
  151.7055  141.7015  158.1625 C   0  0  0  0  0  0  0  0  0  0  0  0
  149.4438  135.0856  154.6117 C   0  0  0  0  0  0  0  0  0  0  0  0
  149.2858  133.6860  154.6015 C   0  0  0  0  0  0  0  0  0  0  0  0
  149.6903  131.0127  156.4017 H   0  0  0  0  0  0  0  0  0  0  0  0
  150.8580  130.8839  155.0931 H   0  0  0  0  0  0  0  0  0  0  0  0
  151.7201  132.8520  156.8475 H   0  0  0  0  0  0  0  0  0  0  0  0
  152.0002  135.3116  156.8652 H   0  0  0  0  0  0  0  0  0  0  0  0
  152.2838  137.0815  156.7588 H   0  0  0  0  0  0  0  0  0  0  0  0
  152.6692  137.1790  155.0367 H   0  0  0  0  0  0  0  0  0  0  0  0
  152.9779  139.3918  155.9825 H   0  0  0  0  0  0  0  0  0  0  0  0
  150.7509  138.9707  154.3794 H   0  0  0  0  0  0  0  0  0  0  0  0
  150.0970  139.1677  157.0279 H   0  0  0  0  0  0  0  0  0  0  0  0
  151.5259  139.1892  158.0346 H   0  0  0  0  0  0  0  0  0  0  0  0
  149.8134  141.6307  155.4512 H   0  0  0  0  0  0  0  0  0  0  0  0
  151.7482  145.1138  158.5830 H   0  0  0  0  0  0  0  0  0  0  0  0
  153.1636  144.3872  160.5108 H   0  0  0  0  0  0  0  0  0  0  0  0
  153.6274  141.9977  160.9171 H   0  0  0  0  0  0  0  0  0  0  0  0
  152.6988  140.2331  159.4175 H   0  0  0  0  0  0  0  0  0  0  0  0
  148.7960  135.6729  153.9793 H   0  0  0  0  0  0  0  0  0  0  0  0
  148.5304  133.2377  153.9727 H   0  0  0  0  0  0  0  0  0  0  0  0
  150.2765  143.9855  156.3658 H   0  0  0  0  0  0  0  0  0  0  0  0
  1  2  3  0  0  0  0
  2  3  1  0  0  0  0
  3  4  1  0  0  0  0
  3 24  1  0  0  0  0
  3 25  1  0  0  0  0
  4 23  1  0  0  0  0
  4  5  2  0  0  0  0
  5  6  1  0  0  0  0
  5 26  1  0  0  0  0
  6  7  2  0  0  0  0
  6 27  1  0  0  0  0
  7  8  1  0  0  0  0
  7 22  1  0  0  0  0
  8  9  1  0  0  0  0
  9 10  1  0  0  0  0
  9 28  1  0  0  0  0
  9 29  1  0  0  0  0
 10 11  1  0  0  0  0
 10 12  1  0  0  0  0
 10 30  1  0  0  0  0
 11 31  1  0  0  0  0
 12 13  1  0  0  0  0
 12 32  1  0  0  0  0
 12 33  1  0  0  0  0
 13 21  1  0  0  0  0
 13 14  1  0  0  0  0
 14 15  2  0  0  0  0
 14 34  1  0  0  0  0
 15 16  1  0  0  0  0
 15 41  1  0  0  0  0
 16 21  2  0  0  0  0
 16 17  1  0  0  0  0
 17 18  2  0  0  0  0
 17 35  1  0  0  0  0
 18 19  1  0  0  0  0
 18 36  1  0  0  0  0
 19 20  2  0  0  0  0
 19 37  1  0  0  0  0
 20 21  1  0  0  0  0
 20 38  1  0  0  0  0
 22 23  2  0  0  0  0
 22 39  1  0  0  0  0
 23 40  1  0  0  0  0
M  CHG  1  15   1
M  END
> <s_m_source_file>
AV-unprocessed.smi

> <i_m_source_file_index>
2131

> <i_lp_mmshare_version>
43012

> <i_f3d_flags>
0

> <s_epik_input>
TiNDW0NIMl1jMVtjSF1bY0hdYyhbY0hdW2NIXTEpT1tDSDJdW0NASF0oW09IXSlbQ0gyXW4oW2NIXW4yKWMoYzIzKVtjSF1bY0hdW2NIXVtjSF0z

> <s_epik_cmdline>
J2VwaWtfcHl0aG9uJywgJy1waCcsICc3LjAnLCAnLXRuJywgJzgnLCAnLW1hJywgJzIwMCcsICctbWV0YWxfYmluZGluZycsICctaW1hZScsICc8aW5maWxlLm1hZT4nLCAnLW9tYWUnLCAnPG91dGZpbGUubWFlPic=

> <r_lp_tautomer_probability>
1

> <r_epik_Ionization_Penalty>
1.3774

> <r_epik_Ionization_Penalty_Charging>
1.37739

> <r_epik_Ionization_Penalty_Neutral>
2.3994e-06

> <r_epik_State_Penalty>
1.45762

> <r_epik_Charging_Adjusted_Penalty>
2.83501

> <i_epik_Tot_Q>
1

> <i_epik_Tot_abs_Q>
1

> <r_epik_Metal_State_Penalty>
5.49752

> <b_epik_Metal_Only>
0

> <s_lp_Force_Field>
OPLS_2005

> <r_lp_Energy>
20.3244

> <b_lp_Chiralities_Consistent>
1

> <s_lp_Variant>
AV-unprocessed.smi:2131-4

> <Gold.Version>
5.8.1

> <Gold.Id.Protein>
6NUR|6NUR_protein|mol2

> <Gold.PLP.Fitness>
52.4493

> <Gold.PLP.PLP>
-44.3016

> <Gold.PLP.part.hbond>
-2.0000

> <Gold.PLP.part.metal>
0.0000

> <Gold.PLP.part.buried>
-4.3727

> <Gold.PLP.part.nonpolar>
-39.0360

> <Gold.PLP.part.repulsive>
0.1938

> <Gold.PLP.ligand.clash>
0.0000

> <Gold.PLP.ligand.torsion>
0.4819

> <Gold.PLP.Chemscore.Hbond>
3.0000

> <Gold.PLP.Chemscore.CHOScore>
0.0000

> <Gold.PLP.Chemscore.Metal>
0.0000

> <Gold.Chemscore.Hbonds>
donor molecule, donor type, donor heavy atom, donor atom, acceptor molecule, acceptor atom, score
      L1  H    15    41       P1  8028  1.86
      P1  H  7989  7998       L1    11  1.00

> <Gold.PLP.Chemscore.Internal.Correction>
0.1115

> <Gold.Rescore>
     Score         DG    S(hbond)    S(metal)    S(lipo)     H(rot)  DE(clash)    DE(int)     intcor
     17.81     -18.47       1.96        0.00     116.65       2.81       0.02       0.65       ----

> <Gold.Chemscore.Fitness>
17.8053

> <Gold.Chemscore.DG>
-18.4746

> <Gold.Chemscore.ZeroCoef>
-5.4800

> <Gold.Chemscore.Hbond>
1.9613

> <Gold.Chemscore.Metal>
0.0000

> <Gold.Chemscore.Lipo>
116.6490

> <Gold.Chemscore.Internal_Hbond>
0.0000

> <Gold.Chemscore.DEClash>
0.0203

> <Gold.Chemscore.DEInternal>
0.6490

> <Gold.Chemscore.Rot>
2.8140

> <Gold.Chemscore.Internal.Correction>
   9.000000E+99

> <Gold.Chemscore.Hbonds>
donor molecule, donor type, donor heavy atom, donor atom, acceptor molecule, acceptor atom, score
      L1  H    15    41       P1  8028  0.90
      P1  H  7989  7998       L1    11  0.70

> <Gold.Chemscore.Hbond.Weighted>
-6.5506

> <Gold.Chemscore.Metal.Weighted>
-0.0000

> <Gold.Chemscore.Lipo.Weighted>
-13.6479

> <Gold.Chemscore.Internal_Hbond.Weighted>
0.0000

> <Gold.Chemscore.DEClash.Weighted>
0.0203

> <Gold.Chemscore.DEInternal.Weighted>
0.6490

> <Gold.Chemscore.Rot.Weighted>
7.2039

> <Gold.Chemscore.Internal.Correction.Weighted>
   9.000000E+99

> <Gold.Protein.RotatedTorsions>
[ 6907 6896 6895 6894 ] final  135.86 input  -60.11 | X-H torsion
[ 7974 7965 7964 7962 ] final  -73.15 input  175.53 | X-H torsion
[ 8008 7997 7996 7995 ] final    1.47 input   59.86 | X-H torsion
[ 10167 10162 10161 10158 ] final -151.64 input  -65.29 | X-H torsion
[ 10718 10713 10712 10709 ] final -176.00 input   66.30 | X-H torsion
[ 10763 10752 10751 10750 ] final  135.35 input  -60.55 | X-H torsion
[ 11005 11000 10999 10996 ] final -153.56 input  -57.11 | X-H torsion

> <Gold.Protein.ActiveResidues>
 VAL166  LYS551  ARG553  GLY616  TRP617  ASP618  TYR619  PRO620  LYS621  CYS622 
 ASP623  PHE694  ASN695  SER759  ASP760  ASP761  ALA762  ILE779  LEU786  VAL792 
 PHE793  MET794  SER795  GLU796  ALA797  LYS798  CYS799  TRP800  GLU811  SER814 

> <Gold.Protein.RotatedAtoms>
  152.2958  133.5606  159.5586 H   0  0  0  0  0  0  0  0  0  0  0  0  # atno 6907 bound_to 6896
  150.7255  134.0363  159.3759 H   0  0  0  0  0  0  0  0  0  0  0  0  # atno 6908 bound_to 6896
  151.8266  135.0635  160.0482 H   0  0  0  0  0  0  0  0  0  0  0  0  # atno 6909 bound_to 6896
  145.6559  140.9268  143.0960 H   0  0  0  0  0  0  0  0  0  0  0  0  # atno 7974 bound_to 7965
  154.6801  140.2631  155.6917 H   0  0  0  0  0  0  0  0  0  0  0  0  # atno 8008 bound_to 7997
  156.2693  140.2812  156.1264 H   0  0  0  0  0  0  0  0  0  0  0  0  # atno 8009 bound_to 7997
  155.1044  140.0375  157.2696 H   0  0  0  0  0  0  0  0  0  0  0  0  # atno 8010 bound_to 7997
  139.7250  143.8897  152.2516 H   0  0  0  0  0  0  0  0  0  0  0  0  # atno 10167 bound_to 10162
  156.8082  130.9576  151.3116 H   0  0  0  0  0  0  0  0  0  0  0  0  # atno 10718 bound_to 10713
  153.8386  135.3094  155.3424 H   0  0  0  0  0  0  0  0  0  0  0  0  # atno 10763 bound_to 10752
  154.7942  135.4765  154.0126 H   0  0  0  0  0  0  0  0  0  0  0  0  # atno 10764 bound_to 10752
  153.1590  135.6857  153.8862 H   0  0  0  0  0  0  0  0  0  0  0  0  # atno 10765 bound_to 10752
  140.7068  134.3877  157.5203 H   0  0  0  0  0  0  0  0  0  0  0  0  # atno 11005 bound_to 11000
  144.7106  139.8387  143.7416 LP  0  0  0  0  0  0  0  0  0  0  0  0  # atno 17320 bound_to 7965
  146.1165  139.4177  143.0255 LP  0  0  0  0  0  0  0  0  0  0  0  0  # atno 17321 bound_to 7965
  139.8804  144.7021  150.8884 LP  0  0  0  0  0  0  0  0  0  0  0  0  # atno 17342 bound_to 10162
  140.7761  143.3666  151.1728 LP  0  0  0  0  0  0  0  0  0  0  0  0  # atno 17343 bound_to 10162
  157.6519  130.8892  149.9651 LP  0  0  0  0  0  0  0  0  0  0  0  0  # atno 17370 bound_to 10713
  156.1060  130.3652  150.0133 LP  0  0  0  0  0  0  0  0  0  0  0  0  # atno 17371 bound_to 10713
  139.8882  134.8862  156.2487 LP  0  0  0  0  0  0  0  0  0  0  0  0  # atno 17394 bound_to 11000
  141.0118  133.7091  156.1124 LP  0  0  0  0  0  0  0  0  0  0  0  0  # atno 17395 bound_to 11000

$$$$
