#       Name:                AV-unprocessed.smi:82
#       Creating user name   scv26
#       Creation time:       Thu Mar 26 17:17:38 2020


#       File generated by GOLD software.
#

@<TRIPOS>MOLECULE
AV-unprocessed.smi:82
    69    72     1
SMALL
NO_CHARGES


@<TRIPOS>ATOM
      1 ****        -6.8603   1.0161  -4.5166 C.3            1 S1                 0.0000
      2 ****        -5.7601   1.5429  -3.7953 O.3            1 S1                 0.0000
      3 ****        -4.5194   1.2913  -4.4341 C.3            1 S1                 0.0000
      4 ****        -3.3927   1.9119  -3.5921 C.3            1 S1                 0.0000
      5 ****        -3.2870   1.3017  -2.2354 N.4            1 S1                 1.0000
      6 ****        -2.6751  -0.0568  -2.2978 C.3            1 S1                 0.0000
      7 ****        -2.6165  -0.7358  -0.9201 C.3            1 S1                 0.0000
      8 ****        -1.9884   0.1212   0.0727 N.3            1 S1                 0.0000
      9 ****        -0.6478   0.0096   0.1984 C.ar           1 S1                 0.0000
     10 ****         0.1701   0.4711  -0.7822 N.ar           1 S1                 0.0000
     11 ****         1.4952   0.3562  -0.6529 C.ar           1 S1                 0.0000
     12 ****         2.1918  -0.1741   0.3546 N.ar           1 S1                 0.0000
     13 ****         1.3712  -0.6367   1.3423 C.ar           1 S1                 0.0000
     14 ****        -0.0507  -0.5828   1.3411 C.ar           1 S1                 0.0000
     15 ****        -0.5531  -1.1451   2.5063 N.2            1 S1                 0.0000
     16 ****         0.5134  -1.5129   3.1630 C.2            1 S1                 0.0000
     17 ****         1.7130  -1.2471   2.5390 N.pl3          1 S1                 0.0000
     18 ****         3.0222  -1.5522   3.0456 C.3            1 S1                 0.0000
     19 ****         4.1106  -0.4817   3.1460 C.3            1 S1                 0.0000
     20 ****         5.1840  -1.5580   2.8610 C.3            1 S1                 0.0000
     21 ****         6.2998  -1.1017   1.9045 C.3            1 S1                 0.0000
     22 ****         6.9398  -2.1932   1.2761 O.3            1 S1                 0.0000
     23 ****         5.8168  -2.1562   4.1351 C.3            1 S1                 0.0000
     24 ****         6.3647  -3.4392   3.9117 O.3            1 S1                 0.0000
     25 ****         4.0257  -2.3616   2.2239 C.3            1 S1                 0.0000
     26 ****        -2.5332   1.4682   0.1578 C.3            1 S1                 0.0000
     27 ****        -2.6208   2.1763  -1.2160 C.3            1 S1                 0.0000
     28 ****        -3.3418   3.5244  -1.0107 C.3            1 S1                 0.0000
     29 ****        -7.7866   1.2418  -3.9880 H              1 S1                 0.0000
     30 ****        -6.7853  -0.0678  -4.6154 H              1 S1                 0.0000
     31 ****        -6.9257   1.4553  -5.5130 H              1 S1                 0.0000
     32 ****        -4.3731   0.2225  -4.5883 H              1 S1                 0.0000
     33 ****        -4.5230   1.7527  -5.4227 H              1 S1                 0.0000
     34 ****        -2.4371   1.8190  -4.1098 H              1 S1                 0.0000
     35 ****        -3.5991   2.9776  -3.5411 H              1 S1                 0.0000
     36 ****        -3.2388  -0.7030  -2.9681 H              1 S1                 0.0000
     37 ****        -1.6720   0.0202  -2.7184 H              1 S1                 0.0000
     38 ****        -3.6261  -0.9675  -0.5789 H              1 S1                 0.0000
     39 ****        -2.0865  -1.6870  -0.9886 H              1 S1                 0.0000
     40 ****         2.0815   0.7439  -1.4729 H              1 S1                 0.0000
     41 ****         0.4510  -1.9931   4.1290 H              1 S1                 0.0000
     42 ****         2.8754  -2.0253   4.0184 H              1 S1                 0.0000
     43 ****         4.0386   0.2718   2.3606 H              1 S1                 0.0000
     44 ****         4.1843  -0.0085   4.1257 H              1 S1                 0.0000
     45 ****         5.8962  -0.4663   1.1156 H              1 S1                 0.0000
     46 ****         7.0485  -0.5038   2.4251 H              1 S1                 0.0000
     47 ****         7.6012  -1.8582   0.6903 H              1 S1                 0.0000
     48 ****         6.5994  -1.5058   4.5271 H              1 S1                 0.0000
     49 ****         5.0788  -2.2518   4.9318 H              1 S1                 0.0000
     50 ****         6.7370  -3.7533   4.7212 H              1 S1                 0.0000
     51 ****         4.0279  -3.4293   2.4445 H              1 S1                 0.0000
     52 ****         3.9354  -2.1901   1.1501 H              1 S1                 0.0000
     53 ****        -3.5285   1.3920   0.5971 H              1 S1                 0.0000
     54 ****        -1.9378   2.0626   0.8530 H              1 S1                 0.0000
     55 ****        -1.6087   2.3838  -1.5655 H              1 S1                 0.0000
     56 ****        -2.9423   4.0474  -0.1411 H              1 S1                 0.0000
     57 ****        -4.4102   3.3829  -0.8441 H              1 S1                 0.0000
     58 ****        -3.2138   4.2045  -1.8513 H              1 S1                 0.0000
     59 ****        -4.2345   1.1772  -1.9080 H              1 S1                 0.0000
     60 ****        -5.7431   1.1255  -2.8868 LP             1 S1                 0.0000
     61 ****        -5.8796   2.5317  -3.7056 LP             1 S1                 0.0000
     62 ****        -2.2897  -0.2895   0.9332 LP             1 S1                 0.0000
     63 ****        -0.2184   0.8962  -1.5997 LP             1 S1                 0.0000
     64 ****         3.1901  -0.2260   0.3823 LP             1 S1                 0.0000
     65 ****        -1.5098  -1.2452   2.7793 LP             1 S1                 0.0000
     66 ****         6.2692  -2.7245   0.7585 LP             1 S1                 0.0000
     67 ****         7.3662  -2.7771   1.9670 LP             1 S1                 0.0000
     68 ****         7.0773  -3.3841   3.2123 LP             1 S1                 0.0000
     69 ****         5.6460  -4.0640   3.6067 LP             1 S1                 0.0000
@<TRIPOS>BOND
    1    1    2 1     
    2    1   29 1     
    3    1   30 1     
    4    1   31 1     
    5    2    3 1     
    6    3    4 1     
    7    3   32 1     
    8    3   33 1     
    9    4    5 1     
   10    4   34 1     
   11    4   35 1     
   12    5   27 1     
   13    5    6 1     
   14    5   59 1     
   15    6    7 1     
   16    6   36 1     
   17    6   37 1     
   18    7    8 1     
   19    7   38 1     
   20    7   39 1     
   21    8    9 1     
   22    8   26 1     
   23    9   14 ar    
   24    9   10 ar    
   25   10   11 ar    
   26   11   12 ar    
   27   11   40 1     
   28   12   13 ar    
   29   13   17 1     
   30   13   14 ar    
   31   14   15 1     
   32   15   16 2     
   33   16   17 1     
   34   16   41 1     
   35   17   18 1     
   36   18   25 1     
   37   18   19 1     
   38   18   42 1     
   39   19   20 1     
   40   19   43 1     
   41   19   44 1     
   42   20   21 1     
   43   20   23 1     
   44   20   25 1     
   45   21   22 1     
   46   21   45 1     
   47   21   46 1     
   48   22   47 1     
   49   23   24 1     
   50   23   48 1     
   51   23   49 1     
   52   24   50 1     
   53   25   51 1     
   54   25   52 1     
   55   26   27 1     
   56   26   53 1     
   57   26   54 1     
   58   27   28 1     
   59   27   55 1     
   60   28   56 1     
   61   28   57 1     
   62   28   58 1     
   63    2   60 1     
   64    2   61 1     
   65    8   62 1     
   66   10   63 1     
   67   12   64 1     
   68   15   65 1     
   69   22   66 1     
   70   22   67 1     
   71   24   68 1     
   72   24   69 1     
@<TRIPOS>SUBSTRUCTURE
      1 S1             1
@<TRIPOS>SET
LONE_PAIRS      STATIC     ATOMS    <user>   **** ""
10 60 61 62 63 64 65 66 67 68 69
DONOR_HYDROGENS      STATIC     ATOMS    <user>   **** ""
3 59 47 50
ATOM$BLUE        STATIC     ATOMS    COLORGROUP SYSTEM
10 60 61 62 63 64 65 66 67 68 69
ATOM$RED        STATIC     ATOMS    COLORGROUP SYSTEM
3 59 47 50
