AV-unprocessed.smi:409|AV-procd|sdf|2505|dock10
  -GOLD-   2262022453D 1   1.00000     0.00000
 Structure written by MMmdl.
 35 36  0  0  0  0  0  0  0  0  1 V2000
  150.3033  140.4730  157.6893 O   0  0  0  0  0  0  0  0  0  0  0  0
  150.8604  141.2170  156.8805 C   0  0  0  0  0  0  0  0  0  0  0  0
  151.1343  140.7509  155.4435 C   0  0  0  0  0  0  0  0  0  0  0  0
  149.9159  140.3444  154.7280 N   0  0  0  0  0  0  0  0  0  0  0  0
  148.8156  141.1888  154.6826 C   0  0  0  0  0  0  0  0  0  0  0  0
  147.6590  140.8733  154.0530 C   0  0  0  0  0  0  0  0  0  0  0  0
  147.5143  139.5907  153.3731 C   0  0  0  0  0  0  0  0  0  0  0  0
  146.5088  139.2147  152.7748 O   0  0  0  0  0  0  0  0  0  0  0  0
  148.6417  138.7684  153.4429 N   0  0  0  0  0  0  0  0  0  0  0  0
  149.8360  139.0866  154.0915 C   0  0  0  0  0  0  0  0  0  0  0  0
  150.7696  138.2850  154.0962 O   0  0  0  0  0  0  0  0  0  0  0  0
  151.2415  142.4692  157.1762 N   0  0  0  0  0  0  0  0  0  0  0  0
  151.0761  143.1186  158.4728 C   0  0  0  0  0  0  0  0  0  0  0  0
  150.4306  144.5104  158.3073 C   0  0  0  0  0  0  0  0  0  0  0  0
  150.3191  145.2421  159.6547 C   0  0  0  0  0  0  0  0  0  0  0  0
  151.6867  145.3481  160.3477 C   0  0  0  0  0  0  0  0  0  0  0  0
  152.3297  143.9630  160.5191 C   0  0  0  0  0  0  0  0  0  0  0  0
  152.4442  143.2308  159.1722 C   0  0  0  0  0  0  0  0  0  0  0  0
  148.5871  137.8683  152.9888 H   0  0  0  0  0  0  0  0  0  0  0  0
  151.6301  141.5650  154.9130 H   0  0  0  0  0  0  0  0  0  0  0  0
  151.8559  139.9314  155.4514 H   0  0  0  0  0  0  0  0  0  0  0  0
  148.8756  142.1482  155.1769 H   0  0  0  0  0  0  0  0  0  0  0  0
  146.8362  141.5736  154.0537 H   0  0  0  0  0  0  0  0  0  0  0  0
  151.6861  143.0117  156.4499 H   0  0  0  0  0  0  0  0  0  0  0  0
  150.4277  142.5011  159.0977 H   0  0  0  0  0  0  0  0  0  0  0  0
  151.0237  145.1128  157.6175 H   0  0  0  0  0  0  0  0  0  0  0  0
  149.4397  144.4171  157.8614 H   0  0  0  0  0  0  0  0  0  0  0  0
  149.9011  146.2377  159.5032 H   0  0  0  0  0  0  0  0  0  0  0  0
  149.6215  144.7092  160.3018 H   0  0  0  0  0  0  0  0  0  0  0  0
  152.3462  145.9873  159.7595 H   0  0  0  0  0  0  0  0  0  0  0  0
  151.5753  145.8298  161.3195 H   0  0  0  0  0  0  0  0  0  0  0  0
  153.3166  144.0651  160.9715 H   0  0  0  0  0  0  0  0  0  0  0  0
  151.7329  143.3659  161.2098 H   0  0  0  0  0  0  0  0  0  0  0  0
  152.8661  142.2375  159.3302 H   0  0  0  0  0  0  0  0  0  0  0  0
  153.1456  143.7661  158.5304 H   0  0  0  0  0  0  0  0  0  0  0  0
  1  2  2  0  0  0  0
  2  3  1  0  0  0  0
  2 12  1  0  0  0  0
  3  4  1  0  0  0  0
  3 20  1  0  0  0  0
  3 21  1  0  0  0  0
  4 10  1  0  0  0  0
  4  5  1  0  0  0  0
  5  6  2  0  0  0  0
  5 22  1  0  0  0  0
  6  7  1  0  0  0  0
  6 23  1  0  0  0  0
  7  8  2  0  0  0  0
  7  9  1  0  0  0  0
  9 19  1  0  0  0  0
  9 10  1  0  0  0  0
 10 11  2  0  0  0  0
 12 13  1  0  0  0  0
 12 24  1  0  0  0  0
 13 18  1  0  0  0  0
 13 14  1  0  0  0  0
 13 25  1  0  0  0  0
 14 15  1  0  0  0  0
 14 26  1  0  0  0  0
 14 27  1  0  0  0  0
 15 16  1  0  0  0  0
 15 28  1  0  0  0  0
 15 29  1  0  0  0  0
 16 17  1  0  0  0  0
 16 30  1  0  0  0  0
 16 31  1  0  0  0  0
 17 18  1  0  0  0  0
 17 32  1  0  0  0  0
 17 33  1  0  0  0  0
 18 34  1  0  0  0  0
 18 35  1  0  0  0  0
M  END
> <s_m_source_file>
AV-unprocessed.smi

> <i_m_source_file_index>
409

> <i_lp_mmshare_version>
43012

> <i_f3d_flags>
0

> <s_epik_input>
W0NIMl0xW0NIMl1bQ0gyXVtDSDJdW0NIMl1bQ0hdMVtOSF1DKD1PKVtDSDJdbjJbY0hdW2NIXWMoPU8pW25IXWMyPU8=

> <s_epik_cmdline>
J2VwaWtfcHl0aG9uJywgJy1waCcsICc3LjAnLCAnLXRuJywgJzgnLCAnLW1hJywgJzIwMCcsICctbWV0YWxfYmluZGluZycsICctaW1hZScsICc8aW5maWxlLm1hZT4nLCAnLW9tYWUnLCAnPG91dGZpbGUubWFlPic=

> <r_lp_tautomer_probability>
0.999537

> <r_epik_Ionization_Penalty>
0.00309578

> <r_epik_Ionization_Penalty_Charging>
0.00309576

> <r_epik_Ionization_Penalty_Neutral>
1.90469e-08

> <r_epik_State_Penalty>
0.00217825

> <r_epik_Charging_Adjusted_Penalty>
0.00527401

> <i_epik_Tot_Q>
0

> <i_epik_Tot_abs_Q>
0

> <r_epik_Metal_State_Penalty>
0.362603

> <b_epik_Metal_Only>
0

> <s_lp_Force_Field>
OPLS_2005

> <r_lp_Energy>
8.21917

> <b_lp_Chiralities_Consistent>
1

> <s_lp_Variant>
AV-unprocessed.smi:409-1

> <Gold.Version>
5.8.1

> <Gold.Id.Protein>
6NUR|6NUR_protein|mol2

> <Gold.PLP.Fitness>
43.5425

> <Gold.PLP.PLP>
-38.8744

> <Gold.PLP.part.hbond>
-2.0000

> <Gold.PLP.part.metal>
0.0000

> <Gold.PLP.part.buried>
-0.5423

> <Gold.PLP.part.nonpolar>
-36.7911

> <Gold.PLP.part.repulsive>
0.6973

> <Gold.PLP.ligand.clash>
0.0000

> <Gold.PLP.ligand.torsion>
0.1905

> <Gold.PLP.Chemscore.Hbond>
0.9425

> <Gold.PLP.Chemscore.CHOScore>
0.7389

> <Gold.PLP.Chemscore.Metal>
0.0000

> <Gold.Chemscore.Hbonds>
donor molecule, donor type, donor heavy atom, donor atom, acceptor molecule, acceptor atom, score
      L1  H     9    19       P1  7948  1.00
      L1  C     5    22       P1  8028  0.81

> <Gold.PLP.Chemscore.Internal.Correction>
0.0048

> <Gold.Rescore>
     Score         DG    S(hbond)    S(metal)    S(lipo)     H(rot)  DE(clash)    DE(int)     intcor
     13.57     -14.16       0.97        0.00      83.82       1.70       0.35       0.24       ----

> <Gold.Chemscore.Fitness>
13.5684

> <Gold.Chemscore.DG>
-14.1577

> <Gold.Chemscore.ZeroCoef>
-5.4800

> <Gold.Chemscore.Hbond>
0.9659

> <Gold.Chemscore.Metal>
0.0000

> <Gold.Chemscore.Lipo>
83.8238

> <Gold.Chemscore.Internal_Hbond>
0.0000

> <Gold.Chemscore.DEClash>
0.3500

> <Gold.Chemscore.DEInternal>
0.2393

> <Gold.Chemscore.Rot>
1.7015

> <Gold.Chemscore.Internal.Correction>
   9.000000E+99

> <Gold.Chemscore.Hbonds>
donor molecule, donor type, donor heavy atom, donor atom, acceptor molecule, acceptor atom, score
      L1  H     9    19       P1  7948  0.96

> <Gold.Chemscore.Hbond.Weighted>
-3.2262

> <Gold.Chemscore.Metal.Weighted>
-0.0000

> <Gold.Chemscore.Lipo.Weighted>
-9.8074

> <Gold.Chemscore.Internal_Hbond.Weighted>
0.0000

> <Gold.Chemscore.DEClash.Weighted>
0.3500

> <Gold.Chemscore.DEInternal.Weighted>
0.2393

> <Gold.Chemscore.Rot.Weighted>
4.3559

> <Gold.Chemscore.Internal.Correction.Weighted>
   9.000000E+99

> <Gold.Protein.RotatedTorsions>
[ 6907 6896 6895 6894 ] final   23.76 input  -60.11 | X-H torsion
[ 7974 7965 7964 7962 ] final -107.85 input  175.53 | X-H torsion
[ 8008 7997 7996 7995 ] final  -64.24 input   59.86 | X-H torsion
[ 10167 10162 10161 10158 ] final  -37.28 input  -65.29 | X-H torsion
[ 10718 10713 10712 10709 ] final -150.09 input   66.30 | X-H torsion
[ 10763 10752 10751 10750 ] final -103.36 input  -60.55 | X-H torsion
[ 11005 11000 10999 10996 ] final -149.07 input  -57.11 | X-H torsion

> <Gold.Protein.ActiveResidues>
 VAL166  LYS551  ARG553  GLY616  TRP617  ASP618  TYR619  PRO620  LYS621  CYS622 
 ASP623  PHE694  ASN695  SER759  ASP760  ASP761  ALA762  ILE779  LEU786  VAL792 
 PHE793  MET794  SER795  GLU796  ALA797  LYS798  CYS799  TRP800  GLU811  SER814 

> <Gold.Protein.RotatedAtoms>
  151.9473  135.0185  160.0539 H   0  0  0  0  0  0  0  0  0  0  0  0  # atno 6907 bound_to 6896
  152.1984  133.4818  159.5053 H   0  0  0  0  0  0  0  0  0  0  0  0  # atno 6908 bound_to 6896
  150.6949  134.1539  159.4194 H   0  0  0  0  0  0  0  0  0  0  0  0  # atno 6909 bound_to 6896
  145.2002  140.9053  143.3374 H   0  0  0  0  0  0  0  0  0  0  0  0  # atno 7974 bound_to 7965
  154.4600  140.0958  156.6866 H   0  0  0  0  0  0  0  0  0  0  0  0  # atno 8008 bound_to 7997
  155.5023  140.3474  155.4355 H   0  0  0  0  0  0  0  0  0  0  0  0  # atno 8009 bound_to 7997
  156.0852  140.1383  156.9651 H   0  0  0  0  0  0  0  0  0  0  0  0  # atno 8010 bound_to 7997
  140.7122  143.3352  151.2479 H   0  0  0  0  0  0  0  0  0  0  0  0  # atno 10167 bound_to 10162
  156.4416  130.8124  151.2354 H   0  0  0  0  0  0  0  0  0  0  0  0  # atno 10718 bound_to 10713
  154.7801  135.4826  153.9827 H   0  0  0  0  0  0  0  0  0  0  0  0  # atno 10763 bound_to 10752
  153.1483  135.6786  153.8929 H   0  0  0  0  0  0  0  0  0  0  0  0  # atno 10764 bound_to 10752
  153.8581  135.3159  155.3414 H   0  0  0  0  0  0  0  0  0  0  0  0  # atno 10765 bound_to 10752
  140.7546  134.3367  157.5117 H   0  0  0  0  0  0  0  0  0  0  0  0  # atno 11005 bound_to 11000
  144.9955  139.3648  143.6193 LP  0  0  0  0  0  0  0  0  0  0  0  0  # atno 17320 bound_to 7965
  146.3419  139.9156  142.8774 LP  0  0  0  0  0  0  0  0  0  0  0  0  # atno 17321 bound_to 7965
  139.6845  143.9797  152.2826 LP  0  0  0  0  0  0  0  0  0  0  0  0  # atno 17342 bound_to 10162
  139.9438  144.6664  150.8239 LP  0  0  0  0  0  0  0  0  0  0  0  0  # atno 17343 bound_to 10162
  157.7506  131.0166  150.3553 LP  0  0  0  0  0  0  0  0  0  0  0  0  # atno 17370 bound_to 10713
  156.3911  130.3898  149.7029 LP  0  0  0  0  0  0  0  0  0  0  0  0  # atno 17371 bound_to 10713
  139.8781  134.9164  156.3153 LP  0  0  0  0  0  0  0  0  0  0  0  0  # atno 17394 bound_to 11000
  140.9719  133.7322  156.0547 LP  0  0  0  0  0  0  0  0  0  0  0  0  # atno 17395 bound_to 11000

$$$$
