AV-unprocessed.smi:169|AV-procd|sdf|1402|dock1
  -GOLD-   2262019153D 1   1.00000     0.00000
 Structure written by MMmdl.
 56 60  0  0  0  0  0  0  0  0  2 V2000
  147.0106  139.2702  151.7450 C   0  0  0  0  0  0  0  0  0  0  0  0
  146.7962  138.6244  153.1252 C   0  0  0  0  0  0  0  0  0  0  0  0
  147.7094  139.1425  154.1773 N   0  3  2  0  0  0  0  0  0  0  0  0
  147.3563  140.5418  154.6100 C   0  0  0  0  0  0  0  0  0  0  0  0
  147.8839  140.9505  156.0364 C   0  0  0  0  0  0  0  0  0  0  0  0
  149.2882  140.3945  156.3431 C   0  0  3  0  0  0  0  0  0  0  0  0
  150.7423  140.8467  156.1567 C   0  0  0  0  0  0  0  0  0  0  0  0
  151.2740  139.6967  155.2395 C   0  0  0  0  0  0  0  0  0  0  0  0
  150.0898  138.6812  155.1126 C   0  0  2  0  0  0  0  0  0  0  0  0
  149.1660  138.8944  153.8587 C   0  0  0  0  0  0  0  0  0  0  0  0
  149.3174  138.9428  156.3116 N   0  0  0  0  0  0  0  0  0  0  0  0
  149.5702  138.2394  157.4461 C   0  0  0  0  0  0  0  0  0  0  0  0
  150.7206  138.4688  158.1333 N   0  0  0  0  0  0  0  0  0  0  0  0
  150.9840  137.7943  159.2559 C   0  0  0  0  0  0  0  0  0  0  0  0
  150.2402  136.8716  159.8678 N   0  0  0  0  0  0  0  0  0  0  0  0
  149.0716  136.6546  159.1992 C   0  0  0  0  0  0  0  0  0  0  0  0
  148.6623  137.2870  157.9910 C   0  0  0  0  0  0  0  0  0  0  0  0
  147.4093  136.8167  157.6157 N   0  0  0  0  0  0  0  0  0  0  0  0
  147.1044  135.9458  158.5383 C   0  0  0  0  0  0  0  0  0  0  0  0
  148.0375  135.7990  159.5401 N   0  0  0  0  0  0  0  0  0  0  0  0
  147.9561  134.9118  160.6930 C   0  0  0  0  0  0  0  0  0  0  0  0
  146.8557  135.2701  161.7195 C   0  0  0  0  0  0  0  0  0  0  0  0
  146.4858  133.9532  162.4243 C   0  0  0  0  0  0  0  0  0  0  0  0
  146.1275  132.9278  161.5196 O   0  0  0  0  0  0  0  0  0  0  0  0
  147.1047  136.5031  162.6079 C   0  0  0  0  0  0  0  0  0  0  0  0
  146.2650  137.3314  161.7733 O   0  0  0  0  0  0  0  0  0  0  0  0
  145.6983  136.1364  161.1920 C   0  0  0  0  0  0  0  0  0  0  0  0
  146.3229  138.8440  151.0143 H   0  0  0  0  0  0  0  0  0  0  0  0
  148.0217  139.1051  151.3729 H   0  0  0  0  0  0  0  0  0  0  0  0
  146.8313  140.3451  151.7684 H   0  0  0  0  0  0  0  0  0  0  0  0
  145.7641  138.7766  153.4433 H   0  0  0  0  0  0  0  0  0  0  0  0
  146.9239  137.5439  153.0469 H   0  0  0  0  0  0  0  0  0  0  0  0
  147.7357  141.2417  153.8638 H   0  0  0  0  0  0  0  0  0  0  0  0
  146.2724  140.6647  154.6072 H   0  0  0  0  0  0  0  0  0  0  0  0
  147.8621  142.0357  156.1500 H   0  0  0  0  0  0  0  0  0  0  0  0
  147.1964  140.5603  156.7876 H   0  0  0  0  0  0  0  0  0  0  0  0
  149.3566  140.7675  155.3282 H   0  0  0  0  0  0  0  0  0  0  0  0
  150.8784  141.8469  155.7329 H   0  0  0  0  0  0  0  0  0  0  0  0
  151.2645  140.8312  157.1141 H   0  0  0  0  0  0  0  0  0  0  0  0
  151.6068  140.0619  154.2675 H   0  0  0  0  0  0  0  0  0  0  0  0
  152.1315  139.2196  155.7159 H   0  0  0  0  0  0  0  0  0  0  0  0
  150.4909  137.6693  155.0887 H   0  0  0  0  0  0  0  0  0  0  0  0
  149.2481  137.9939  153.2486 H   0  0  0  0  0  0  0  0  0  0  0  0
  149.5371  139.7035  153.2284 H   0  0  0  0  0  0  0  0  0  0  0  0
  151.9230  138.0309  159.7344 H   0  0  0  0  0  0  0  0  0  0  0  0
  146.1799  135.3879  158.5136 H   0  0  0  0  0  0  0  0  0  0  0  0
  147.8047  133.8989  160.3177 H   0  0  0  0  0  0  0  0  0  0  0  0
  148.9366  134.9046  161.1713 H   0  0  0  0  0  0  0  0  0  0  0  0
  147.3196  133.5901  163.0263 H   0  0  0  0  0  0  0  0  0  0  0  0
  145.6479  134.1021  163.1063 H   0  0  0  0  0  0  0  0  0  0  0  0
  145.2554  133.1001  161.1986 H   0  0  0  0  0  0  0  0  0  0  0  0
  146.7030  136.4198  163.6188 H   0  0  0  0  0  0  0  0  0  0  0  0
  148.1376  136.8449  162.6435 H   0  0  0  0  0  0  0  0  0  0  0  0
  145.6248  136.1833  160.1067 H   0  0  0  0  0  0  0  0  0  0  0  0
  144.7236  135.9064  161.6249 H   0  0  0  0  0  0  0  0  0  0  0  0
  147.5151  138.5599  154.9795 H   0  0  0  0  0  0  0  0  0  0  0  0
  1  2  1  0  0  0  0
  1 28  1  0  0  0  0
  1 29  1  0  0  0  0
  1 30  1  0  0  0  0
  2  3  1  0  0  0  0
  2 31  1  0  0  0  0
  2 32  1  0  0  0  0
  3 10  1  0  0  0  0
  3  4  1  0  0  0  0
  3 56  1  0  0  0  0
  4  5  1  0  0  0  0
  4 33  1  0  0  0  0
  4 34  1  0  0  0  0
  5  6  1  0  0  0  0
  5 35  1  0  0  0  0
  5 36  1  0  0  0  0
  6 11  1  0  0  0  0
  6  7  1  0  0  0  0
  6 37  1  0  0  0  0
  7  8  1  0  0  0  0
  7 38  1  0  0  0  0
  7 39  1  0  0  0  0
  8  9  1  0  0  0  0
  8 40  1  0  0  0  0
  8 41  1  0  0  0  0
  9 10  1  0  0  0  0
  9 11  1  0  0  0  0
  9 42  1  0  0  0  0
 10 43  1  0  0  0  0
 10 44  1  0  0  0  0
 11 12  1  0  0  0  0
 12 17  1  0  0  0  0
 12 13  2  0  0  0  0
 13 14  1  0  0  0  0
 14 15  2  0  0  0  0
 14 45  1  0  0  0  0
 15 16  1  0  0  0  0
 16 20  1  0  0  0  0
 16 17  2  0  0  0  0
 17 18  1  0  0  0  0
 18 19  2  0  0  0  0
 19 20  1  0  0  0  0
 19 46  1  0  0  0  0
 20 21  1  0  0  0  0
 21 22  1  0  0  0  0
 21 47  1  0  0  0  0
 21 48  1  0  0  0  0
 22 27  1  0  0  0  0
 22 23  1  0  0  0  0
 22 25  1  0  0  0  0
 23 24  1  0  0  0  0
 23 49  1  0  0  0  0
 23 50  1  0  0  0  0
 24 51  1  0  0  0  0
 25 26  1  0  0  0  0
 25 52  1  0  0  0  0
 25 53  1  0  0  0  0
 26 27  1  0  0  0  0
 27 54  1  0  0  0  0
 27 55  1  0  0  0  0
M  CHG  1   3   1
M  END
> <s_m_source_file>
AV-unprocessed.smi

> <i_m_source_file_index>
169

> <i_lp_mmshare_version>
43012

> <i_f3d_flags>
0

> <s_epik_input>
W0NASF0xMltDSDJdW0NIMl1OKFtDSDJdW0NIM10pW0NIMl1bQ0BIXShbQ0gyXVtDSDJdMSlOMmMobltjSF1uMyljKGMzNCluW2NIXW40W0NIMl1DNShbQ0gyXVtPSF0pW0NIMl1PW0NIMl01

> <s_epik_cmdline>
J2VwaWtfcHl0aG9uJywgJy1waCcsICc3LjAnLCAnLXRuJywgJzgnLCAnLW1hJywgJzIwMCcsICctbWV0YWxfYmluZGluZycsICctaW1hZScsICc8aW5maWxlLm1hZT4nLCAnLW9tYWUnLCAnPG91dGZpbGUubWFlPic=

> <r_lp_tautomer_probability>
1

> <r_epik_Ionization_Penalty>
0.00274162

> <r_epik_Ionization_Penalty_Charging>
0.00243722

> <r_epik_Ionization_Penalty_Neutral>
0.000304399

> <r_epik_State_Penalty>
-0

> <r_epik_Charging_Adjusted_Penalty>
0.00243722

> <i_epik_Tot_Q>
1

> <i_epik_Tot_abs_Q>
1

> <r_epik_Metal_State_Penalty>
-0

> <b_epik_Metal_Only>
0

> <s_lp_Force_Field>
OPLS_2005

> <r_lp_Energy>
131.144

> <b_lp_Chiralities_Consistent>
1

> <s_lp_Variant>
AV-unprocessed.smi:169-5

> <Gold.Version>
5.8.1

> <Gold.Id.Protein>
6NUR|6NUR_protein|mol2

> <Gold.PLP.Fitness>
43.1818

> <Gold.PLP.PLP>
-39.0502

> <Gold.PLP.part.hbond>
-3.0113

> <Gold.PLP.part.metal>
0.0000

> <Gold.PLP.part.buried>
-0.6133

> <Gold.PLP.part.nonpolar>
-36.5421

> <Gold.PLP.part.repulsive>
0.0000

> <Gold.PLP.ligand.clash>
0.0000

> <Gold.PLP.ligand.torsion>
0.7403

> <Gold.PLP.Chemscore.Hbond>
1.7200

> <Gold.PLP.Chemscore.CHOScore>
0.0000

> <Gold.PLP.Chemscore.Metal>
0.0000

> <Gold.Chemscore.Hbonds>
donor molecule, donor type, donor heavy atom, donor atom, acceptor molecule, acceptor atom, score
      P1  H  6896  6907       L1    15  1.00
      P1  H  6934  6947       L1    26  0.83

> <Gold.PLP.Chemscore.Internal.Correction>
0.4522

> <Gold.Rescore>
     Score         DG    S(hbond)    S(metal)    S(lipo)     H(rot)  DE(clash)    DE(int)     intcor
     11.97     -14.94       1.47        0.00      96.17       2.62       1.44       1.54       ----

> <Gold.Chemscore.Fitness>
11.9666

> <Gold.Chemscore.DG>
-14.9448

> <Gold.Chemscore.ZeroCoef>
-5.4800

> <Gold.Chemscore.Hbond>
1.4739

> <Gold.Chemscore.Metal>
0.0000

> <Gold.Chemscore.Lipo>
96.1734

> <Gold.Chemscore.Internal_Hbond>
0.0000

> <Gold.Chemscore.DEClash>
1.4414

> <Gold.Chemscore.DEInternal>
1.5369

> <Gold.Chemscore.Rot>
2.6212

> <Gold.Chemscore.Internal.Correction>
   9.000000E+99

> <Gold.Chemscore.Hbonds>
donor molecule, donor type, donor heavy atom, donor atom, acceptor molecule, acceptor atom, score
      P1  H  6896  6907       L1    15  0.32
      P1  H  6934  6947       L1    26  0.73

> <Gold.Chemscore.Hbond.Weighted>
-4.9227

> <Gold.Chemscore.Metal.Weighted>
-0.0000

> <Gold.Chemscore.Lipo.Weighted>
-11.2523

> <Gold.Chemscore.Internal_Hbond.Weighted>
0.0000

> <Gold.Chemscore.DEClash.Weighted>
1.4414

> <Gold.Chemscore.DEInternal.Weighted>
1.5369

> <Gold.Chemscore.Rot.Weighted>
6.7102

> <Gold.Chemscore.Internal.Correction.Weighted>
   9.000000E+99

> <Gold.Protein.RotatedTorsions>
[ 6907 6896 6895 6894 ] final  -28.75 input  -60.11 | X-H torsion
[ 7974 7965 7964 7962 ] final   13.39 input  175.53 | X-H torsion
[ 8008 7997 7996 7995 ] final  -18.19 input   59.86 | X-H torsion
[ 10167 10162 10161 10158 ] final  -13.55 input  -65.29 | X-H torsion
[ 10718 10713 10712 10709 ] final  -60.92 input   66.30 | X-H torsion
[ 10763 10752 10751 10750 ] final -159.79 input  -60.55 | X-H torsion
[ 11005 11000 10999 10996 ] final  156.94 input  -57.11 | X-H torsion

> <Gold.Protein.ActiveResidues>
 VAL166  LYS551  ARG553  GLY616  TRP617  ASP618  TYR619  PRO620  LYS621  CYS622 
 ASP623  PHE694  ASN695  SER759  ASP760  ASP761  ALA762  ILE779  LEU786  VAL792 
 PHE793  MET794  SER795  GLU796  ALA797  LYS798  CYS799  TRP800  GLU811  SER814 

> <Gold.Protein.RotatedAtoms>
  151.1286  135.0118  159.8571 H   0  0  0  0  0  0  0  0  0  0  0  0  # atno 6907 bound_to 6896
  152.5450  134.1637  159.8578 H   0  0  0  0  0  0  0  0  0  0  0  0  # atno 6908 bound_to 6896
  151.1701  133.4744  159.2627 H   0  0  0  0  0  0  0  0  0  0  0  0  # atno 6909 bound_to 6896
  146.2330  139.9196  142.8512 H   0  0  0  0  0  0  0  0  0  0  0  0  # atno 7974 bound_to 7965
  154.4924  140.2122  155.9520 H   0  0  0  0  0  0  0  0  0  0  0  0  # atno 8008 bound_to 7997
  156.1323  140.3194  155.8337 H   0  0  0  0  0  0  0  0  0  0  0  0  # atno 8009 bound_to 7997
  155.4273  140.0501  157.3012 H   0  0  0  0  0  0  0  0  0  0  0  0  # atno 8010 bound_to 7997
  140.7184  143.5414  150.9405 H   0  0  0  0  0  0  0  0  0  0  0  0  # atno 10167 bound_to 10162
  156.0957  130.4193  150.0922 H   0  0  0  0  0  0  0  0  0  0  0  0  # atno 10718 bound_to 10713
  154.7445  135.3077  154.8669 H   0  0  0  0  0  0  0  0  0  0  0  0  # atno 10763 bound_to 10752
  153.9473  135.6768  153.4748 H   0  0  0  0  0  0  0  0  0  0  0  0  # atno 10764 bound_to 10752
  153.1042  135.4897  154.8848 H   0  0  0  0  0  0  0  0  0  0  0  0  # atno 10765 bound_to 10752
  140.1722  134.8535  157.2704 H   0  0  0  0  0  0  0  0  0  0  0  0  # atno 11005 bound_to 11000
  145.2149  140.9911  143.4079 LP  0  0  0  0  0  0  0  0  0  0  0  0  # atno 17320 bound_to 7965
  144.9659  139.3930  143.6333 LP  0  0  0  0  0  0  0  0  0  0  0  0  # atno 17321 bound_to 7965
  139.9137  143.6690  152.3110 LP  0  0  0  0  0  0  0  0  0  0  0  0  # atno 17342 bound_to 10162
  139.7082  144.7624  151.1157 LP  0  0  0  0  0  0  0  0  0  0  0  0  # atno 17343 bound_to 10162
  156.8921  130.9592  151.3587 LP  0  0  0  0  0  0  0  0  0  0  0  0  # atno 17370 bound_to 10713
  157.6117  130.8588  149.8963 LP  0  0  0  0  0  0  0  0  0  0  0  0  # atno 17371 bound_to 10713
  140.2364  134.3848  155.7499 LP  0  0  0  0  0  0  0  0  0  0  0  0  # atno 17394 bound_to 11000
  141.2218  133.7242  156.8721 LP  0  0  0  0  0  0  0  0  0  0  0  0  # atno 17395 bound_to 11000

$$$$
