AV-unprocessed.smi:543|AV-procd|sdf|2875|dock3
  -GOLD-   2262023363D 1   1.00000     0.00000
 Structure written by MMmdl.
 46 48  0  0  0  0  0  0  0  0  1 V2000
  154.8434  135.1647  160.4421 C   0  0  0  0  0  0  0  0  0  0  0  0
  153.7629  136.0392  160.1728 O   0  0  0  0  0  0  0  0  0  0  0  0
  154.0211  137.3704  160.5894 C   0  0  0  0  0  0  0  0  0  0  0  0
  154.5601  138.1849  159.4053 C   0  0  0  0  0  0  0  0  0  0  0  0
  153.5569  139.1105  158.8809 N   0  0  0  0  0  0  0  0  0  0  0  0
  153.1225  140.2984  159.3927 C   0  0  0  0  0  0  0  0  0  0  0  0
  153.5930  140.8170  160.6057 N   0  0  0  0  0  0  0  0  0  0  0  0
  154.5821  140.1884  161.4729 C   0  0  0  0  0  0  0  0  0  0  0  0
  153.0211  141.9869  161.2735 C   0  0  0  0  0  0  0  0  0  0  0  0
  152.6552  143.1467  160.3605 C   0  0  0  0  0  0  0  0  0  0  0  0
  153.3959  143.3742  159.1814 C   0  0  0  0  0  0  0  0  0  0  0  0
  153.0559  144.4391  158.3248 C   0  0  0  0  0  0  0  0  0  0  0  0
  151.9753  145.2834  158.6446 C   0  0  0  0  0  0  0  0  0  0  0  0
  151.2354  145.0629  159.8222 C   0  0  0  0  0  0  0  0  0  0  0  0
  151.5754  143.9984  160.6793 C   0  0  0  0  0  0  0  0  0  0  0  0
  152.2458  140.9408  158.6148 N   0  0  0  0  0  0  0  0  0  0  0  0
  152.0890  140.0919  157.5334 C   0  0  0  0  0  0  0  0  0  0  0  0
  152.8741  138.9942  157.6674 C   0  0  0  0  0  0  0  0  0  0  0  0
  152.9396  137.9465  156.6386 C   0  0  0  0  0  0  0  0  0  0  0  0
  153.6595  136.9540  156.7244 O   0  0  0  0  0  0  0  0  0  0  0  0
  152.1300  138.1893  155.5791 N   0  0  0  0  0  0  0  0  0  0  0  0
  151.3090  139.2669  155.3894 C   0  0  0  0  0  0  0  0  0  0  0  0
  150.6263  139.3486  154.3686 O   0  0  0  0  0  0  0  0  0  0  0  0
  151.2845  140.2285  156.3667 N   0  0  0  0  0  0  0  0  0  0  0  0
  150.4235  141.4035  156.2181 C   0  0  0  0  0  0  0  0  0  0  0  0
  152.1357  137.4977  154.8438 H   0  0  0  0  0  0  0  0  0  0  0  0
  154.5978  134.1624  160.0915 H   0  0  0  0  0  0  0  0  0  0  0  0
  155.0452  135.1072  161.5123 H   0  0  0  0  0  0  0  0  0  0  0  0
  155.7507  135.4886  159.9305 H   0  0  0  0  0  0  0  0  0  0  0  0
  153.1069  137.8275  160.9712 H   0  0  0  0  0  0  0  0  0  0  0  0
  154.7494  137.3712  161.4014 H   0  0  0  0  0  0  0  0  0  0  0  0
  155.4446  138.7463  159.7022 H   0  0  0  0  0  0  0  0  0  0  0  0
  154.9084  137.5139  158.6272 H   0  0  0  0  0  0  0  0  0  0  0  0
  154.7660  139.1587  161.1654 H   0  0  0  0  0  0  0  0  0  0  0  0
  154.2416  140.1570  162.5087 H   0  0  0  0  0  0  0  0  0  0  0  0
  155.5238  140.7368  161.4382 H   0  0  0  0  0  0  0  0  0  0  0  0
  152.1379  141.7200  161.8561 H   0  0  0  0  0  0  0  0  0  0  0  0
  153.7555  142.3327  162.0019 H   0  0  0  0  0  0  0  0  0  0  0  0
  154.2233  142.7287  158.9257 H   0  0  0  0  0  0  0  0  0  0  0  0
  153.6236  144.6070  157.4215 H   0  0  0  0  0  0  0  0  0  0  0  0
  151.7137  146.0992  157.9871 H   0  0  0  0  0  0  0  0  0  0  0  0
  150.4061  145.7095  160.0677 H   0  0  0  0  0  0  0  0  0  0  0  0
  151.0003  143.8345  161.5783 H   0  0  0  0  0  0  0  0  0  0  0  0
  150.6837  141.9584  155.3160 H   0  0  0  0  0  0  0  0  0  0  0  0
  150.5050  142.0931  157.0582 H   0  0  0  0  0  0  0  0  0  0  0  0
  149.3775  141.1037  156.1438 H   0  0  0  0  0  0  0  0  0  0  0  0
  1  2  1  0  0  0  0
  1 27  1  0  0  0  0
  1 28  1  0  0  0  0
  1 29  1  0  0  0  0
  2  3  1  0  0  0  0
  3  4  1  0  0  0  0
  3 30  1  0  0  0  0
  3 31  1  0  0  0  0
  4  5  1  0  0  0  0
  4 32  1  0  0  0  0
  4 33  1  0  0  0  0
  5 18  1  0  0  0  0
  5  6  1  0  0  0  0
  6  7  1  0  0  0  0
  6 16  2  0  0  0  0
  7  8  1  0  0  0  0
  7  9  1  0  0  0  0
  8 34  1  0  0  0  0
  8 35  1  0  0  0  0
  8 36  1  0  0  0  0
  9 10  1  0  0  0  0
  9 37  1  0  0  0  0
  9 38  1  0  0  0  0
 10 15  1  0  0  0  0
 10 11  2  0  0  0  0
 11 12  1  0  0  0  0
 11 39  1  0  0  0  0
 12 13  2  0  0  0  0
 12 40  1  0  0  0  0
 13 14  1  0  0  0  0
 13 41  1  0  0  0  0
 14 15  2  0  0  0  0
 14 42  1  0  0  0  0
 15 43  1  0  0  0  0
 16 17  1  0  0  0  0
 17 24  1  0  0  0  0
 17 18  2  0  0  0  0
 18 19  1  0  0  0  0
 19 20  2  0  0  0  0
 19 21  1  0  0  0  0
 21 26  1  0  0  0  0
 21 22  1  0  0  0  0
 22 23  2  0  0  0  0
 22 24  1  0  0  0  0
 24 25  1  0  0  0  0
 25 44  1  0  0  0  0
 25 45  1  0  0  0  0
 25 46  1  0  0  0  0
M  END
> <s_m_source_file>
AV-unprocessed.smi

> <i_m_source_file_index>
543

> <i_lp_mmshare_version>
43012

> <i_f3d_flags>
0

> <s_epik_input>
W0NIM11uMWMoPU8pW25IXWMoPU8pYyhjMTIpbihbQ0gyXVtDSDJdT1tDSDNdKWMobjIpTihbQ0gzXSlbQ0gyXWMzW2NIXVtjSF1bY0hdW2NIXVtjSF0z

> <s_epik_cmdline>
J2VwaWtfcHl0aG9uJywgJy1waCcsICc3LjAnLCAnLXRuJywgJzgnLCAnLW1hJywgJzIwMCcsICctbWV0YWxfYmluZGluZycsICctaW1hZScsICc8aW5maWxlLm1hZT4nLCAnLW9tYWUnLCAnPG91dGZpbGUubWFlPic=

> <r_lp_tautomer_probability>
1

> <r_epik_Ionization_Penalty>
3.94324e-05

> <r_epik_Ionization_Penalty_Charging>
1.70393e-05

> <r_epik_Ionization_Penalty_Neutral>
2.23931e-05

> <r_epik_State_Penalty>
-0

> <r_epik_Charging_Adjusted_Penalty>
1.70393e-05

> <i_epik_Tot_Q>
0

> <i_epik_Tot_abs_Q>
0

> <r_epik_Metal_State_Penalty>
0.0163311

> <b_epik_Metal_Only>
0

> <s_lp_Force_Field>
OPLS_2005

> <r_lp_Energy>
32.7304

> <b_lp_Chiralities_Consistent>
1

> <s_lp_Variant>
AV-unprocessed.smi:543-1

> <Gold.Version>
5.8.1

> <Gold.Id.Protein>
6NUR|6NUR_protein|mol2

> <Gold.PLP.Fitness>
56.9854

> <Gold.PLP.PLP>
-51.8961

> <Gold.PLP.part.hbond>
-3.0000

> <Gold.PLP.part.metal>
0.0000

> <Gold.PLP.part.buried>
-5.4569

> <Gold.PLP.part.nonpolar>
-43.3096

> <Gold.PLP.part.repulsive>
0.3073

> <Gold.PLP.ligand.clash>
3.9488

> <Gold.PLP.ligand.torsion>
1.4316

> <Gold.PLP.Chemscore.Hbond>
2.5997

> <Gold.PLP.Chemscore.CHOScore>
0.0000

> <Gold.PLP.Chemscore.Metal>
0.0000

> <Gold.Chemscore.Hbonds>
donor molecule, donor type, donor heavy atom, donor atom, acceptor molecule, acceptor atom, score
      P1  H  6896  6909       L1     2  1.00
      P1  H  7989  7998       L1    23  0.90
      P1  H 10752 10765       L1    20  0.69

> <Gold.PLP.Chemscore.Internal.Correction>
4.1021

> <Gold.Rescore>
     Score         DG    S(hbond)    S(metal)    S(lipo)     H(rot)  DE(clash)    DE(int)     intcor
     16.27     -20.66       1.91        0.00     115.87       1.86       0.04       4.35       ----

> <Gold.Chemscore.Fitness>
16.2720

> <Gold.Chemscore.DG>
-20.6646

> <Gold.Chemscore.ZeroCoef>
-5.4800

> <Gold.Chemscore.Hbond>
1.9115

> <Gold.Chemscore.Metal>
0.0000

> <Gold.Chemscore.Lipo>
115.8672

> <Gold.Chemscore.Internal_Hbond>
0.0000

> <Gold.Chemscore.DEClash>
0.0425

> <Gold.Chemscore.DEInternal>
4.3501

> <Gold.Chemscore.Rot>
1.8580

> <Gold.Chemscore.Internal.Correction>
   9.000000E+99

> <Gold.Chemscore.Hbonds>
donor molecule, donor type, donor heavy atom, donor atom, acceptor molecule, acceptor atom, score
      P1  H  6896  6909       L1     2  0.60
      P1  H  7989  7998       L1    23  0.17
      P1  H 10752 10765       L1    20  0.66

> <Gold.Chemscore.Hbond.Weighted>
-6.3845

> <Gold.Chemscore.Metal.Weighted>
-0.0000

> <Gold.Chemscore.Lipo.Weighted>
-13.5565

> <Gold.Chemscore.Internal_Hbond.Weighted>
0.0000

> <Gold.Chemscore.DEClash.Weighted>
0.0425

> <Gold.Chemscore.DEInternal.Weighted>
4.3501

> <Gold.Chemscore.Rot.Weighted>
4.7564

> <Gold.Chemscore.Internal.Correction.Weighted>
   9.000000E+99

> <Gold.Protein.RotatedTorsions>
[ 6907 6896 6895 6894 ] final  154.71 input  -60.11 | X-H torsion
[ 7974 7965 7964 7962 ] final -172.88 input  175.53 | X-H torsion
[ 8008 7997 7996 7995 ] final  -23.42 input   59.86 | X-H torsion
[ 10167 10162 10161 10158 ] final -125.10 input  -65.29 | X-H torsion
[ 10718 10713 10712 10709 ] final  -55.39 input   66.30 | X-H torsion
[ 10763 10752 10751 10750 ] final -119.48 input  -60.55 | X-H torsion
[ 11005 11000 10999 10996 ] final  -33.56 input  -57.11 | X-H torsion

> <Gold.Protein.ActiveResidues>
 VAL166  LYS551  ARG553  GLY616  TRP617  ASP618  TYR619  PRO620  LYS621  CYS622 
 ASP623  PHE694  ASN695  SER759  ASP760  ASP761  ALA762  ILE779  LEU786  VAL792 
 PHE793  MET794  SER795  GLU796  ALA797  LYS798  CYS799  TRP800  GLU811  SER814 

> <Gold.Protein.RotatedAtoms>
  152.0546  133.4034  159.4391 H   0  0  0  0  0  0  0  0  0  0  0  0  # atno 6907 bound_to 6896
  150.6868  134.3269  159.4820 H   0  0  0  0  0  0  0  0  0  0  0  0  # atno 6908 bound_to 6896
  152.1083  134.9292  160.0618 H   0  0  0  0  0  0  0  0  0  0  0  0  # atno 6909 bound_to 6896
  144.7142  140.1706  143.6368 H   0  0  0  0  0  0  0  0  0  0  0  0  # atno 7974 bound_to 7965
  154.4586  140.1981  156.0307 H   0  0  0  0  0  0  0  0  0  0  0  0  # atno 8008 bound_to 7997
  156.0796  140.3273  155.7649 H   0  0  0  0  0  0  0  0  0  0  0  0  # atno 8009 bound_to 7997
  155.5132  140.0563  157.2910 H   0  0  0  0  0  0  0  0  0  0  0  0  # atno 8010 bound_to 7997
  139.9857  143.5694  152.2361 H   0  0  0  0  0  0  0  0  0  0  0  0  # atno 10167 bound_to 10162
  156.1372  130.4156  150.0165 H   0  0  0  0  0  0  0  0  0  0  0  0  # atno 10718 bound_to 10713
  154.8618  135.4237  154.2306 H   0  0  0  0  0  0  0  0  0  0  0  0  # atno 10763 bound_to 10752
  153.3292  135.6987  153.6968 H   0  0  0  0  0  0  0  0  0  0  0  0  # atno 10764 bound_to 10752
  153.5992  135.3540  155.2912 H   0  0  0  0  0  0  0  0  0  0  0  0  # atno 10765 bound_to 10752
  140.9645  133.7145  156.1422 H   0  0  0  0  0  0  0  0  0  0  0  0  # atno 11005 bound_to 11000
  145.8947  139.2396  143.1529 LP  0  0  0  0  0  0  0  0  0  0  0  0  # atno 17320 bound_to 7965
  145.9869  140.8635  143.0086 LP  0  0  0  0  0  0  0  0  0  0  0  0  # atno 17321 bound_to 7965
  139.6377  144.7651  151.2404 LP  0  0  0  0  0  0  0  0  0  0  0  0  # atno 17342 bound_to 10162
  140.7473  143.6371  150.8369 LP  0  0  0  0  0  0  0  0  0  0  0  0  # atno 17343 bound_to 10162
  156.8060  130.9308  151.3645 LP  0  0  0  0  0  0  0  0  0  0  0  0  # atno 17370 bound_to 10713
  157.6543  130.8911  149.9697 LP  0  0  0  0  0  0  0  0  0  0  0  0  # atno 17371 bound_to 10713
  140.7420  134.4140  157.5553 LP  0  0  0  0  0  0  0  0  0  0  0  0  # atno 17394 bound_to 11000
  139.8889  134.8843  156.2447 LP  0  0  0  0  0  0  0  0  0  0  0  0  # atno 17395 bound_to 11000

$$$$
