AV-unprocessed.smi:1718|AV-procd|sdf|6927|dock5
  -GOLD-   22720 8133D 1   1.00000     0.00000
 Structure written by MMmdl.
 39 40  0  0  0  0  0  0  0  0  2 V2000
  150.2911  134.6850  155.0254 C   0  0  0  0  0  0  0  0  0  0  0  0
  150.6047  136.0476  155.6614 C   0  0  1  0  0  0  0  0  0  0  0  0
  149.7861  137.0185  155.0148 O   0  0  0  0  0  0  0  0  0  0  0  0
  150.4828  138.1038  154.4127 C   0  0  0  0  0  0  0  0  0  0  0  0
  150.9679  139.0483  155.5187 C   0  0  2  0  0  0  0  0  0  0  0  0
  149.8903  139.4391  156.5274 C   0  0  0  0  0  0  0  0  0  0  0  0
  150.4580  140.7228  157.0887 C   0  0  0  0  0  0  0  0  0  0  0  0
  151.0986  141.3574  155.8555 C   0  0  0  0  0  0  0  0  0  0  0  0
  151.4052  140.2856  154.9657 O   0  0  0  0  0  0  0  0  0  0  0  0
  150.3295  136.0383  157.1741 C   0  0  0  0  0  0  0  0  0  0  0  0
  151.2760  135.9983  157.9602 O   0  0  0  0  0  0  0  0  0  0  0  0
  149.0286  136.0781  157.5235 N   0  0  0  0  0  0  0  0  0  0  0  0
  148.4429  136.0336  158.8000 C   0  0  0  0  0  0  0  0  0  0  0  0
  147.9300  134.9140  159.3815 C   0  0  0  0  0  0  0  0  0  0  0  0
  147.3171  134.9322  160.7037 C   0  0  0  0  0  0  0  0  0  0  0  0
  146.8259  133.6879  161.4222 C   0  0  0  0  0  0  0  0  0  0  0  0
  147.8344  132.8566  161.6850 F   0  0  0  0  0  0  0  0  0  0  0  0
  146.2554  134.0264  162.5775 F   0  0  0  0  0  0  0  0  0  0  0  0
  145.9239  133.0364  160.6882 F   0  0  0  0  0  0  0  0  0  0  0  0
  147.3330  136.1914  161.2713 C   0  0  0  0  0  0  0  0  0  0  0  0
  147.7933  137.3517  160.7546 N   0  5  0  0  0  0  0  0  0  0  0  0
  148.3625  137.3234  159.5166 C   0  0  0  0  0  0  0  0  0  0  0  0
  148.8063  138.3434  158.9879 O   0  0  0  0  0  0  0  0  0  0  0  0
  150.8781  133.8889  155.4847 H   0  0  0  0  0  0  0  0  0  0  0  0
  150.5254  134.6938  153.9607 H   0  0  0  0  0  0  0  0  0  0  0  0
  149.2364  134.4269  155.1269 H   0  0  0  0  0  0  0  0  0  0  0  0
  151.6556  136.2777  155.4742 H   0  0  0  0  0  0  0  0  0  0  0  0
  151.3421  137.7429  153.8469 H   0  0  0  0  0  0  0  0  0  0  0  0
  149.8335  138.6366  153.7164 H   0  0  0  0  0  0  0  0  0  0  0  0
  151.8150  138.6035  156.0436 H   0  0  0  0  0  0  0  0  0  0  0  0
  148.9429  139.6377  156.0239 H   0  0  0  0  0  0  0  0  0  0  0  0
  149.7220  138.6758  157.2876 H   0  0  0  0  0  0  0  0  0  0  0  0
  149.7051  141.3593  157.5543 H   0  0  0  0  0  0  0  0  0  0  0  0
  151.2219  140.4964  157.8338 H   0  0  0  0  0  0  0  0  0  0  0  0
  150.3962  142.0283  155.3598 H   0  0  0  0  0  0  0  0  0  0  0  0
  151.9918  141.9296  156.1072 H   0  0  0  0  0  0  0  0  0  0  0  0
  148.3667  136.1832  156.7680 H   0  0  0  0  0  0  0  0  0  0  0  0
  147.9406  133.9680  158.8661 H   0  0  0  0  0  0  0  0  0  0  0  0
  146.9163  136.2788  162.2975 H   0  0  0  0  0  0  0  0  0  0  0  0
  1  2  1  0  0  0  0
  1 24  1  0  0  0  0
  1 25  1  0  0  0  0
  1 26  1  0  0  0  0
  2  3  1  0  0  0  0
  2 10  1  0  0  0  0
  2 27  1  0  0  0  0
  3  4  1  0  0  0  0
  4  5  1  0  0  0  0
  4 28  1  0  0  0  0
  4 29  1  0  0  0  0
  5  9  1  0  0  0  0
  5  6  1  0  0  0  0
  5 30  1  0  0  0  0
  6  7  1  0  0  0  0
  6 31  1  0  0  0  0
  6 32  1  0  0  0  0
  7  8  1  0  0  0  0
  7 33  1  0  0  0  0
  7 34  1  0  0  0  0
  8  9  1  0  0  0  0
  8 35  1  0  0  0  0
  8 36  1  0  0  0  0
 10 11  2  0  0  0  0
 10 12  1  0  0  0  0
 12 13  1  0  0  0  0
 12 37  1  0  0  0  0
 13 22  1  0  0  0  0
 13 14  2  0  0  0  0
 14 15  1  0  0  0  0
 14 38  1  0  0  0  0
 15 16  1  0  0  0  0
 15 20  2  0  0  0  0
 16 17  1  0  0  0  0
 16 18  1  0  0  0  0
 16 19  1  0  0  0  0
 20 21  1  0  0  0  0
 20 39  1  0  0  0  0
 21 22  1  0  0  0  0
 22 23  2  0  0  0  0
M  CHG  1  21  -1
M  END
> <s_m_source_file>
AV-unprocessed.smi

> <i_m_source_file_index>
1718

> <i_lp_mmshare_version>
43012

> <i_f3d_flags>
0

> <s_epik_input>
TzFbQ0gyXVtDSDJdW0NIMl1bQ0BIXTFbQ0gyXU9bQ0BASF0oW0NIM10pQyg9TylbTkhdYzJbY0hdYyhDKEYpKEYpRilbY0hdW25IXWMyPU8=

> <s_epik_cmdline>
J2VwaWtfcHl0aG9uJywgJy1waCcsICc3LjAnLCAnLXRuJywgJzgnLCAnLW1hJywgJzIwMCcsICctbWV0YWxfYmluZGluZycsICctaW1hZScsICc8aW5maWxlLm1hZT4nLCAnLW9tYWUnLCAnPG91dGZpbGUubWFlPic=

> <r_epik_Ionization_Penalty>
2.5466

> <r_epik_Ionization_Penalty_Charging>
0.0575837

> <r_epik_Ionization_Penalty_Neutral>
2.48901

> <r_epik_State_Penalty>
2.6532

> <r_epik_Charging_Adjusted_Penalty>
2.71078

> <i_epik_Tot_Q>
-1

> <i_epik_Tot_abs_Q>
1

> <r_epik_Metal_State_Penalty>
0.516196

> <b_epik_Metal_Only>
0

> <s_lp_Force_Field>
OPLS_2005

> <r_lp_Energy>
37.0387

> <b_lp_Chiralities_Consistent>
1

> <s_lp_Variant>
AV-unprocessed.smi:1718-6

> <Gold.Version>
5.8.1

> <Gold.Id.Protein>
6NUR|6NUR_protein|mol2

> <Gold.PLP.Fitness>
45.1247

> <Gold.PLP.PLP>
-34.9308

> <Gold.PLP.part.hbond>
-5.4722

> <Gold.PLP.part.metal>
0.0000

> <Gold.PLP.part.buried>
-3.8464

> <Gold.PLP.part.nonpolar>
-25.2108

> <Gold.PLP.part.repulsive>
0.2511

> <Gold.PLP.ligand.clash>
0.0512

> <Gold.PLP.ligand.torsion>
2.1038

> <Gold.PLP.Chemscore.Hbond>
4.7763

> <Gold.PLP.Chemscore.CHOScore>
0.0000

> <Gold.PLP.Chemscore.Metal>
0.0000

> <Gold.Chemscore.Hbonds>
donor molecule, donor type, donor heavy atom, donor atom, acceptor molecule, acceptor atom, score
      P1  H  6896  6909       L1    11  0.32
      P1  H  6931  6943       L1    21  1.50
      P1  H  6934  6947       L1    21  1.66
      P1  H  7989  7998       L1     9  1.00

> <Gold.PLP.Chemscore.Internal.Correction>
0.1238

> <Gold.Rescore>
     Score         DG    S(hbond)    S(metal)    S(lipo)     H(rot)  DE(clash)    DE(int)     intcor
     10.96     -14.47       1.81        0.00      65.42       1.85       0.03       3.48       ----

> <Gold.Chemscore.Fitness>
10.9613

> <Gold.Chemscore.DG>
-14.4698

> <Gold.Chemscore.ZeroCoef>
-5.4800

> <Gold.Chemscore.Hbond>
1.8145

> <Gold.Chemscore.Metal>
0.0000

> <Gold.Chemscore.Lipo>
65.4165

> <Gold.Chemscore.Internal_Hbond>
0.0000

> <Gold.Chemscore.DEClash>
0.0260

> <Gold.Chemscore.DEInternal>
3.4826

> <Gold.Chemscore.Rot>
1.8455

> <Gold.Chemscore.Internal.Correction>
   9.000000E+99

> <Gold.Chemscore.Hbonds>
donor molecule, donor type, donor heavy atom, donor atom, acceptor molecule, acceptor atom, score
      P1  H  6896  6909       L1    11  0.27
      P1  H  6931  6943       L1    21  0.37
      P1  H  6934  6947       L1    21  0.37
      P1  H  7989  7998       L1     9  0.67

> <Gold.Chemscore.Hbond.Weighted>
-6.0606

> <Gold.Chemscore.Metal.Weighted>
-0.0000

> <Gold.Chemscore.Lipo.Weighted>
-7.6537

> <Gold.Chemscore.Internal_Hbond.Weighted>
0.0000

> <Gold.Chemscore.DEClash.Weighted>
0.0260

> <Gold.Chemscore.DEInternal.Weighted>
3.4826

> <Gold.Chemscore.Rot.Weighted>
4.7245

> <Gold.Chemscore.Internal.Correction.Weighted>
   9.000000E+99

> <Gold.Protein.RotatedTorsions>
[ 6907 6896 6895 6894 ] final   74.40 input  -60.11 | X-H torsion
[ 7974 7965 7964 7962 ] final  108.30 input  175.53 | X-H torsion
[ 8008 7997 7996 7995 ] final   89.54 input   59.86 | X-H torsion
[ 10167 10162 10161 10158 ] final  -88.13 input  -65.29 | X-H torsion
[ 10718 10713 10712 10709 ] final  -84.08 input   66.30 | X-H torsion
[ 10763 10752 10751 10750 ] final   10.07 input  -60.55 | X-H torsion
[ 11005 11000 10999 10996 ] final  159.15 input  -57.11 | X-H torsion

> <Gold.Protein.ActiveResidues>
 VAL166  LYS551  ARG553  GLY616  TRP617  ASP618  TYR619  PRO620  LYS621  CYS622 
 ASP623  PHE694  ASN695  SER759  ASP760  ASP761  ALA762  ILE779  LEU786  VAL792 
 PHE793  MET794  SER795  GLU796  ALA797  LYS798  CYS799  TRP800  GLU811  SER814 

> <Gold.Protein.RotatedAtoms>
  152.4974  134.4276  159.9501 H   0  0  0  0  0  0  0  0  0  0  0  0  # atno 6907 bound_to 6896
  151.4253  133.3680  159.2769 H   0  0  0  0  0  0  0  0  0  0  0  0  # atno 6908 bound_to 6896
  150.9193  134.8634  159.7538 H   0  0  0  0  0  0  0  0  0  0  0  0  # atno 6909 bound_to 6896
  145.2825  139.2628  143.3908 H   0  0  0  0  0  0  0  0  0  0  0  0  # atno 7974 bound_to 7965
  156.0012  140.3359  155.6847 H   0  0  0  0  0  0  0  0  0  0  0  0  # atno 8008 bound_to 7997
  155.6288  140.0683  157.2673 H   0  0  0  0  0  0  0  0  0  0  0  0  # atno 8009 bound_to 7997
  154.4250  140.1763  156.1438 H   0  0  0  0  0  0  0  0  0  0  0  0  # atno 8010 bound_to 7997
  140.3777  143.2763  151.9422 H   0  0  0  0  0  0  0  0  0  0  0  0  # atno 10167 bound_to 10162
  156.0010  130.4686  150.4356 H   0  0  0  0  0  0  0  0  0  0  0  0  # atno 10718 bound_to 10713
  153.2072  135.6864  153.8158 H   0  0  0  0  0  0  0  0  0  0  0  0  # atno 10763 bound_to 10752
  153.7404  135.3239  155.3304 H   0  0  0  0  0  0  0  0  0  0  0  0  # atno 10764 bound_to 10752
  154.8203  135.4657  154.0864 H   0  0  0  0  0  0  0  0  0  0  0  0  # atno 10765 bound_to 10752
  140.1933  134.8391  157.2937 H   0  0  0  0  0  0  0  0  0  0  0  0  # atno 11005 bound_to 11000
  146.3212  140.3295  142.8639 LP  0  0  0  0  0  0  0  0  0  0  0  0  # atno 17320 bound_to 7965
  144.9241  140.7902  143.5730 LP  0  0  0  0  0  0  0  0  0  0  0  0  # atno 17321 bound_to 7965
  139.4798  144.5848  151.7872 LP  0  0  0  0  0  0  0  0  0  0  0  0  # atno 17342 bound_to 10162
  140.4969  144.1227  150.5962 LP  0  0  0  0  0  0  0  0  0  0  0  0  # atno 17343 bound_to 10162
  157.2401  131.0523  151.2441 LP  0  0  0  0  0  0  0  0  0  0  0  0  # atno 17370 bound_to 10713
  157.3628  130.7140  149.6513 LP  0  0  0  0  0  0  0  0  0  0  0  0  # atno 17371 bound_to 10713
  140.2135  134.4110  155.7601 LP  0  0  0  0  0  0  0  0  0  0  0  0  # atno 17394 bound_to 11000
  141.2226  133.7130  156.8376 LP  0  0  0  0  0  0  0  0  0  0  0  0  # atno 17395 bound_to 11000

$$$$
