#       Name:                AV-unprocessed.smi:148
#       Creating user name   scv26
#       Creation time:       Thu Mar 26 18:40:28 2020


#       File generated by GOLD software.
#

@<TRIPOS>MOLECULE
AV-unprocessed.smi:148
    73    77     1
SMALL
NO_CHARGES


@<TRIPOS>ATOM
      1 ****        -3.5193  -1.7912   1.9801 O.3            1 S1                 0.0000
      2 ****        -2.1173  -1.9586   1.9553 C.3            1 S1                 0.0000
      3 ****        -1.4612  -1.3798   3.2318 C.3            1 S1                 0.0000
      4 ****         0.0858  -1.3286   3.1191 C.3            1 S1                 0.0000
      5 ****         0.5385  -0.5251   1.9972 N.pl3          1 S1                 0.0000
      6 ****         0.5432   0.8490   1.9216 C.2            1 S1                 0.0000
      7 ****         0.9912   1.3422   0.7994 N.2            1 S1                 0.0000
      8 ****         1.3208   0.2223   0.0450 C.ar           1 S1                 0.0000
      9 ****         1.8443   0.0210  -1.2636 C.ar           1 S1                 0.0000
     10 ****         2.1508   1.0095  -2.1343 N.3            1 S1                 0.0000
     11 ****         3.4493   1.5889  -1.7914 C.3            1 S1                 0.0000
     12 ****         3.9488   2.5336  -2.8914 C.3            1 S1                 0.0000
     13 ****         2.9015   3.6137  -3.1780 C.3            1 S1                 0.0000
     14 ****         1.5618   2.9607  -3.5442 C.3            1 S1                 0.0000
     15 ****         1.0807   1.9754  -2.4464 C.3            1 S1                 0.0000
     16 ****        -0.2799   1.2875  -2.7849 C.3            1 S1                 0.0000
     17 ****        -0.2777   0.3300  -3.9926 C.3            1 S1                 0.0000
     18 ****        -1.6978   0.3706  -4.5811 C.3            1 S1                 0.0000
     19 ****        -2.5107   1.3048  -3.6794 C.3            1 S1                 0.0000
     20 ****        -1.4673   2.2253  -3.0480 C.3            1 S1                 0.0000
     21 ****        -1.9523   2.8182  -1.8610 O.3            1 S1                 0.0000
     22 ****         2.0603  -1.2528  -1.6743 N.ar           1 S1                 0.0000
     23 ****         1.7631  -2.2743  -0.8655 C.ar           1 S1                 0.0000
     24 ****         1.2558  -2.2424   0.3689 N.ar           1 S1                 0.0000
     25 ****         1.0523  -0.9606   0.7886 C.ar           1 S1                 0.0000
     26 ****        -1.9611  -2.0934   4.5199 C.3            1 S1                 0.0000
     27 ****        -1.5878  -3.5736   4.6389 C.3            1 S1                 0.0000
     28 ****        -1.1040  -3.7146   6.0789 C.3            1 S1                 0.0000
     29 ****        -0.5436  -2.4427   6.3546 O.3            1 S1                 0.0000
     30 ****        -1.4456  -1.4798   5.8324 C.3            1 S1                 0.0000
     31 ****        -3.8771  -2.1365   1.1762 H              1 S1                 0.0000
     32 ****        -1.8806  -3.0162   1.8380 H              1 S1                 0.0000
     33 ****        -1.7540  -1.4533   1.0609 H              1 S1                 0.0000
     34 ****        -1.7956  -0.3437   3.3095 H              1 S1                 0.0000
     35 ****         0.5319  -0.9085   4.0200 H              1 S1                 0.0000
     36 ****         0.5052  -2.3281   3.0118 H              1 S1                 0.0000
     37 ****         0.1949   1.4773   2.7284 H              1 S1                 0.0000
     38 ****         3.3638   2.1327  -0.8494 H              1 S1                 0.0000
     39 ****         4.1828   0.7962  -1.6345 H              1 S1                 0.0000
     40 ****         4.8906   2.9932  -2.5904 H              1 S1                 0.0000
     41 ****         4.1530   1.9662  -3.8003 H              1 S1                 0.0000
     42 ****         2.7758   4.2495  -2.3007 H              1 S1                 0.0000
     43 ****         3.2396   4.2602  -3.9882 H              1 S1                 0.0000
     44 ****         0.8318   3.7525  -3.7030 H              1 S1                 0.0000
     45 ****         1.6747   2.4474  -4.4984 H              1 S1                 0.0000
     46 ****         0.9221   2.5720  -1.5480 H              1 S1                 0.0000
     47 ****        -0.5819   0.6857  -1.9265 H              1 S1                 0.0000
     48 ****         0.4393   0.6319  -4.7546 H              1 S1                 0.0000
     49 ****        -0.0051  -0.6799  -3.6851 H              1 S1                 0.0000
     50 ****        -1.6614   0.7720  -5.5945 H              1 S1                 0.0000
     51 ****        -2.1469  -0.6214  -4.6393 H              1 S1                 0.0000
     52 ****        -3.2794   1.8524  -4.2256 H              1 S1                 0.0000
     53 ****        -3.0086   0.7166  -2.9065 H              1 S1                 0.0000
     54 ****        -1.2136   3.0041  -3.7656 H              1 S1                 0.0000
     55 ****        -1.2716   3.3647  -1.4989 H              1 S1                 0.0000
     56 ****         1.9577  -3.2583  -1.2658 H              1 S1                 0.0000
     57 ****        -3.0486  -2.0138   4.5490 H              1 S1                 0.0000
     58 ****        -2.4282  -4.2339   4.4226 H              1 S1                 0.0000
     59 ****        -0.7823  -3.8446   3.9589 H              1 S1                 0.0000
     60 ****        -1.9393  -3.9020   6.7559 H              1 S1                 0.0000
     61 ****        -0.3732  -4.5142   6.2025 H              1 S1                 0.0000
     62 ****        -0.9690  -0.5075   5.7087 H              1 S1                 0.0000
     63 ****        -2.2673  -1.3506   6.5386 H              1 S1                 0.0000
     64 ****        -3.7416  -0.8193   2.0581 LP             1 S1                 0.0000
     65 ****        -3.9042  -2.2848   2.7600 LP             1 S1                 0.0000
     66 ****         1.0775   2.3046   0.5416 LP             1 S1                 0.0000
     67 ****         2.2375   0.5783  -3.0324 LP             1 S1                 0.0000
     68 ****        -2.1980   2.1056  -1.2040 LP             1 S1                 0.0000
     69 ****        -2.7578   3.3742  -2.0664 LP             1 S1                 0.0000
     70 ****         2.4418  -1.4279  -2.5820 LP             1 S1                 0.0000
     71 ****         1.0512  -3.0542   0.9158 LP             1 S1                 0.0000
     72 ****         0.3486  -2.3555   5.9115 LP             1 S1                 0.0000
     73 ****        -0.4394  -2.3182   7.3413 LP             1 S1                 0.0000
@<TRIPOS>BOND
    1    1    2 1     
    2    1   31 1     
    3    2    3 1     
    4    2   32 1     
    5    2   33 1     
    6    3    4 1     
    7    3   26 1     
    8    3   34 1     
    9    4    5 1     
   10    4   35 1     
   11    4   36 1     
   12    5   25 1     
   13    5    6 1     
   14    6    7 2     
   15    6   37 1     
   16    7    8 1     
   17    8   25 ar    
   18    8    9 ar    
   19    9   10 1     
   20    9   22 ar    
   21   10   15 1     
   22   10   11 1     
   23   11   12 1     
   24   11   38 1     
   25   11   39 1     
   26   12   13 1     
   27   12   40 1     
   28   12   41 1     
   29   13   14 1     
   30   13   42 1     
   31   13   43 1     
   32   14   15 1     
   33   14   44 1     
   34   14   45 1     
   35   15   16 1     
   36   15   46 1     
   37   16   20 1     
   38   16   17 1     
   39   16   47 1     
   40   17   18 1     
   41   17   48 1     
   42   17   49 1     
   43   18   19 1     
   44   18   50 1     
   45   18   51 1     
   46   19   20 1     
   47   19   52 1     
   48   19   53 1     
   49   20   21 1     
   50   20   54 1     
   51   21   55 1     
   52   22   23 ar    
   53   23   24 ar    
   54   23   56 1     
   55   24   25 ar    
   56   26   30 1     
   57   26   27 1     
   58   26   57 1     
   59   27   28 1     
   60   27   58 1     
   61   27   59 1     
   62   28   29 1     
   63   28   60 1     
   64   28   61 1     
   65   29   30 1     
   66   30   62 1     
   67   30   63 1     
   68    1   64 1     
   69    1   65 1     
   70    7   66 1     
   71   10   67 1     
   72   21   68 1     
   73   21   69 1     
   74   22   70 1     
   75   24   71 1     
   76   29   72 1     
   77   29   73 1     
@<TRIPOS>SUBSTRUCTURE
      1 S1             1
@<TRIPOS>SET
LONE_PAIRS      STATIC     ATOMS    <user>   **** ""
10 64 65 66 67 68 69 70 71 72 73
DONOR_HYDROGENS      STATIC     ATOMS    <user>   **** ""
2 31 55
ATOM$BLUE        STATIC     ATOMS    COLORGROUP SYSTEM
10 64 65 66 67 68 69 70 71 72 73
ATOM$RED        STATIC     ATOMS    COLORGROUP SYSTEM
2 31 55
