#       Name:                AV-unprocessed.smi:1271
#       Creating user name   scv26
#       Creation time:       Fri Mar 27 04:46:23 2020


#       File generated by GOLD software.
#

@<TRIPOS>MOLECULE
AV-unprocessed.smi:1271
    38    39     1
SMALL
NO_CHARGES


@<TRIPOS>ATOM
      1 ****         0.0480  -2.0645  -2.3076 C.3            1 S1                 0.0000
      2 ****         0.4712  -1.7441  -0.8655 C.3            1 S1                 0.0000
      3 ****         2.0032  -1.7840  -0.7039 C.3            1 S1                 0.0000
      4 ****         2.4158  -1.6093   0.6781 N.pl3          1 S1                 0.0000
      5 ****         2.5160  -2.5639   1.6681 C.2            1 S1                 0.0000
      6 ****         2.9251  -1.9284   2.8051 C.2            1 S1                 0.0000
      7 ****         3.0506  -0.5683   2.4060 C.2            1 S1                 0.0000
      8 ****         2.7473  -0.3804   1.1318 N.2            1 S1                 0.0000
      9 ****        -0.0331  -0.4301  -0.4752 N.am           1 S1                 0.0000
     10 ****        -1.2564  -0.1649   0.0124 C.2            1 S1                 0.0000
     11 ****        -2.1192  -1.0364   0.1288 O.2            1 S1                 0.0000
     12 ****        -1.4542   1.1307   0.3655 N.am           1 S1                 0.0000
     13 ****        -0.5071   2.2390   0.1585 C.3            1 S1                 0.0000
     14 ****        -0.9024   3.0039  -1.1151 C.3            1 S1                 0.0000
     15 ****        -2.5547   3.7476  -0.9395 S.3            1 S1                 0.0000
     16 ****        -3.4849   2.2980  -0.3487 C.3            1 S1                 0.0000
     17 ****        -2.7612   1.6153   0.8247 C.3            1 S1                 0.0000
     18 ****         0.4134  -3.0450  -2.6139 H              1 S1                 0.0000
     19 ****         0.4409  -1.3288  -3.0099 H              1 S1                 0.0000
     20 ****        -1.0377  -2.0748  -2.4083 H              1 S1                 0.0000
     21 ****         0.0422  -2.5018  -0.2069 H              1 S1                 0.0000
     22 ****         2.3916  -2.7425  -1.0503 H              1 S1                 0.0000
     23 ****         2.4770  -1.0164  -1.3187 H              1 S1                 0.0000
     24 ****         2.2862  -3.6030   1.4836 H              1 S1                 0.0000
     25 ****         3.1052  -2.3676   3.7752 H              1 S1                 0.0000
     26 ****         3.3502   0.2822   3.0004 H              1 S1                 0.0000
     27 ****         0.6196   0.3379  -0.5371 H              1 S1                 0.0000
     28 ****        -0.5295   2.9113   1.0174 H              1 S1                 0.0000
     29 ****         0.5303   1.9104   0.0915 H              1 S1                 0.0000
     30 ****        -0.1829   3.7960  -1.3227 H              1 S1                 0.0000
     31 ****        -0.9005   2.3354  -1.9769 H              1 S1                 0.0000
     32 ****        -4.4808   2.6212  -0.0455 H              1 S1                 0.0000
     33 ****        -3.6143   1.5975  -1.1746 H              1 S1                 0.0000
     34 ****        -3.3793   0.8099   1.2241 H              1 S1                 0.0000
     35 ****        -2.6342   2.3174   1.6499 H              1 S1                 0.0000
     36 ****         2.7604   0.4783   0.6195 LP             1 S1                 0.0000
     37 ****        -1.9193  -1.9775  -0.1439 LP             1 S1                 0.0000
     38 ****        -3.0196  -0.8027   0.4959 LP             1 S1                 0.0000
@<TRIPOS>BOND
    1    1    2 1     
    2    1   18 1     
    3    1   19 1     
    4    1   20 1     
    5    2    3 1     
    6    2    9 1     
    7    2   21 1     
    8    3    4 1     
    9    3   22 1     
   10    3   23 1     
   11    4    8 1     
   12    4    5 1     
   13    5    6 2     
   14    5   24 1     
   15    6    7 1     
   16    6   25 1     
   17    7    8 2     
   18    7   26 1     
   19    9   10 am    
   20    9   27 1     
   21   10   11 2     
   22   10   12 am    
   23   12   17 1     
   24   12   13 1     
   25   13   14 1     
   26   13   28 1     
   27   13   29 1     
   28   14   15 1     
   29   14   30 1     
   30   14   31 1     
   31   15   16 1     
   32   16   17 1     
   33   16   32 1     
   34   16   33 1     
   35   17   34 1     
   36   17   35 1     
   37    8   36 1     
   38   11   37 1     
   39   11   38 1     
@<TRIPOS>SUBSTRUCTURE
      1 S1             1
@<TRIPOS>SET
LONE_PAIRS      STATIC     ATOMS    <user>   **** ""
3 36 37 38
DONOR_HYDROGENS      STATIC     ATOMS    <user>   **** ""
1 27
ATOM$BLUE        STATIC     ATOMS    COLORGROUP SYSTEM
3 36 37 38
ATOM$RED        STATIC     ATOMS    COLORGROUP SYSTEM
1 27
