AV-unprocessed.smi:2265|AV-procd|sdf|9145|dock8
  -GOLD-   2272012353D 1   1.00000     0.00000
 Structure written by MMmdl.
 36 37  0  0  0  0  0  0  0  0  1 V2000
  145.0185  143.3954  154.5217 C   0  0  0  0  0  0  0  0  0  0  0  0
  145.8663  142.1192  154.5441 C   0  0  0  0  0  0  0  0  0  0  0  0
  147.2628  142.3300  153.9442 C   0  0  0  0  0  0  0  0  0  0  0  0
  148.0984  141.0626  153.9689 C   0  0  2  0  0  0  0  0  0  0  0  0
  148.1678  140.2021  155.2024 C   0  0  0  0  0  0  0  0  0  0  0  0
  149.3960  140.9635  154.7462 C   0  0  2  0  0  0  0  0  0  0  0  0
  149.8170  142.0669  155.5576 N   0  0  0  0  0  0  0  0  0  0  0  0
  150.3217  142.0243  156.8036 C   0  0  0  0  0  0  0  0  0  0  0  0
  150.4385  140.9535  157.3992 O   0  0  0  0  0  0  0  0  0  0  0  0
  150.6277  143.2391  157.3109 N   0  0  0  0  0  0  0  0  0  0  0  0
  151.1366  143.5498  158.5779 C   0  0  0  0  0  0  0  0  0  0  0  0
  150.7534  144.5871  159.2688 N   0  0  0  0  0  0  0  0  0  0  0  0
  151.2826  144.8650  160.5292 C   0  0  0  0  0  0  0  0  0  0  0  0
  152.2116  144.0629  161.0797 C   0  0  0  0  0  0  0  0  0  0  0  0
  152.6706  142.9267  160.3986 N   0  0  0  0  0  0  0  0  0  0  0  0
  153.6847  142.0908  161.0417 C   0  0  0  0  0  0  0  0  0  0  0  0
  152.1931  142.6091  159.1646 C   0  0  0  0  0  0  0  0  0  0  0  0
  152.5696  141.6248  158.5249 O   0  0  0  0  0  0  0  0  0  0  0  0
  144.0352  143.2161  154.9569 H   0  0  0  0  0  0  0  0  0  0  0  0
  144.8711  143.7521  153.5019 H   0  0  0  0  0  0  0  0  0  0  0  0
  145.4938  144.1943  155.0911 H   0  0  0  0  0  0  0  0  0  0  0  0
  145.9601  141.7673  155.5721 H   0  0  0  0  0  0  0  0  0  0  0  0
  145.3465  141.3333  153.9950 H   0  0  0  0  0  0  0  0  0  0  0  0
  147.1782  142.6656  152.9101 H   0  0  0  0  0  0  0  0  0  0  0  0
  147.7793  143.1203  154.4902 H   0  0  0  0  0  0  0  0  0  0  0  0
  148.0922  140.5303  153.0194 H   0  0  0  0  0  0  0  0  0  0  0  0
  147.6513  140.5544  156.0935 H   0  0  0  0  0  0  0  0  0  0  0  0
  148.1632  139.1234  155.0605 H   0  0  0  0  0  0  0  0  0  0  0  0
  150.1785  140.3434  154.3108 H   0  0  0  0  0  0  0  0  0  0  0  0
  149.6425  142.9846  155.1744 H   0  0  0  0  0  0  0  0  0  0  0  0
  150.4521  144.0201  156.6959 H   0  0  0  0  0  0  0  0  0  0  0  0
  150.9099  145.7469  161.0293 H   0  0  0  0  0  0  0  0  0  0  0  0
  152.6510  144.2374  162.0510 H   0  0  0  0  0  0  0  0  0  0  0  0
  154.6217  142.1364  160.4853 H   0  0  0  0  0  0  0  0  0  0  0  0
  153.3612  141.0496  161.0791 H   0  0  0  0  0  0  0  0  0  0  0  0
  153.8930  142.4024  162.0658 H   0  0  0  0  0  0  0  0  0  0  0  0
  1  2  1  0  0  0  0
  1 19  1  0  0  0  0
  1 20  1  0  0  0  0
  1 21  1  0  0  0  0
  2  3  1  0  0  0  0
  2 22  1  0  0  0  0
  2 23  1  0  0  0  0
  3  4  1  0  0  0  0
  3 24  1  0  0  0  0
  3 25  1  0  0  0  0
  4  6  1  0  0  0  0
  4  5  1  0  0  0  0
  4 26  1  0  0  0  0
  5  6  1  0  0  0  0
  5 27  1  0  0  0  0
  5 28  1  0  0  0  0
  6  7  1  0  0  0  0
  6 29  1  0  0  0  0
  7  8  1  0  0  0  0
  7 30  1  0  0  0  0
  8  9  2  0  0  0  0
  8 10  1  0  0  0  0
 10 11  1  0  0  0  0
 10 31  1  0  0  0  0
 11 17  1  0  0  0  0
 11 12  2  0  0  0  0
 12 13  1  0  0  0  0
 13 14  2  0  0  0  0
 13 32  1  0  0  0  0
 14 15  1  0  0  0  0
 14 33  1  0  0  0  0
 15 16  1  0  0  0  0
 15 17  1  0  0  0  0
 16 34  1  0  0  0  0
 16 35  1  0  0  0  0
 16 36  1  0  0  0  0
 17 18  2  0  0  0  0
M  END
> <s_m_source_file>
AV-unprocessed.smi

> <i_m_source_file_index>
2265

> <i_lp_mmshare_version>
43012

> <i_f3d_flags>
0

> <s_epik_input>
W0NIM11bQ0gyXVtDSDJdW0NAQEhdMVtDSDJdW0NASF0xW05IXUMoPU8pW05IXWMybltjSF1bY0hdbihbQ0gzXSljMj1P

> <s_epik_cmdline>
J2VwaWtfcHl0aG9uJywgJy1waCcsICc3LjAnLCAnLXRuJywgJzgnLCAnLW1hJywgJzIwMCcsICctbWV0YWxfYmluZGluZycsICctaW1hZScsICc8aW5maWxlLm1hZT4nLCAnLW9tYWUnLCAnPG91dGZpbGUubWFlPic=

> <r_lp_tautomer_probability>
1

> <r_epik_Ionization_Penalty>
0.000728552

> <r_epik_Ionization_Penalty_Charging>
1.67739e-07

> <r_epik_Ionization_Penalty_Neutral>
0.000728385

> <r_epik_State_Penalty>
-0

> <r_epik_Charging_Adjusted_Penalty>
1.67739e-07

> <i_epik_Tot_Q>
0

> <i_epik_Tot_abs_Q>
0

> <r_epik_Metal_State_Penalty>
-0

> <b_epik_Metal_Only>
0

> <s_lp_Force_Field>
OPLS_2005

> <r_lp_Energy>
43.9494

> <b_lp_Chiralities_Consistent>
1

> <s_lp_Variant>
AV-unprocessed.smi:2265-3

> <Gold.Version>
5.8.1

> <Gold.Id.Protein>
6NUR|6NUR_protein|mol2

> <Gold.PLP.Fitness>
44.0723

> <Gold.PLP.PLP>
-40.8127

> <Gold.PLP.part.hbond>
-2.0000

> <Gold.PLP.part.metal>
0.0000

> <Gold.PLP.part.buried>
-6.2569

> <Gold.PLP.part.nonpolar>
-33.9306

> <Gold.PLP.part.repulsive>
0.3417

> <Gold.PLP.ligand.clash>
0.0000

> <Gold.PLP.ligand.torsion>
0.8595

> <Gold.PLP.Chemscore.Hbond>
1.4720

> <Gold.PLP.Chemscore.CHOScore>
0.0000

> <Gold.PLP.Chemscore.Metal>
0.0000

> <Gold.Chemscore.Hbonds>
donor molecule, donor type, donor heavy atom, donor atom, acceptor molecule, acceptor atom, score
      L1  H     7    30       P1  8028  0.85
      L1  H    10    31       P1  8028  0.75

> <Gold.PLP.Chemscore.Internal.Correction>
0.5626

> <Gold.Rescore>
     Score         DG    S(hbond)    S(metal)    S(lipo)     H(rot)  DE(clash)    DE(int)     intcor
     11.01     -15.70       1.68        0.00      71.40       1.46       0.06       4.63       ----

> <Gold.Chemscore.Fitness>
11.0131

> <Gold.Chemscore.DG>
-15.7016

> <Gold.Chemscore.ZeroCoef>
-5.4800

> <Gold.Chemscore.Hbond>
1.6786

> <Gold.Chemscore.Metal>
0.0000

> <Gold.Chemscore.Lipo>
71.4006

> <Gold.Chemscore.Internal_Hbond>
0.0000

> <Gold.Chemscore.DEClash>
0.0591

> <Gold.Chemscore.DEInternal>
4.6294

> <Gold.Chemscore.Rot>
1.4604

> <Gold.Chemscore.Internal.Correction>
   9.000000E+99

> <Gold.Chemscore.Hbonds>
donor molecule, donor type, donor heavy atom, donor atom, acceptor molecule, acceptor atom, score
      L1  H     7    30       P1  8028  0.82
      L1  H    10    31       P1  8028  0.72

> <Gold.Chemscore.Hbond.Weighted>
-5.6065

> <Gold.Chemscore.Metal.Weighted>
-0.0000

> <Gold.Chemscore.Lipo.Weighted>
-8.3539

> <Gold.Chemscore.Internal_Hbond.Weighted>
0.0000

> <Gold.Chemscore.DEClash.Weighted>
0.0591

> <Gold.Chemscore.DEInternal.Weighted>
4.6294

> <Gold.Chemscore.Rot.Weighted>
3.7387

> <Gold.Chemscore.Internal.Correction.Weighted>
   9.000000E+99

> <Gold.Protein.RotatedTorsions>
[ 6907 6896 6895 6894 ] final    5.57 input  -60.11 | X-H torsion
[ 7974 7965 7964 7962 ] final   19.72 input  175.53 | X-H torsion
[ 8008 7997 7996 7995 ] final   13.17 input   59.86 | X-H torsion
[ 10167 10162 10161 10158 ] final  -83.71 input  -65.29 | X-H torsion
[ 10718 10713 10712 10709 ] final -109.88 input   66.30 | X-H torsion
[ 10763 10752 10751 10750 ] final  164.26 input  -60.55 | X-H torsion
[ 11005 11000 10999 10996 ] final  158.82 input  -57.11 | X-H torsion

> <Gold.Protein.ActiveResidues>
 VAL166  LYS551  ARG553  GLY616  TRP617  ASP618  TYR619  PRO620  LYS621  CYS622 
 ASP623  PHE694  ASN695  SER759  ASP760  ASP761  ALA762  ILE779  LEU786  VAL792 
 PHE793  MET794  SER795  GLU796  ALA797  LYS798  CYS799  TRP800  GLU811  SER814 

> <Gold.Protein.RotatedAtoms>
  151.6597  135.0991  160.0176 H   0  0  0  0  0  0  0  0  0  0  0  0  # atno 6907 bound_to 6896
  152.3953  133.6734  159.6280 H   0  0  0  0  0  0  0  0  0  0  0  0  # atno 6908 bound_to 6896
  150.7862  133.8800  159.3324 H   0  0  0  0  0  0  0  0  0  0  0  0  # atno 6909 bound_to 6896
  146.2139  139.8272  142.8667 H   0  0  0  0  0  0  0  0  0  0  0  0  # atno 7974 bound_to 7965
  154.8308  140.2899  155.5723 H   0  0  0  0  0  0  0  0  0  0  0  0  # atno 8008 bound_to 7997
  156.3005  140.2532  156.3164 H   0  0  0  0  0  0  0  0  0  0  0  0  # atno 8009 bound_to 7997
  154.9233  140.0385  157.1999 H   0  0  0  0  0  0  0  0  0  0  0  0  # atno 8010 bound_to 7997
  140.4201  143.2588  151.8901 H   0  0  0  0  0  0  0  0  0  0  0  0  # atno 10167 bound_to 10162
  156.0560  130.5786  150.8160 H   0  0  0  0  0  0  0  0  0  0  0  0  # atno 10718 bound_to 10713
  154.3063  135.2758  155.2587 H   0  0  0  0  0  0  0  0  0  0  0  0  # atno 10763 bound_to 10752
  154.5002  135.5810  153.6529 H   0  0  0  0  0  0  0  0  0  0  0  0  # atno 10764 bound_to 10752
  152.9894  135.6156  154.3237 H   0  0  0  0  0  0  0  0  0  0  0  0  # atno 10765 bound_to 10752
  140.1902  134.8413  157.2903 H   0  0  0  0  0  0  0  0  0  0  0  0  # atno 11005 bound_to 11000
  145.3034  141.0200  143.3595 LP  0  0  0  0  0  0  0  0  0  0  0  0  # atno 17320 bound_to 7965
  144.8989  139.4676  143.6642 LP  0  0  0  0  0  0  0  0  0  0  0  0  # atno 17321 bound_to 7965
  139.4782  144.5446  151.8477 LP  0  0  0  0  0  0  0  0  0  0  0  0  # atno 17342 bound_to 10162
  140.4543  144.1812  150.5900 LP  0  0  0  0  0  0  0  0  0  0  0  0  # atno 17343 bound_to 10162
  157.5531  131.0944  150.9667 LP  0  0  0  0  0  0  0  0  0  0  0  0  # atno 17370 bound_to 10713
  156.9922  130.5568  149.5304 LP  0  0  0  0  0  0  0  0  0  0  0  0  # atno 17371 bound_to 10713
  140.2169  134.4071  155.7585 LP  0  0  0  0  0  0  0  0  0  0  0  0  # atno 17394 bound_to 11000
  141.2226  133.7146  156.8427 LP  0  0  0  0  0  0  0  0  0  0  0  0  # atno 17395 bound_to 11000

$$$$
