AV-unprocessed.smi:3248|AV-procd|sdf|12414|dock5
  -GOLD-   2272018293D 1   1.00000     0.00000
 Structure written by MMmdl.
 38 39  0  0  0  0  0  0  0  0  1 V2000
  153.5256  140.1099  161.1871 C   0  0  0  0  0  0  0  0  0  0  0  0
  152.6027  141.2122  160.6506 C   0  0  1  0  0  0  0  0  0  0  0  0
  153.4063  142.4623  160.2313 C   0  0  0  0  0  0  0  0  0  0  0  0
  152.5828  143.4736  159.5916 N   0  0  0  0  0  0  0  0  0  0  0  0
  152.1541  144.6803  160.1040 C   0  0  0  0  0  0  0  0  0  0  0  0
  151.4219  145.2979  159.1312 C   0  0  0  0  0  0  0  0  0  0  0  0
  151.4560  144.3765  158.0475 C   0  0  0  0  0  0  0  0  0  0  0  0
  152.1467  143.2832  158.3279 N   0  0  0  0  0  0  0  0  0  0  0  0
  151.8404  140.6822  159.5208 N   0  0  0  0  0  0  0  0  0  0  0  0
  152.3263  139.9050  158.5371 C   0  0  0  0  0  0  0  0  0  0  0  0
  153.5006  139.5386  158.4969 O   0  0  0  0  0  0  0  0  0  0  0  0
  151.3644  139.4552  157.6963 N   0  0  0  0  0  0  0  0  0  0  0  0
  150.3018  140.3538  157.2240 C   0  0  0  0  0  0  0  0  0  0  0  0
  150.7310  140.9416  155.8649 C   0  0  0  0  0  0  0  0  0  0  0  0
  150.9813  139.8886  154.9365 O   0  0  0  0  0  0  0  0  0  0  0  0
  151.9722  138.9638  155.3808 C   0  0  0  0  0  0  0  0  0  0  0  0
  151.5317  138.3551  156.7272 C   0  0  1  0  0  0  0  0  0  0  0  0
  152.4443  137.1992  157.1892 C   0  0  0  0  0  0  0  0  0  0  0  0
  154.0904  140.4590  162.0520 H   0  0  0  0  0  0  0  0  0  0  0  0
  154.2416  139.7873  160.4305 H   0  0  0  0  0  0  0  0  0  0  0  0
  152.9535  139.2358  161.5001 H   0  0  0  0  0  0  0  0  0  0  0  0
  151.9241  141.4849  161.4610 H   0  0  0  0  0  0  0  0  0  0  0  0
  153.8779  142.9157  161.1041 H   0  0  0  0  0  0  0  0  0  0  0  0
  154.2138  142.1875  159.5509 H   0  0  0  0  0  0  0  0  0  0  0  0
  152.4108  144.9993  161.1033 H   0  0  0  0  0  0  0  0  0  0  0  0
  150.9384  146.2619  159.1843 H   0  0  0  0  0  0  0  0  0  0  0  0
  151.0014  144.4684  157.0722 H   0  0  0  0  0  0  0  0  0  0  0  0
  150.8542  140.8971  159.5013 H   0  0  0  0  0  0  0  0  0  0  0  0
  149.3684  139.7990  157.1188 H   0  0  0  0  0  0  0  0  0  0  0  0
  150.0881  141.1654  157.9207 H   0  0  0  0  0  0  0  0  0  0  0  0
  149.9454  141.5836  155.4663 H   0  0  0  0  0  0  0  0  0  0  0  0
  151.6241  141.5594  155.9726 H   0  0  0  0  0  0  0  0  0  0  0  0
  152.0806  138.1841  154.6265 H   0  0  0  0  0  0  0  0  0  0  0  0
  152.9391  139.4619  155.4685 H   0  0  0  0  0  0  0  0  0  0  0  0
  150.5474  137.9062  156.5829 H   0  0  0  0  0  0  0  0  0  0  0  0
  152.3560  136.3505  156.5108 H   0  0  0  0  0  0  0  0  0  0  0  0
  152.1673  136.8491  158.1839 H   0  0  0  0  0  0  0  0  0  0  0  0
  153.4973  137.4779  157.2066 H   0  0  0  0  0  0  0  0  0  0  0  0
  1  2  1  0  0  0  0
  1 19  1  0  0  0  0
  1 20  1  0  0  0  0
  1 21  1  0  0  0  0
  2  3  1  0  0  0  0
  2  9  1  0  0  0  0
  2 22  1  0  0  0  0
  3  4  1  0  0  0  0
  3 23  1  0  0  0  0
  3 24  1  0  0  0  0
  4  8  1  0  0  0  0
  4  5  1  0  0  0  0
  5  6  2  0  0  0  0
  5 25  1  0  0  0  0
  6  7  1  0  0  0  0
  6 26  1  0  0  0  0
  7  8  2  0  0  0  0
  7 27  1  0  0  0  0
  9 10  1  0  0  0  0
  9 28  1  0  0  0  0
 10 11  2  0  0  0  0
 10 12  1  0  0  0  0
 12 17  1  0  0  0  0
 12 13  1  0  0  0  0
 13 14  1  0  0  0  0
 13 29  1  0  0  0  0
 13 30  1  0  0  0  0
 14 15  1  0  0  0  0
 14 31  1  0  0  0  0
 14 32  1  0  0  0  0
 15 16  1  0  0  0  0
 16 17  1  0  0  0  0
 16 33  1  0  0  0  0
 16 34  1  0  0  0  0
 17 18  1  0  0  0  0
 17 35  1  0  0  0  0
 18 36  1  0  0  0  0
 18 37  1  0  0  0  0
 18 38  1  0  0  0  0
M  END
> <s_m_source_file>
AV-unprocessed.smi

> <i_m_source_file_index>
3248

> <i_lp_mmshare_version>
43012

> <i_f3d_flags>
0

> <s_epik_input>
bjFbY0hdW2NIXVtjSF1uMVtDSDJdW0NAQEhdKFtDSDNdKVtOSF1DKD1PKU4yW0NIMl1bQ0gyXU9bQ0gyXVtDQEhdMltDSDNd

> <s_epik_cmdline>
J2VwaWtfcHl0aG9uJywgJy1waCcsICc3LjAnLCAnLXRuJywgJzgnLCAnLW1hJywgJzIwMCcsICctbWV0YWxfYmluZGluZycsICctaW1hZScsICc8aW5maWxlLm1hZT4nLCAnLW9tYWUnLCAnPG91dGZpbGUubWFlPic=

> <r_lp_tautomer_probability>
1

> <r_epik_Ionization_Penalty>
4.45233e-05

> <r_epik_Ionization_Penalty_Charging>
0

> <r_epik_Ionization_Penalty_Neutral>
4.45233e-05

> <r_epik_State_Penalty>
-0

> <r_epik_Charging_Adjusted_Penalty>
0

> <i_epik_Tot_Q>
0

> <i_epik_Tot_abs_Q>
0

> <r_epik_Metal_State_Penalty>
-0

> <b_epik_Metal_Only>
0

> <s_lp_Force_Field>
OPLS_2005

> <r_lp_Energy>
31.1231

> <b_lp_Chiralities_Consistent>
1

> <s_lp_Variant>
AV-unprocessed.smi:3248-2

> <Gold.Version>
5.8.1

> <Gold.Id.Protein>
6NUR|6NUR_protein|mol2

> <Gold.PLP.Fitness>
46.9807

> <Gold.PLP.PLP>
-39.0484

> <Gold.PLP.part.hbond>
-1.8257

> <Gold.PLP.part.metal>
0.0000

> <Gold.PLP.part.buried>
-4.7419

> <Gold.PLP.part.nonpolar>
-32.9061

> <Gold.PLP.part.repulsive>
0.2319

> <Gold.PLP.ligand.clash>
0.0000

> <Gold.PLP.ligand.torsion>
0.7854

> <Gold.PLP.Chemscore.Hbond>
1.9920

> <Gold.PLP.Chemscore.CHOScore>
1.0000

> <Gold.PLP.Chemscore.Metal>
0.0000

> <Gold.Chemscore.Hbonds>
donor molecule, donor type, donor heavy atom, donor atom, acceptor molecule, acceptor atom, score
      P1  H  7989  7998       L1    15  1.00
      P1  H  7997  8010       L1    11  1.00
      L1  C     7    27       P1  8028  1.00

> <Gold.PLP.Chemscore.Internal.Correction>
0.5271

> <Gold.Rescore>
     Score         DG    S(hbond)    S(metal)    S(lipo)     H(rot)  DE(clash)    DE(int)     intcor
     14.16     -17.83       1.46        0.00      94.80       1.42       0.18       3.49       ----

> <Gold.Chemscore.Fitness>
14.1603

> <Gold.Chemscore.DG>
-17.8268

> <Gold.Chemscore.ZeroCoef>
-5.4800

> <Gold.Chemscore.Hbond>
1.4635

> <Gold.Chemscore.Metal>
0.0000

> <Gold.Chemscore.Lipo>
94.8000

> <Gold.Chemscore.Internal_Hbond>
0.0000

> <Gold.Chemscore.DEClash>
0.1784

> <Gold.Chemscore.DEInternal>
3.4882

> <Gold.Chemscore.Rot>
1.4191

> <Gold.Chemscore.Internal.Correction>
   9.000000E+99

> <Gold.Chemscore.Hbonds>
donor molecule, donor type, donor heavy atom, donor atom, acceptor molecule, acceptor atom, score
      P1  H  7989  7998       L1    15  0.19
      P1  H  7997  8010       L1    11  0.91

> <Gold.Chemscore.Hbond.Weighted>
-4.8882

> <Gold.Chemscore.Metal.Weighted>
-0.0000

> <Gold.Chemscore.Lipo.Weighted>
-11.0916

> <Gold.Chemscore.Internal_Hbond.Weighted>
0.0000

> <Gold.Chemscore.DEClash.Weighted>
0.1784

> <Gold.Chemscore.DEInternal.Weighted>
3.4882

> <Gold.Chemscore.Rot.Weighted>
3.6330

> <Gold.Chemscore.Internal.Correction.Weighted>
   9.000000E+99

> <Gold.Protein.RotatedTorsions>
[ 6907 6896 6895 6894 ] final  -18.20 input  -60.11 | X-H torsion
[ 7974 7965 7964 7962 ] final  124.17 input  175.53 | X-H torsion
[ 8008 7997 7996 7995 ] final   42.93 input   59.86 | X-H torsion
[ 10167 10162 10161 10158 ] final   68.79 input  -65.29 | X-H torsion
[ 10718 10713 10712 10709 ] final  141.82 input   66.30 | X-H torsion
[ 10763 10752 10751 10750 ] final -173.01 input  -60.55 | X-H torsion
[ 11005 11000 10999 10996 ] final   98.61 input  -57.11 | X-H torsion

> <Gold.Protein.ActiveResidues>
 VAL166  LYS551  ARG553  GLY616  TRP617  ASP618  TYR619  PRO620  LYS621  CYS622 
 ASP623  PHE694  ASN695  SER759  ASP760  ASP761  ALA762  ILE779  LEU786  VAL792 
 PHE793  MET794  SER795  GLU796  ALA797  LYS798  CYS799  TRP800  GLU811  SER814 

> <Gold.Protein.RotatedAtoms>
  151.2818  135.0716  159.9171 H   0  0  0  0  0  0  0  0  0  0  0  0  # atno 6907 bound_to 6896
  152.5332  134.0023  159.7911 H   0  0  0  0  0  0  0  0  0  0  0  0  # atno 6908 bound_to 6896
  151.0278  133.5767  159.2695 H   0  0  0  0  0  0  0  0  0  0  0  0  # atno 6909 bound_to 6896
  145.0875  139.3611  143.4878 H   0  0  0  0  0  0  0  0  0  0  0  0  # atno 7974 bound_to 7965
  155.2943  140.3381  155.4251 H   0  0  0  0  0  0  0  0  0  0  0  0  # atno 8008 bound_to 7997
  156.2031  140.1740  156.7897 H   0  0  0  0  0  0  0  0  0  0  0  0  # atno 8009 bound_to 7997
  154.5585  140.0692  156.8766 H   0  0  0  0  0  0  0  0  0  0  0  0  # atno 8010 bound_to 7997
  140.0748  144.5122  150.7202 H   0  0  0  0  0  0  0  0  0  0  0  0  # atno 10167 bound_to 10162
  157.3877  131.1000  151.0677 H   0  0  0  0  0  0  0  0  0  0  0  0  # atno 10718 bound_to 10713
  154.6128  135.2866  155.0414 H   0  0  0  0  0  0  0  0  0  0  0  0  # atno 10763 bound_to 10752
  154.1637  135.6484  153.4996 H   0  0  0  0  0  0  0  0  0  0  0  0  # atno 10764 bound_to 10752
  153.0202  135.5384  154.6887 H   0  0  0  0  0  0  0  0  0  0  0  0  # atno 10765 bound_to 10752
  139.8772  134.9057  156.4482 H   0  0  0  0  0  0  0  0  0  0  0  0  # atno 11005 bound_to 11000
  146.3531  140.0693  142.8624 LP  0  0  0  0  0  0  0  0  0  0  0  0  # atno 17320 bound_to 7965
  145.1105  140.9402  143.4659 LP  0  0  0  0  0  0  0  0  0  0  0  0  # atno 17321 bound_to 7965
  140.7107  143.2503  151.4588 LP  0  0  0  0  0  0  0  0  0  0  0  0  # atno 17342 bound_to 10162
  139.5814  144.1700  152.1973 LP  0  0  0  0  0  0  0  0  0  0  0  0  # atno 17343 bound_to 10162
  157.1723  130.6272  149.5644 LP  0  0  0  0  0  0  0  0  0  0  0  0  # atno 17370 bound_to 10713
  155.9790  130.4781  150.6692 LP  0  0  0  0  0  0  0  0  0  0  0  0  # atno 17371 bound_to 10713
  140.8951  133.7820  155.9616 LP  0  0  0  0  0  0  0  0  0  0  0  0  # atno 17394 bound_to 11000
  140.8712  134.2724  157.5190 LP  0  0  0  0  0  0  0  0  0  0  0  0  # atno 17395 bound_to 11000

$$$$
