#       Name:                AV-unprocessed.smi:1793
#       Creating user name   scv26
#       Creation time:       Fri Mar 27 08:47:34 2020


#       File generated by GOLD software.
#

@<TRIPOS>MOLECULE
AV-unprocessed.smi:1793
    52    54     1
SMALL
NO_CHARGES


@<TRIPOS>ATOM
      1 ****        -3.5472  -1.5362   1.9715 C.3            1 S1                 0.0000
      2 ****        -3.0279  -0.5733   0.8922 C.3            1 S1                 0.0000
      3 ****        -1.5997  -0.3573   1.1149 N.am           1 S1                 0.0000
      4 ****        -0.9459   0.7965   0.9179 C.2            1 S1                 0.0000
      5 ****        -1.4842   1.8282   0.5172 O.2            1 S1                 0.0000
      6 ****         0.3618   0.6660   1.1954 N.am           1 S1                 0.0000
      7 ****         1.3898   1.6398   1.0469 C.ar           1 S1                 0.0000
      8 ****         1.1445   3.0244   1.2334 C.ar           1 S1                 0.0000
      9 ****         2.2028   3.9453   1.1132 C.ar           1 S1                 0.0000
     10 ****         3.4923   3.4681   0.8194 C.ar           1 S1                 0.0000
     11 ****         3.6957   2.1434   0.6634 N.pl3          1 S1                 1.0000
     12 ****         2.7166   1.2110   0.7679 C.ar           1 S1                 0.0000
     13 ****         3.0422  -0.1468   0.5611 N.3            1 S1                 0.0000
     14 ****         2.4918  -0.7157  -0.6668 C.3            1 S1                 0.0000
     15 ****         3.5448  -1.6863  -1.2061 C.3            1 S1                 0.0000
     16 ****         4.8492  -1.1282  -0.6504 C.3            1 S1                 0.0000
     17 ****         4.4245  -0.5971   0.7174 C.3            1 S1                 0.0000
     18 ****        -3.2701  -1.1090  -0.5356 C.3            1 S1                 0.0000
     19 ****        -4.7438  -1.3316  -0.8874 C.3            1 S1                 0.0000
     20 ****        -4.7347  -1.1768  -2.3903 C.3            1 S1                 0.0000
     21 ****        -3.7447  -0.0326  -2.5668 C.3            1 S1                 0.0000
     22 ****        -2.7963  -0.1836  -1.5151 O.3            1 S1                 0.0000
     23 ****        -4.6257  -1.6763   1.8952 H              1 S1                 0.0000
     24 ****        -3.3416  -1.1525   2.9713 H              1 S1                 0.0000
     25 ****        -3.0777  -2.5170   1.8883 H              1 S1                 0.0000
     26 ****        -3.5607   0.3723   1.0089 H              1 S1                 0.0000
     27 ****        -1.0707  -1.1532   1.4398 H              1 S1                 0.0000
     28 ****         0.6736  -0.2640   1.4339 H              1 S1                 0.0000
     29 ****         0.1624   3.3960   1.4835 H              1 S1                 0.0000
     30 ****         2.0270   5.0022   1.2509 H              1 S1                 0.0000
     31 ****         4.3616   4.0999   0.7090 H              1 S1                 0.0000
     32 ****         1.5468  -1.2250  -0.4769 H              1 S1                 0.0000
     33 ****         2.3053   0.0746  -1.3960 H              1 S1                 0.0000
     34 ****         3.3700  -2.6848  -0.8025 H              1 S1                 0.0000
     35 ****         3.5388  -1.7563  -2.2942 H              1 S1                 0.0000
     36 ****         5.6428  -1.8736  -0.5897 H              1 S1                 0.0000
     37 ****         5.1998  -0.3072  -1.2774 H              1 S1                 0.0000
     38 ****         5.1138   0.1613   1.0879 H              1 S1                 0.0000
     39 ****         4.4270  -1.4077   1.4470 H              1 S1                 0.0000
     40 ****        -2.7267  -2.0440  -0.6835 H              1 S1                 0.0000
     41 ****        -5.1179  -2.3025  -0.5618 H              1 S1                 0.0000
     42 ****        -5.3690  -0.5571  -0.4405 H              1 S1                 0.0000
     43 ****        -4.3522  -2.0841  -2.8598 H              1 S1                 0.0000
     44 ****        -5.7182  -0.9596  -2.8081 H              1 S1                 0.0000
     45 ****        -3.2632  -0.0412  -3.5448 H              1 S1                 0.0000
     46 ****        -4.2477   0.9273  -2.4440 H              1 S1                 0.0000
     47 ****         4.6414   1.8261   0.4498 H              1 S1                 0.0000
     48 ****        -2.4643   1.8362   0.3189 LP             1 S1                 0.0000
     49 ****        -0.9415   2.6584   0.3899 LP             1 S1                 0.0000
     50 ****         2.5775  -0.5106   1.3684 LP             1 S1                 0.0000
     51 ****        -1.9353  -0.5209  -1.8957 LP             1 S1                 0.0000
     52 ****        -2.6437   0.7042  -1.0809 LP             1 S1                 0.0000
@<TRIPOS>BOND
    1    1    2 1     
    2    1   23 1     
    3    1   24 1     
    4    1   25 1     
    5    2    3 1     
    6    2   18 1     
    7    2   26 1     
    8    3    4 am    
    9    3   27 1     
   10    4    5 2     
   11    4    6 am    
   12    6    7 1     
   13    6   28 1     
   14    7   12 ar    
   15    7    8 ar    
   16    8    9 ar    
   17    8   29 1     
   18    9   10 ar    
   19    9   30 1     
   20   10   11 ar    
   21   10   31 1     
   22   11   12 ar    
   23   11   47 1     
   24   12   13 1     
   25   13   17 1     
   26   13   14 1     
   27   14   15 1     
   28   14   32 1     
   29   14   33 1     
   30   15   16 1     
   31   15   34 1     
   32   15   35 1     
   33   16   17 1     
   34   16   36 1     
   35   16   37 1     
   36   17   38 1     
   37   17   39 1     
   38   18   22 1     
   39   18   19 1     
   40   18   40 1     
   41   19   20 1     
   42   19   41 1     
   43   19   42 1     
   44   20   21 1     
   45   20   43 1     
   46   20   44 1     
   47   21   22 1     
   48   21   45 1     
   49   21   46 1     
   50    5   48 1     
   51    5   49 1     
   52   13   50 1     
   53   22   51 1     
   54   22   52 1     
@<TRIPOS>SUBSTRUCTURE
      1 S1             1
@<TRIPOS>SET
LONE_PAIRS      STATIC     ATOMS    <user>   **** ""
5 48 49 50 51 52
DONOR_HYDROGENS      STATIC     ATOMS    <user>   **** ""
3 27 28 47
ATOM$BLUE        STATIC     ATOMS    COLORGROUP SYSTEM
5 48 49 50 51 52
ATOM$RED        STATIC     ATOMS    COLORGROUP SYSTEM
3 27 28 47
