AV-unprocessed.smi:662|AV-procd|sdf|3245|dock3
  -GOLD-   22720 0193D 1   1.00000     0.00000
 Structure written by MMmdl.
 33 34  0  0  0  0  0  0  0  0  1 V2000
  150.8631  140.5567  155.1948 O   0  0  0  0  0  0  0  0  0  0  0  0
  150.0095  141.0528  155.9313 C   0  0  0  0  0  0  0  0  0  0  0  0
  150.2341  141.3499  157.2202 N   0  0  0  0  0  0  0  0  0  0  0  0
  151.4901  141.1236  157.9255 C   0  0  0  0  0  0  0  0  0  0  0  0
  152.0236  142.4165  158.5640 C   0  0  0  0  0  0  0  0  0  0  0  0
  152.7115  142.1682  159.8638 C   0  0  0  0  0  0  0  0  0  0  0  0
  153.5374  141.1406  160.0770 N   0  0  0  0  0  0  0  0  0  0  0  0
  154.0331  141.1061  161.3850 C   0  0  0  0  0  0  0  0  0  0  0  0
  154.9908  140.0238  161.7914 C   0  0  0  0  0  0  0  0  0  0  0  0
  155.4365  140.2040  163.0349 F   0  0  0  0  0  0  0  0  0  0  0  0
  154.4107  138.8248  161.7429 F   0  0  0  0  0  0  0  0  0  0  0  0
  156.0513  139.9947  160.9850 F   0  0  0  0  0  0  0  0  0  0  0  0
  153.5515  142.1271  162.1681 C   0  0  0  0  0  0  0  0  0  0  0  0
  152.4607  143.1647  161.2916 S   0  0  0  0  0  0  0  0  0  0  0  0
  148.6064  141.3618  155.3955 C   0  0  2  0  0  0  0  0  0  0  0  0
  147.9015  140.1193  154.8271 C   0  0  0  0  0  0  0  0  0  0  0  0
  147.4007  140.5679  153.4596 C   0  0  0  0  0  0  0  0  0  0  0  0
  147.4443  142.0928  153.5321 C   0  0  0  0  0  0  0  0  0  0  0  0
  148.6376  142.3586  154.3174 N   0  0  0  0  0  0  0  0  0  0  0  0
  149.4789  141.7582  157.7516 H   0  0  0  0  0  0  0  0  0  0  0  0
  151.3574  140.3486  158.6825 H   0  0  0  0  0  0  0  0  0  0  0  0
  152.2150  140.7367  157.2087 H   0  0  0  0  0  0  0  0  0  0  0  0
  152.7214  142.9103  157.8862 H   0  0  0  0  0  0  0  0  0  0  0  0
  151.2089  143.1200  158.7383 H   0  0  0  0  0  0  0  0  0  0  0  0
  153.7709  142.3301  163.2059 H   0  0  0  0  0  0  0  0  0  0  0  0
  147.9925  141.7670  156.2024 H   0  0  0  0  0  0  0  0  0  0  0  0
  148.5540  139.2491  154.7353 H   0  0  0  0  0  0  0  0  0  0  0  0
  147.0671  139.8355  155.4695 H   0  0  0  0  0  0  0  0  0  0  0  0
  148.0806  140.2157  152.6824 H   0  0  0  0  0  0  0  0  0  0  0  0
  146.4053  140.1865  153.2306 H   0  0  0  0  0  0  0  0  0  0  0  0
  147.4951  142.5623  152.5494 H   0  0  0  0  0  0  0  0  0  0  0  0
  146.5688  142.4810  154.0552 H   0  0  0  0  0  0  0  0  0  0  0  0
  148.6584  143.3087  154.6591 H   0  0  0  0  0  0  0  0  0  0  0  0
  1  2  2  0  0  0  0
  2  3  1  0  0  0  0
  2 15  1  0  0  0  0
  3  4  1  0  0  0  0
  3 20  1  0  0  0  0
  4  5  1  0  0  0  0
  4 21  1  0  0  0  0
  4 22  1  0  0  0  0
  5  6  1  0  0  0  0
  5 23  1  0  0  0  0
  5 24  1  0  0  0  0
  6 14  1  0  0  0  0
  6  7  2  0  0  0  0
  7  8  1  0  0  0  0
  8  9  1  0  0  0  0
  8 13  2  0  0  0  0
  9 10  1  0  0  0  0
  9 11  1  0  0  0  0
  9 12  1  0  0  0  0
 13 14  1  0  0  0  0
 13 25  1  0  0  0  0
 15 19  1  0  0  0  0
 15 16  1  0  0  0  0
 15 26  1  0  0  0  0
 16 17  1  0  0  0  0
 16 27  1  0  0  0  0
 16 28  1  0  0  0  0
 17 18  1  0  0  0  0
 17 29  1  0  0  0  0
 17 30  1  0  0  0  0
 18 19  1  0  0  0  0
 18 31  1  0  0  0  0
 18 32  1  0  0  0  0
 19 33  1  0  0  0  0
M  END
> <s_m_source_file>
AV-unprocessed.smi

> <i_m_source_file_index>
662

> <i_lp_mmshare_version>
43012

> <i_f3d_flags>
0

> <s_epik_input>
W05IXTFbQ0gyXVtDSDJdW0NIMl1bQ0BIXTFDKD1PKVtOSF1bQ0gyXVtDSDJdYzJuYyhDKEYpKEYpRilbY0hdczI=

> <s_epik_cmdline>
J2VwaWtfcHl0aG9uJywgJy1waCcsICc3LjAnLCAnLXRuJywgJzgnLCAnLW1hJywgJzIwMCcsICctbWV0YWxfYmluZGluZycsICctaW1hZScsICc8aW5maWxlLm1hZT4nLCAnLW9tYWUnLCAnPG91dGZpbGUubWFlPic=

> <r_epik_Ionization_Penalty>
1.64272

> <r_epik_Ionization_Penalty_Charging>
0

> <r_epik_Ionization_Penalty_Neutral>
1.64272

> <r_epik_State_Penalty>
1.74416

> <r_epik_Charging_Adjusted_Penalty>
1.74416

> <i_epik_Tot_Q>
0

> <i_epik_Tot_abs_Q>
0

> <r_epik_Metal_State_Penalty>
1.74416

> <b_epik_Metal_Only>
0

> <s_lp_Force_Field>
OPLS_2005

> <r_lp_Energy>
16.594

> <b_lp_Chiralities_Consistent>
1

> <s_lp_Variant>
AV-unprocessed.smi:662-3

> <Gold.Version>
5.8.1

> <Gold.Id.Protein>
6NUR|6NUR_protein|mol2

> <Gold.PLP.Fitness>
44.6038

> <Gold.PLP.PLP>
-39.6797

> <Gold.PLP.part.hbond>
-3.0000

> <Gold.PLP.part.metal>
0.0000

> <Gold.PLP.part.buried>
-5.8596

> <Gold.PLP.part.nonpolar>
-30.7081

> <Gold.PLP.part.repulsive>
0.0903

> <Gold.PLP.ligand.clash>
0.0000

> <Gold.PLP.ligand.torsion>
0.5573

> <Gold.PLP.Chemscore.Hbond>
2.0003

> <Gold.PLP.Chemscore.CHOScore>
0.0000

> <Gold.PLP.Chemscore.Metal>
0.0000

> <Gold.Chemscore.Hbonds>
donor molecule, donor type, donor heavy atom, donor atom, acceptor molecule, acceptor atom, score
      L1  H    19    33       P1  8028  1.00
      P1  H  7989  7998       L1     1  0.96
      P1  H  8011  8017       L1    19  0.03

> <Gold.PLP.Chemscore.Internal.Correction>
0.0377

> <Gold.Rescore>
     Score         DG    S(hbond)    S(metal)    S(lipo)     H(rot)  DE(clash)    DE(int)     intcor
     16.60     -17.72       1.94        0.00      91.06       1.91       0.60       0.51       ----

> <Gold.Chemscore.Fitness>
16.6013

> <Gold.Chemscore.DG>
-17.7152

> <Gold.Chemscore.ZeroCoef>
-5.4800

> <Gold.Chemscore.Hbond>
1.9369

> <Gold.Chemscore.Metal>
0.0000

> <Gold.Chemscore.Lipo>
91.0628

> <Gold.Chemscore.Internal_Hbond>
0.0000

> <Gold.Chemscore.DEClash>
0.6019

> <Gold.Chemscore.DEInternal>
0.5121

> <Gold.Chemscore.Rot>
1.9095

> <Gold.Chemscore.Internal.Correction>
   9.000000E+99

> <Gold.Chemscore.Hbonds>
donor molecule, donor type, donor heavy atom, donor atom, acceptor molecule, acceptor atom, score
      L1  H    19    33       P1  8028  1.00
      P1  H  7989  7998       L1     1  0.92

> <Gold.Chemscore.Hbond.Weighted>
-6.4692

> <Gold.Chemscore.Metal.Weighted>
-0.0000

> <Gold.Chemscore.Lipo.Weighted>
-10.6543

> <Gold.Chemscore.Internal_Hbond.Weighted>
0.0000

> <Gold.Chemscore.DEClash.Weighted>
0.6019

> <Gold.Chemscore.DEInternal.Weighted>
0.5121

> <Gold.Chemscore.Rot.Weighted>
4.8883

> <Gold.Chemscore.Internal.Correction.Weighted>
   9.000000E+99

> <Gold.Protein.RotatedTorsions>
[ 6907 6896 6895 6894 ] final   32.80 input  -60.11 | X-H torsion
[ 7974 7965 7964 7962 ] final   -7.06 input  175.53 | X-H torsion
[ 8008 7997 7996 7995 ] final -120.66 input   59.86 | X-H torsion
[ 10167 10162 10161 10158 ] final    4.50 input  -65.29 | X-H torsion
[ 10718 10713 10712 10709 ] final   57.58 input   66.30 | X-H torsion
[ 10763 10752 10751 10750 ] final    7.99 input  -60.55 | X-H torsion
[ 11005 11000 10999 10996 ] final -148.76 input  -57.11 | X-H torsion

> <Gold.Protein.ActiveResidues>
 VAL166  LYS551  ARG553  GLY616  TRP617  ASP618  TYR619  PRO620  LYS621  CYS622 
 ASP623  PHE694  ASN695  SER759  ASP760  ASP761  ALA762  ILE779  LEU786  VAL792 
 PHE793  MET794  SER795  GLU796  ALA797  LYS798  CYS799  TRP800  GLU811  SER814 

> <Gold.Protein.RotatedAtoms>
  152.0796  134.9480  160.0573 H   0  0  0  0  0  0  0  0  0  0  0  0  # atno 6907 bound_to 6896
  152.0774  133.4131  159.4494 H   0  0  0  0  0  0  0  0  0  0  0  0  # atno 6908 bound_to 6896
  150.6836  134.2942  159.4722 H   0  0  0  0  0  0  0  0  0  0  0  0  # atno 6909 bound_to 6896
  146.2316  140.2263  142.8339 H   0  0  0  0  0  0  0  0  0  0  0  0  # atno 7974 bound_to 7965
  155.1354  140.0401  157.2785 H   0  0  0  0  0  0  0  0  0  0  0  0  # atno 8008 bound_to 7997
  154.6512  140.2569  155.7185 H   0  0  0  0  0  0  0  0  0  0  0  0  # atno 8009 bound_to 7997
  156.2578  140.2836  156.0946 H   0  0  0  0  0  0  0  0  0  0  0  0  # atno 8010 bound_to 7997
  140.6531  143.7494  150.7609 H   0  0  0  0  0  0  0  0  0  0  0  0  # atno 10167 bound_to 10162
  157.5526  130.8776  149.8986 H   0  0  0  0  0  0  0  0  0  0  0  0  # atno 10718 bound_to 10713
  153.2301  135.6891  153.7900 H   0  0  0  0  0  0  0  0  0  0  0  0  # atno 10763 bound_to 10752
  153.7068  135.3288  155.3238 H   0  0  0  0  0  0  0  0  0  0  0  0  # atno 10764 bound_to 10752
  154.8310  135.4581  154.1182 H   0  0  0  0  0  0  0  0  0  0  0  0  # atno 10765 bound_to 10752
  140.7578  134.3333  157.5109 H   0  0  0  0  0  0  0  0  0  0  0  0  # atno 11005 bound_to 11000
  144.9592  140.8258  143.5524 LP  0  0  0  0  0  0  0  0  0  0  0  0  # atno 17320 bound_to 7965
  145.2232  139.2149  143.5082 LP  0  0  0  0  0  0  0  0  0  0  0  0  # atno 17321 bound_to 7965
  140.1149  143.4665  152.2348 LP  0  0  0  0  0  0  0  0  0  0  0  0  # atno 17342 bound_to 10162
  139.5750  144.7482  151.3790 LP  0  0  0  0  0  0  0  0  0  0  0  0  # atno 17343 bound_to 10162
  156.0590  130.3703  150.1025 LP  0  0  0  0  0  0  0  0  0  0  0  0  # atno 17370 bound_to 10713
  156.9197  130.9679  151.3550 LP  0  0  0  0  0  0  0  0  0  0  0  0  # atno 17371 bound_to 10713
  139.8776  134.9183  156.3199 LP  0  0  0  0  0  0  0  0  0  0  0  0  # atno 17394 bound_to 11000
  140.9691  133.7339  156.0509 LP  0  0  0  0  0  0  0  0  0  0  0  0  # atno 17395 bound_to 11000

$$$$
