#       Name:                AV-unprocessed.smi:2627
#       Creating user name   scv26
#       Creation time:       Fri Mar 27 14:25:13 2020


#       File generated by GOLD software.
#

@<TRIPOS>MOLECULE
AV-unprocessed.smi:2627
    44    46     1
SMALL
NO_CHARGES


@<TRIPOS>ATOM
      1 ****        -1.4789   3.1802   0.1439 C.3            1 S1                 0.0000
      2 ****        -1.2638   2.5376   1.5205 C.3            1 S1                 0.0000
      3 ****        -1.9616   3.2976   2.4851 O.3            1 S1                 0.0000
      4 ****        -1.7014   1.1051   1.5124 C.2            1 S1                 0.0000
      5 ****        -2.9927   0.6733   1.5891 N.pl3          1 S1                 1.0000
      6 ****        -3.0339  -0.7186   1.5174 C.ar           1 S1                 0.0000
      7 ****        -4.1095  -1.6006   1.5511 C.ar           1 S1                 0.0000
      8 ****        -3.8052  -2.9735   1.4451 C.ar           1 S1                 0.0000
      9 ****        -2.4751  -3.4219   1.3102 C.ar           1 S1                 0.0000
     10 ****        -1.3930  -2.5176   1.2781 C.ar           1 S1                 0.0000
     11 ****        -1.7020  -1.1617   1.3875 C.ar           1 S1                 0.0000
     12 ****        -0.9134  -0.0047   1.3959 N.pl3          1 S1                 0.0000
     13 ****         0.5454  -0.1351   1.2694 C.3            1 S1                 0.0000
     14 ****         0.9937  -0.1270  -0.1966 C.3            1 S1                 0.0000
     15 ****         2.4085  -0.2433  -0.2372 O.3            1 S1                 0.0000
     16 ****         3.0294  -0.2122  -1.4676 C.ar           1 S1                 0.0000
     17 ****         4.4370  -0.3017  -1.4770 C.ar           1 S1                 0.0000
     18 ****         5.1536  -0.2736  -2.6890 C.ar           1 S1                 0.0000
     19 ****         4.4654  -0.1549  -3.9104 C.ar           1 S1                 0.0000
     20 ****         3.0611  -0.0665  -3.9165 C.ar           1 S1                 0.0000
     21 ****         2.3444  -0.0957  -2.7042 C.ar           1 S1                 0.0000
     22 ****        -0.9211   2.6505  -0.6287 H              1 S1                 0.0000
     23 ****        -1.1439   4.2178   0.1373 H              1 S1                 0.0000
     24 ****        -2.5316   3.1691  -0.1410 H              1 S1                 0.0000
     25 ****        -0.2057   2.5904   1.7740 H              1 S1                 0.0000
     26 ****        -1.7286   2.9798   3.3445 H              1 S1                 0.0000
     27 ****        -5.1292  -1.2586   1.6509 H              1 S1                 0.0000
     28 ****        -4.6077  -3.6968   1.4658 H              1 S1                 0.0000
     29 ****        -2.2804  -4.4816   1.2293 H              1 S1                 0.0000
     30 ****        -0.3791  -2.8736   1.1709 H              1 S1                 0.0000
     31 ****         1.0090   0.6887   1.8114 H              1 S1                 0.0000
     32 ****         0.8689  -1.0464   1.7729 H              1 S1                 0.0000
     33 ****         0.5319  -0.9578  -0.7325 H              1 S1                 0.0000
     34 ****         0.6786   0.8037  -0.6704 H              1 S1                 0.0000
     35 ****         4.9741  -0.3913  -0.5442 H              1 S1                 0.0000
     36 ****         6.2314  -0.3418  -2.6810 H              1 S1                 0.0000
     37 ****         5.0135  -0.1313  -4.8407 H              1 S1                 0.0000
     38 ****         2.5317   0.0248  -4.8536 H              1 S1                 0.0000
     39 ****         1.2684  -0.0262  -2.7508 H              1 S1                 0.0000
     40 ****        -3.7864   1.2948   1.6795 H              1 S1                 0.0000
     41 ****        -2.9467   3.1981   2.3446 LP             1 S1                 0.0000
     42 ****        -1.7088   4.2616   2.4022 LP             1 S1                 0.0000
     43 ****         2.6469  -1.1138   0.1933 LP             1 S1                 0.0000
     44 ****         2.7836   0.5098   0.3033 LP             1 S1                 0.0000
@<TRIPOS>BOND
    1    1    2 1     
    2    1   22 1     
    3    1   23 1     
    4    1   24 1     
    5    2    3 1     
    6    2    4 1     
    7    2   25 1     
    8    3   26 1     
    9    4   12 1     
   10    4    5 2     
   11    5    6 1     
   12    5   40 1     
   13    6   11 ar    
   14    6    7 ar    
   15    7    8 ar    
   16    7   27 1     
   17    8    9 ar    
   18    8   28 1     
   19    9   10 ar    
   20    9   29 1     
   21   10   11 ar    
   22   10   30 1     
   23   11   12 1     
   24   12   13 1     
   25   13   14 1     
   26   13   31 1     
   27   13   32 1     
   28   14   15 1     
   29   14   33 1     
   30   14   34 1     
   31   15   16 1     
   32   16   21 ar    
   33   16   17 ar    
   34   17   18 ar    
   35   17   35 1     
   36   18   19 ar    
   37   18   36 1     
   38   19   20 ar    
   39   19   37 1     
   40   20   21 ar    
   41   20   38 1     
   42   21   39 1     
   43    3   41 1     
   44    3   42 1     
   45   15   43 1     
   46   15   44 1     
@<TRIPOS>SUBSTRUCTURE
      1 S1             1
@<TRIPOS>SET
LONE_PAIRS      STATIC     ATOMS    <user>   **** ""
4 41 42 43 44
DONOR_HYDROGENS      STATIC     ATOMS    <user>   **** ""
2 26 40
ATOM$BLUE        STATIC     ATOMS    COLORGROUP SYSTEM
4 41 42 43 44
ATOM$RED        STATIC     ATOMS    COLORGROUP SYSTEM
2 26 40
