#       Name:                AV-unprocessed.smi:1199
#       Creating user name   scv26
#       Creation time:       Fri Mar 27 04:03:35 2020


#       File generated by GOLD software.
#

@<TRIPOS>MOLECULE
AV-unprocessed.smi:1199
    50    51     1
SMALL
NO_CHARGES


@<TRIPOS>ATOM
      1 ****        -1.4380  -1.5297  -3.0648 C.3            1 S1                 0.0000
      2 ****        -1.2938  -0.4878  -1.9456 C.3            1 S1                 0.0000
      3 ****        -1.8902  -0.9825  -0.6090 C.3            1 S1                 0.0000
      4 ****        -1.4948  -0.1610   0.5671 N.4            1 S1                 1.0000
      5 ****        -2.0324   1.2215   0.5452 C.3            1 S1                 0.0000
      6 ****        -1.5368   2.0057   1.7719 C.3            1 S1                 0.0000
      7 ****        -1.9231   1.3251   2.9594 O.3            1 S1                 0.0000
      8 ****        -1.3456   0.0280   3.0389 C.3            1 S1                 0.0000
      9 ****        -1.8205  -0.8252   1.8514 C.3            1 S1                 0.0000
     10 ****         0.1072  -0.1269  -1.7612 N.am           1 S1                 0.0000
     11 ****         0.7614   0.8667  -2.3833 C.2            1 S1                 0.0000
     12 ****         0.2669   1.5244  -3.2981 O.2            1 S1                 0.0000
     13 ****         2.1746   1.2085  -1.8819 C.3            1 S1                 0.0000
     14 ****         2.5690   0.5015  -0.6513 N.am           1 S1                 0.0000
     15 ****         2.1321   1.1679   0.5736 N.pl3          1 S1                -1.0000
     16 ****         2.4740   0.6342   1.7757 C.2            1 S1                 0.0000
     17 ****         2.1788   1.1617   2.8451 O.2            1 S1                 0.0000
     18 ****         3.2061  -0.6211   1.7831 C.2            1 S1                 0.0000
     19 ****         3.5535  -1.2394   0.6371 C.2            1 S1                 0.0000
     20 ****         3.2315  -0.6901  -0.6744 C.2            1 S1                 0.0000
     21 ****         3.5290  -1.2587  -1.7243 O.2            1 S1                 0.0000
     22 ****        -2.4836  -1.7985  -3.2168 H              1 S1                 0.0000
     23 ****        -0.8898  -2.4432  -2.8316 H              1 S1                 0.0000
     24 ****        -1.0568  -1.1460  -4.0118 H              1 S1                 0.0000
     25 ****        -1.8474   0.4027  -2.2480 H              1 S1                 0.0000
     26 ****        -2.9777  -1.0390  -0.6754 H              1 S1                 0.0000
     27 ****        -1.5402  -2.0014  -0.4359 H              1 S1                 0.0000
     28 ****        -1.7137   1.7392  -0.3591 H              1 S1                 0.0000
     29 ****        -3.1228   1.1926   0.5328 H              1 S1                 0.0000
     30 ****        -0.4537   2.1335   1.7444 H              1 S1                 0.0000
     31 ****        -1.9736   3.0044   1.7801 H              1 S1                 0.0000
     32 ****        -0.2585   0.0980   3.0565 H              1 S1                 0.0000
     33 ****        -1.6478  -0.4355   3.9781 H              1 S1                 0.0000
     34 ****        -2.8978  -0.9867   1.9159 H              1 S1                 0.0000
     35 ****        -1.3449  -1.8056   1.8932 H              1 S1                 0.0000
     36 ****         0.6107  -0.6171  -1.0358 H              1 S1                 0.0000
     37 ****         2.8854   1.0150  -2.6867 H              1 S1                 0.0000
     38 ****         2.2222   2.2853  -1.7102 H              1 S1                 0.0000
     39 ****         3.4745  -1.0697   2.7282 H              1 S1                 0.0000
     40 ****         4.0941  -2.1727   0.6898 H              1 S1                 0.0000
     41 ****        -0.4877  -0.0765   0.5357 H              1 S1                 0.0000
     42 ****        -2.9191   1.2368   2.9721 LP             1 S1                 0.0000
     43 ****        -1.6258   1.8603   3.7501 LP             1 S1                 0.0000
     44 ****        -0.6629   1.3279  -3.6092 LP             1 S1                 0.0000
     45 ****         0.7949   2.2553  -3.7304 LP             1 S1                 0.0000
     46 ****         1.5885   2.0059   0.5279 LP             1 S1                 0.0000
     47 ****         1.6657   2.0200   2.8545 LP             1 S1                 0.0000
     48 ****         2.4516   0.7328   3.7063 LP             1 S1                 0.0000
     49 ****         3.2844  -0.8474  -2.6023 LP             1 S1                 0.0000
     50 ****         4.0154  -2.1322  -1.6994 LP             1 S1                 0.0000
@<TRIPOS>BOND
    1    1    2 1     
    2    1   22 1     
    3    1   23 1     
    4    1   24 1     
    5    2    3 1     
    6    2   10 1     
    7    2   25 1     
    8    3    4 1     
    9    3   26 1     
   10    3   27 1     
   11    4    9 1     
   12    4    5 1     
   13    4   41 1     
   14    5    6 1     
   15    5   28 1     
   16    5   29 1     
   17    6    7 1     
   18    6   30 1     
   19    6   31 1     
   20    7    8 1     
   21    8    9 1     
   22    8   32 1     
   23    8   33 1     
   24    9   34 1     
   25    9   35 1     
   26   10   11 am    
   27   10   36 1     
   28   11   12 2     
   29   11   13 1     
   30   13   37 1     
   31   13   38 1     
   32   13   14 1     
   33   14   15 1     
   34   14   20 am    
   35   15   16 1     
   36   16   17 2     
   37   16   18 1     
   38   18   39 1     
   39   18   19 2     
   40   19   40 1     
   41   19   20 1     
   42   20   21 2     
   43    7   42 1     
   44    7   43 1     
   45   12   44 1     
   46   12   45 1     
   47   15   46 1     
   48   17   47 1     
   49   17   48 1     
   50   21   49 1     
   51   21   50 1     
@<TRIPOS>SUBSTRUCTURE
      1 S1             1
@<TRIPOS>SET
LONE_PAIRS      STATIC     ATOMS    <user>   **** ""
9 42 43 44 45 46 47 48 49 50
DONOR_HYDROGENS      STATIC     ATOMS    <user>   **** ""
2 41 36
ATOM$BLUE        STATIC     ATOMS    COLORGROUP SYSTEM
9 42 43 44 45 46 47 48 49 50
ATOM$RED        STATIC     ATOMS    COLORGROUP SYSTEM
2 41 36
