AV-unprocessed.smi:33|AV-procd|sdf|202|dock5
  -GOLD-   2262015483D 1   1.00000     0.00000
 Structure written by MMmdl.
 67 72  0  0  0  0  0  0  0  0  1 V2000
  153.2665  140.3412  158.5719 O   0  0  0  0  0  0  0  0  0  0  0  0
  152.5645  141.3546  158.5905 C   0  0  0  0  0  0  0  0  0  0  0  0
  151.7942  141.7468  157.5567 O   0  0  0  0  0  0  0  0  0  0  0  0
  151.7520  140.9687  156.3713 C   0  0  0  0  0  0  0  0  0  0  0  0
  150.6292  139.9304  156.4739 C   0  0  1  0  0  0  0  0  0  0  0  0
  150.0079  140.0102  157.7479 O   0  0  0  0  0  0  0  0  0  0  0  0
  148.7585  139.3955  157.6835 C   0  0  2  0  0  0  0  0  0  0  0  0
  148.9401  137.9604  158.0890 N   0  0  0  0  0  0  0  0  0  0  0  0
  150.0052  137.3415  158.7151 C   0  0  0  0  0  0  0  0  0  0  0  0
  149.8469  136.0703  158.9678 N   0  0  0  0  0  0  0  0  0  0  0  0
  148.5673  135.7945  158.5067 C   0  0  0  0  0  0  0  0  0  0  0  0
  147.7568  134.6280  158.4761 C   0  0  0  0  0  0  0  0  0  0  0  0
  148.1762  133.4307  158.9476 N   0  0  0  0  0  0  0  0  0  0  0  0
  147.6151  132.9741  160.2285 C   0  0  0  0  0  0  0  0  0  0  0  0
  147.6019  131.7694  160.4891 O   0  0  0  0  0  0  0  0  0  0  0  0
  147.0064  133.9544  161.1916 C   0  0  0  0  0  0  0  0  0  0  0  0
  145.8479  133.6020  161.9184 C   0  0  0  0  0  0  0  0  0  0  0  0
  145.2760  134.5116  162.8289 C   0  0  0  0  0  0  0  0  0  0  0  0
  145.8690  135.7721  163.0324 C   0  0  0  0  0  0  0  0  0  0  0  0
  147.0413  136.1184  162.3339 C   0  0  0  0  0  0  0  0  0  0  0  0
  147.6144  135.2091  161.4238 C   0  0  0  0  0  0  0  0  0  0  0  0
  149.1580  132.7026  158.1311 C   0  0  0  0  0  0  0  0  0  0  0  0
  149.9180  131.8953  158.6694 O   0  0  0  0  0  0  0  0  0  0  0  0
  149.2699  132.9685  156.6569 C   0  0  0  0  0  0  0  0  0  0  0  0
  149.6950  134.2341  156.1967 C   0  0  0  0  0  0  0  0  0  0  0  0
  149.8147  134.4835  154.8158 C   0  0  0  0  0  0  0  0  0  0  0  0
  149.5301  133.4635  153.8879 C   0  0  0  0  0  0  0  0  0  0  0  0
  149.1346  132.1906  154.3411 C   0  0  0  0  0  0  0  0  0  0  0  0
  149.0119  131.9410  155.7216 C   0  0  0  0  0  0  0  0  0  0  0  0
  146.5091  134.7314  157.9493 N   0  0  0  0  0  0  0  0  0  0  0  0
  146.0839  135.9075  157.4781 C   0  0  0  0  0  0  0  0  0  0  0  0
  146.7320  137.0745  157.4355 N   0  0  0  0  0  0  0  0  0  0  0  0
  147.9860  136.9728  157.9649 C   0  0  0  0  0  0  0  0  0  0  0  0
  148.2681  139.5220  156.2269 C   0  0  1  0  0  0  0  0  0  0  0  0
  147.1223  140.3414  156.1178 O   0  0  0  0  0  0  0  0  0  0  0  0
  149.4574  140.1669  155.5199 C   0  0  2  0  0  0  0  0  0  0  0  0
  149.6742  139.6117  154.3270 F   0  0  0  0  0  0  0  0  0  0  0  0
  152.4835  142.2766  159.7601 C   0  0  0  0  0  0  0  0  0  0  0  0
  153.0908  141.9005  160.9810 C   0  0  0  0  0  0  0  0  0  0  0  0
  153.0344  142.7506  162.1025 C   0  0  0  0  0  0  0  0  0  0  0  0
  152.3691  143.9873  162.0170 C   0  0  0  0  0  0  0  0  0  0  0  0
  151.7596  144.3726  160.8086 C   0  0  0  0  0  0  0  0  0  0  0  0
  151.8155  143.5239  159.6854 C   0  0  0  0  0  0  0  0  0  0  0  0
  151.5661  141.6251  155.5200 H   0  0  0  0  0  0  0  0  0  0  0  0
  152.7123  140.4790  156.2031 H   0  0  0  0  0  0  0  0  0  0  0  0
  151.0369  138.9271  156.3456 H   0  0  0  0  0  0  0  0  0  0  0  0
  148.0708  139.8139  158.4196 H   0  0  0  0  0  0  0  0  0  0  0  0
  150.9151  137.8576  158.9843 H   0  0  0  0  0  0  0  0  0  0  0  0
  145.3832  132.6379  161.7693 H   0  0  0  0  0  0  0  0  0  0  0  0
  144.3820  134.2415  163.3717 H   0  0  0  0  0  0  0  0  0  0  0  0
  145.4286  136.4699  163.7292 H   0  0  0  0  0  0  0  0  0  0  0  0
  147.5019  137.0817  162.4962 H   0  0  0  0  0  0  0  0  0  0  0  0
  148.5160  135.4849  160.8963 H   0  0  0  0  0  0  0  0  0  0  0  0
  149.9157  135.0237  156.9004 H   0  0  0  0  0  0  0  0  0  0  0  0
  150.1260  135.4577  154.4686 H   0  0  0  0  0  0  0  0  0  0  0  0
  149.6228  133.6557  152.8292 H   0  0  0  0  0  0  0  0  0  0  0  0
  148.9264  131.4047  153.6303 H   0  0  0  0  0  0  0  0  0  0  0  0
  148.7122  130.9590  156.0588 H   0  0  0  0  0  0  0  0  0  0  0  0
  145.0807  135.9151  157.0781 H   0  0  0  0  0  0  0  0  0  0  0  0
  148.0288  138.5438  155.8103 H   0  0  0  0  0  0  0  0  0  0  0  0
  147.3122  141.1778  156.5151 H   0  0  0  0  0  0  0  0  0  0  0  0
  149.2972  141.2361  155.3701 H   0  0  0  0  0  0  0  0  0  0  0  0
  153.6081  140.9562  161.0710 H   0  0  0  0  0  0  0  0  0  0  0  0
  153.5027  142.4524  163.0291 H   0  0  0  0  0  0  0  0  0  0  0  0
  152.3263  144.6390  162.8773 H   0  0  0  0  0  0  0  0  0  0  0  0
  151.2478  145.3215  160.7425 H   0  0  0  0  0  0  0  0  0  0  0  0
  151.3368  143.8500  158.7735 H   0  0  0  0  0  0  0  0  0  0  0  0
  1  2  2  0  0  0  0
  2  3  1  0  0  0  0
  2 38  1  0  0  0  0
  3  4  1  0  0  0  0
  4  5  1  0  0  0  0
  4 44  1  0  0  0  0
  4 45  1  0  0  0  0
  5 36  1  0  0  0  0
  5  6  1  0  0  0  0
  5 46  1  0  0  0  0
  6  7  1  0  0  0  0
  7  8  1  0  0  0  0
  7 34  1  0  0  0  0
  7 47  1  0  0  0  0
  8 33  1  0  0  0  0
  8  9  1  0  0  0  0
  9 10  2  0  0  0  0
  9 48  1  0  0  0  0
 10 11  1  0  0  0  0
 11 33  2  0  0  0  0
 11 12  1  0  0  0  0
 12 13  1  0  0  0  0
 12 30  2  0  0  0  0
 13 14  1  0  0  0  0
 13 22  1  0  0  0  0
 14 15  2  0  0  0  0
 14 16  1  0  0  0  0
 16 21  1  0  0  0  0
 16 17  2  0  0  0  0
 17 18  1  0  0  0  0
 17 49  1  0  0  0  0
 18 19  2  0  0  0  0
 18 50  1  0  0  0  0
 19 20  1  0  0  0  0
 19 51  1  0  0  0  0
 20 21  2  0  0  0  0
 20 52  1  0  0  0  0
 21 53  1  0  0  0  0
 22 23  2  0  0  0  0
 22 24  1  0  0  0  0
 24 29  1  0  0  0  0
 24 25  2  0  0  0  0
 25 26  1  0  0  0  0
 25 54  1  0  0  0  0
 26 27  2  0  0  0  0
 26 55  1  0  0  0  0
 27 28  1  0  0  0  0
 27 56  1  0  0  0  0
 28 29  2  0  0  0  0
 28 57  1  0  0  0  0
 29 58  1  0  0  0  0
 30 31  1  0  0  0  0
 31 32  2  0  0  0  0
 31 59  1  0  0  0  0
 32 33  1  0  0  0  0
 34 35  1  0  0  0  0
 34 36  1  0  0  0  0
 34 60  1  0  0  0  0
 35 61  1  0  0  0  0
 36 37  1  0  0  0  0
 36 62  1  0  0  0  0
 38 43  1  0  0  0  0
 38 39  2  0  0  0  0
 39 40  1  0  0  0  0
 39 63  1  0  0  0  0
 40 41  2  0  0  0  0
 40 64  1  0  0  0  0
 41 42  1  0  0  0  0
 41 65  1  0  0  0  0
 42 43  2  0  0  0  0
 42 66  1  0  0  0  0
 43 67  1  0  0  0  0
M  END
> <s_m_source_file>
AV-unprocessed.smi

> <i_m_source_file_index>
33

> <i_lp_mmshare_version>
43012

> <i_f3d_flags>
0

> <s_epik_input>
W2NIXTFbY0hdW2NIXVtjSF1bY0hdYzFDKD1PKU9bQ0gyXVtDQEBIXTJPW0NASF0oW0NAQEhdKFtPSF0pW0NAQEhdMkYpbihbY0hdbjMpYyhjMzQpbltjSF1uYzROKEMoPU8pYzVbY0hdW2NIXVtjSF1bY0hdW2NIXTUpQyg9TyljNltjSF1bY0hdW2NIXVtjSF1bY0hdNg==

> <s_epik_cmdline>
J2VwaWtfcHl0aG9uJywgJy1waCcsICc3LjAnLCAnLXRuJywgJzgnLCAnLW1hJywgJzIwMCcsICctbWV0YWxfYmluZGluZycsICctaW1hZScsICc8aW5maWxlLm1hZT4nLCAnLW9tYWUnLCAnPG91dGZpbGUubWFlPic=

> <r_lp_tautomer_probability>
1

> <r_epik_Ionization_Penalty>
0.00067664

> <r_epik_Ionization_Penalty_Charging>
0

> <r_epik_Ionization_Penalty_Neutral>
0.00067664

> <r_epik_State_Penalty>
0.000428095

> <r_epik_Charging_Adjusted_Penalty>
0.000428095

> <i_epik_Tot_Q>
0

> <i_epik_Tot_abs_Q>
0

> <r_epik_Metal_State_Penalty>
-0

> <b_epik_Metal_Only>
0

> <s_epik_Chemistry_Notes>
This compound has an ester and may undergo hydrolysis at high or low pH. This compound contains an acetal/aminal-like group ( X-CH(R)-Y where X, Y are N, S, or O) that may be acid/base labile, releasing an aldehyde.

> <s_lp_Force_Field>
OPLS_2005

> <r_lp_Energy>
69.1038

> <b_lp_Chiralities_Consistent>
1

> <s_lp_Variant>
AV-unprocessed.smi:33-4

> <Gold.Version>
5.8.1

> <Gold.Id.Protein>
6NUR|6NUR_protein|mol2

> <Gold.PLP.Fitness>
65.5899

> <Gold.PLP.PLP>
-64.5019

> <Gold.PLP.part.hbond>
-2.9159

> <Gold.PLP.part.metal>
0.0000

> <Gold.PLP.part.buried>
-6.3586

> <Gold.PLP.part.nonpolar>
-54.7629

> <Gold.PLP.part.repulsive>
0.0135

> <Gold.PLP.ligand.clash>
0.0537

> <Gold.PLP.ligand.torsion>
4.8410

> <Gold.PLP.Chemscore.Hbond>
2.3640

> <Gold.PLP.Chemscore.CHOScore>
0.0000

> <Gold.PLP.Chemscore.Metal>
0.0000

> <Gold.Chemscore.Hbonds>
donor molecule, donor type, donor heavy atom, donor atom, acceptor molecule, acceptor atom, score
      P1  H  6896  6907       L1    23  0.55
      P1  H  6896  6908       L1    10  1.00
      P1  H  7997  8008       L1     1  0.84

> <Gold.PLP.Chemscore.Internal.Correction>
3.7316

> <Gold.Rescore>
     Score         DG    S(hbond)    S(metal)    S(lipo)     H(rot)  DE(clash)    DE(int)     intcor
     16.98     -24.31       1.87        0.00     162.90       2.52       0.24       7.09       ----

> <Gold.Chemscore.Fitness>
16.9789

> <Gold.Chemscore.DG>
-24.3057

> <Gold.Chemscore.ZeroCoef>
-5.4800

> <Gold.Chemscore.Hbond>
1.8651

> <Gold.Chemscore.Metal>
0.0000

> <Gold.Chemscore.Lipo>
162.9027

> <Gold.Chemscore.Internal_Hbond>
0.0000

> <Gold.Chemscore.DEClash>
0.2364

> <Gold.Chemscore.DEInternal>
7.0905

> <Gold.Chemscore.Rot>
2.5247

> <Gold.Chemscore.Internal.Correction>
   9.000000E+99

> <Gold.Chemscore.Hbonds>
donor molecule, donor type, donor heavy atom, donor atom, acceptor molecule, acceptor atom, score
      P1  H  6896  6907       L1    23  0.07
      P1  H  6896  6908       L1    10  1.00
      P1  H  7997  8008       L1     1  0.77

> <Gold.Chemscore.Hbond.Weighted>
-6.2294

> <Gold.Chemscore.Metal.Weighted>
-0.0000

> <Gold.Chemscore.Lipo.Weighted>
-19.0596

> <Gold.Chemscore.Internal_Hbond.Weighted>
0.0000

> <Gold.Chemscore.DEClash.Weighted>
0.2364

> <Gold.Chemscore.DEInternal.Weighted>
7.0905

> <Gold.Chemscore.Rot.Weighted>
6.4633

> <Gold.Chemscore.Internal.Correction.Weighted>
   9.000000E+99

> <Gold.Protein.RotatedTorsions>
[ 6907 6896 6895 6894 ] final -160.95 input  -60.11 | X-H torsion
[ 7974 7965 7964 7962 ] final  -72.14 input  175.53 | X-H torsion
[ 8008 7997 7996 7995 ] final  -94.64 input   59.86 | X-H torsion
[ 10167 10162 10161 10158 ] final   10.77 input  -65.29 | X-H torsion
[ 10718 10713 10712 10709 ] final  161.54 input   66.30 | X-H torsion
[ 10763 10752 10751 10750 ] final -133.98 input  -60.55 | X-H torsion
[ 11005 11000 10999 10996 ] final   50.97 input  -57.11 | X-H torsion

> <Gold.Protein.ActiveResidues>
 VAL166  LYS551  ARG553  GLY616  TRP617  ASP618  TYR619  PRO620  LYS621  CYS622 
 ASP623  PHE694  ASN695  SER759  ASP760  ASP761  ALA762  ILE779  LEU786  VAL792 
 PHE793  MET794  SER795  GLU796  ALA797  LYS798  CYS799  TRP800  GLU811  SER814 

> <Gold.Protein.RotatedAtoms>
  151.3571  133.3903  159.2685 H   0  0  0  0  0  0  0  0  0  0  0  0  # atno 6907 bound_to 6896
  150.9755  134.9121  159.7824 H   0  0  0  0  0  0  0  0  0  0  0  0  # atno 6908 bound_to 6896
  152.5199  134.3534  159.9311 H   0  0  0  0  0  0  0  0  0  0  0  0  # atno 6909 bound_to 6896
  145.6690  140.9227  143.0893 H   0  0  0  0  0  0  0  0  0  0  0  0  # atno 7974 bound_to 7965
  154.7510  140.0487  157.0893 H   0  0  0  0  0  0  0  0  0  0  0  0  # atno 8008 bound_to 7997
  155.0057  140.3130  155.4830 H   0  0  0  0  0  0  0  0  0  0  0  0  # atno 8009 bound_to 7997
  156.2885  140.2193  156.5169 H   0  0  0  0  0  0  0  0  0  0  0  0  # atno 8010 bound_to 7997
  140.6173  143.8279  150.7134 H   0  0  0  0  0  0  0  0  0  0  0  0  # atno 10167 bound_to 10162
  157.1352  131.0526  151.2353 H   0  0  0  0  0  0  0  0  0  0  0  0  # atno 10718 bound_to 10713
  154.8725  135.3749  154.4661 H   0  0  0  0  0  0  0  0  0  0  0  0  # atno 10763 bound_to 10752
  153.5325  135.7027  153.5681 H   0  0  0  0  0  0  0  0  0  0  0  0  # atno 10764 bound_to 10752
  153.3880  135.3979  155.1868 H   0  0  0  0  0  0  0  0  0  0  0  0  # atno 10765 bound_to 10752
  140.0972  134.5129  155.8796 H   0  0  0  0  0  0  0  0  0  0  0  0  # atno 11005 bound_to 11000
  144.7063  139.8547  143.7429 LP  0  0  0  0  0  0  0  0  0  0  0  0  # atno 17320 bound_to 7965
  146.1061  139.4061  143.0316 LP  0  0  0  0  0  0  0  0  0  0  0  0  # atno 17321 bound_to 7965
  140.1862  143.4074  152.1897 LP  0  0  0  0  0  0  0  0  0  0  0  0  # atno 17342 bound_to 10162
  139.5409  144.7256  151.4736 LP  0  0  0  0  0  0  0  0  0  0  0  0  # atno 17343 bound_to 10162
  157.4357  130.7515  149.7027 LP  0  0  0  0  0  0  0  0  0  0  0  0  # atno 17370 bound_to 10713
  155.9800  130.4034  150.3556 LP  0  0  0  0  0  0  0  0  0  0  0  0  # atno 17371 bound_to 10713
  141.2095  133.6685  156.6446 LP  0  0  0  0  0  0  0  0  0  0  0  0  # atno 17394 bound_to 11000
  140.3270  134.7961  157.4296 LP  0  0  0  0  0  0  0  0  0  0  0  0  # atno 17395 bound_to 11000

$$$$
