#       Name:                AV-unprocessed.smi:1954
#       Creating user name   scv26
#       Creation time:       Fri Mar 27 10:05:30 2020


#       File generated by GOLD software.
#

@<TRIPOS>MOLECULE
AV-unprocessed.smi:1954
    50    52     1
SMALL
NO_CHARGES


@<TRIPOS>ATOM
      1 ****        -0.3278   1.5588   0.9194 O.2            1 S1                 0.0000
      2 ****        -0.7956   0.5207   1.3869 C.2            1 S1                 0.0000
      3 ****        -0.0453  -0.5355   1.7318 N.am           1 S1                 0.0000
      4 ****         1.4094  -0.6326   1.6100 C.3            1 S1                 0.0000
      5 ****         1.8780  -1.2345   0.2473 C.3            1 S1                 0.0000
      6 ****         1.4525  -0.2972  -0.8568 N.4            1 S1                 1.0000
      7 ****         2.3092   0.9119  -1.0126 C.3            1 S1                 0.0000
      8 ****         1.6687   1.9089  -1.9899 C.3            1 S1                 0.0000
      9 ****         1.4846   1.2733  -3.2465 O.3            1 S1                 0.0000
     10 ****         0.5954   0.1701  -3.1483 C.3            1 S1                 0.0000
     11 ****         1.1648  -0.8918  -2.1903 C.3            1 S1                 0.0000
     12 ****         1.3231  -2.6796   0.0945 C.3            1 S1                 0.0000
     13 ****         2.0586  -3.5879   1.0837 C.3            1 S1                 0.0000
     14 ****         3.7604  -2.9846   1.1876 S.3            1 S1                 0.0000
     15 ****         3.4085  -1.4599   0.2687 C.3            1 S1                 0.0000
     16 ****        -2.0989   0.2882   1.6199 N.am           1 S1                 0.0000
     17 ****        -3.2098   1.1406   1.3796 C.ar           1 S1                 0.0000
     18 ****        -3.1993   2.0660   0.3035 C.ar           1 S1                 0.0000
     19 ****        -4.3302   2.8746   0.0778 C.ar           1 S1                 0.0000
     20 ****        -5.4465   2.7323   0.9202 C.ar           1 S1                 0.0000
     21 ****        -5.3803   1.7786   1.9517 C.ar           1 S1                 0.0000
     22 ****        -4.2982   1.0016   2.1710 N.ar           1 S1                 0.0000
     23 ****        -0.5175  -1.3403   2.1181 H              1 S1                 0.0000
     24 ****         1.8611   0.3436   1.7874 H              1 S1                 0.0000
     25 ****         1.7536  -1.2420   2.4448 H              1 S1                 0.0000
     26 ****         2.4631   1.4058  -0.0544 H              1 S1                 0.0000
     27 ****         3.2936   0.6329  -1.3899 H              1 S1                 0.0000
     28 ****         0.7173   2.2824  -1.6077 H              1 S1                 0.0000
     29 ****         2.3197   2.7730  -2.1242 H              1 S1                 0.0000
     30 ****        -0.3843   0.5106  -2.8080 H              1 S1                 0.0000
     31 ****         0.4539  -0.2583  -4.1407 H              1 S1                 0.0000
     32 ****         2.0731  -1.3313  -2.6049 H              1 S1                 0.0000
     33 ****         0.4166  -1.6797  -2.1134 H              1 S1                 0.0000
     34 ****         0.2414  -2.7397   0.2171 H              1 S1                 0.0000
     35 ****         1.5521  -3.0816  -0.8921 H              1 S1                 0.0000
     36 ****         1.6039  -3.5335   2.0728 H              1 S1                 0.0000
     37 ****         2.0365  -4.6321   0.7710 H              1 S1                 0.0000
     38 ****         3.7848  -1.6097  -0.7440 H              1 S1                 0.0000
     39 ****         3.9554  -0.6218   0.7017 H              1 S1                 0.0000
     40 ****        -2.3166  -0.5699   2.1050 H              1 S1                 0.0000
     41 ****        -2.3534   2.1616  -0.3597 H              1 S1                 0.0000
     42 ****        -4.3423   3.5874  -0.7332 H              1 S1                 0.0000
     43 ****        -6.3319   3.3338   0.7762 H              1 S1                 0.0000
     44 ****        -6.2188   1.6324   2.6165 H              1 S1                 0.0000
     45 ****         0.5572   0.0538  -0.5468 H              1 S1                 0.0000
     46 ****         0.6587   1.6443   0.7798 LP             1 S1                 0.0000
     47 ****        -0.9343   2.3168   0.6791 LP             1 S1                 0.0000
     48 ****         2.3700   0.9481  -3.5787 LP             1 S1                 0.0000
     49 ****         1.1089   1.9365  -3.8938 LP             1 S1                 0.0000
     50 ****        -4.3012   0.3296   2.9115 LP             1 S1                 0.0000
@<TRIPOS>BOND
    1    1    2 2     
    2    2    3 am    
    3    2   16 am    
    4    3    4 1     
    5    3   23 1     
    6    4    5 1     
    7    4   24 1     
    8    4   25 1     
    9    5   15 1     
   10    5    6 1     
   11    5   12 1     
   12    6   11 1     
   13    6    7 1     
   14    6   45 1     
   15    7    8 1     
   16    7   26 1     
   17    7   27 1     
   18    8    9 1     
   19    8   28 1     
   20    8   29 1     
   21    9   10 1     
   22   10   11 1     
   23   10   30 1     
   24   10   31 1     
   25   11   32 1     
   26   11   33 1     
   27   12   13 1     
   28   12   34 1     
   29   12   35 1     
   30   13   14 1     
   31   13   36 1     
   32   13   37 1     
   33   14   15 1     
   34   15   38 1     
   35   15   39 1     
   36   16   17 1     
   37   16   40 1     
   38   17   22 ar    
   39   17   18 ar    
   40   18   19 ar    
   41   18   41 1     
   42   19   20 ar    
   43   19   42 1     
   44   20   21 ar    
   45   20   43 1     
   46   21   22 ar    
   47   21   44 1     
   48    1   46 1     
   49    1   47 1     
   50    9   48 1     
   51    9   49 1     
   52   22   50 1     
@<TRIPOS>SUBSTRUCTURE
      1 S1             1
@<TRIPOS>SET
LONE_PAIRS      STATIC     ATOMS    <user>   **** ""
5 46 47 48 49 50
DONOR_HYDROGENS      STATIC     ATOMS    <user>   **** ""
3 23 45 40
ATOM$BLUE        STATIC     ATOMS    COLORGROUP SYSTEM
5 46 47 48 49 50
ATOM$RED        STATIC     ATOMS    COLORGROUP SYSTEM
3 23 45 40
