AV-unprocessed.smi:395|AV-procd|sdf|2486|dock3
  -GOLD-   2262022423D 1   1.00000     0.00000
 Structure written by MMmdl.
 34 35  0  0  0  0  0  0  0  0  1 V2000
  150.1020  135.0983  155.2862 C   0  0  0  0  0  0  0  0  0  0  0  0
  149.2641  135.2083  156.3316 C   0  0  0  0  0  0  0  0  0  0  0  0
  149.2734  136.2947  157.3986 C   0  0  0  0  0  0  0  0  0  0  0  0
  150.3811  137.2389  157.2785 N   0  0  0  0  0  0  0  0  0  0  0  0
  151.1994  137.6008  158.2785 C   0  0  0  0  0  0  0  0  0  0  0  0
  151.1191  137.1373  159.4169 O   0  0  0  0  0  0  0  0  0  0  0  0
  152.2686  138.6466  157.9289 C   0  0  0  0  0  0  0  0  0  0  0  0
  151.6912  139.9479  157.5274 N   0  0  0  0  0  0  0  0  0  0  0  0
  151.0242  140.0479  156.2796 C   0  0  0  0  0  0  0  0  0  0  0  0
  150.8934  139.0654  155.5477 O   0  0  0  0  0  0  0  0  0  0  0  0
  150.5327  141.3799  155.9348 C   0  0  0  0  0  0  0  0  0  0  0  0
  149.8860  141.5287  154.6732 C   0  0  0  0  0  0  0  0  0  0  0  0
  149.3668  141.6258  153.6433 N   0  0  0  0  0  0  0  0  0  0  0  0
  150.6959  142.4209  156.7771 C   0  0  0  0  0  0  0  0  0  0  0  0
  151.3129  142.2938  158.0023 N   0  0  0  0  0  0  0  0  0  0  0  0
  151.6195  143.4420  158.8080 C   0  0  0  0  0  0  0  0  0  0  0  0
  152.3623  144.6214  158.2111 C   0  0  0  0  0  0  0  0  0  0  0  0
  153.0596  143.7073  159.1891 C   0  0  0  0  0  0  0  0  0  0  0  0
  151.8744  141.0573  158.3886 C   0  0  0  0  0  0  0  0  0  0  0  0
  152.5154  140.9463  159.4370 O   0  0  0  0  0  0  0  0  0  0  0  0
  150.8936  135.8103  155.1051 H   0  0  0  0  0  0  0  0  0  0  0  0
  150.0024  134.2804  154.5882 H   0  0  0  0  0  0  0  0  0  0  0  0
  148.4964  134.4575  156.4499 H   0  0  0  0  0  0  0  0  0  0  0  0
  148.3189  136.8229  157.3761 H   0  0  0  0  0  0  0  0  0  0  0  0
  149.3384  135.8150  158.3751 H   0  0  0  0  0  0  0  0  0  0  0  0
  150.5201  137.6655  156.3739 H   0  0  0  0  0  0  0  0  0  0  0  0
  152.9382  138.7462  158.7839 H   0  0  0  0  0  0  0  0  0  0  0  0
  152.9091  138.2586  157.1344 H   0  0  0  0  0  0  0  0  0  0  0  0
  150.3258  143.3930  156.4840 H   0  0  0  0  0  0  0  0  0  0  0  0
  150.8778  143.6862  159.5666 H   0  0  0  0  0  0  0  0  0  0  0  0
  152.6715  144.5622  157.1692 H   0  0  0  0  0  0  0  0  0  0  0  0
  152.0858  145.6145  158.5587 H   0  0  0  0  0  0  0  0  0  0  0  0
  153.2505  144.0923  160.1887 H   0  0  0  0  0  0  0  0  0  0  0  0
  153.8258  143.0446  158.7914 H   0  0  0  0  0  0  0  0  0  0  0  0
  1  2  2  0  0  0  0
  1 21  1  0  0  0  0
  1 22  1  0  0  0  0
  2  3  1  0  0  0  0
  2 23  1  0  0  0  0
  3  4  1  0  0  0  0
  3 24  1  0  0  0  0
  3 25  1  0  0  0  0
  4  5  1  0  0  0  0
  4 26  1  0  0  0  0
  5  6  2  0  0  0  0
  5  7  1  0  0  0  0
  7  8  1  0  0  0  0
  7 27  1  0  0  0  0
  7 28  1  0  0  0  0
  8 19  1  0  0  0  0
  8  9  1  0  0  0  0
  9 10  2  0  0  0  0
  9 11  1  0  0  0  0
 11 12  1  0  0  0  0
 11 14  2  0  0  0  0
 12 13  3  0  0  0  0
 14 15  1  0  0  0  0
 14 29  1  0  0  0  0
 15 16  1  0  0  0  0
 15 19  1  0  0  0  0
 16 18  1  0  0  0  0
 16 17  1  0  0  0  0
 16 30  1  0  0  0  0
 17 18  1  0  0  0  0
 17 31  1  0  0  0  0
 17 32  1  0  0  0  0
 18 33  1  0  0  0  0
 18 34  1  0  0  0  0
 19 20  2  0  0  0  0
M  END
> <s_m_source_file>
AV-unprocessed.smi

> <i_m_source_file_index>
395

> <i_lp_mmshare_version>
43012

> <i_f3d_flags>
0

> <s_epik_input>
W0NIMl09W0NIXVtDSDJdW05IXUMoPU8pW0NIMl1uMWMoPU8pYyhDI04pW2NIXW4oYzE9TylbQ0hdMltDSDJdW0NIMl0y

> <s_epik_cmdline>
J2VwaWtfcHl0aG9uJywgJy1waCcsICc3LjAnLCAnLXRuJywgJzgnLCAnLW1hJywgJzIwMCcsICctbWV0YWxfYmluZGluZycsICctaW1hZScsICc8aW5maWxlLm1hZT4nLCAnLW9tYWUnLCAnPG91dGZpbGUubWFlPic=

> <r_lp_tautomer_probability>
1

> <r_epik_Ionization_Penalty>
1.93471e-08

> <r_epik_Ionization_Penalty_Charging>
8.01404e-11

> <r_epik_Ionization_Penalty_Neutral>
1.9267e-08

> <r_epik_State_Penalty>
-0

> <r_epik_Charging_Adjusted_Penalty>
8.01404e-11

> <i_epik_Tot_Q>
0

> <i_epik_Tot_abs_Q>
0

> <r_epik_Metal_State_Penalty>
-0

> <b_epik_Metal_Only>
0

> <s_lp_Force_Field>
OPLS_2005

> <r_lp_Energy>
28.6083

> <b_lp_Chiralities_Consistent>
1

> <s_lp_Variant>
AV-unprocessed.smi:395-1

> <Gold.Version>
5.8.1

> <Gold.Id.Protein>
6NUR|6NUR_protein|mol2

> <Gold.PLP.Fitness>
44.0030

> <Gold.PLP.PLP>
-35.9388

> <Gold.PLP.part.hbond>
-3.0000

> <Gold.PLP.part.metal>
0.0000

> <Gold.PLP.part.buried>
-3.7353

> <Gold.PLP.part.nonpolar>
-29.5338

> <Gold.PLP.part.repulsive>
0.7967

> <Gold.PLP.ligand.clash>
0.0000

> <Gold.PLP.ligand.torsion>
0.2591

> <Gold.PLP.Chemscore.Hbond>
1.7840

> <Gold.PLP.Chemscore.CHOScore>
1.0000

> <Gold.PLP.Chemscore.Metal>
0.0000

> <Gold.Chemscore.Hbonds>
donor molecule, donor type, donor heavy atom, donor atom, acceptor molecule, acceptor atom, score
      P1  H  6896  6908       L1     6  0.88
      P1  H  8011  8017       L1    13  0.74
      L1  C    14    29       P1  8028  1.00

> <Gold.PLP.Chemscore.Internal.Correction>
0.2304

> <Gold.Rescore>
     Score         DG    S(hbond)    S(metal)    S(lipo)     H(rot)  DE(clash)    DE(int)     intcor
     10.90     -14.16       1.75        0.00      69.89       2.09       0.15       3.11       ----

> <Gold.Chemscore.Fitness>
10.9014

> <Gold.Chemscore.DG>
-14.1586

> <Gold.Chemscore.ZeroCoef>
-5.4800

> <Gold.Chemscore.Hbond>
1.7511

> <Gold.Chemscore.Metal>
0.0000

> <Gold.Chemscore.Lipo>
69.8859

> <Gold.Chemscore.Internal_Hbond>
0.0000

> <Gold.Chemscore.DEClash>
0.1497

> <Gold.Chemscore.DEInternal>
3.1075

> <Gold.Chemscore.Rot>
2.0886

> <Gold.Chemscore.Internal.Correction>
   9.000000E+99

> <Gold.Chemscore.Hbonds>
donor molecule, donor type, donor heavy atom, donor atom, acceptor molecule, acceptor atom, score
      P1  H  6896  6908       L1     6  0.85
      P1  H  8011  8017       L1    13  0.72

> <Gold.Chemscore.Hbond.Weighted>
-5.8488

> <Gold.Chemscore.Metal.Weighted>
-0.0000

> <Gold.Chemscore.Lipo.Weighted>
-8.1767

> <Gold.Chemscore.Internal_Hbond.Weighted>
0.0000

> <Gold.Chemscore.DEClash.Weighted>
0.1497

> <Gold.Chemscore.DEInternal.Weighted>
3.1075

> <Gold.Chemscore.Rot.Weighted>
5.3469

> <Gold.Chemscore.Internal.Correction.Weighted>
   9.000000E+99

> <Gold.Protein.RotatedTorsions>
[ 6907 6896 6895 6894 ] final -122.94 input  -60.11 | X-H torsion
[ 7974 7965 7964 7962 ] final  146.44 input  175.53 | X-H torsion
[ 8008 7997 7996 7995 ] final  -80.80 input   59.86 | X-H torsion
[ 10167 10162 10161 10158 ] final   24.43 input  -65.29 | X-H torsion
[ 10718 10713 10712 10709 ] final -153.13 input   66.30 | X-H torsion
[ 10763 10752 10751 10750 ] final   60.38 input  -60.55 | X-H torsion
[ 11005 11000 10999 10996 ] final  106.32 input  -57.11 | X-H torsion

> <Gold.Protein.ActiveResidues>
 VAL166  LYS551  ARG553  GLY616  TRP617  ASP618  TYR619  PRO620  LYS621  CYS622 
 ASP623  PHE694  ASN695  SER759  ASP760  ASP761  ALA762  ILE779  LEU786  VAL792 
 PHE793  MET794  SER795  GLU796  ALA797  LYS798  CYS799  TRP800  GLU811  SER814 

> <Gold.Protein.RotatedAtoms>
  150.8624  133.7624  159.2987 H   0  0  0  0  0  0  0  0  0  0  0  0  # atno 6907 bound_to 6896
  151.5262  135.1066  159.9901 H   0  0  0  0  0  0  0  0  0  0  0  0  # atno 6908 bound_to 6896
  152.4636  133.7830  159.6917 H   0  0  0  0  0  0  0  0  0  0  0  0  # atno 6909 bound_to 6896
  144.8671  139.5906  143.5904 H   0  0  0  0  0  0  0  0  0  0  0  0  # atno 7974 bound_to 7965
  154.5919  140.0657  156.9250 H   0  0  0  0  0  0  0  0  0  0  0  0  # atno 8008 bound_to 7997
  155.2281  140.3335  155.4288 H   0  0  0  0  0  0  0  0  0  0  0  0  # atno 8009 bound_to 7997
  156.2261  140.1820  156.7343 H   0  0  0  0  0  0  0  0  0  0  0  0  # atno 8010 bound_to 7997
  140.5189  144.0036  150.6407 H   0  0  0  0  0  0  0  0  0  0  0  0  # atno 10167 bound_to 10162
  156.4817  130.8306  151.2532 H   0  0  0  0  0  0  0  0  0  0  0  0  # atno 10718 bound_to 10713
  152.9919  135.5538  154.5864 H   0  0  0  0  0  0  0  0  0  0  0  0  # atno 10763 bound_to 10752
  154.5235  135.2809  155.1244 H   0  0  0  0  0  0  0  0  0  0  0  0  # atno 10764 bound_to 10752
  154.2588  135.6385  153.5320 H   0  0  0  0  0  0  0  0  0  0  0  0  # atno 10765 bound_to 10752
  139.8812  134.9365  156.5648 H   0  0  0  0  0  0  0  0  0  0  0  0  # atno 11005 bound_to 11000
  146.2903  139.7121  142.9165 LP  0  0  0  0  0  0  0  0  0  0  0  0  # atno 17320 bound_to 7965
  145.4201  141.0405  143.2968 LP  0  0  0  0  0  0  0  0  0  0  0  0  # atno 17321 bound_to 7965
  140.3379  143.3037  152.0619 LP  0  0  0  0  0  0  0  0  0  0  0  0  # atno 17342 bound_to 10162
  139.4917  144.6463  151.6771 LP  0  0  0  0  0  0  0  0  0  0  0  0  # atno 17343 bound_to 10162
  157.7482  131.0043  150.3070 LP  0  0  0  0  0  0  0  0  0  0  0  0  # atno 17370 bound_to 10713
  156.3515  130.3832  149.7325 LP  0  0  0  0  0  0  0  0  0  0  0  0  # atno 17371 bound_to 10713
  140.8142  133.8405  155.8837 LP  0  0  0  0  0  0  0  0  0  0  0  0  # atno 17394 bound_to 11000
  140.9478  134.1818  157.4750 LP  0  0  0  0  0  0  0  0  0  0  0  0  # atno 17395 bound_to 11000

$$$$
