AV-unprocessed.smi:1123|AV-procd|sdf|4829|dock9
  -GOLD-   22720 3393D 1   1.00000     0.00000
 Structure written by MMmdl.
 37 38  0  0  0  0  0  0  0  0  1 V2000
  151.0948  137.8281  154.8276 C   0  0  0  0  0  0  0  0  0  0  0  0
  150.9292  139.3537  154.6708 C   0  0  2  0  0  0  0  0  0  0  0  0
  151.2898  140.1241  155.9509 C   0  0  0  0  0  0  0  0  0  0  0  0
  152.3453  139.8983  156.5441 O   0  0  0  0  0  0  0  0  0  0  0  0
  150.3958  141.0351  156.3678 N   0  0  0  0  0  0  0  0  0  0  0  0
  150.5303  141.8559  157.5646 C   0  0  0  0  0  0  0  0  0  0  0  0
  151.7732  142.7623  157.4884 C   0  0  0  0  0  0  0  0  0  0  0  0
  152.2339  143.2858  158.7732 N   0  0  0  0  0  0  0  0  0  0  0  0
  151.3526  144.3463  159.2505 C   0  0  0  0  0  0  0  0  0  0  0  0
  151.8142  144.9148  160.6035 C   0  0  0  0  0  0  0  0  0  0  0  0
  151.8959  143.8619  161.5582 O   0  0  0  0  0  0  0  0  0  0  0  0
  152.7841  142.8251  161.1550 C   0  0  0  0  0  0  0  0  0  0  0  0
  152.3309  142.2510  159.8010 C   0  0  0  0  0  0  0  0  0  0  0  0
  149.5917  139.7222  154.2223 N   0  0  0  0  0  0  0  0  0  0  0  0
  148.5721  138.9490  153.8421 C   0  0  0  0  0  0  0  0  0  0  0  0
  147.5027  139.6233  153.4435 N   0  0  0  0  0  0  0  0  0  0  0  0
  147.9661  140.8985  153.6017 C   0  0  0  0  0  0  0  0  0  0  0  0
  149.2139  141.0145  154.0552 N   0  0  0  0  0  0  0  0  0  0  0  0
  152.1171  137.5715  155.1079 H   0  0  0  0  0  0  0  0  0  0  0  0
  150.8761  137.3159  153.8902 H   0  0  0  0  0  0  0  0  0  0  0  0
  150.4309  137.4181  155.5899 H   0  0  0  0  0  0  0  0  0  0  0  0
  151.6248  139.6718  153.8924 H   0  0  0  0  0  0  0  0  0  0  0  0
  149.5557  141.1608  155.8220 H   0  0  0  0  0  0  0  0  0  0  0  0
  149.6216  142.4507  157.6500 H   0  0  0  0  0  0  0  0  0  0  0  0
  150.5732  141.2217  158.4517 H   0  0  0  0  0  0  0  0  0  0  0  0
  152.5820  142.1834  157.0402 H   0  0  0  0  0  0  0  0  0  0  0  0
  151.5821  143.5887  156.8019 H   0  0  0  0  0  0  0  0  0  0  0  0
  151.3128  145.1525  158.5172 H   0  0  0  0  0  0  0  0  0  0  0  0
  150.3351  143.9649  159.3495 H   0  0  0  0  0  0  0  0  0  0  0  0
  152.7845  145.4043  160.5071 H   0  0  0  0  0  0  0  0  0  0  0  0
  151.1095  145.6661  160.9601 H   0  0  0  0  0  0  0  0  0  0  0  0
  153.8011  143.2143  161.0880 H   0  0  0  0  0  0  0  0  0  0  0  0
  152.7897  142.0441  161.9154 H   0  0  0  0  0  0  0  0  0  0  0  0
  151.3648  141.7592  159.9236 H   0  0  0  0  0  0  0  0  0  0  0  0
  153.0387  141.4803  159.4980 H   0  0  0  0  0  0  0  0  0  0  0  0
  148.6148  137.8699  153.8530 H   0  0  0  0  0  0  0  0  0  0  0  0
  147.3680  141.7674  153.3697 H   0  0  0  0  0  0  0  0  0  0  0  0
  1  2  1  0  0  0  0
  1 19  1  0  0  0  0
  1 20  1  0  0  0  0
  1 21  1  0  0  0  0
  2  3  1  0  0  0  0
  2 14  1  0  0  0  0
  2 22  1  0  0  0  0
  3  4  2  0  0  0  0
  3  5  1  0  0  0  0
  5  6  1  0  0  0  0
  5 23  1  0  0  0  0
  6  7  1  0  0  0  0
  6 24  1  0  0  0  0
  6 25  1  0  0  0  0
  7  8  1  0  0  0  0
  7 26  1  0  0  0  0
  7 27  1  0  0  0  0
  8 13  1  0  0  0  0
  8  9  1  0  0  0  0
  9 10  1  0  0  0  0
  9 28  1  0  0  0  0
  9 29  1  0  0  0  0
 10 11  1  0  0  0  0
 10 30  1  0  0  0  0
 10 31  1  0  0  0  0
 11 12  1  0  0  0  0
 12 13  1  0  0  0  0
 12 32  1  0  0  0  0
 12 33  1  0  0  0  0
 13 34  1  0  0  0  0
 13 35  1  0  0  0  0
 14 18  1  0  0  0  0
 14 15  1  0  0  0  0
 15 16  2  0  0  0  0
 15 36  1  0  0  0  0
 16 17  1  0  0  0  0
 17 18  2  0  0  0  0
 17 37  1  0  0  0  0
M  END
> <s_m_source_file>
AV-unprocessed.smi

> <i_m_source_file_index>
1123

> <i_lp_mmshare_version>
43012

> <i_f3d_flags>
0

> <s_epik_input>
bjFbY0hdbltjSF1uMVtDQEhdKFtDSDNdKUMoPU8pW05IXVtDSDJdW0NIMl1OMltDSDJdW0NIMl1PW0NIMl1bQ0gyXTI=

> <s_epik_cmdline>
J2VwaWtfcHl0aG9uJywgJy1waCcsICc3LjAnLCAnLXRuJywgJzgnLCAnLW1hJywgJzIwMCcsICctbWV0YWxfYmluZGluZycsICctaW1hZScsICc8aW5maWxlLm1hZT4nLCAnLW9tYWUnLCAnPG91dGZpbGUubWFlPic=

> <r_lp_tautomer_probability>
1

> <r_epik_Ionization_Penalty>
0.211373

> <r_epik_Ionization_Penalty_Charging>
0

> <r_epik_Ionization_Penalty_Neutral>
0.211373

> <r_epik_State_Penalty>
0.201459

> <r_epik_Charging_Adjusted_Penalty>
0.201459

> <i_epik_Tot_Q>
0

> <i_epik_Tot_abs_Q>
0

> <r_epik_Metal_State_Penalty>
0.201458

> <b_epik_Metal_Only>
0

> <s_lp_Force_Field>
OPLS_2005

> <r_lp_Energy>
26.6349

> <b_lp_Chiralities_Consistent>
1

> <s_lp_Variant>
AV-unprocessed.smi:1123-1

> <Gold.Version>
5.8.1

> <Gold.Id.Protein>
6NUR|6NUR_protein|mol2

> <Gold.PLP.Fitness>
41.0695

> <Gold.PLP.PLP>
-35.3510

> <Gold.PLP.part.hbond>
-2.1660

> <Gold.PLP.part.metal>
0.0000

> <Gold.PLP.part.buried>
-1.7391

> <Gold.PLP.part.nonpolar>
-31.9431

> <Gold.PLP.part.repulsive>
0.6070

> <Gold.PLP.ligand.clash>
0.0000

> <Gold.PLP.ligand.torsion>
0.4228

> <Gold.PLP.Chemscore.Hbond>
1.2170

> <Gold.PLP.Chemscore.CHOScore>
0.9273

> <Gold.PLP.Chemscore.Metal>
0.0000

> <Gold.Chemscore.Hbonds>
donor molecule, donor type, donor heavy atom, donor atom, acceptor molecule, acceptor atom, score
      P1  H  7997  8010       L1     4  0.93
      P1  H  8011  8017       L1    18  0.18
      L1  C    15    36       P1  7948  0.83

> <Gold.PLP.Chemscore.Internal.Correction>
0.1311

> <Gold.Rescore>
     Score         DG    S(hbond)    S(metal)    S(lipo)     H(rot)  DE(clash)    DE(int)     intcor
      8.36     -11.64       1.05        0.00      79.77       2.61       1.35       1.93       ----

> <Gold.Chemscore.Fitness>
8.3603

> <Gold.Chemscore.DG>
-11.6400

> <Gold.Chemscore.ZeroCoef>
-5.4800

> <Gold.Chemscore.Hbond>
1.0504

> <Gold.Chemscore.Metal>
0.0000

> <Gold.Chemscore.Lipo>
79.7661

> <Gold.Chemscore.Internal_Hbond>
0.0000

> <Gold.Chemscore.DEClash>
1.3524

> <Gold.Chemscore.DEInternal>
1.9273

> <Gold.Chemscore.Rot>
2.6097

> <Gold.Chemscore.Internal.Correction>
   9.000000E+99

> <Gold.Chemscore.Hbonds>
donor molecule, donor type, donor heavy atom, donor atom, acceptor molecule, acceptor atom, score
      P1  H  7997  8010       L1     4  0.85
      P1  H  8011  8017       L1    18  0.01

> <Gold.Chemscore.Hbond.Weighted>
-3.5082

> <Gold.Chemscore.Metal.Weighted>
-0.0000

> <Gold.Chemscore.Lipo.Weighted>
-9.3326

> <Gold.Chemscore.Internal_Hbond.Weighted>
0.0000

> <Gold.Chemscore.DEClash.Weighted>
1.3524

> <Gold.Chemscore.DEInternal.Weighted>
1.9273

> <Gold.Chemscore.Rot.Weighted>
6.6809

> <Gold.Chemscore.Internal.Correction.Weighted>
   9.000000E+99

> <Gold.Protein.RotatedTorsions>
[ 6907 6896 6895 6894 ] final   83.24 input  -60.11 | X-H torsion
[ 7974 7965 7964 7962 ] final  146.56 input  175.53 | X-H torsion
[ 8008 7997 7996 7995 ] final   88.19 input   59.86 | X-H torsion
[ 10167 10162 10161 10158 ] final   83.31 input  -65.29 | X-H torsion
[ 10718 10713 10712 10709 ] final  136.11 input   66.30 | X-H torsion
[ 10763 10752 10751 10750 ] final -162.13 input  -60.55 | X-H torsion
[ 11005 11000 10999 10996 ] final  134.52 input  -57.11 | X-H torsion

> <Gold.Protein.ActiveResidues>
 VAL166  LYS551  ARG553  GLY616  TRP617  ASP618  TYR619  PRO620  LYS621  CYS622 
 ASP623  PHE694  ASN695  SER759  ASP760  ASP761  ALA762  ILE779  LEU786  VAL792 
 PHE793  MET794  SER795  GLU796  ALA797  LYS798  CYS799  TRP800  GLU811  SER814 

> <Gold.Protein.RotatedAtoms>
  152.5322  134.2925  159.9048 H   0  0  0  0  0  0  0  0  0  0  0  0  # atno 6907 bound_to 6896
  151.2877  133.4173  159.2638 H   0  0  0  0  0  0  0  0  0  0  0  0  # atno 6908 bound_to 6896
  151.0228  134.9497  159.8126 H   0  0  0  0  0  0  0  0  0  0  0  0  # atno 6909 bound_to 6896
  144.8661  139.5920  143.5908 H   0  0  0  0  0  0  0  0  0  0  0  0  # atno 7974 bound_to 7965
  155.9847  140.3374  155.6696 H   0  0  0  0  0  0  0  0  0  0  0  0  # atno 8008 bound_to 7997
  155.6502  140.0704  157.2607 H   0  0  0  0  0  0  0  0  0  0  0  0  # atno 8009 bound_to 7997
  154.4202  140.1727  156.1654 H   0  0  0  0  0  0  0  0  0  0  0  0  # atno 8010 bound_to 7997
  139.9197  144.6220  150.8452 H   0  0  0  0  0  0  0  0  0  0  0  0  # atno 10167 bound_to 10162
  157.4501  131.1065  151.0043 H   0  0  0  0  0  0  0  0  0  0  0  0  # atno 10718 bound_to 10713
  154.7241  135.3032  154.8999 H   0  0  0  0  0  0  0  0  0  0  0  0  # atno 10763 bound_to 10752
  153.9862  135.6724  153.4756 H   0  0  0  0  0  0  0  0  0  0  0  0  # atno 10764 bound_to 10752
  153.0860  135.4984  154.8515 H   0  0  0  0  0  0  0  0  0  0  0  0  # atno 10765 bound_to 10752
  139.9920  134.9511  156.9878 H   0  0  0  0  0  0  0  0  0  0  0  0  # atno 11005 bound_to 11000
  146.2897  139.7103  142.9170 LP  0  0  0  0  0  0  0  0  0  0  0  0  # atno 17320 bound_to 7965
  145.4219  141.0407  143.2959 LP  0  0  0  0  0  0  0  0  0  0  0  0  # atno 17321 bound_to 7965
  140.7665  143.3306  151.2419 LP  0  0  0  0  0  0  0  0  0  0  0  0  # atno 17342 bound_to 10162
  139.6872  143.9754  152.2840 LP  0  0  0  0  0  0  0  0  0  0  0  0  # atno 17343 bound_to 10162
  157.0876  130.5929  149.5433 LP  0  0  0  0  0  0  0  0  0  0  0  0  # atno 17370 bound_to 10713
  155.9983  130.5057  150.7568 LP  0  0  0  0  0  0  0  0  0  0  0  0  # atno 17371 bound_to 10713
  140.4890  134.1212  155.7229 LP  0  0  0  0  0  0  0  0  0  0  0  0  # atno 17394 bound_to 11000
  141.1573  133.8858  157.1942 LP  0  0  0  0  0  0  0  0  0  0  0  0  # atno 17395 bound_to 11000

$$$$
