AV-unprocessed.smi:2763|AV-procd|sdf|10639|dock4
  -GOLD-   2272015 93D 1   1.00000     0.00000
 Structure written by MMmdl.
 37 38  0  0  0  0  0  0  0  0  1 V2000
  152.4721  139.3847  158.4114 O   0  0  0  0  0  0  0  0  0  0  0  0
  152.0280  140.3532  157.7943 C   0  0  0  0  0  0  0  0  0  0  0  0
  151.6026  140.2931  156.5242 N   0  0  0  0  0  0  0  0  0  0  0  0
  151.5974  139.0969  155.6893 C   0  0  0  0  0  0  0  0  0  0  0  0
  150.7868  139.3394  154.4071 C   0  0  0  0  0  0  0  0  0  0  0  0
  149.3507  139.8132  154.6844 C   0  0  1  0  0  0  0  0  0  0  0  0
  149.1881  141.3277  154.4478 C   0  0  0  0  0  0  0  0  0  0  0  0
  147.7304  141.7548  154.6550 C   0  0  0  0  0  0  0  0  0  0  0  0
  146.8080  140.8805  153.7989 C   0  0  0  0  0  0  0  0  0  0  0  0
  147.0889  139.3926  154.0609 C   0  0  0  0  0  0  0  0  0  0  0  0
  148.4633  139.1096  153.8171 O   0  0  0  0  0  0  0  0  0  0  0  0
  151.8981  141.5966  158.2899 N   0  0  0  0  0  0  0  0  0  0  0  0
  152.2478  142.0688  159.5833 C   0  0  0  0  0  0  0  0  0  0  0  0
  153.2344  141.3078  160.2510 C   0  0  0  0  0  0  0  0  0  0  0  0
  153.6506  141.6909  161.5411 C   0  0  0  0  0  0  0  0  0  0  0  0
  153.0663  142.8261  162.1301 C   0  0  0  0  0  0  0  0  0  0  0  0
  153.4336  143.2324  163.3684 F   0  0  0  0  0  0  0  0  0  0  0  0
  152.0905  143.5285  161.3991 C   0  0  0  0  0  0  0  0  0  0  0  0
  151.6914  143.1626  160.1623 N   0  0  0  0  0  0  0  0  0  0  0  0
  151.2523  141.1402  156.1017 H   0  0  0  0  0  0  0  0  0  0  0  0
  152.6131  138.7945  155.4292 H   0  0  0  0  0  0  0  0  0  0  0  0
  151.1607  138.2785  156.2625 H   0  0  0  0  0  0  0  0  0  0  0  0
  151.2971  140.0885  153.8000 H   0  0  0  0  0  0  0  0  0  0  0  0
  150.7614  138.4261  153.8110 H   0  0  0  0  0  0  0  0  0  0  0  0
  149.0993  139.5808  155.7209 H   0  0  0  0  0  0  0  0  0  0  0  0
  149.8378  141.8888  155.1203 H   0  0  0  0  0  0  0  0  0  0  0  0
  149.4989  141.5771  153.4323 H   0  0  0  0  0  0  0  0  0  0  0  0
  147.4632  141.6505  155.7074 H   0  0  0  0  0  0  0  0  0  0  0  0
  147.6014  142.8072  154.4008 H   0  0  0  0  0  0  0  0  0  0  0  0
  145.7639  141.1119  154.0110 H   0  0  0  0  0  0  0  0  0  0  0  0
  146.9699  141.1000  152.7428 H   0  0  0  0  0  0  0  0  0  0  0  0
  146.8258  139.1202  155.0843 H   0  0  0  0  0  0  0  0  0  0  0  0
  146.4797  138.7744  153.4011 H   0  0  0  0  0  0  0  0  0  0  0  0
  151.5039  142.2871  157.6684 H   0  0  0  0  0  0  0  0  0  0  0  0
  153.6716  140.4376  159.7829 H   0  0  0  0  0  0  0  0  0  0  0  0
  154.4033  141.1233  162.0679 H   0  0  0  0  0  0  0  0  0  0  0  0
  151.6177  144.4053  161.8164 H   0  0  0  0  0  0  0  0  0  0  0  0
  1  2  2  0  0  0  0
  2  3  1  0  0  0  0
  2 12  1  0  0  0  0
  3  4  1  0  0  0  0
  3 20  1  0  0  0  0
  4  5  1  0  0  0  0
  4 21  1  0  0  0  0
  4 22  1  0  0  0  0
  5  6  1  0  0  0  0
  5 23  1  0  0  0  0
  5 24  1  0  0  0  0
  6 11  1  0  0  0  0
  6  7  1  0  0  0  0
  6 25  1  0  0  0  0
  7  8  1  0  0  0  0
  7 26  1  0  0  0  0
  7 27  1  0  0  0  0
  8  9  1  0  0  0  0
  8 28  1  0  0  0  0
  8 29  1  0  0  0  0
  9 10  1  0  0  0  0
  9 30  1  0  0  0  0
  9 31  1  0  0  0  0
 10 11  1  0  0  0  0
 10 32  1  0  0  0  0
 10 33  1  0  0  0  0
 12 13  1  0  0  0  0
 12 34  1  0  0  0  0
 13 19  1  0  0  0  0
 13 14  2  0  0  0  0
 14 15  1  0  0  0  0
 14 35  1  0  0  0  0
 15 16  2  0  0  0  0
 15 36  1  0  0  0  0
 16 17  1  0  0  0  0
 16 18  1  0  0  0  0
 18 19  2  0  0  0  0
 18 37  1  0  0  0  0
M  END
> <s_m_source_file>
AV-unprocessed.smi

> <i_m_source_file_index>
2763

> <i_lp_mmshare_version>
43012

> <i_f3d_flags>
0

> <s_epik_input>
bjFbY0hdYyhGKVtjSF1bY0hdYzFbTkhdQyg9TylbTkhdW0NIMl1bQ0gyXVtDQEBIXTJbQ0gyXVtDSDJdW0NIMl1bQ0gyXU8y

> <s_epik_cmdline>
J2VwaWtfcHl0aG9uJywgJy1waCcsICc3LjAnLCAnLXRuJywgJzgnLCAnLW1hJywgJzIwMCcsICctbWV0YWxfYmluZGluZycsICctaW1hZScsICc8aW5maWxlLm1hZT4nLCAnLW9tYWUnLCAnPG91dGZpbGUubWFlPic=

> <r_lp_tautomer_probability>
1

> <r_epik_Ionization_Penalty>
3.67849e-05

> <r_epik_Ionization_Penalty_Charging>
0

> <r_epik_Ionization_Penalty_Neutral>
3.67849e-05

> <r_epik_State_Penalty>
-0

> <r_epik_Charging_Adjusted_Penalty>
0

> <i_epik_Tot_Q>
0

> <i_epik_Tot_abs_Q>
0

> <r_epik_Metal_State_Penalty>
-0

> <b_epik_Metal_Only>
0

> <s_lp_Force_Field>
OPLS_2005

> <r_lp_Energy>
13.3257

> <b_lp_Chiralities_Consistent>
1

> <s_lp_Variant>
AV-unprocessed.smi:2763-2

> <Gold.Version>
5.8.1

> <Gold.Id.Protein>
6NUR|6NUR_protein|mol2

> <Gold.PLP.Fitness>
40.6592

> <Gold.PLP.PLP>
-42.2447

> <Gold.PLP.part.hbond>
0.0000

> <Gold.PLP.part.metal>
0.0000

> <Gold.PLP.part.buried>
-3.8591

> <Gold.PLP.part.nonpolar>
-37.7728

> <Gold.PLP.part.repulsive>
1.2240

> <Gold.PLP.ligand.clash>
0.0000

> <Gold.PLP.ligand.torsion>
0.7974

> <Gold.PLP.Chemscore.Hbond>
0.0000

> <Gold.PLP.Chemscore.CHOScore>
0.0000

> <Gold.PLP.Chemscore.Metal>
0.0000

> <Gold.PLP.Chemscore.Internal.Correction>
0.0093

> <Gold.Rescore>
     Score         DG    S(hbond)    S(metal)    S(lipo)     H(rot)  DE(clash)    DE(int)     intcor
     10.18     -12.46       0.00        0.00      93.32       1.54       0.07       2.21       ----

> <Gold.Chemscore.Fitness>
10.1812

> <Gold.Chemscore.DG>
-12.4607

> <Gold.Chemscore.ZeroCoef>
-5.4800

> <Gold.Chemscore.Hbond>
0.0000

> <Gold.Chemscore.Metal>
0.0000

> <Gold.Chemscore.Lipo>
93.3242

> <Gold.Chemscore.Internal_Hbond>
0.0000

> <Gold.Chemscore.DEClash>
0.0721

> <Gold.Chemscore.DEInternal>
2.2074

> <Gold.Chemscore.Rot>
1.5384

> <Gold.Chemscore.Internal.Correction>
   9.000000E+99

> <Gold.Chemscore.Hbond.Weighted>
-0.0000

> <Gold.Chemscore.Metal.Weighted>
-0.0000

> <Gold.Chemscore.Lipo.Weighted>
-10.9189

> <Gold.Chemscore.Internal_Hbond.Weighted>
0.0000

> <Gold.Chemscore.DEClash.Weighted>
0.0721

> <Gold.Chemscore.DEInternal.Weighted>
2.2074

> <Gold.Chemscore.Rot.Weighted>
3.9382

> <Gold.Chemscore.Internal.Correction.Weighted>
   9.000000E+99

> <Gold.Protein.RotatedTorsions>
[ 6907 6896 6895 6894 ] final  151.56 input  -60.11 | X-H torsion
[ 7974 7965 7964 7962 ] final   76.35 input  175.53 | X-H torsion
[ 8008 7997 7996 7995 ] final  179.04 input   59.86 | X-H torsion
[ 10167 10162 10161 10158 ] final   68.70 input  -65.29 | X-H torsion
[ 10718 10713 10712 10709 ] final  -82.33 input   66.30 | X-H torsion
[ 10763 10752 10751 10750 ] final -138.59 input  -60.55 | X-H torsion
[ 11005 11000 10999 10996 ] final  161.39 input  -57.11 | X-H torsion

> <Gold.Protein.ActiveResidues>
 VAL166  LYS551  ARG553  GLY616  TRP617  ASP618  TYR619  PRO620  LYS621  CYS622 
 ASP623  PHE694  ASN695  SER759  ASP760  ASP761  ALA762  ILE779  LEU786  VAL792 
 PHE793  MET794  SER795  GLU796  ALA797  LYS798  CYS799  TRP800  GLU811  SER814 

> <Gold.Protein.RotatedAtoms>
  152.0989  133.4239  159.4577 H   0  0  0  0  0  0  0  0  0  0  0  0  # atno 6907 bound_to 6896
  150.6863  134.2784  159.4626 H   0  0  0  0  0  0  0  0  0  0  0  0  # atno 6908 bound_to 6896
  152.0642  134.9574  160.0625 H   0  0  0  0  0  0  0  0  0  0  0  0  # atno 6909 bound_to 6896
  145.7040  139.2592  143.1689 H   0  0  0  0  0  0  0  0  0  0  0  0  # atno 7974 bound_to 7965
  156.0479  140.1318  157.0083 H   0  0  0  0  0  0  0  0  0  0  0  0  # atno 8008 bound_to 7997
  154.4421  140.1017  156.6403 H   0  0  0  0  0  0  0  0  0  0  0  0  # atno 8009 bound_to 7997
  155.5568  140.3464  155.4484 H   0  0  0  0  0  0  0  0  0  0  0  0  # atno 8010 bound_to 7997
  140.0759  144.5113  150.7195 H   0  0  0  0  0  0  0  0  0  0  0  0  # atno 10167 bound_to 10162
  156.0035  130.4631  150.4088 H   0  0  0  0  0  0  0  0  0  0  0  0  # atno 10718 bound_to 10713
  154.8633  135.3607  154.5409 H   0  0  0  0  0  0  0  0  0  0  0  0  # atno 10763 bound_to 10752
  153.6031  135.7012  153.5381 H   0  0  0  0  0  0  0  0  0  0  0  0  # atno 10764 bound_to 10752
  153.3273  135.4134  155.1428 H   0  0  0  0  0  0  0  0  0  0  0  0  # atno 10765 bound_to 10752
  140.2153  134.8237  157.3164 H   0  0  0  0  0  0  0  0  0  0  0  0  # atno 11005 bound_to 11000
  146.0772  140.7804  142.9659 LP  0  0  0  0  0  0  0  0  0  0  0  0  # atno 17320 bound_to 7965
  144.6960  140.3434  143.7195 LP  0  0  0  0  0  0  0  0  0  0  0  0  # atno 17321 bound_to 7965
  140.7102  143.2499  151.4603 LP  0  0  0  0  0  0  0  0  0  0  0  0  # atno 17342 bound_to 10162
  139.5808  144.1713  152.1966 LP  0  0  0  0  0  0  0  0  0  0  0  0  # atno 17343 bound_to 10162
  157.2152  131.0470  151.2577 LP  0  0  0  0  0  0  0  0  0  0  0  0  # atno 17370 bound_to 10713
  157.3851  130.7252  149.6658 LP  0  0  0  0  0  0  0  0  0  0  0  0  # atno 17371 bound_to 10713
  140.1907  134.4375  155.7717 LP  0  0  0  0  0  0  0  0  0  0  0  0  # atno 17394 bound_to 11000
  141.2225  133.7026  156.8022 LP  0  0  0  0  0  0  0  0  0  0  0  0  # atno 17395 bound_to 11000

$$$$
