AV-unprocessed.smi:657|AV-procd|sdf|3222|dock8
  -GOLD-   22720 0163D 1   1.00000     0.00000
 Structure written by MMmdl.
 47 48  0  0  0  0  0  0  0  0  2 V2000
  146.0005  137.2769  153.9601 C   0  0  0  0  0  0  0  0  0  0  0  0
  147.0066  138.4301  153.7649 C   0  0  0  0  0  0  0  0  0  0  0  0
  146.8182  138.9982  152.3420 C   0  0  0  0  0  0  0  0  0  0  0  0
  148.4284  138.0168  154.0269 N   0  3  2  0  0  0  0  0  0  0  0  0
  148.5971  137.0718  155.1746 C   0  0  0  0  0  0  0  0  0  0  0  0
  150.0370  136.5436  155.2857 C   0  0  0  0  0  0  0  0  0  0  0  0
  151.0507  137.6846  155.3807 C   0  0  0  0  0  0  0  0  0  0  0  0
  150.8708  138.6202  154.1799 C   0  0  0  0  0  0  0  0  0  0  0  0
  149.4235  139.1456  154.0421 C   0  0  2  0  0  0  0  0  0  0  0  0
  149.1228  140.2608  155.0682 C   0  0  0  0  0  0  0  0  0  0  0  0
  148.0565  140.8744  155.0432 O   0  0  0  0  0  0  0  0  0  0  0  0
  150.0807  140.5031  155.9766 N   0  0  0  0  0  0  0  0  0  0  0  0
  150.0148  141.4989  157.0443 C   0  0  0  0  0  0  0  0  0  0  0  0
  151.1576  142.5368  157.0090 C   0  0  0  0  0  0  0  0  0  0  0  0
  151.6720  142.9170  158.3736 C   0  0  0  0  0  0  0  0  0  0  0  0
  151.7204  144.2087  158.9723 C   0  0  0  0  0  0  0  0  0  0  0  0
  152.2202  144.1895  160.1970 N   0  0  0  0  0  0  0  0  0  0  0  0
  152.5190  142.8931  160.4181 N   0  0  0  0  0  0  0  0  0  0  0  0
  153.1002  142.4976  161.6830 C   0  0  0  0  0  0  0  0  0  0  0  0
  152.2043  142.1037  159.3338 C   0  0  0  0  0  0  0  0  0  0  0  0
  144.9994  137.5746  153.6460 H   0  0  0  0  0  0  0  0  0  0  0  0
  145.9076  136.9811  155.0047 H   0  0  0  0  0  0  0  0  0  0  0  0
  146.2799  136.3991  153.3763 H   0  0  0  0  0  0  0  0  0  0  0  0
  146.7361  139.2086  154.4786 H   0  0  0  0  0  0  0  0  0  0  0  0
  145.7652  139.1747  152.1235 H   0  0  0  0  0  0  0  0  0  0  0  0
  147.1966  138.3103  151.5852 H   0  0  0  0  0  0  0  0  0  0  0  0
  147.3161  139.9579  152.2095 H   0  0  0  0  0  0  0  0  0  0  0  0
  148.2878  137.5425  156.1073 H   0  0  0  0  0  0  0  0  0  0  0  0
  147.9623  136.1971  155.0493 H   0  0  0  0  0  0  0  0  0  0  0  0
  150.1277  135.8939  156.1568 H   0  0  0  0  0  0  0  0  0  0  0  0
  150.2656  135.9255  154.4164 H   0  0  0  0  0  0  0  0  0  0  0  0
  150.9204  138.2278  156.3169 H   0  0  0  0  0  0  0  0  0  0  0  0
  152.0646  137.2842  155.3951 H   0  0  0  0  0  0  0  0  0  0  0  0
  151.5730  139.4523  154.2525 H   0  0  0  0  0  0  0  0  0  0  0  0
  151.1421  138.0835  153.2696 H   0  0  0  0  0  0  0  0  0  0  0  0
  149.3982  139.6074  153.0553 H   0  0  0  0  0  0  0  0  0  0  0  0
  150.9247  139.9506  155.9302 H   0  0  0  0  0  0  0  0  0  0  0  0
  149.0454  141.9990  157.0291 H   0  0  0  0  0  0  0  0  0  0  0  0
  150.0613  140.9514  157.9862 H   0  0  0  0  0  0  0  0  0  0  0  0
  151.9714  142.1420  156.3999 H   0  0  0  0  0  0  0  0  0  0  0  0
  150.8094  143.4212  156.4747 H   0  0  0  0  0  0  0  0  0  0  0  0
  151.3990  145.1528  158.5578 H   0  0  0  0  0  0  0  0  0  0  0  0
  153.0085  141.4192  161.8138 H   0  0  0  0  0  0  0  0  0  0  0  0
  152.5854  142.9974  162.5043 H   0  0  0  0  0  0  0  0  0  0  0  0
  154.1556  142.7710  161.7027 H   0  0  0  0  0  0  0  0  0  0  0  0
  152.3762  141.0373  159.3372 H   0  0  0  0  0  0  0  0  0  0  0  0
  148.6857  137.4693  153.2182 H   0  0  0  0  0  0  0  0  0  0  0  0
  1  2  1  0  0  0  0
  1 21  1  0  0  0  0
  1 22  1  0  0  0  0
  1 23  1  0  0  0  0
  2  3  1  0  0  0  0
  2  4  1  0  0  0  0
  2 24  1  0  0  0  0
  3 25  1  0  0  0  0
  3 26  1  0  0  0  0
  3 27  1  0  0  0  0
  4  9  1  0  0  0  0
  4  5  1  0  0  0  0
  4 47  1  0  0  0  0
  5  6  1  0  0  0  0
  5 28  1  0  0  0  0
  5 29  1  0  0  0  0
  6  7  1  0  0  0  0
  6 30  1  0  0  0  0
  6 31  1  0  0  0  0
  7  8  1  0  0  0  0
  7 32  1  0  0  0  0
  7 33  1  0  0  0  0
  8  9  1  0  0  0  0
  8 34  1  0  0  0  0
  8 35  1  0  0  0  0
  9 10  1  0  0  0  0
  9 36  1  0  0  0  0
 10 11  2  0  0  0  0
 10 12  1  0  0  0  0
 12 13  1  0  0  0  0
 12 37  1  0  0  0  0
 13 14  1  0  0  0  0
 13 38  1  0  0  0  0
 13 39  1  0  0  0  0
 14 15  1  0  0  0  0
 14 40  1  0  0  0  0
 14 41  1  0  0  0  0
 15 20  2  0  0  0  0
 15 16  1  0  0  0  0
 16 17  2  0  0  0  0
 16 42  1  0  0  0  0
 17 18  1  0  0  0  0
 18 19  1  0  0  0  0
 18 20  1  0  0  0  0
 19 43  1  0  0  0  0
 19 44  1  0  0  0  0
 19 45  1  0  0  0  0
 20 46  1  0  0  0  0
M  CHG  1   4   1
M  END
> <s_m_source_file>
AV-unprocessed.smi

> <i_m_source_file_index>
657

> <i_lp_mmshare_version>
43012

> <i_f3d_flags>
0

> <s_epik_input>
W0NIM11bQ0hdKFtDSDNdKU4xW0NIMl1bQ0gyXVtDSDJdW0NIMl1bQ0BIXTFDKD1PKVtOSF1bQ0gyXVtDSDJdYzJbY0hdbm4oW0NIM10pW2NIXTI=

> <s_epik_cmdline>
J2VwaWtfcHl0aG9uJywgJy1waCcsICc3LjAnLCAnLXRuJywgJzgnLCAnLW1hJywgJzIwMCcsICctbWV0YWxfYmluZGluZycsICctaW1hZScsICc8aW5maWxlLm1hZT4nLCAnLW9tYWUnLCAnPG91dGZpbGUubWFlPic=

> <r_lp_tautomer_probability>
1

> <r_epik_Ionization_Penalty>
0.0244317

> <r_epik_Ionization_Penalty_Charging>
0.0240236

> <r_epik_Ionization_Penalty_Neutral>
0.00040815

> <r_epik_State_Penalty>
0.0194773

> <r_epik_Charging_Adjusted_Penalty>
0.0435009

> <i_epik_Tot_Q>
1

> <i_epik_Tot_abs_Q>
1

> <r_epik_Metal_State_Penalty>
0.0361957

> <b_epik_Metal_Only>
0

> <s_lp_Force_Field>
OPLS_2005

> <r_lp_Energy>
17.7945

> <b_lp_Chiralities_Consistent>
1

> <s_lp_Variant>
AV-unprocessed.smi:657-3

> <Gold.Version>
5.8.1

> <Gold.Id.Protein>
6NUR|6NUR_protein|mol2

> <Gold.PLP.Fitness>
41.7201

> <Gold.PLP.PLP>
-37.6938

> <Gold.PLP.part.hbond>
-1.0000

> <Gold.PLP.part.metal>
0.0000

> <Gold.PLP.part.buried>
-4.7722

> <Gold.PLP.part.nonpolar>
-32.2643

> <Gold.PLP.part.repulsive>
0.2144

> <Gold.PLP.ligand.clash>
1.0880

> <Gold.PLP.ligand.torsion>
0.5326

> <Gold.PLP.Chemscore.Hbond>
2.0000

> <Gold.PLP.Chemscore.CHOScore>
0.0000

> <Gold.PLP.Chemscore.Metal>
0.0000

> <Gold.Chemscore.Hbonds>
donor molecule, donor type, donor heavy atom, donor atom, acceptor molecule, acceptor atom, score
      L1  H     4    47       P1  7948  2.00

> <Gold.PLP.Chemscore.Internal.Correction>
0.1794

> <Gold.Rescore>
     Score         DG    S(hbond)    S(metal)    S(lipo)     H(rot)  DE(clash)    DE(int)     intcor
     14.85     -16.54       1.00        0.00     101.63       1.63       0.02       1.67       ----

> <Gold.Chemscore.Fitness>
14.8522

> <Gold.Chemscore.DG>
-16.5426

> <Gold.Chemscore.ZeroCoef>
-5.4800

> <Gold.Chemscore.Hbond>
0.9999

> <Gold.Chemscore.Metal>
0.0000

> <Gold.Chemscore.Lipo>
101.6274

> <Gold.Chemscore.Internal_Hbond>
0.0000

> <Gold.Chemscore.DEClash>
0.0170

> <Gold.Chemscore.DEInternal>
1.6734

> <Gold.Chemscore.Rot>
1.6279

> <Gold.Chemscore.Internal.Correction>
   9.000000E+99

> <Gold.Chemscore.Hbonds>
donor molecule, donor type, donor heavy atom, donor atom, acceptor molecule, acceptor atom, score
      L1  H     4    47       P1  7948  1.00

> <Gold.Chemscore.Hbond.Weighted>
-3.3395

> <Gold.Chemscore.Metal.Weighted>
-0.0000

> <Gold.Chemscore.Lipo.Weighted>
-11.8904

> <Gold.Chemscore.Internal_Hbond.Weighted>
0.0000

> <Gold.Chemscore.DEClash.Weighted>
0.0170

> <Gold.Chemscore.DEInternal.Weighted>
1.6734

> <Gold.Chemscore.Rot.Weighted>
4.1673

> <Gold.Chemscore.Internal.Correction.Weighted>
   9.000000E+99

> <Gold.Protein.RotatedTorsions>
[ 6907 6896 6895 6894 ] final  134.45 input  -60.11 | X-H torsion
[ 7974 7965 7964 7962 ] final   36.78 input  175.53 | X-H torsion
[ 8008 7997 7996 7995 ] final  -62.10 input   59.86 | X-H torsion
[ 10167 10162 10161 10158 ] final -150.98 input  -65.29 | X-H torsion
[ 10718 10713 10712 10709 ] final  -75.33 input   66.30 | X-H torsion
[ 10763 10752 10751 10750 ] final  162.85 input  -60.55 | X-H torsion
[ 11005 11000 10999 10996 ] final   50.08 input  -57.11 | X-H torsion

> <Gold.Protein.ActiveResidues>
 VAL166  LYS551  ARG553  GLY616  TRP617  ASP618  TYR619  PRO620  LYS621  CYS622 
 ASP623  PHE694  ASN695  SER759  ASP760  ASP761  ALA762  ILE779  LEU786  VAL792 
 PHE793  MET794  SER795  GLU796  ALA797  LYS798  CYS799  TRP800  GLU811  SER814 

> <Gold.Protein.RotatedAtoms>
  152.3111  133.5754  159.5681 H   0  0  0  0  0  0  0  0  0  0  0  0  # atno 6907 bound_to 6896
  150.7323  134.0151  159.3691 H   0  0  0  0  0  0  0  0  0  0  0  0  # atno 6908 bound_to 6896
  151.8043  135.0700  160.0455 H   0  0  0  0  0  0  0  0  0  0  0  0  # atno 6909 bound_to 6896
  146.1186  139.5976  142.9304 H   0  0  0  0  0  0  0  0  0  0  0  0  # atno 7974 bound_to 7965
  154.4482  140.1003  156.6535 H   0  0  0  0  0  0  0  0  0  0  0  0  # atno 8008 bound_to 7997
  155.5372  140.3482  155.4420 H   0  0  0  0  0  0  0  0  0  0  0  0  # atno 8009 bound_to 7997
  156.0623  140.1329  156.9916 H   0  0  0  0  0  0  0  0  0  0  0  0  # atno 8010 bound_to 7997
  139.7307  143.8813  152.2533 H   0  0  0  0  0  0  0  0  0  0  0  0  # atno 10167 bound_to 10162
  156.0211  130.4438  150.3027 H   0  0  0  0  0  0  0  0  0  0  0  0  # atno 10718 bound_to 10713
  154.2846  135.2762  155.2682 H   0  0  0  0  0  0  0  0  0  0  0  0  # atno 10763 bound_to 10752
  154.5187  135.5762  153.6667 H   0  0  0  0  0  0  0  0  0  0  0  0  # atno 10764 bound_to 10752
  152.9923  135.6199  154.3007 H   0  0  0  0  0  0  0  0  0  0  0  0  # atno 10765 bound_to 10752
  140.1048  134.5033  155.8730 H   0  0  0  0  0  0  0  0  0  0  0  0  # atno 11005 bound_to 11000
  145.5513  141.0413  143.2277 LP  0  0  0  0  0  0  0  0  0  0  0  0  # atno 17320 bound_to 7965
  144.7576  139.7035  143.7247 LP  0  0  0  0  0  0  0  0  0  0  0  0  # atno 17321 bound_to 7965
  139.8736  144.7055  150.8959 LP  0  0  0  0  0  0  0  0  0  0  0  0  # atno 17342 bound_to 10162
  140.7770  143.3718  151.1635 LP  0  0  0  0  0  0  0  0  0  0  0  0  # atno 17343 bound_to 10162
  157.1129  131.0226  151.3040 LP  0  0  0  0  0  0  0  0  0  0  0  0  # atno 17370 bound_to 10713
  157.4690  130.7697  149.7305 LP  0  0  0  0  0  0  0  0  0  0  0  0  # atno 17371 bound_to 10713
  141.2115  133.6707  156.6589 LP  0  0  0  0  0  0  0  0  0  0  0  0  # atno 17394 bound_to 11000
  140.3171  134.8038  157.4223 LP  0  0  0  0  0  0  0  0  0  0  0  0  # atno 17395 bound_to 11000

$$$$
