AV-unprocessed.smi:2538|AV-procd|sdf|9984|dock9
  -GOLD-   2272014 33D 1   1.00000     0.00000
 Structure written by MMmdl.
 49 50  0  0  0  0  0  0  0  0  2 V2000
  152.5650  143.6611  161.1588 C   0  0  0  0  0  0  0  0  0  0  0  0
  152.2345  142.8050  159.9483 C   0  0  0  0  0  0  0  0  0  0  0  0
  151.2753  143.2821  159.0265 C   0  0  0  0  0  0  0  0  0  0  0  0
  150.9941  142.4766  157.9295 C   0  0  0  0  0  0  0  0  0  0  0  0
  150.1132  142.6579  156.8607 N   0  3  0  0  0  0  0  0  0  0  0  0
  150.1844  141.5843  156.0256 C   0  0  0  0  0  0  0  0  0  0  0  0
  151.0980  140.7207  156.5464 N   0  0  0  0  0  0  0  0  0  0  0  0
  151.5520  139.4123  156.0575 C   0  0  0  0  0  0  0  0  0  0  0  0
  150.5103  138.7215  155.1546 C   0  0  1  0  0  0  0  0  0  0  0  0
  150.5943  139.3008  153.8674 O   0  0  0  0  0  0  0  0  0  0  0  0
  150.7646  137.2028  155.0381 C   0  0  0  0  0  0  0  0  0  0  0  0
  150.1566  136.4247  156.1344 N   0  0  0  0  0  0  0  0  0  0  0  0
  148.7240  136.6508  156.3698 C   0  0  0  0  0  0  0  0  0  0  0  0
  150.8514  134.9097  156.6259 S   0  0  0  0  0  0  0  0  0  0  0  0
  152.2879  134.9585  156.3107 O   0  0  0  0  0  0  0  0  0  0  0  0
  150.4176  134.6713  158.0115 O   0  0  0  0  0  0  0  0  0  0  0  0
  150.0223  133.6644  155.5211 C   0  0  0  0  0  0  0  0  0  0  0  0
  150.6067  132.2625  155.7461 C   0  0  0  0  0  0  0  0  0  0  0  0
  150.1321  134.0902  154.0499 C   0  0  0  0  0  0  0  0  0  0  0  0
  151.6303  141.2362  157.7324 C   0  0  0  0  0  0  0  0  0  0  0  0
  152.5785  140.7508  158.6295 C   0  0  0  0  0  0  0  0  0  0  0  0
  152.8777  141.5552  159.7522 C   0  0  0  0  0  0  0  0  0  0  0  0
  153.9064  141.0513  160.7503 C   0  0  0  0  0  0  0  0  0  0  0  0
  151.9777  144.5798  161.1705 H   0  0  0  0  0  0  0  0  0  0  0  0
  153.6190  143.9396  161.1544 H   0  0  0  0  0  0  0  0  0  0  0  0
  152.3530  143.1194  162.0807 H   0  0  0  0  0  0  0  0  0  0  0  0
  150.7814  144.2322  159.1695 H   0  0  0  0  0  0  0  0  0  0  0  0
  149.6152  141.4415  155.1182 H   0  0  0  0  0  0  0  0  0  0  0  0
  152.4867  139.5663  155.5162 H   0  0  0  0  0  0  0  0  0  0  0  0
  151.7924  138.7922  156.9222 H   0  0  0  0  0  0  0  0  0  0  0  0
  149.5196  138.9203  155.5600 H   0  0  0  0  0  0  0  0  0  0  0  0
  150.5222  138.6134  153.2229 H   0  0  0  0  0  0  0  0  0  0  0  0
  150.4395  136.8155  154.0720 H   0  0  0  0  0  0  0  0  0  0  0  0
  151.8382  137.0126  155.0672 H   0  0  0  0  0  0  0  0  0  0  0  0
  148.4602  137.6945  156.1967 H   0  0  0  0  0  0  0  0  0  0  0  0
  148.4675  136.4059  157.4004 H   0  0  0  0  0  0  0  0  0  0  0  0
  148.1233  136.0244  155.7105 H   0  0  0  0  0  0  0  0  0  0  0  0
  148.9676  133.6379  155.7846 H   0  0  0  0  0  0  0  0  0  0  0  0
  150.0938  131.5211  155.1329 H   0  0  0  0  0  0  0  0  0  0  0  0
  150.5022  131.9565  156.7875 H   0  0  0  0  0  0  0  0  0  0  0  0
  151.6663  132.2281  155.4908 H   0  0  0  0  0  0  0  0  0  0  0  0
  149.6441  133.3678  153.3951 H   0  0  0  0  0  0  0  0  0  0  0  0
  151.1744  134.1710  153.7397 H   0  0  0  0  0  0  0  0  0  0  0  0
  149.6574  135.0567  153.8797 H   0  0  0  0  0  0  0  0  0  0  0  0
  153.0661  139.7989  158.4794 H   0  0  0  0  0  0  0  0  0  0  0  0
  154.3173  140.0875  160.4478 H   0  0  0  0  0  0  0  0  0  0  0  0
  153.4547  140.9266  161.7346 H   0  0  0  0  0  0  0  0  0  0  0  0
  154.7353  141.7541  160.8351 H   0  0  0  0  0  0  0  0  0  0  0  0
  149.5058  143.4534  156.7106 H   0  0  0  0  0  0  0  0  0  0  0  0
  1  2  1  0  0  0  0
  1 24  1  0  0  0  0
  1 25  1  0  0  0  0
  1 26  1  0  0  0  0
  2 22  1  0  0  0  0
  2  3  2  0  0  0  0
  3  4  1  0  0  0  0
  3 27  1  0  0  0  0
  4 20  2  0  0  0  0
  4  5  1  0  0  0  0
  5  6  2  0  0  0  0
  5 49  1  0  0  0  0
  6  7  1  0  0  0  0
  6 28  1  0  0  0  0
  7  8  1  0  0  0  0
  7 20  1  0  0  0  0
  8  9  1  0  0  0  0
  8 29  1  0  0  0  0
  8 30  1  0  0  0  0
  9 10  1  0  0  0  0
  9 11  1  0  0  0  0
  9 31  1  0  0  0  0
 10 32  1  0  0  0  0
 11 12  1  0  0  0  0
 11 33  1  0  0  0  0
 11 34  1  0  0  0  0
 12 13  1  0  0  0  0
 12 14  1  0  0  0  0
 13 35  1  0  0  0  0
 13 36  1  0  0  0  0
 13 37  1  0  0  0  0
 14 15  2  0  0  0  0
 14 16  2  0  0  0  0
 14 17  1  0  0  0  0
 17 18  1  0  0  0  0
 17 19  1  0  0  0  0
 17 38  1  0  0  0  0
 18 39  1  0  0  0  0
 18 40  1  0  0  0  0
 18 41  1  0  0  0  0
 19 42  1  0  0  0  0
 19 43  1  0  0  0  0
 19 44  1  0  0  0  0
 20 21  1  0  0  0  0
 21 22  2  0  0  0  0
 21 45  1  0  0  0  0
 22 23  1  0  0  0  0
 23 46  1  0  0  0  0
 23 47  1  0  0  0  0
 23 48  1  0  0  0  0
M  CHG  1   5   1
M  END
> <s_m_source_file>
AV-unprocessed.smi

> <i_m_source_file_index>
2538

> <i_lp_mmshare_version>
43012

> <i_f3d_flags>
0

> <s_epik_input>
W0NIM11jKFtjSF0xKWMoW0NIM10pW2NIXWMoYzEyKW4oW2NIXW4yKVtDSDJdW0NASF0oW09IXSlbQ0gyXU4oW0NIM10pUyg9TykoPU8pW0NIXShbQ0gzXSlbQ0gzXQ==

> <s_epik_cmdline>
J2VwaWtfcHl0aG9uJywgJy1waCcsICc3LjAnLCAnLXRuJywgJzgnLCAnLW1hJywgJzIwMCcsICctbWV0YWxfYmluZGluZycsICctaW1hZScsICc8aW5maWxlLm1hZT4nLCAnLW9tYWUnLCAnPG91dGZpbGUubWFlPic=

> <r_epik_Ionization_Penalty>
1.07686

> <r_epik_Ionization_Penalty_Charging>
1.07685

> <r_epik_Ionization_Penalty_Neutral>
1.40866e-06

> <r_epik_State_Penalty>
1.13193

> <r_epik_Charging_Adjusted_Penalty>
2.20879

> <i_epik_Tot_Q>
1

> <i_epik_Tot_abs_Q>
1

> <r_epik_Metal_State_Penalty>
5.12988

> <b_epik_Metal_Only>
0

> <s_lp_Force_Field>
OPLS_2005

> <r_lp_Energy>
10.053

> <b_lp_Chiralities_Consistent>
1

> <s_lp_Variant>
AV-unprocessed.smi:2538-4

> <Gold.Version>
5.8.1

> <Gold.Id.Protein>
6NUR|6NUR_protein|mol2

> <Gold.PLP.Fitness>
56.4438

> <Gold.PLP.PLP>
-43.4046

> <Gold.PLP.part.hbond>
-4.9752

> <Gold.PLP.part.metal>
0.0000

> <Gold.PLP.part.buried>
-3.3132

> <Gold.PLP.part.nonpolar>
-34.9805

> <Gold.PLP.part.repulsive>
0.0619

> <Gold.PLP.ligand.clash>
0.0000

> <Gold.PLP.ligand.torsion>
2.2521

> <Gold.PLP.Chemscore.Hbond>
4.9920

> <Gold.PLP.Chemscore.CHOScore>
0.0000

> <Gold.PLP.Chemscore.Metal>
0.0000

> <Gold.Chemscore.Hbonds>
donor molecule, donor type, donor heavy atom, donor atom, acceptor molecule, acceptor atom, score
      L1  H     5    49       P1  8028  2.00
      P1  H  6896  6907       L1    16  0.53
      P1  H  7989  7998       L1    10  1.00
      P1  H 10752 10764       L1    15  0.99

> <Gold.PLP.Chemscore.Internal.Correction>
2.5674

> <Gold.Rescore>
     Score         DG    S(hbond)    S(metal)    S(lipo)     H(rot)  DE(clash)    DE(int)     intcor
     21.67     -24.91       3.75        0.00     110.72       2.36       1.09       2.16       ----

> <Gold.Chemscore.Fitness>
21.6675

> <Gold.Chemscore.DG>
-24.9112

> <Gold.Chemscore.ZeroCoef>
-5.4800

> <Gold.Chemscore.Hbond>
3.7477

> <Gold.Chemscore.Metal>
0.0000

> <Gold.Chemscore.Lipo>
110.7194

> <Gold.Chemscore.Internal_Hbond>
0.0000

> <Gold.Chemscore.DEClash>
1.0858

> <Gold.Chemscore.DEInternal>
2.1580

> <Gold.Chemscore.Rot>
2.3595

> <Gold.Chemscore.Internal.Correction>
   9.000000E+99

> <Gold.Chemscore.Hbonds>
donor molecule, donor type, donor heavy atom, donor atom, acceptor molecule, acceptor atom, score
      L1  H     5    49       P1  8028  0.95
      P1  H  6896  6907       L1    16  0.52
      P1  H  7989  7998       L1    10  0.93
      P1  H 10752 10764       L1    15  0.90

> <Gold.Chemscore.Hbond.Weighted>
-12.5173

> <Gold.Chemscore.Metal.Weighted>
-0.0000

> <Gold.Chemscore.Lipo.Weighted>
-12.9542

> <Gold.Chemscore.Internal_Hbond.Weighted>
0.0000

> <Gold.Chemscore.DEClash.Weighted>
1.0858

> <Gold.Chemscore.DEInternal.Weighted>
2.1580

> <Gold.Chemscore.Rot.Weighted>
6.0403

> <Gold.Chemscore.Internal.Correction.Weighted>
   9.000000E+99

> <Gold.Protein.RotatedTorsions>
[ 6907 6896 6895 6894 ] final  -91.91 input  -60.11 | X-H torsion
[ 7974 7965 7964 7962 ] final   10.06 input  175.53 | X-H torsion
[ 8008 7997 7996 7995 ] final   63.74 input   59.86 | X-H torsion
[ 10167 10162 10161 10158 ] final  -83.25 input  -65.29 | X-H torsion
[ 10718 10713 10712 10709 ] final   60.27 input   66.30 | X-H torsion
[ 10763 10752 10751 10750 ] final  -15.43 input  -60.55 | X-H torsion
[ 11005 11000 10999 10996 ] final -153.15 input  -57.11 | X-H torsion

> <Gold.Protein.ActiveResidues>
 VAL166  LYS551  ARG553  GLY616  TRP617  ASP618  TYR619  PRO620  LYS621  CYS622 
 ASP623  PHE694  ASN695  SER759  ASP760  ASP761  ALA762  ILE779  LEU786  VAL792 
 PHE793  MET794  SER795  GLU796  ALA797  LYS798  CYS799  TRP800  GLU811  SER814 

> <Gold.Protein.RotatedAtoms>
  150.6899  134.2204  159.4394 H   0  0  0  0  0  0  0  0  0  0  0  0  # atno 6907 bound_to 6896
  152.0161  134.9847  160.0578 H   0  0  0  0  0  0  0  0  0  0  0  0  # atno 6908 bound_to 6896
  152.1442  133.4447  159.4818 H   0  0  0  0  0  0  0  0  0  0  0  0  # atno 6909 bound_to 6896
  146.2394  139.9691  142.8449 H   0  0  0  0  0  0  0  0  0  0  0  0  # atno 7974 bound_to 7965
  155.6350  140.3496  155.4695 H   0  0  0  0  0  0  0  0  0  0  0  0  # atno 8008 bound_to 7997
  155.9972  140.1206  157.0606 H   0  0  0  0  0  0  0  0  0  0  0  0  # atno 8009 bound_to 7997
  154.4237  140.1108  156.5633 H   0  0  0  0  0  0  0  0  0  0  0  0  # atno 8010 bound_to 7997
  140.4244  143.2572  151.8846 H   0  0  0  0  0  0  0  0  0  0  0  0  # atno 10167 bound_to 10162
  157.5740  130.8929  149.9316 H   0  0  0  0  0  0  0  0  0  0  0  0  # atno 10718 bound_to 10713
  153.5433  135.7013  153.5626 H   0  0  0  0  0  0  0  0  0  0  0  0  # atno 10763 bound_to 10752
  153.3583  135.3977  155.1698 H   0  0  0  0  0  0  0  0  0  0  0  0  # atno 10764 bound_to 10752
  154.8671  135.3782  154.4938 H   0  0  0  0  0  0  0  0  0  0  0  0  # atno 10765 bound_to 10752
  140.7112  134.3830  157.5197 H   0  0  0  0  0  0  0  0  0  0  0  0  # atno 11005 bound_to 11000
  145.1698  140.9715  143.4328 LP  0  0  0  0  0  0  0  0  0  0  0  0  # atno 17320 bound_to 7965
  145.0039  139.3573  143.6154 LP  0  0  0  0  0  0  0  0  0  0  0  0  # atno 17321 bound_to 7965
  139.4783  144.5403  151.8538 LP  0  0  0  0  0  0  0  0  0  0  0  0  # atno 17342 bound_to 10162
  140.4498  144.1871  150.5896 LP  0  0  0  0  0  0  0  0  0  0  0  0  # atno 17343 bound_to 10162
  156.0785  130.3676  150.0628 LP  0  0  0  0  0  0  0  0  0  0  0  0  # atno 17370 bound_to 10713
  156.8777  130.9546  151.3603 LP  0  0  0  0  0  0  0  0  0  0  0  0  # atno 17371 bound_to 10713
  139.8871  134.8891  156.2547 LP  0  0  0  0  0  0  0  0  0  0  0  0  # atno 17394 bound_to 11000
  141.0082  133.7111  156.1069 LP  0  0  0  0  0  0  0  0  0  0  0  0  # atno 17395 bound_to 11000

$$$$
