#       Name:                AV-unprocessed.smi:2710
#       Creating user name   scv26
#       Creation time:       Fri Mar 27 14:50:32 2020


#       File generated by GOLD software.
#

@<TRIPOS>MOLECULE
AV-unprocessed.smi:2710
    57    58     1
SMALL
NO_CHARGES


@<TRIPOS>ATOM
      1 ****        -5.0462  -4.7250   1.3439 C.3            1 S1                 0.0000
      2 ****        -4.3048  -3.9812   0.2228 C.3            1 S1                 0.0000
      3 ****        -4.6875  -2.5418   0.1270 N.4            1 S1                 1.0000
      4 ****        -4.2753  -1.7245   1.3032 C.3            1 S1                 0.0000
      5 ****        -2.7568  -1.4579   1.3202 C.3            1 S1                 0.0000
      6 ****        -2.2833  -0.8124   0.0054 C.3            1 S1                 0.0000
      7 ****        -0.8255  -0.7204  -0.0100 N.am           1 S1                 0.0000
      8 ****        -0.1114   0.4144   0.0136 C.2            1 S1                 0.0000
      9 ****        -0.6142   1.5370   0.0503 O.2            1 S1                 0.0000
     10 ****         1.2074   0.1570   0.0139 N.am           1 S1                 0.0000
     11 ****         2.2796   1.0881   0.0231 C.ar           1 S1                 0.0000
     12 ****         3.5499   0.6712   0.4691 C.ar           1 S1                 0.0000
     13 ****         4.6093   1.5069   0.4916 N.ar           1 S1                 0.0000
     14 ****         4.4173   2.7623   0.0663 C.ar           1 S1                 0.0000
     15 ****         5.6500   3.6846   0.0778 C.3            1 S1                 0.0000
     16 ****         5.2980   5.1350  -0.3355 C.3            1 S1                 0.0000
     17 ****         6.7037   3.1573  -0.9165 C.3            1 S1                 0.0000
     18 ****         6.2400   3.7549   1.5021 C.3            1 S1                 0.0000
     19 ****         3.2629   3.2511  -0.4059 N.ar           1 S1                 0.0000
     20 ****         2.1938   2.4269  -0.4273 C.ar           1 S1                 0.0000
     21 ****        -2.7689  -1.6297  -1.2052 C.3            1 S1                 0.0000
     22 ****        -4.2931  -1.8599  -1.1432 C.3            1 S1                 0.0000
     23 ****        -4.8405  -2.5444  -2.4085 C.3            1 S1                 0.0000
     24 ****        -4.8402  -5.7942   1.2914 H              1 S1                 0.0000
     25 ****        -6.1253  -4.5947   1.2579 H              1 S1                 0.0000
     26 ****        -4.7401  -4.3919   2.3350 H              1 S1                 0.0000
     27 ****        -3.2279  -4.0928   0.3454 H              1 S1                 0.0000
     28 ****        -4.5575  -4.4951  -0.7023 H              1 S1                 0.0000
     29 ****        -4.8042  -0.7715   1.2593 H              1 S1                 0.0000
     30 ****        -4.5911  -2.1858   2.2375 H              1 S1                 0.0000
     31 ****        -2.5108  -0.8060   2.1595 H              1 S1                 0.0000
     32 ****        -2.2181  -2.3894   1.4963 H              1 S1                 0.0000
     33 ****        -2.7295   0.1815  -0.0630 H              1 S1                 0.0000
     34 ****        -0.3179  -1.5927  -0.0360 H              1 S1                 0.0000
     35 ****         1.4752  -0.8147   0.0709 H              1 S1                 0.0000
     36 ****         3.7198  -0.3380   0.8153 H              1 S1                 0.0000
     37 ****         6.1774   5.7795  -0.3085 H              1 S1                 0.0000
     38 ****         4.5560   5.5750   0.3323 H              1 S1                 0.0000
     39 ****         4.9012   5.1813  -1.3506 H              1 S1                 0.0000
     40 ****         6.3021   3.1075  -1.9292 H              1 S1                 0.0000
     41 ****         7.0437   2.1565  -0.6480 H              1 S1                 0.0000
     42 ****         7.5837   3.8009  -0.9417 H              1 S1                 0.0000
     43 ****         7.0989   4.4256   1.5441 H              1 S1                 0.0000
     44 ****         6.5794   2.7786   1.8491 H              1 S1                 0.0000
     45 ****         5.5022   4.1198   2.2177 H              1 S1                 0.0000
     46 ****         1.2855   2.8493  -0.8280 H              1 S1                 0.0000
     47 ****        -2.5132  -1.1008  -2.1245 H              1 S1                 0.0000
     48 ****        -2.2472  -2.5868  -1.2496 H              1 S1                 0.0000
     49 ****        -4.7684  -0.8779  -1.1142 H              1 S1                 0.0000
     50 ****        -4.7198  -1.8948  -3.2760 H              1 S1                 0.0000
     51 ****        -5.9040  -2.7647  -2.3119 H              1 S1                 0.0000
     52 ****        -4.3174  -3.4731  -2.6363 H              1 S1                 0.0000
     53 ****        -5.6975  -2.5391   0.1296 H              1 S1                 0.0000
     54 ****        -1.6089   1.6391   0.0641 LP             1 S1                 0.0000
     55 ****        -0.0281   2.3471   0.0663 LP             1 S1                 0.0000
     56 ****         5.5048   1.2001   0.8140 LP             1 S1                 0.0000
     57 ****         3.1953   4.1942  -0.7314 LP             1 S1                 0.0000
@<TRIPOS>BOND
    1    1    2 1     
    2    1   24 1     
    3    1   25 1     
    4    1   26 1     
    5    2    3 1     
    6    2   27 1     
    7    2   28 1     
    8    3   22 1     
    9    3    4 1     
   10    3   53 1     
   11    4    5 1     
   12    4   29 1     
   13    4   30 1     
   14    5    6 1     
   15    5   31 1     
   16    5   32 1     
   17    6    7 1     
   18    6   21 1     
   19    6   33 1     
   20    7    8 am    
   21    7   34 1     
   22    8    9 2     
   23    8   10 am    
   24   10   11 1     
   25   10   35 1     
   26   11   20 ar    
   27   11   12 ar    
   28   12   13 ar    
   29   12   36 1     
   30   13   14 ar    
   31   14   15 1     
   32   14   19 ar    
   33   15   16 1     
   34   15   17 1     
   35   15   18 1     
   36   16   37 1     
   37   16   38 1     
   38   16   39 1     
   39   17   40 1     
   40   17   41 1     
   41   17   42 1     
   42   18   43 1     
   43   18   44 1     
   44   18   45 1     
   45   19   20 ar    
   46   20   46 1     
   47   21   22 1     
   48   21   47 1     
   49   21   48 1     
   50   22   23 1     
   51   22   49 1     
   52   23   50 1     
   53   23   51 1     
   54   23   52 1     
   55    9   54 1     
   56    9   55 1     
   57   13   56 1     
   58   19   57 1     
@<TRIPOS>SUBSTRUCTURE
      1 S1             1
@<TRIPOS>SET
LONE_PAIRS      STATIC     ATOMS    <user>   **** ""
4 54 55 56 57
DONOR_HYDROGENS      STATIC     ATOMS    <user>   **** ""
3 53 34 35
ATOM$BLUE        STATIC     ATOMS    COLORGROUP SYSTEM
4 54 55 56 57
ATOM$RED        STATIC     ATOMS    COLORGROUP SYSTEM
3 53 34 35
