#       Name:                AV-unprocessed.smi:2939
#       Creating user name   scv26
#       Creation time:       Fri Mar 27 16:15:24 2020


#       File generated by GOLD software.
#

@<TRIPOS>MOLECULE
AV-unprocessed.smi:2939
    38    39     1
SMALL
NO_CHARGES


@<TRIPOS>ATOM
      1 ****        -4.1876   2.0278  -0.6195 O.co2          1 S1                 0.0000
      2 ****        -3.7044   1.8374  -1.7569 C.2            1 S1                 0.0000
      3 ****        -3.9431   2.5254  -2.7733 O.co2          1 S1                -1.0000
      4 ****        -2.7357   0.6621  -1.9187 C.3            1 S1                 0.0000
      5 ****        -1.3512   1.0343  -1.6622 N.am           1 S1                 0.0000
      6 ****        -0.5495   1.3980  -2.7749 C.2            1 S1                 0.0000
      7 ****        -1.0163   1.5358  -3.9064 O.2            1 S1                 0.0000
      8 ****         0.8633   1.5984  -2.4748 C.2            1 S1                 0.0000
      9 ****         1.3390   1.4249  -1.2235 C.2            1 S1                 0.0000
     10 ****         0.5395   1.0488  -0.1621 N.am           1 S1                 0.0000
     11 ****         1.0696   0.8577   1.1647 C.3            1 S1                 0.0000
     12 ****         1.2293  -0.5906   1.6120 C.ar           1 S1                 0.0000
     13 ****         1.0658  -0.9138   2.9755 C.ar           1 S1                 0.0000
     14 ****         1.2133  -2.2441   3.4143 C.ar           1 S1                 0.0000
     15 ****         1.5311  -3.2592   2.4918 C.ar           1 S1                 0.0000
     16 ****         1.7028  -2.9427   1.1308 C.ar           1 S1                 0.0000
     17 ****         1.5549  -1.6126   0.6916 C.ar           1 S1                 0.0000
     18 ****        -0.8441   0.8287  -0.3553 C.2            1 S1                 0.0000
     19 ****        -1.5700   0.4779   0.5795 O.2            1 S1                 0.0000
     20 ****        -3.0029  -0.1599  -1.2526 H              1 S1                 0.0000
     21 ****        -2.8000   0.2384  -2.9222 H              1 S1                 0.0000
     22 ****         1.5378   1.8860  -3.2677 H              1 S1                 0.0000
     23 ****         2.3939   1.5815  -1.0507 H              1 S1                 0.0000
     24 ****         2.0449   1.3458   1.1739 H              1 S1                 0.0000
     25 ****         0.4282   1.4256   1.8419 H              1 S1                 0.0000
     26 ****         0.8219  -0.1410   3.6898 H              1 S1                 0.0000
     27 ****         1.0829  -2.4854   4.4590 H              1 S1                 0.0000
     28 ****         1.6444  -4.2792   2.8281 H              1 S1                 0.0000
     29 ****         1.9486  -3.7201   0.4226 H              1 S1                 0.0000
     30 ****         1.6925  -1.3849  -0.3550 H              1 S1                 0.0000
     31 ****        -4.8235   2.7842  -0.4666 LP             1 S1                 0.0000
     32 ****        -3.9380   1.4236   0.1373 LP             1 S1                 0.0000
     33 ****        -4.5683   3.3036  -2.7148 LP             1 S1                 0.0000
     34 ****        -3.5087   2.2974  -3.6447 LP             1 S1                 0.0000
     35 ****        -1.9927   1.3903  -4.0656 LP             1 S1                 0.0000
     36 ****        -0.4188   1.7931  -4.6658 LP             1 S1                 0.0000
     37 ****        -2.5470   0.3304   0.4257 LP             1 S1                 0.0000
     38 ****        -1.1810   0.3412   1.4906 LP             1 S1                 0.0000
@<TRIPOS>BOND
    1    1    2 ar    
    2    2    3 ar    
    3    2    4 1     
    4    4    5 1     
    5    4   20 1     
    6    4   21 1     
    7    5   18 am    
    8    5    6 am    
    9    6    7 2     
   10    6    8 1     
   11    8    9 2     
   12    8   22 1     
   13    9   10 1     
   14    9   23 1     
   15   10   11 1     
   16   10   18 am    
   17   11   12 1     
   18   11   24 1     
   19   11   25 1     
   20   12   17 ar    
   21   12   13 ar    
   22   13   14 ar    
   23   13   26 1     
   24   14   15 ar    
   25   14   27 1     
   26   15   16 ar    
   27   15   28 1     
   28   16   17 ar    
   29   16   29 1     
   30   17   30 1     
   31   18   19 2     
   32    1   31 1     
   33    1   32 1     
   34    3   33 1     
   35    3   34 1     
   36    7   35 1     
   37    7   36 1     
   38   19   37 1     
   39   19   38 1     
@<TRIPOS>SUBSTRUCTURE
      1 S1             1
@<TRIPOS>SET
LONE_PAIRS      STATIC     ATOMS    <user>   **** ""
8 31 32 33 34 35 36 37 38
ATOM$BLUE        STATIC     ATOMS    COLORGROUP SYSTEM
8 31 32 33 34 35 36 37 38
