#       Name:                AV-unprocessed.smi:2061
#       Creating user name   scv26
#       Creation time:       Fri Mar 27 11:06:02 2020


#       File generated by GOLD software.
#

@<TRIPOS>MOLECULE
AV-unprocessed.smi:2061
    53    54     1
SMALL
NO_CHARGES


@<TRIPOS>ATOM
      1 ****        -3.9937   5.9467  -2.7729 C.3            1 S1                 0.0000
      2 ****        -3.9642   4.8701  -1.7424 C.2            1 S1                 0.0000
      3 ****        -2.9760   4.3900  -0.9306 C.2            1 S1                 0.0000
      4 ****        -3.6266   3.3564  -0.2029 C.2            1 S1                 0.0000
      5 ****        -3.0674   2.5829   0.7405 N.pl3          1 S1                -1.0000
      6 ****        -2.3801   1.4720   0.3915 C.2            1 S1                 0.0000
      7 ****        -2.1857   1.0596  -0.7545 O.2            1 S1                 0.0000
      8 ****        -1.8793   0.7983   1.4366 N.am           1 S1                 0.0000
      9 ****        -1.0767  -0.4185   1.3591 C.3            1 S1                 0.0000
     10 ****         0.3863  -0.1525   0.9156 C.3            1 S1                 0.0000
     11 ****         1.0608   0.8554   1.8782 C.3            1 S1                 0.0000
     12 ****         1.1285  -1.4487   0.7870 N.4            1 S1                 1.0000
     13 ****         0.7725  -2.1882  -0.4539 C.3            1 S1                 0.0000
     14 ****         1.4583  -3.5657  -0.4922 C.3            1 S1                 0.0000
     15 ****         1.1519  -4.3305  -1.7849 C.3            1 S1                 0.0000
     16 ****         2.8651  -3.3791  -0.4123 O.3            1 S1                 0.0000
     17 ****         3.2576  -2.7577   0.8043 C.3            1 S1                 0.0000
     18 ****         4.7886  -2.6879   0.8282 C.3            1 S1                 0.0000
     19 ****         2.6105  -1.3620   0.9010 C.3            1 S1                 0.0000
     20 ****        -4.9018   3.2334  -0.5304 N.2            1 S1                 0.0000
     21 ****        -5.1247   4.1955  -1.5226 O.3            1 S1                 0.0000
     22 ****        -3.5324   6.8579  -2.3923 H              1 S1                 0.0000
     23 ****        -5.0169   6.1835  -3.0655 H              1 S1                 0.0000
     24 ****        -3.4493   5.6390  -3.6658 H              1 S1                 0.0000
     25 ****        -1.9503   4.7212  -0.8698 H              1 S1                 0.0000
     26 ****        -2.0660   1.1671   2.3576 H              1 S1                 0.0000
     27 ****        -1.0828  -0.8830   2.3454 H              1 S1                 0.0000
     28 ****        -1.5869  -1.1166   0.6965 H              1 S1                 0.0000
     29 ****         0.3777   0.3169  -0.0693 H              1 S1                 0.0000
     30 ****         0.4831   1.7754   1.9686 H              1 S1                 0.0000
     31 ****         2.0454   1.1620   1.5252 H              1 S1                 0.0000
     32 ****         1.1685   0.4398   2.8804 H              1 S1                 0.0000
     33 ****        -0.3038  -2.3321  -0.5291 H              1 S1                 0.0000
     34 ****         1.0709  -1.5999  -1.3235 H              1 S1                 0.0000
     35 ****         1.1232  -4.1686   0.3538 H              1 S1                 0.0000
     36 ****         0.0813  -4.5061  -1.8929 H              1 S1                 0.0000
     37 ****         1.6490  -5.3010  -1.7900 H              1 S1                 0.0000
     38 ****         1.4909  -3.7780  -2.6617 H              1 S1                 0.0000
     39 ****         2.9277  -3.3729   1.6434 H              1 S1                 0.0000
     40 ****         5.1479  -2.2331   1.7515 H              1 S1                 0.0000
     41 ****         5.1704  -2.0982  -0.0059 H              1 S1                 0.0000
     42 ****         5.2250  -3.6845   0.7575 H              1 S1                 0.0000
     43 ****         2.9978  -0.7076   0.1182 H              1 S1                 0.0000
     44 ****         2.8997  -0.9337   1.8603 H              1 S1                 0.0000
     45 ****         0.8275  -2.0183   1.5649 H              1 S1                 0.0000
     46 ****        -3.1594   2.8291   1.7054 LP             1 S1                 0.0000
     47 ****        -2.5535   1.5633  -1.5362 LP             1 S1                 0.0000
     48 ****        -1.6604   0.2216  -0.9019 LP             1 S1                 0.0000
     49 ****         3.1573  -2.8038  -1.1763 LP             1 S1                 0.0000
     50 ****         3.3122  -4.2712  -0.4768 LP             1 S1                 0.0000
     51 ****        -5.5660   2.5898  -0.1501 LP             1 S1                 0.0000
     52 ****        -5.4186   3.7470  -2.3667 LP             1 S1                 0.0000
     53 ****        -5.8330   4.8334  -1.2201 LP             1 S1                 0.0000
@<TRIPOS>BOND
    1    1    2 1     
    2    1   22 1     
    3    1   23 1     
    4    1   24 1     
    5    2   21 1     
    6    2    3 2     
    7    3    4 1     
    8    3   25 1     
    9    4    5 1     
   10    4   20 2     
   11    5    6 1     
   12    6    7 2     
   13    6    8 am    
   14    8    9 1     
   15    8   26 1     
   16    9   10 1     
   17    9   27 1     
   18    9   28 1     
   19   10   11 1     
   20   10   12 1     
   21   10   29 1     
   22   11   30 1     
   23   11   31 1     
   24   11   32 1     
   25   12   19 1     
   26   12   13 1     
   27   12   45 1     
   28   13   14 1     
   29   13   33 1     
   30   13   34 1     
   31   14   15 1     
   32   14   16 1     
   33   14   35 1     
   34   15   36 1     
   35   15   37 1     
   36   15   38 1     
   37   16   17 1     
   38   17   18 1     
   39   17   19 1     
   40   17   39 1     
   41   18   40 1     
   42   18   41 1     
   43   18   42 1     
   44   19   43 1     
   45   19   44 1     
   46   20   21 1     
   47    5   46 1     
   48    7   47 1     
   49    7   48 1     
   50   16   49 1     
   51   16   50 1     
   52   20   51 1     
   53   21   52 1     
   54   21   53 1     
@<TRIPOS>SUBSTRUCTURE
      1 S1             1
@<TRIPOS>SET
LONE_PAIRS      STATIC     ATOMS    <user>   **** ""
8 46 47 48 49 50 51 52 53
DONOR_HYDROGENS      STATIC     ATOMS    <user>   **** ""
2 26 45
ATOM$BLUE        STATIC     ATOMS    COLORGROUP SYSTEM
8 46 47 48 49 50 51 52 53
ATOM$RED        STATIC     ATOMS    COLORGROUP SYSTEM
2 26 45
