AV-unprocessed.smi:320|AV-procd|sdf|2333|dock4
  -GOLD-   2262022233D 1   1.00000     0.00000
 Structure written by MMmdl.
 49 52  0  0  0  0  0  0  0  0  1 V2000
  152.8214  139.5601  158.7231 C   0  0  0  0  0  0  0  0  0  0  0  0
  152.0867  140.5139  157.7612 C   0  0  1  0  0  0  0  0  0  0  0  0
  150.7765  139.9319  157.4636 N   0  0  0  0  0  0  0  0  0  0  0  0
  150.2315  139.7828  156.2461 C   0  0  0  0  0  0  0  0  0  0  0  0
  150.8002  140.1030  155.2019 O   0  0  0  0  0  0  0  0  0  0  0  0
  148.8281  139.1629  156.2109 C   0  0  0  0  0  0  0  0  0  0  0  0
  147.7708  140.1551  155.9559 N   0  0  0  0  0  0  0  0  0  0  0  0
  146.7213  140.2336  156.8933 C   0  0  0  0  0  0  0  0  0  0  0  0
  145.7057  141.1000  156.7512 C   0  0  0  0  0  0  0  0  0  0  0  0
  145.7062  141.9692  155.5985 C   0  0  0  0  0  0  0  0  0  0  0  0
  146.7040  141.9010  154.6948 C   0  0  0  0  0  0  0  0  0  0  0  0
  147.8157  140.9548  154.8453 C   0  0  0  0  0  0  0  0  0  0  0  0
  148.7309  140.8851  154.0239 O   0  0  0  0  0  0  0  0  0  0  0  0
  151.9517  141.9914  158.2542 C   0  0  0  0  0  0  0  0  0  0  0  0
  151.4468  142.9446  157.1323 C   0  0  0  0  0  0  0  0  0  0  0  0
  151.3419  144.3939  157.6559 C   0  0  2  0  0  0  0  0  0  0  0  0
  152.7295  144.8797  158.1223 C   0  0  0  0  0  0  0  0  0  0  0  0
  153.2300  143.9653  159.2589 C   0  0  1  0  0  0  0  0  0  0  0  0
  152.2468  144.0194  160.4445 C   0  0  0  0  0  0  0  0  0  0  0  0
  150.8619  143.5361  159.9709 C   0  0  1  0  0  0  0  0  0  0  0  0
  150.3512  144.4494  158.8374 C   0  0  0  0  0  0  0  0  0  0  0  0
  150.9663  142.0852  159.4548 C   0  0  0  0  0  0  0  0  0  0  0  0
  153.3361  142.5159  158.7418 C   0  0  0  0  0  0  0  0  0  0  0  0
  153.8485  139.8721  158.9061 H   0  0  0  0  0  0  0  0  0  0  0  0
  152.8738  138.5564  158.2999 H   0  0  0  0  0  0  0  0  0  0  0  0
  152.3152  139.4776  159.6847 H   0  0  0  0  0  0  0  0  0  0  0  0
  152.6836  140.5375  156.8478 H   0  0  0  0  0  0  0  0  0  0  0  0
  150.2289  139.6354  158.2584 H   0  0  0  0  0  0  0  0  0  0  0  0
  148.8218  138.3850  155.4464 H   0  0  0  0  0  0  0  0  0  0  0  0
  148.6293  138.6427  157.1502 H   0  0  0  0  0  0  0  0  0  0  0  0
  146.7911  139.5446  157.7227 H   0  0  0  0  0  0  0  0  0  0  0  0
  144.9070  141.1425  157.4770 H   0  0  0  0  0  0  0  0  0  0  0  0
  144.9015  142.6762  155.4589 H   0  0  0  0  0  0  0  0  0  0  0  0
  146.6863  142.5582  153.8379 H   0  0  0  0  0  0  0  0  0  0  0  0
  152.1171  142.9182  156.2725 H   0  0  0  0  0  0  0  0  0  0  0  0
  150.4703  142.6264  156.7675 H   0  0  0  0  0  0  0  0  0  0  0  0
  150.9838  145.0412  156.8548 H   0  0  0  0  0  0  0  0  0  0  0  0
  153.4337  144.8685  157.2894 H   0  0  0  0  0  0  0  0  0  0  0  0
  152.6731  145.9135  158.4655 H   0  0  0  0  0  0  0  0  0  0  0  0
  154.2125  144.3040  159.5888 H   0  0  0  0  0  0  0  0  0  0  0  0
  152.6062  143.3952  161.2636 H   0  0  0  0  0  0  0  0  0  0  0  0
  152.1806  145.0355  160.8358 H   0  0  0  0  0  0  0  0  0  0  0  0
  150.1624  143.5726  160.8065 H   0  0  0  0  0  0  0  0  0  0  0  0
  150.2470  145.4741  159.1957 H   0  0  0  0  0  0  0  0  0  0  0  0
  149.3584  144.1332  158.5144 H   0  0  0  0  0  0  0  0  0  0  0  0
  149.9698  141.7510  159.1675 H   0  0  0  0  0  0  0  0  0  0  0  0
  151.2897  141.4264  160.2620 H   0  0  0  0  0  0  0  0  0  0  0  0
  153.7276  141.8704  159.5294 H   0  0  0  0  0  0  0  0  0  0  0  0
  154.0706  142.4875  157.9365 H   0  0  0  0  0  0  0  0  0  0  0  0
  1  2  1  0  0  0  0
  1 24  1  0  0  0  0
  1 25  1  0  0  0  0
  1 26  1  0  0  0  0
  2  3  1  0  0  0  0
  2 14  1  0  0  0  0
  2 27  1  0  0  0  0
  3  4  1  0  0  0  0
  3 28  1  0  0  0  0
  4  5  2  0  0  0  0
  4  6  1  0  0  0  0
  6  7  1  0  0  0  0
  6 29  1  0  0  0  0
  6 30  1  0  0  0  0
  7 12  1  0  0  0  0
  7  8  1  0  0  0  0
  8  9  2  0  0  0  0
  8 31  1  0  0  0  0
  9 10  1  0  0  0  0
  9 32  1  0  0  0  0
 10 11  2  0  0  0  0
 10 33  1  0  0  0  0
 11 12  1  0  0  0  0
 11 34  1  0  0  0  0
 12 13  2  0  0  0  0
 14 22  1  0  0  0  0
 14 23  1  0  0  0  0
 14 15  1  0  0  0  0
 15 16  1  0  0  0  0
 15 35  1  0  0  0  0
 15 36  1  0  0  0  0
 16 21  1  0  0  0  0
 16 17  1  0  0  0  0
 16 37  1  0  0  0  0
 17 18  1  0  0  0  0
 17 38  1  0  0  0  0
 17 39  1  0  0  0  0
 18 19  1  0  0  0  0
 18 23  1  0  0  0  0
 18 40  1  0  0  0  0
 19 20  1  0  0  0  0
 19 41  1  0  0  0  0
 19 42  1  0  0  0  0
 20 21  1  0  0  0  0
 20 22  1  0  0  0  0
 20 43  1  0  0  0  0
 21 44  1  0  0  0  0
 21 45  1  0  0  0  0
 22 46  1  0  0  0  0
 22 47  1  0  0  0  0
 23 48  1  0  0  0  0
 23 49  1  0  0  0  0
M  END
> <s_m_source_file>
AV-unprocessed.smi

> <i_m_source_file_index>
320

> <i_lp_mmshare_version>
43012

> <i_f3d_flags>
0

> <s_epik_input>
W0NIMl0xW0NAQEhdKFtDSDJdMilbQ0gyXVtDQEBIXShbQ0gyXTMpW0NIMl1bQ0BIXTFbQ0gyXUMyM1tDQEhdKFtDSDNdKVtOSF1DKD1PKVtDSDJdbjRbY0hdW2NIXVtjSF1bY0hdYzQ9Tw==

> <s_epik_cmdline>
J2VwaWtfcHl0aG9uJywgJy1waCcsICc3LjAnLCAnLXRuJywgJzgnLCAnLW1hJywgJzIwMCcsICctbWV0YWxfYmluZGluZycsICctaW1hZScsICc8aW5maWxlLm1hZT4nLCAnLW9tYWUnLCAnPG91dGZpbGUubWFlPic=

> <r_lp_tautomer_probability>
1

> <r_epik_Ionization_Penalty>
4.15949e-07

> <r_epik_Ionization_Penalty_Charging>
3.97363e-07

> <r_epik_Ionization_Penalty_Neutral>
1.85865e-08

> <r_epik_State_Penalty>
-0

> <r_epik_Charging_Adjusted_Penalty>
3.97363e-07

> <i_epik_Tot_Q>
0

> <i_epik_Tot_abs_Q>
0

> <r_epik_Metal_State_Penalty>
-0

> <b_epik_Metal_Only>
0

> <s_lp_Force_Field>
OPLS_2005

> <r_lp_Energy>
45.3355

> <b_lp_Chiralities_Consistent>
1

> <s_lp_Variant>
AV-unprocessed.smi:320-2

> <Gold.Version>
5.8.1

> <Gold.Id.Protein>
6NUR|6NUR_protein|mol2

> <Gold.PLP.Fitness>
42.1288

> <Gold.PLP.PLP>
-37.3470

> <Gold.PLP.part.hbond>
-3.0000

> <Gold.PLP.part.metal>
0.0000

> <Gold.PLP.part.buried>
-3.3799

> <Gold.PLP.part.nonpolar>
-33.9805

> <Gold.PLP.part.repulsive>
2.7173

> <Gold.PLP.ligand.clash>
0.0000

> <Gold.PLP.ligand.torsion>
0.5452

> <Gold.PLP.Chemscore.Hbond>
1.9440

> <Gold.PLP.Chemscore.CHOScore>
0.0000

> <Gold.PLP.Chemscore.Metal>
0.0000

> <Gold.Chemscore.Hbonds>
donor molecule, donor type, donor heavy atom, donor atom, acceptor molecule, acceptor atom, score
      P1  H  7989  7998       L1     5  0.96

> <Gold.PLP.Chemscore.Internal.Correction>
0.0402

> <Gold.Rescore>
     Score         DG    S(hbond)    S(metal)    S(lipo)     H(rot)  DE(clash)    DE(int)     intcor
     18.06     -23.97       1.89        0.00     137.24       1.52       3.92       1.99       ----

> <Gold.Chemscore.Fitness>
18.0555

> <Gold.Chemscore.DG>
-23.9682

> <Gold.Chemscore.ZeroCoef>
-5.4800

> <Gold.Chemscore.Hbond>
1.8932

> <Gold.Chemscore.Metal>
0.0000

> <Gold.Chemscore.Lipo>
137.2367

> <Gold.Chemscore.Internal_Hbond>
0.0000

> <Gold.Chemscore.DEClash>
3.9192

> <Gold.Chemscore.DEInternal>
1.9935

> <Gold.Chemscore.Rot>
1.5202

> <Gold.Chemscore.Internal.Correction>
   9.000000E+99

> <Gold.Chemscore.Hbonds>
donor molecule, donor type, donor heavy atom, donor atom, acceptor molecule, acceptor atom, score
      P1  H  7989  7998       L1     5  0.91
      P1  H  8011  8017       L1    13  0.01

> <Gold.Chemscore.Hbond.Weighted>
-6.3232

> <Gold.Chemscore.Metal.Weighted>
-0.0000

> <Gold.Chemscore.Lipo.Weighted>
-16.0567

> <Gold.Chemscore.Internal_Hbond.Weighted>
0.0000

> <Gold.Chemscore.DEClash.Weighted>
3.9192

> <Gold.Chemscore.DEInternal.Weighted>
1.9935

> <Gold.Chemscore.Rot.Weighted>
3.8916

> <Gold.Chemscore.Internal.Correction.Weighted>
   9.000000E+99

> <Gold.Protein.RotatedTorsions>
[ 6907 6896 6895 6894 ] final   80.64 input  -60.11 | X-H torsion
[ 7974 7965 7964 7962 ] final  -89.93 input  175.53 | X-H torsion
[ 8008 7997 7996 7995 ] final  102.16 input   59.86 | X-H torsion
[ 10167 10162 10161 10158 ] final  -24.69 input  -65.29 | X-H torsion
[ 10718 10713 10712 10709 ] final -139.63 input   66.30 | X-H torsion
[ 10763 10752 10751 10750 ] final  -55.03 input  -60.55 | X-H torsion
[ 11005 11000 10999 10996 ] final -125.87 input  -57.11 | X-H torsion

> <Gold.Protein.ActiveResidues>
 VAL166  LYS551  ARG553  GLY616  TRP617  ASP618  TYR619  PRO620  LYS621  CYS622 
 ASP623  PHE694  ASN695  SER759  ASP760  ASP761  ALA762  ILE779  LEU786  VAL792 
 PHE793  MET794  SER795  GLU796  ALA797  LYS798  CYS799  TRP800  GLU811  SER814 

> <Gold.Protein.RotatedAtoms>
  152.5242  134.3327  159.9188 H   0  0  0  0  0  0  0  0  0  0  0  0  # atno 6907 bound_to 6896
  151.3276  133.4007  159.2667 H   0  0  0  0  0  0  0  0  0  0  0  0  # atno 6908 bound_to 6896
  150.9907  134.9260  159.7955 H   0  0  0  0  0  0  0  0  0  0  0  0  # atno 6909 bound_to 6896
  145.4332  140.9556  143.2116 H   0  0  0  0  0  0  0  0  0  0  0  0  # atno 7974 bound_to 7965
  156.1367  140.3186  155.8432 H   0  0  0  0  0  0  0  0  0  0  0  0  # atno 8008 bound_to 7997
  155.4231  140.0513  157.3041 H   0  0  0  0  0  0  0  0  0  0  0  0  # atno 8009 bound_to 7997
  154.4942  140.2104  155.9494 H   0  0  0  0  0  0  0  0  0  0  0  0  # atno 8010 bound_to 7997
  140.7288  143.4331  151.0771 H   0  0  0  0  0  0  0  0  0  0  0  0  # atno 10167 bound_to 10162
  156.3130  130.7492  151.1572 H   0  0  0  0  0  0  0  0  0  0  0  0  # atno 10718 bound_to 10713
  154.1843  135.6438  153.5042 H   0  0  0  0  0  0  0  0  0  0  0  0  # atno 10763 bound_to 10752
  153.0051  135.5413  154.6482 H   0  0  0  0  0  0  0  0  0  0  0  0  # atno 10764 bound_to 10752
  154.5854  135.2929  155.0663 H   0  0  0  0  0  0  0  0  0  0  0  0  # atno 10765 bound_to 10752
  140.9727  134.0783  157.3852 H   0  0  0  0  0  0  0  0  0  0  0  0  # atno 11005 bound_to 11000
  144.8169  139.5861  143.7004 LP  0  0  0  0  0  0  0  0  0  0  0  0  # atno 17320 bound_to 7965
  146.2596  139.6379  142.9371 LP  0  0  0  0  0  0  0  0  0  0  0  0  # atno 17321 bound_to 7965
  139.7990  143.8110  152.3161 LP  0  0  0  0  0  0  0  0  0  0  0  0  # atno 17342 bound_to 10162
  139.8120  144.7331  150.9684 LP  0  0  0  0  0  0  0  0  0  0  0  0  # atno 17343 bound_to 10162
  157.7395  131.0528  150.5226 LP  0  0  0  0  0  0  0  0  0  0  0  0  # atno 17370 bound_to 10713
  156.5368  130.4198  149.6174 LP  0  0  0  0  0  0  0  0  0  0  0  0  # atno 17371 bound_to 10713
  139.8918  135.0121  156.6813 LP  0  0  0  0  0  0  0  0  0  0  0  0  # atno 17394 bound_to 11000
  140.7305  133.9063  155.8208 LP  0  0  0  0  0  0  0  0  0  0  0  0  # atno 17395 bound_to 11000

$$$$
