AV-unprocessed.smi:199|AV-procd|sdf|1561|dock10
  -GOLD-   2262019433D 1   1.00000     0.00000
 Structure written by MMmdl.
 51 55  0  0  0  0  0  0  0  0  1 V2000
  144.0677  135.8959  154.0935 C   0  0  0  0  0  0  0  0  0  0  0  0
  144.4586  134.6417  153.2948 C   0  0  1  0  0  0  0  0  0  0  0  0
  143.8280  134.6426  152.0222 O   0  0  0  0  0  0  0  0  0  0  0  0
  144.5162  133.7008  151.2194 C   0  0  0  0  0  0  0  0  0  0  0  0
  145.9784  134.0011  151.5259 C   0  0  0  0  0  0  0  0  0  0  0  0
  145.9675  134.4341  152.9955 C   0  0  1  0  0  0  0  0  0  0  0  0
  146.6960  135.6462  153.1038 O   0  0  0  0  0  0  0  0  0  0  0  0
  146.6370  133.3842  153.9164 C   0  0  0  0  0  0  0  0  0  0  0  0
  146.5028  133.6861  155.3336 N   0  0  0  0  0  0  0  0  0  0  0  0
  145.3358  133.7358  156.0613 C   0  0  0  0  0  0  0  0  0  0  0  0
  145.4812  134.0239  157.3252 N   0  0  0  0  0  0  0  0  0  0  0  0
  146.8522  134.1896  157.4856 C   0  0  0  0  0  0  0  0  0  0  0  0
  147.6963  134.5090  158.5886 C   0  0  0  0  0  0  0  0  0  0  0  0
  147.2374  134.7244  159.8516 N   0  0  0  0  0  0  0  0  0  0  0  0
  145.9016  134.2902  160.2259 C   0  0  1  0  0  0  0  0  0  0  0  0
  146.0304  132.7605  160.3669 C   0  0  0  0  0  0  0  0  0  0  0  0
  147.4559  132.6288  160.9250 C   0  0  0  0  0  0  0  0  0  0  0  0
  147.8877  134.1097  161.0019 C   0  0  2  0  0  0  0  0  0  0  0  0
  147.1660  134.7718  162.1966 C   0  0  1  0  0  0  0  0  0  0  0  0
  147.7802  136.1196  162.6169 C   0  0  0  0  0  0  0  0  0  0  0  0
  147.7223  137.0415  161.5492 O   0  0  0  0  0  0  0  0  0  0  0  0
  145.7416  134.9159  161.6215 C   0  0  0  0  0  0  0  0  0  0  0  0
  149.0277  134.6283  158.3376 N   0  0  0  0  0  0  0  0  0  0  0  0
  149.5088  134.4199  157.1095 C   0  0  0  0  0  0  0  0  0  0  0  0
  148.8453  134.0977  155.9986 N   0  0  0  0  0  0  0  0  0  0  0  0
  147.5064  133.9963  156.2350 C   0  0  0  0  0  0  0  0  0  0  0  0
  144.5550  135.9099  155.0686 H   0  0  0  0  0  0  0  0  0  0  0  0
  142.9913  135.9239  154.2623 H   0  0  0  0  0  0  0  0  0  0  0  0
  144.3399  136.8096  153.5649 H   0  0  0  0  0  0  0  0  0  0  0  0
  144.0713  133.7665  153.8176 H   0  0  0  0  0  0  0  0  0  0  0  0
  144.2500  132.6883  151.5273 H   0  0  0  0  0  0  0  0  0  0  0  0
  144.2739  133.8165  150.1629 H   0  0  0  0  0  0  0  0  0  0  0  0
  146.6237  133.1442  151.3288 H   0  0  0  0  0  0  0  0  0  0  0  0
  146.3120  134.8143  150.8788 H   0  0  0  0  0  0  0  0  0  0  0  0
  147.5927  135.4804  152.8566 H   0  0  0  0  0  0  0  0  0  0  0  0
  146.2024  132.4004  153.7345 H   0  0  0  0  0  0  0  0  0  0  0  0
  147.6991  133.2935  153.6845 H   0  0  0  0  0  0  0  0  0  0  0  0
  144.3668  133.5439  155.6243 H   0  0  0  0  0  0  0  0  0  0  0  0
  145.1005  134.5900  159.5525 H   0  0  0  0  0  0  0  0  0  0  0  0
  145.2742  132.3340  161.0270 H   0  0  0  0  0  0  0  0  0  0  0  0
  145.9508  132.2695  159.3961 H   0  0  0  0  0  0  0  0  0  0  0  0
  147.4891  132.1280  161.8931 H   0  0  0  0  0  0  0  0  0  0  0  0
  148.0873  132.0662  160.2364 H   0  0  0  0  0  0  0  0  0  0  0  0
  148.9703  134.2379  161.0374 H   0  0  0  0  0  0  0  0  0  0  0  0
  147.1583  134.1067  163.0618 H   0  0  0  0  0  0  0  0  0  0  0  0
  147.2628  136.5357  163.4820 H   0  0  0  0  0  0  0  0  0  0  0  0
  148.8254  135.9871  162.8978 H   0  0  0  0  0  0  0  0  0  0  0  0
  147.6909  136.5590  160.7372 H   0  0  0  0  0  0  0  0  0  0  0  0
  145.4510  135.9640  161.5364 H   0  0  0  0  0  0  0  0  0  0  0  0
  144.9882  134.4086  162.2256 H   0  0  0  0  0  0  0  0  0  0  0  0
  150.5782  134.5270  157.0023 H   0  0  0  0  0  0  0  0  0  0  0  0
  1  2  1  0  0  0  0
  1 27  1  0  0  0  0
  1 28  1  0  0  0  0
  1 29  1  0  0  0  0
  2  6  1  0  0  0  0
  2  3  1  0  0  0  0
  2 30  1  0  0  0  0
  3  4  1  0  0  0  0
  4  5  1  0  0  0  0
  4 31  1  0  0  0  0
  4 32  1  0  0  0  0
  5  6  1  0  0  0  0
  5 33  1  0  0  0  0
  5 34  1  0  0  0  0
  6  7  1  0  0  0  0
  6  8  1  0  0  0  0
  7 35  1  0  0  0  0
  8  9  1  0  0  0  0
  8 36  1  0  0  0  0
  8 37  1  0  0  0  0
  9 26  1  0  0  0  0
  9 10  1  0  0  0  0
 10 11  2  0  0  0  0
 10 38  1  0  0  0  0
 11 12  1  0  0  0  0
 12 26  2  0  0  0  0
 12 13  1  0  0  0  0
 13 14  1  0  0  0  0
 13 23  2  0  0  0  0
 14 18  1  0  0  0  0
 14 15  1  0  0  0  0
 15 22  1  0  0  0  0
 15 16  1  0  0  0  0
 15 39  1  0  0  0  0
 16 17  1  0  0  0  0
 16 40  1  0  0  0  0
 16 41  1  0  0  0  0
 17 18  1  0  0  0  0
 17 42  1  0  0  0  0
 17 43  1  0  0  0  0
 18 19  1  0  0  0  0
 18 44  1  0  0  0  0
 19 20  1  0  0  0  0
 19 22  1  0  0  0  0
 19 45  1  0  0  0  0
 20 21  1  0  0  0  0
 20 46  1  0  0  0  0
 20 47  1  0  0  0  0
 21 48  1  0  0  0  0
 22 49  1  0  0  0  0
 22 50  1  0  0  0  0
 23 24  1  0  0  0  0
 24 25  2  0  0  0  0
 24 51  1  0  0  0  0
 25 26  1  0  0  0  0
M  END
> <s_m_source_file>
AV-unprocessed.smi

> <i_m_source_file_index>
199

> <i_lp_mmshare_version>
43012

> <i_f3d_flags>
0

> <s_epik_input>
W0NIMl0xW0NIMl1PW0NAQEhdKFtDSDNdKVtDQEBdMShbT0hdKVtDSDJdbihbY0hdbjIpYyhjMjMpbltjSF1uYzNOKFtDQEBIXTQ1KVtDQEhdKFtDSDJdW0NIMl00KVtDQEhdKFtDSDJdNSlbQ0gyXVtPSF0=

> <s_epik_cmdline>
J2VwaWtfcHl0aG9uJywgJy1waCcsICc3LjAnLCAnLXRuJywgJzgnLCAnLW1hJywgJzIwMCcsICctbWV0YWxfYmluZGluZycsICctaW1hZScsICc8aW5maWxlLm1hZT4nLCAnLW9tYWUnLCAnPG91dGZpbGUubWFlPic=

> <r_lp_tautomer_probability>
1

> <r_epik_Ionization_Penalty>
0.00583903

> <r_epik_Ionization_Penalty_Charging>
0

> <r_epik_Ionization_Penalty_Neutral>
0.00583903

> <r_epik_State_Penalty>
-0

> <r_epik_Charging_Adjusted_Penalty>
0

> <i_epik_Tot_Q>
0

> <i_epik_Tot_abs_Q>
0

> <r_epik_Metal_State_Penalty>
-0

> <b_epik_Metal_Only>
0

> <s_lp_Force_Field>
OPLS_2005

> <r_lp_Energy>
83.4271

> <b_lp_Chiralities_Consistent>
1

> <s_lp_Variant>
AV-unprocessed.smi:199-2

> <Gold.Version>
5.8.1

> <Gold.Id.Protein>
6NUR|6NUR_protein|mol2

> <Gold.PLP.Fitness>
41.6021

> <Gold.PLP.PLP>
-27.9424

> <Gold.PLP.part.hbond>
-3.9968

> <Gold.PLP.part.metal>
0.0000

> <Gold.PLP.part.buried>
-5.2053

> <Gold.PLP.part.nonpolar>
-18.5365

> <Gold.PLP.part.repulsive>
0.1942

> <Gold.PLP.ligand.clash>
0.0000

> <Gold.PLP.ligand.torsion>
0.4236

> <Gold.PLP.Chemscore.Hbond>
3.8240

> <Gold.PLP.Chemscore.CHOScore>
0.9994

> <Gold.PLP.Chemscore.Metal>
0.0000

> <Gold.Chemscore.Hbonds>
donor molecule, donor type, donor heavy atom, donor atom, acceptor molecule, acceptor atom, score
      L1  H     7    35       P1  7948  0.82
      P1  H  6896  6909       L1    23  1.00
      P1  H  6931  6943       L1    21  1.00
      P1  H  6934  6947       L1    21  0.57
      L1  C    10    38       P1 10957  0.86

> <Gold.PLP.Chemscore.Internal.Correction>
0.0369

> <Gold.Rescore>
     Score         DG    S(hbond)    S(metal)    S(lipo)     H(rot)  DE(clash)    DE(int)     intcor
     12.73     -14.19       2.68        0.00      65.07       3.07       0.02       1.44       ----

> <Gold.Chemscore.Fitness>
12.7315

> <Gold.Chemscore.DG>
-14.1932

> <Gold.Chemscore.ZeroCoef>
-5.4800

> <Gold.Chemscore.Hbond>
2.6846

> <Gold.Chemscore.Metal>
0.0000

> <Gold.Chemscore.Lipo>
65.0716

> <Gold.Chemscore.Internal_Hbond>
0.0000

> <Gold.Chemscore.DEClash>
0.0211

> <Gold.Chemscore.DEInternal>
1.4406

> <Gold.Chemscore.Rot>
3.0729

> <Gold.Chemscore.Internal.Correction>
   9.000000E+99

> <Gold.Chemscore.Hbonds>
donor molecule, donor type, donor heavy atom, donor atom, acceptor molecule, acceptor atom, score
      L1  H     7    35       P1  7948  0.81
      P1  H  6896  6909       L1    23  0.34
      P1  H  6931  6943       L1    21  0.49
      P1  H  6934  6947       L1    21  0.22

> <Gold.Chemscore.Hbond.Weighted>
-8.9666

> <Gold.Chemscore.Metal.Weighted>
-0.0000

> <Gold.Chemscore.Lipo.Weighted>
-7.6134

> <Gold.Chemscore.Internal_Hbond.Weighted>
0.0000

> <Gold.Chemscore.DEClash.Weighted>
0.0211

> <Gold.Chemscore.DEInternal.Weighted>
1.4406

> <Gold.Chemscore.Rot.Weighted>
7.8667

> <Gold.Chemscore.Internal.Correction.Weighted>
   9.000000E+99

> <Gold.Protein.RotatedTorsions>
[ 6907 6896 6895 6894 ] final   36.50 input  -60.11 | X-H torsion
[ 7974 7965 7964 7962 ] final   75.40 input  175.53 | X-H torsion
[ 8008 7997 7996 7995 ] final  132.63 input   59.86 | X-H torsion
[ 10167 10162 10161 10158 ] final -159.99 input  -65.29 | X-H torsion
[ 10718 10713 10712 10709 ] final  144.78 input   66.30 | X-H torsion
[ 10763 10752 10751 10750 ] final -116.10 input  -60.55 | X-H torsion
[ 11005 11000 10999 10996 ] final  120.70 input  -57.11 | X-H torsion

> <Gold.Protein.ActiveResidues>
 VAL166  LYS551  ARG553  GLY616  TRP617  ASP618  TYR619  PRO620  LYS621  CYS622 
 ASP623  PHE694  ASN695  SER759  ASP760  ASP761  ALA762  ILE779  LEU786  VAL792 
 PHE793  MET794  SER795  GLU796  ALA797  LYS798  CYS799  TRP800  GLU811  SER814 

> <Gold.Protein.RotatedAtoms>
  152.1305  134.9138  160.0558 H   0  0  0  0  0  0  0  0  0  0  0  0  # atno 6907 bound_to 6896
  152.0244  133.3907  159.4279 H   0  0  0  0  0  0  0  0  0  0  0  0  # atno 6908 bound_to 6896
  150.6856  134.3512  159.4953 H   0  0  0  0  0  0  0  0  0  0  0  0  # atno 6909 bound_to 6896
  145.7161  139.2631  143.1623 H   0  0  0  0  0  0  0  0  0  0  0  0  # atno 7974 bound_to 7965
  156.2984  140.2541  156.3120 H   0  0  0  0  0  0  0  0  0  0  0  0  # atno 8008 bound_to 7997
  154.9317  140.0398  157.2070 H   0  0  0  0  0  0  0  0  0  0  0  0  # atno 8009 bound_to 7997
  154.8212  140.2860  155.5790 H   0  0  0  0  0  0  0  0  0  0  0  0  # atno 8010 bound_to 7997
  139.6573  143.9976  152.2202 H   0  0  0  0  0  0  0  0  0  0  0  0  # atno 10167 bound_to 10162
  157.3532  131.0954  151.0982 H   0  0  0  0  0  0  0  0  0  0  0  0  # atno 10718 bound_to 10713
  154.8506  135.4358  154.1767 H   0  0  0  0  0  0  0  0  0  0  0  0  # atno 10763 bound_to 10752
  153.2868  135.6958  153.7338 H   0  0  0  0  0  0  0  0  0  0  0  0  # atno 10764 bound_to 10752
  153.6521  135.3449  155.3077 H   0  0  0  0  0  0  0  0  0  0  0  0  # atno 10765 bound_to 10752
  139.9196  134.9636  156.7846 H   0  0  0  0  0  0  0  0  0  0  0  0  # atno 11005 bound_to 11000
  146.0669  140.7911  142.9707 LP  0  0  0  0  0  0  0  0  0  0  0  0  # atno 17320 bound_to 7965
  144.6929  140.3282  143.7220 LP  0  0  0  0  0  0  0  0  0  0  0  0  # atno 17321 bound_to 7965
  139.9705  144.6497  150.7993 LP  0  0  0  0  0  0  0  0  0  0  0  0  # atno 17342 bound_to 10162
  140.7565  143.3066  151.2946 LP  0  0  0  0  0  0  0  0  0  0  0  0  # atno 17343 bound_to 10162
  157.2150  130.6455  149.5789 LP  0  0  0  0  0  0  0  0  0  0  0  0  # atno 17370 bound_to 10713
  155.9725  130.4648  150.6229 LP  0  0  0  0  0  0  0  0  0  0  0  0  # atno 17371 bound_to 10713
  140.6516  133.9726  155.7758 LP  0  0  0  0  0  0  0  0  0  0  0  0  # atno 17394 bound_to 11000
  141.0704  134.0214  157.3534 LP  0  0  0  0  0  0  0  0  0  0  0  0  # atno 17395 bound_to 11000

$$$$
