AV-unprocessed.smi:1269|AV-procd|sdf|5330|dock3
  -GOLD-   22720 4463D 1   1.00000     0.00000
 Structure written by MMmdl.
 44 45  0  0  0  0  0  0  0  0  2 V2000
  152.6509  142.1653  159.3089 C   0  0  0  0  0  0  0  0  0  0  0  0
  152.9496  141.0389  158.4917 O   0  0  0  0  0  0  0  0  0  0  0  0
  152.1060  140.7518  157.4382 C   0  0  0  0  0  0  0  0  0  0  0  0
  150.8342  141.3569  157.4085 C   0  0  0  0  0  0  0  0  0  0  0  0
  149.9651  141.0674  156.3395 C   0  0  0  0  0  0  0  0  0  0  0  0
  150.3993  140.1808  155.3240 C   0  0  0  0  0  0  0  0  0  0  0  0
  149.6238  139.7898  154.1970 N   0  0  0  0  0  0  0  0  0  0  0  0
  148.3103  139.5158  154.1200 C   0  0  0  0  0  0  0  0  0  0  0  0
  147.5066  139.5929  155.0480 O   0  0  0  0  0  0  0  0  0  0  0  0
  147.9684  139.1320  152.8808 N   0  0  0  0  0  0  0  0  0  0  0  0
  146.6221  138.7724  152.4315 C   0  0  1  0  0  0  0  0  0  0  0  0
  146.6687  138.4350  150.9349 C   0  0  0  0  0  0  0  0  0  0  0  0
  146.0479  137.5947  153.2532 C   0  0  0  0  0  0  0  0  0  0  0  0
  146.5059  136.2677  152.7690 N   0  3  0  0  0  0  0  0  0  0  0  0
  146.6823  135.2700  153.8518 C   0  0  0  0  0  0  0  0  0  0  0  0
  147.2401  133.9581  153.2759 C   0  0  0  0  0  0  0  0  0  0  0  0
  146.3632  133.4714  152.2669 O   0  0  0  0  0  0  0  0  0  0  0  0
  146.2366  134.3843  151.1834 C   0  0  0  0  0  0  0  0  0  0  0  0
  145.6543  135.7147  151.6905 C   0  0  0  0  0  0  0  0  0  0  0  0
  151.6898  139.6251  155.4511 C   0  0  0  0  0  0  0  0  0  0  0  0
  152.5269  139.8971  156.4739 N   0  0  0  0  0  0  0  0  0  0  0  0
  153.4061  142.2546  160.0897 H   0  0  0  0  0  0  0  0  0  0  0  0
  151.6813  142.0582  159.7975 H   0  0  0  0  0  0  0  0  0  0  0  0
  152.6615  143.0909  158.7316 H   0  0  0  0  0  0  0  0  0  0  0  0
  150.5286  142.0304  158.1956 H   0  0  0  0  0  0  0  0  0  0  0  0
  148.9894  141.5251  156.3347 H   0  0  0  0  0  0  0  0  0  0  0  0
  150.1376  139.7252  153.3301 H   0  0  0  0  0  0  0  0  0  0  0  0
  148.6967  139.1026  152.1820 H   0  0  0  0  0  0  0  0  0  0  0  0
  145.9665  139.6378  152.5380 H   0  0  0  0  0  0  0  0  0  0  0  0
  145.6745  138.1959  150.5558 H   0  0  0  0  0  0  0  0  0  0  0  0
  147.3139  137.5778  150.7388 H   0  0  0  0  0  0  0  0  0  0  0  0
  147.0469  139.2764  150.3533 H   0  0  0  0  0  0  0  0  0  0  0  0
  146.2954  137.7029  154.3103 H   0  0  0  0  0  0  0  0  0  0  0  0
  144.9594  137.6397  153.1920 H   0  0  0  0  0  0  0  0  0  0  0  0
  147.3627  135.6501  154.6132 H   0  0  0  0  0  0  0  0  0  0  0  0
  145.7253  135.0852  154.3421 H   0  0  0  0  0  0  0  0  0  0  0  0
  148.2409  134.1067  152.8667 H   0  0  0  0  0  0  0  0  0  0  0  0
  147.3253  133.2081  154.0622 H   0  0  0  0  0  0  0  0  0  0  0  0
  147.2073  134.5401  150.7095 H   0  0  0  0  0  0  0  0  0  0  0  0
  145.5802  133.9495  150.4294 H   0  0  0  0  0  0  0  0  0  0  0  0
  144.6400  135.5646  152.0636 H   0  0  0  0  0  0  0  0  0  0  0  0
  145.5928  136.4242  150.8645 H   0  0  0  0  0  0  0  0  0  0  0  0
  152.0657  138.9376  154.7074 H   0  0  0  0  0  0  0  0  0  0  0  0
  147.4171  136.4163  152.3587 H   0  0  0  0  0  0  0  0  0  0  0  0
  1  2  1  0  0  0  0
  1 22  1  0  0  0  0
  1 23  1  0  0  0  0
  1 24  1  0  0  0  0
  2  3  1  0  0  0  0
  3 21  1  0  0  0  0
  3  4  2  0  0  0  0
  4  5  1  0  0  0  0
  4 25  1  0  0  0  0
  5  6  2  0  0  0  0
  5 26  1  0  0  0  0
  6  7  1  0  0  0  0
  6 20  1  0  0  0  0
  7  8  1  0  0  0  0
  7 27  1  0  0  0  0
  8  9  2  0  0  0  0
  8 10  1  0  0  0  0
 10 11  1  0  0  0  0
 10 28  1  0  0  0  0
 11 12  1  0  0  0  0
 11 13  1  0  0  0  0
 11 29  1  0  0  0  0
 12 30  1  0  0  0  0
 12 31  1  0  0  0  0
 12 32  1  0  0  0  0
 13 14  1  0  0  0  0
 13 33  1  0  0  0  0
 13 34  1  0  0  0  0
 14 19  1  0  0  0  0
 14 15  1  0  0  0  0
 14 44  1  0  0  0  0
 15 16  1  0  0  0  0
 15 35  1  0  0  0  0
 15 36  1  0  0  0  0
 16 17  1  0  0  0  0
 16 37  1  0  0  0  0
 16 38  1  0  0  0  0
 17 18  1  0  0  0  0
 18 19  1  0  0  0  0
 18 39  1  0  0  0  0
 18 40  1  0  0  0  0
 19 41  1  0  0  0  0
 19 42  1  0  0  0  0
 20 21  2  0  0  0  0
 20 43  1  0  0  0  0
M  CHG  1  14   1
M  END
> <s_m_source_file>
AV-unprocessed.smi

> <i_m_source_file_index>
1269

> <i_lp_mmshare_version>
43012

> <i_f3d_flags>
0

> <s_epik_input>
W0NIM11PYzFbY0hdW2NIXWMoW2NIXW4xKVtOSF1DKD1PKVtOSF1bQ0BIXShbQ0gzXSlbQ0gyXU4yW0NIMl1bQ0gyXU9bQ0gyXVtDSDJdMg==

> <s_epik_cmdline>
J2VwaWtfcHl0aG9uJywgJy1waCcsICc3LjAnLCAnLXRuJywgJzgnLCAnLW1hJywgJzIwMCcsICctbWV0YWxfYmluZGluZycsICctaW1hZScsICc8aW5maWxlLm1hZT4nLCAnLW9tYWUnLCAnPG91dGZpbGUubWFlPic=

> <r_lp_tautomer_probability>
1

> <r_epik_Ionization_Penalty>
0.602604

> <r_epik_Ionization_Penalty_Charging>
0.602531

> <r_epik_Ionization_Penalty_Neutral>
7.37831e-05

> <r_epik_State_Penalty>
0.617039

> <r_epik_Charging_Adjusted_Penalty>
1.21957

> <i_epik_Tot_Q>
1

> <i_epik_Tot_abs_Q>
1

> <r_epik_Metal_State_Penalty>
0.617045

> <b_epik_Metal_Only>
0

> <s_lp_Force_Field>
OPLS_2005

> <r_lp_Energy>
25.4329

> <b_lp_Chiralities_Consistent>
1

> <s_lp_Variant>
AV-unprocessed.smi:1269-4

> <Gold.Version>
5.8.1

> <Gold.Id.Protein>
6NUR|6NUR_protein|mol2

> <Gold.PLP.Fitness>
43.3136

> <Gold.PLP.PLP>
-32.0347

> <Gold.PLP.part.hbond>
-5.4556

> <Gold.PLP.part.metal>
0.0000

> <Gold.PLP.part.buried>
3.7074

> <Gold.PLP.part.nonpolar>
-29.4650

> <Gold.PLP.part.repulsive>
0.3909

> <Gold.PLP.ligand.clash>
0.0009

> <Gold.PLP.ligand.torsion>
1.1054

> <Gold.PLP.Chemscore.Hbond>
4.4703

> <Gold.PLP.Chemscore.CHOScore>
0.0000

> <Gold.PLP.Chemscore.Metal>
0.0000

> <Gold.Chemscore.Hbonds>
donor molecule, donor type, donor heavy atom, donor atom, acceptor molecule, acceptor atom, score
      L1  H     7    27       P1  7957  0.32
      L1  H    10    28       P1  7957  0.90
      L1  H    14    44       P1  7948  2.00
      P1  H  7997  8008       L1    21  1.00

> <Gold.PLP.Chemscore.Internal.Correction>
0.0796

> <Gold.Rescore>
     Score         DG    S(hbond)    S(metal)    S(lipo)     H(rot)  DE(clash)    DE(int)     intcor
     16.83     -20.82       3.29        0.00      76.23       1.78       2.24       1.75       ----

> <Gold.Chemscore.Fitness>
16.8299

> <Gold.Chemscore.DG>
-20.8204

> <Gold.Chemscore.ZeroCoef>
-5.4800

> <Gold.Chemscore.Hbond>
3.2871

> <Gold.Chemscore.Metal>
0.0000

> <Gold.Chemscore.Lipo>
76.2269

> <Gold.Chemscore.Internal_Hbond>
0.0000

> <Gold.Chemscore.DEClash>
2.2365

> <Gold.Chemscore.DEInternal>
1.7540

> <Gold.Chemscore.Rot>
1.7801

> <Gold.Chemscore.Internal.Correction>
   9.000000E+99

> <Gold.Chemscore.Hbonds>
donor molecule, donor type, donor heavy atom, donor atom, acceptor molecule, acceptor atom, score
      L1  H     7    27       P1  7957  0.32
      L1  H    10    28       P1  7957  0.87
      L1  H    14    44       P1  7948  0.99
      P1  H  7997  8008       L1    21  0.69

> <Gold.Chemscore.Hbond.Weighted>
-10.9788

> <Gold.Chemscore.Metal.Weighted>
-0.0000

> <Gold.Chemscore.Lipo.Weighted>
-8.9185

> <Gold.Chemscore.Internal_Hbond.Weighted>
0.0000

> <Gold.Chemscore.DEClash.Weighted>
2.2365

> <Gold.Chemscore.DEInternal.Weighted>
1.7540

> <Gold.Chemscore.Rot.Weighted>
4.5570

> <Gold.Chemscore.Internal.Correction.Weighted>
   9.000000E+99

> <Gold.Protein.RotatedTorsions>
[ 6907 6896 6895 6894 ] final  -86.48 input  -60.11 | X-H torsion
[ 7974 7965 7964 7962 ] final   25.91 input  175.53 | X-H torsion
[ 8008 7997 7996 7995 ] final  -29.56 input   59.86 | X-H torsion
[ 10167 10162 10161 10158 ] final  125.34 input  -65.29 | X-H torsion
[ 10718 10713 10712 10709 ] final  -75.46 input   66.30 | X-H torsion
[ 10763 10752 10751 10750 ] final -105.07 input  -60.55 | X-H torsion
[ 11005 11000 10999 10996 ] final  -78.91 input  -57.11 | X-H torsion

> <Gold.Protein.ActiveResidues>
 VAL166  LYS551  ARG553  GLY616  TRP617  ASP618  TYR619  PRO620  LYS621  CYS622 
 ASP623  PHE694  ASN695  SER759  ASP760  ASP761  ALA762  ILE779  LEU786  VAL792 
 PHE793  MET794  SER795  GLU796  ALA797  LYS798  CYS799  TRP800  GLU811  SER814 

> <Gold.Protein.RotatedAtoms>
  150.6867  134.3044  159.4719 H   0  0  0  0  0  0  0  0  0  0  0  0  # atno 6907 bound_to 6896
  152.0936  134.9387  160.0580 H   0  0  0  0  0  0  0  0  0  0  0  0  # atno 6908 bound_to 6896
  152.0694  133.4064  159.4489 H   0  0  0  0  0  0  0  0  0  0  0  0  # atno 6909 bound_to 6896
  146.1865  139.7401  142.8863 H   0  0  0  0  0  0  0  0  0  0  0  0  # atno 7974 bound_to 7965
  154.4285  140.1815  156.1267 H   0  0  0  0  0  0  0  0  0  0  0  0  # atno 8008 bound_to 7997
  156.0100  140.3351  155.6906 H   0  0  0  0  0  0  0  0  0  0  0  0  # atno 8009 bound_to 7997
  155.6124  140.0651  157.2693 H   0  0  0  0  0  0  0  0  0  0  0  0  # atno 8010 bound_to 7997
  139.5691  144.6928  151.3828 H   0  0  0  0  0  0  0  0  0  0  0  0  # atno 10167 bound_to 10162
  156.0207  130.4441  150.3046 H   0  0  0  0  0  0  0  0  0  0  0  0  # atno 10718 bound_to 10713
  154.7921  135.4763  154.0077 H   0  0  0  0  0  0  0  0  0  0  0  0  # atno 10763 bound_to 10752
  153.1647  135.6815  153.8699 H   0  0  0  0  0  0  0  0  0  0  0  0  # atno 10764 bound_to 10752
  153.8301  135.3193  155.3396 H   0  0  0  0  0  0  0  0  0  0  0  0  # atno 10765 bound_to 10752
  141.1666  133.7083  156.8042 H   0  0  0  0  0  0  0  0  0  0  0  0  # atno 11005 bound_to 11000
  145.3924  141.0374  143.3117 LP  0  0  0  0  0  0  0  0  0  0  0  0  # atno 17320 bound_to 7965
  144.8406  139.5478  143.6902 LP  0  0  0  0  0  0  0  0  0  0  0  0  # atno 17321 bound_to 7965
  140.6975  143.7713  150.7350 LP  0  0  0  0  0  0  0  0  0  0  0  0  # atno 17342 bound_to 10162
  140.1213  143.4609  152.2311 LP  0  0  0  0  0  0  0  0  0  0  0  0  # atno 17343 bound_to 10162
  157.1149  131.0231  151.3033 LP  0  0  0  0  0  0  0  0  0  0  0  0  # atno 17370 bound_to 10713
  157.4675  130.7689  149.7292 LP  0  0  0  0  0  0  0  0  0  0  0  0  # atno 17371 bound_to 10713
  140.2234  134.8740  157.3401 LP  0  0  0  0  0  0  0  0  0  0  0  0  # atno 17394 bound_to 11000
  140.1965  134.4308  155.7686 LP  0  0  0  0  0  0  0  0  0  0  0  0  # atno 17395 bound_to 11000

$$$$
