#       Name:                AV-unprocessed.smi:2355
#       Creating user name   scv26
#       Creation time:       Fri Mar 27 13:02:33 2020


#       File generated by GOLD software.
#

@<TRIPOS>MOLECULE
AV-unprocessed.smi:2355
    54    55     1
SMALL
NO_CHARGES


@<TRIPOS>ATOM
      1 ****        -5.9887   0.6930   1.8160 C.3            1 S1                 0.0000
      2 ****        -4.6160   1.1481   1.3680 C.ar           1 S1                 0.0000
      3 ****        -4.4461   2.3744   0.6976 C.ar           1 S1                 0.0000
      4 ****        -3.1450   2.7412   0.3017 C.ar           1 S1                 0.0000
      5 ****        -2.8894   4.0462  -0.4224 C.3            1 S1                 0.0000
      6 ****        -2.0604   1.9707   0.5323 N.ar           1 S1                 0.0000
      7 ****        -2.2119   0.7883   1.1792 C.ar           1 S1                 0.0000
      8 ****        -1.1365  -0.0937   1.4674 N.am           1 S1                 0.0000
      9 ****         0.1637   0.0616   1.1633 C.2            1 S1                 0.0000
     10 ****         0.6522   1.0466   0.6082 O.2            1 S1                 0.0000
     11 ****         0.8832  -1.0119   1.5253 N.am           1 S1                 0.0000
     12 ****         2.3240  -1.1845   1.3237 C.3            1 S1                 0.0000
     13 ****         2.9077  -1.9895   2.4967 C.3            1 S1                 0.0000
     14 ****         2.6495  -1.7959  -0.0732 C.3            1 S1                 0.0000
     15 ****         2.0149  -3.1992  -0.2411 C.3            1 S1                 0.0000
     16 ****         2.2830  -0.8304  -1.1617 N.4            1 S1                 1.0000
     17 ****         3.3196   0.2119  -1.3810 C.3            1 S1                 0.0000
     18 ****         2.8173   1.2741  -2.3717 C.3            1 S1                 0.0000
     19 ****         2.4745   0.6479  -3.6000 O.3            1 S1                 0.0000
     20 ****         1.4253  -0.2955  -3.4330 C.3            1 S1                 0.0000
     21 ****         1.8687  -1.4088  -2.4679 C.3            1 S1                 0.0000
     22 ****        -3.4824   0.3463   1.6106 C.ar           1 S1                 0.0000
     23 ****        -6.6934   1.5247   1.8288 H              1 S1                 0.0000
     24 ****        -5.9434   0.2716   2.8206 H              1 S1                 0.0000
     25 ****        -6.3709  -0.0711   1.1390 H              1 S1                 0.0000
     26 ****        -5.2903   3.0165   0.4920 H              1 S1                 0.0000
     27 ****        -3.7833   4.6699  -0.4399 H              1 S1                 0.0000
     28 ****        -2.5869   3.8539  -1.4519 H              1 S1                 0.0000
     29 ****        -2.0949   4.6068   0.0711 H              1 S1                 0.0000
     30 ****        -1.3918  -0.9492   1.9383 H              1 S1                 0.0000
     31 ****         0.3977  -1.7741   1.9763 H              1 S1                 0.0000
     32 ****         2.7949  -0.2038   1.3947 H              1 S1                 0.0000
     33 ****         3.9764  -2.1594   2.3635 H              1 S1                 0.0000
     34 ****         2.4249  -2.9597   2.6131 H              1 S1                 0.0000
     35 ****         2.7788  -1.4517   3.4369 H              1 S1                 0.0000
     36 ****         3.7288  -1.9471  -0.1318 H              1 S1                 0.0000
     37 ****         2.3211  -3.8756   0.5556 H              1 S1                 0.0000
     38 ****         2.3300  -3.6782  -1.1681 H              1 S1                 0.0000
     39 ****         0.9253  -3.1584  -0.2339 H              1 S1                 0.0000
     40 ****         3.5842   0.6999  -0.4441 H              1 S1                 0.0000
     41 ****         4.2298  -0.2520  -1.7639 H              1 S1                 0.0000
     42 ****         1.9583   1.8120  -1.9670 H              1 S1                 0.0000
     43 ****         3.5974   2.0123  -2.5582 H              1 S1                 0.0000
     44 ****         0.5276   0.2031  -3.0634 H              1 S1                 0.0000
     45 ****         1.1745  -0.7197  -4.4051 H              1 S1                 0.0000
     46 ****         2.6943  -1.9761  -2.9003 H              1 S1                 0.0000
     47 ****         1.0274  -2.0899  -2.3434 H              1 S1                 0.0000
     48 ****        -3.5903  -0.5992   2.1224 H              1 S1                 0.0000
     49 ****         1.4659  -0.3443  -0.8187 H              1 S1                 0.0000
     50 ****        -1.1552   2.2686   0.2294 LP             1 S1                 0.0000
     51 ****         0.0674   1.8143   0.3465 LP             1 S1                 0.0000
     52 ****         1.6337   1.0785   0.4192 LP             1 S1                 0.0000
     53 ****         3.2799   0.1768  -3.9597 LP             1 S1                 0.0000
     54 ****         2.1802   1.3484  -4.2501 LP             1 S1                 0.0000
@<TRIPOS>BOND
    1    1    2 1     
    2    1   23 1     
    3    1   24 1     
    4    1   25 1     
    5    2   22 ar    
    6    2    3 ar    
    7    3    4 ar    
    8    3   26 1     
    9    4    5 1     
   10    4    6 ar    
   11    5   27 1     
   12    5   28 1     
   13    5   29 1     
   14    6    7 ar    
   15    7    8 1     
   16    7   22 ar    
   17    8    9 am    
   18    8   30 1     
   19    9   10 2     
   20    9   11 am    
   21   11   12 1     
   22   11   31 1     
   23   12   13 1     
   24   12   14 1     
   25   12   32 1     
   26   13   33 1     
   27   13   34 1     
   28   13   35 1     
   29   14   15 1     
   30   14   16 1     
   31   14   36 1     
   32   15   37 1     
   33   15   38 1     
   34   15   39 1     
   35   16   21 1     
   36   16   17 1     
   37   16   49 1     
   38   17   18 1     
   39   17   40 1     
   40   17   41 1     
   41   18   19 1     
   42   18   42 1     
   43   18   43 1     
   44   19   20 1     
   45   20   21 1     
   46   20   44 1     
   47   20   45 1     
   48   21   46 1     
   49   21   47 1     
   50   22   48 1     
   51    6   50 1     
   52   10   51 1     
   53   10   52 1     
   54   19   53 1     
   55   19   54 1     
@<TRIPOS>SUBSTRUCTURE
      1 S1             1
@<TRIPOS>SET
LONE_PAIRS      STATIC     ATOMS    <user>   **** ""
5 50 51 52 53 54
DONOR_HYDROGENS      STATIC     ATOMS    <user>   **** ""
3 30 31 49
ATOM$BLUE        STATIC     ATOMS    COLORGROUP SYSTEM
5 50 51 52 53 54
ATOM$RED        STATIC     ATOMS    COLORGROUP SYSTEM
3 30 31 49
