AV-unprocessed.smi:2360|AV-procd|sdf|9410|dock4
  -GOLD-   2272013 43D 1   1.00000     0.00000
 Structure written by MMmdl.
 34 35  0  0  0  0  0  0  0  0  1 V2000
  152.7781  143.1721  161.3942 C   0  0  0  0  0  0  0  0  0  0  0  0
  152.3987  142.2345  160.2617 C   0  0  0  0  0  0  0  0  0  0  0  0
  151.1474  142.4631  159.6823 N   0  0  0  0  0  0  0  0  0  0  0  0
  150.7413  141.7141  158.7102 C   0  0  0  0  0  0  0  0  0  0  0  0
  151.5261  140.6609  158.2105 N   0  0  0  0  0  0  0  0  0  0  0  0
  150.9512  139.8901  157.0940 C   0  0  0  0  0  0  0  0  0  0  0  0
  150.8135  140.7354  155.8071 C   0  0  1  0  0  0  0  0  0  0  0  0
  151.3383  140.0045  154.7170 O   0  0  0  0  0  0  0  0  0  0  0  0
  149.3627  141.1197  155.5589 C   0  0  0  0  0  0  0  0  0  0  0  0
  148.8219  141.0806  154.2546 C   0  0  0  0  0  0  0  0  0  0  0  0
  147.4758  141.4307  154.0330 C   0  0  0  0  0  0  0  0  0  0  0  0
  146.6618  141.8206  155.1138 C   0  0  0  0  0  0  0  0  0  0  0  0
  145.3675  142.1564  154.8995 F   0  0  0  0  0  0  0  0  0  0  0  0
  147.1949  141.8596  156.4169 C   0  0  0  0  0  0  0  0  0  0  0  0
  146.4143  142.2334  157.4585 F   0  0  0  0  0  0  0  0  0  0  0  0
  148.5412  141.5088  156.6386 C   0  0  0  0  0  0  0  0  0  0  0  0
  152.7579  140.3691  158.7193 C   0  0  0  0  0  0  0  0  0  0  0  0
  153.4402  139.4433  158.2765 O   0  0  0  0  0  0  0  0  0  0  0  0
  153.2082  141.2320  159.8237 C   0  0  0  0  0  0  0  0  0  0  0  0
  154.5810  140.9372  160.4155 C   0  0  0  0  0  0  0  0  0  0  0  0
  153.6861  143.7223  161.1466 H   0  0  0  0  0  0  0  0  0  0  0  0
  152.9491  142.6111  162.3132 H   0  0  0  0  0  0  0  0  0  0  0  0
  151.9896  143.8999  161.5888 H   0  0  0  0  0  0  0  0  0  0  0  0
  149.7766  141.8540  158.2191 H   0  0  0  0  0  0  0  0  0  0  0  0
  151.5094  138.9731  156.8963 H   0  0  0  0  0  0  0  0  0  0  0  0
  149.9621  139.5381  157.3951 H   0  0  0  0  0  0  0  0  0  0  0  0
  151.3979  141.6518  155.8994 H   0  0  0  0  0  0  0  0  0  0  0  0
  150.9177  139.1587  154.6920 H   0  0  0  0  0  0  0  0  0  0  0  0
  149.4381  140.7797  153.4200 H   0  0  0  0  0  0  0  0  0  0  0  0
  147.0676  141.3988  153.0335 H   0  0  0  0  0  0  0  0  0  0  0  0
  148.9393  141.5393  157.6423 H   0  0  0  0  0  0  0  0  0  0  0  0
  154.6047  139.9265  160.8237 H   0  0  0  0  0  0  0  0  0  0  0  0
  154.8605  141.6210  161.2152 H   0  0  0  0  0  0  0  0  0  0  0  0
  155.3465  141.0079  159.6422 H   0  0  0  0  0  0  0  0  0  0  0  0
  1  2  1  0  0  0  0
  1 21  1  0  0  0  0
  1 22  1  0  0  0  0
  1 23  1  0  0  0  0
  2 19  2  0  0  0  0
  2  3  1  0  0  0  0
  3  4  2  0  0  0  0
  4  5  1  0  0  0  0
  4 24  1  0  0  0  0
  5  6  1  0  0  0  0
  5 17  1  0  0  0  0
  6  7  1  0  0  0  0
  6 25  1  0  0  0  0
  6 26  1  0  0  0  0
  7  8  1  0  0  0  0
  7  9  1  0  0  0  0
  7 27  1  0  0  0  0
  8 28  1  0  0  0  0
  9 16  1  0  0  0  0
  9 10  2  0  0  0  0
 10 11  1  0  0  0  0
 10 29  1  0  0  0  0
 11 12  2  0  0  0  0
 11 30  1  0  0  0  0
 12 13  1  0  0  0  0
 12 14  1  0  0  0  0
 14 15  1  0  0  0  0
 14 16  2  0  0  0  0
 16 31  1  0  0  0  0
 17 18  2  0  0  0  0
 17 19  1  0  0  0  0
 19 20  1  0  0  0  0
 20 32  1  0  0  0  0
 20 33  1  0  0  0  0
 20 34  1  0  0  0  0
M  END
> <s_m_source_file>
AV-unprocessed.smi

> <i_m_source_file_index>
2360

> <i_lp_mmshare_version>
43012

> <i_f3d_flags>
0

> <s_epik_input>
W0NIM11jMW5bY0hdbihjKD1PKWMxW0NIM10pW0NIMl1bQ0BIXShbT0hdKWMyW2NIXVtjSF1jKEYpYyhGKVtjSF0y

> <s_epik_cmdline>
J2VwaWtfcHl0aG9uJywgJy1waCcsICc3LjAnLCAnLXRuJywgJzgnLCAnLW1hJywgJzIwMCcsICctbWV0YWxfYmluZGluZycsICctaW1hZScsICc8aW5maWxlLm1hZT4nLCAnLW9tYWUnLCAnPG91dGZpbGUubWFlPic=

> <r_lp_tautomer_probability>
1

> <r_epik_Ionization_Penalty>
5.07449e-05

> <r_epik_Ionization_Penalty_Charging>
7.56727e-08

> <r_epik_Ionization_Penalty_Neutral>
5.06692e-05

> <r_epik_State_Penalty>
-0

> <r_epik_Charging_Adjusted_Penalty>
7.56727e-08

> <i_epik_Tot_Q>
0

> <i_epik_Tot_abs_Q>
0

> <r_epik_Metal_State_Penalty>
-0

> <b_epik_Metal_Only>
0

> <s_lp_Force_Field>
OPLS_2005

> <r_lp_Energy>
19.5716

> <b_lp_Chiralities_Consistent>
1

> <s_lp_Variant>
AV-unprocessed.smi:2360-2

> <Gold.Version>
5.8.1

> <Gold.Id.Protein>
6NUR|6NUR_protein|mol2

> <Gold.PLP.Fitness>
45.3428

> <Gold.PLP.PLP>
-41.7801

> <Gold.PLP.part.hbond>
-2.8589

> <Gold.PLP.part.metal>
0.0000

> <Gold.PLP.part.buried>
-5.2726

> <Gold.PLP.part.nonpolar>
-34.8124

> <Gold.PLP.part.repulsive>
0.0017

> <Gold.PLP.ligand.clash>
0.0000

> <Gold.PLP.ligand.torsion>
1.2116

> <Gold.PLP.Chemscore.Hbond>
1.9913

> <Gold.PLP.Chemscore.CHOScore>
0.0000

> <Gold.PLP.Chemscore.Metal>
0.0000

> <Gold.Chemscore.Hbonds>
donor molecule, donor type, donor heavy atom, donor atom, acceptor molecule, acceptor atom, score
      P1  H  7989  7998       L1     8  0.98
      P1  H  7997  8010       L1    18  1.00

> <Gold.PLP.Chemscore.Internal.Correction>
0.0121

> <Gold.Rescore>
     Score         DG    S(hbond)    S(metal)    S(lipo)     H(rot)  DE(clash)    DE(int)     intcor
     15.25     -16.30       1.88        0.00      84.92       2.11       0.00       1.05       ----

> <Gold.Chemscore.Fitness>
15.2472

> <Gold.Chemscore.DG>
-16.2954

> <Gold.Chemscore.ZeroCoef>
-5.4800

> <Gold.Chemscore.Hbond>
1.8806

> <Gold.Chemscore.Metal>
0.0000

> <Gold.Chemscore.Lipo>
84.9152

> <Gold.Chemscore.Internal_Hbond>
0.0000

> <Gold.Chemscore.DEClash>
0.0000

> <Gold.Chemscore.DEInternal>
1.0482

> <Gold.Chemscore.Rot>
2.1097

> <Gold.Chemscore.Internal.Correction>
   9.000000E+99

> <Gold.Chemscore.Hbonds>
donor molecule, donor type, donor heavy atom, donor atom, acceptor molecule, acceptor atom, score
      P1  H  7989  7998       L1     8  0.80
      P1  H  7997  8010       L1    18  0.85

> <Gold.Chemscore.Hbond.Weighted>
-6.2813

> <Gold.Chemscore.Metal.Weighted>
-0.0000

> <Gold.Chemscore.Lipo.Weighted>
-9.9351

> <Gold.Chemscore.Internal_Hbond.Weighted>
0.0000

> <Gold.Chemscore.DEClash.Weighted>
0.0000

> <Gold.Chemscore.DEInternal.Weighted>
1.0482

> <Gold.Chemscore.Rot.Weighted>
5.4009

> <Gold.Chemscore.Internal.Correction.Weighted>
   9.000000E+99

> <Gold.Protein.RotatedTorsions>
[ 6907 6896 6895 6894 ] final  -44.49 input  -60.11 | X-H torsion
[ 7974 7965 7964 7962 ] final -120.86 input  175.53 | X-H torsion
[ 8008 7997 7996 7995 ] final   20.27 input   59.86 | X-H torsion
[ 10167 10162 10161 10158 ] final  139.47 input  -65.29 | X-H torsion
[ 10718 10713 10712 10709 ] final  115.93 input   66.30 | X-H torsion
[ 10763 10752 10751 10750 ] final -120.57 input  -60.55 | X-H torsion
[ 11005 11000 10999 10996 ] final  159.79 input  -57.11 | X-H torsion

> <Gold.Protein.ActiveResidues>
 VAL166  LYS551  ARG553  GLY616  TRP617  ASP618  TYR619  PRO620  LYS621  CYS622 
 ASP623  PHE694  ASN695  SER759  ASP760  ASP761  ALA762  ILE779  LEU786  VAL792 
 PHE793  MET794  SER795  GLU796  ALA797  LYS798  CYS799  TRP800  GLU811  SER814 

> <Gold.Protein.RotatedAtoms>
  150.9323  134.8737  159.7558 H   0  0  0  0  0  0  0  0  0  0  0  0  # atno 6907 bound_to 6896
  152.5043  134.4062  159.9443 H   0  0  0  0  0  0  0  0  0  0  0  0  # atno 6908 bound_to 6896
  151.4088  133.3694  159.2776 H   0  0  0  0  0  0  0  0  0  0  0  0  # atno 6909 bound_to 6896
  145.0467  140.8186  143.4234 H   0  0  0  0  0  0  0  0  0  0  0  0  # atno 7974 bound_to 7965
  154.9331  140.3043  155.5158 H   0  0  0  0  0  0  0  0  0  0  0  0  # atno 8008 bound_to 7997
  156.3002  140.2350  156.4329 H   0  0  0  0  0  0  0  0  0  0  0  0  # atno 8009 bound_to 7997
  154.8218  140.0423  157.1405 H   0  0  0  0  0  0  0  0  0  0  0  0  # atno 8010 bound_to 7997
  139.5078  144.6293  151.5859 H   0  0  0  0  0  0  0  0  0  0  0  0  # atno 10167 bound_to 10162
  157.6192  131.1019  150.7400 H   0  0  0  0  0  0  0  0  0  0  0  0  # atno 10718 bound_to 10713
  154.8647  135.4198  154.2480 H   0  0  0  0  0  0  0  0  0  0  0  0  # atno 10763 bound_to 10752
  153.3432  135.6995  153.6855 H   0  0  0  0  0  0  0  0  0  0  0  0  # atno 10764 bound_to 10752
  153.5825  135.3570  155.2853 H   0  0  0  0  0  0  0  0  0  0  0  0  # atno 10765 bound_to 10752
  140.1996  134.8348  157.3003 H   0  0  0  0  0  0  0  0  0  0  0  0  # atno 11005 bound_to 11000
  145.1579  139.2475  143.5407 LP  0  0  0  0  0  0  0  0  0  0  0  0  # atno 17320 bound_to 7965
  146.3514  140.1299  142.8597 LP  0  0  0  0  0  0  0  0  0  0  0  0  # atno 17321 bound_to 7965
  140.6020  143.9593  150.6392 LP  0  0  0  0  0  0  0  0  0  0  0  0  # atno 17342 bound_to 10162
  140.2808  143.3391  152.1153 LP  0  0  0  0  0  0  0  0  0  0  0  0  # atno 17343 bound_to 10162
  156.7760  130.4844  149.5409 LP  0  0  0  0  0  0  0  0  0  0  0  0  # atno 17370 bound_to 10713
  156.1329  130.6190  151.0359 LP  0  0  0  0  0  0  0  0  0  0  0  0  # atno 17371 bound_to 10713
  140.2069  134.4186  155.7633 LP  0  0  0  0  0  0  0  0  0  0  0  0  # atno 17394 bound_to 11000
  141.2227  133.7099  156.8275 LP  0  0  0  0  0  0  0  0  0  0  0  0  # atno 17395 bound_to 11000

$$$$
