#       Name:                AV-unprocessed.smi:2996
#       Creating user name   scv26
#       Creation time:       Fri Mar 27 16:33:19 2020


#       File generated by GOLD software.
#

@<TRIPOS>MOLECULE
AV-unprocessed.smi:2996
    53    54     1
SMALL
NO_CHARGES


@<TRIPOS>ATOM
      1 ****        -5.2322  -0.3752   1.9186 C.3            1 S1                 0.0000
      2 ****        -4.2763   0.8162   2.0448 C.3            1 S1                 0.0000
      3 ****        -4.0963   1.5361   0.7366 C.2            1 S1                 0.0000
      4 ****        -4.9948   2.4211   0.3354 N.2            1 S1                 0.0000
      5 ****        -4.5550   2.8908  -0.9114 O.3            1 S1                 0.0000
      6 ****        -3.3911   2.2680  -1.2413 C.2            1 S1                 0.0000
      7 ****        -2.8180   2.6115  -2.5767 C.3            1 S1                 0.0000
      8 ****        -3.0526   1.4220  -0.2188 C.2            1 S1                 0.0000
      9 ****        -1.9548   0.5314  -0.1044 N.am           1 S1                 0.0000
     10 ****        -0.7111   0.7062  -0.5760 C.2            1 S1                 0.0000
     11 ****        -0.3182   1.7032  -1.1801 O.2            1 S1                 0.0000
     12 ****         0.0712  -0.3400  -0.2797 N.am           1 S1                 0.0000
     13 ****         1.4901  -0.4511  -0.6115 C.3            1 S1                 0.0000
     14 ****         1.9183  -1.8989  -0.7475 C.3            1 S1                 0.0000
     15 ****         3.4282  -1.8427  -0.4842 C.3            1 S1                 0.0000
     16 ****         3.9319  -3.0735   0.2852 C.3            1 S1                 0.0000
     17 ****         4.2299  -1.6379  -1.7808 C.3            1 S1                 0.0000
     18 ****         3.6316  -0.6865   0.3273 O.3            1 S1                 0.0000
     19 ****         2.4342   0.0716   0.4928 C.3            1 S1                 0.0000
     20 ****         2.7881   1.5556   0.3068 C.3            1 S1                 0.0000
     21 ****         1.9402  -0.1948   1.9304 C.3            1 S1                 0.0000
     22 ****        -5.3493  -0.8825   2.8763 H              1 S1                 0.0000
     23 ****        -4.8582  -1.1037   1.1986 H              1 S1                 0.0000
     24 ****        -6.2209  -0.0547   1.5888 H              1 S1                 0.0000
     25 ****        -4.6553   1.5053   2.8001 H              1 S1                 0.0000
     26 ****        -3.3118   0.4679   2.4151 H              1 S1                 0.0000
     27 ****        -2.3615   1.7376  -3.0415 H              1 S1                 0.0000
     28 ****        -2.0580   3.3872  -2.4837 H              1 S1                 0.0000
     29 ****        -3.5921   2.9793  -3.2506 H              1 S1                 0.0000
     30 ****        -2.1081  -0.2833   0.4713 H              1 S1                 0.0000
     31 ****        -0.3377  -1.1120   0.2259 H              1 S1                 0.0000
     32 ****         1.7005   0.0536  -1.5567 H              1 S1                 0.0000
     33 ****         1.4237  -2.5068   0.0120 H              1 S1                 0.0000
     34 ****         1.6672  -2.3255  -1.7193 H              1 S1                 0.0000
     35 ****         3.7779  -3.9873  -0.2892 H              1 S1                 0.0000
     36 ****         3.4113  -3.1866   1.2366 H              1 S1                 0.0000
     37 ****         4.9971  -2.9924   0.5033 H              1 S1                 0.0000
     38 ****         4.1086  -2.4846  -2.4570 H              1 S1                 0.0000
     39 ****         5.2947  -1.5312  -1.5714 H              1 S1                 0.0000
     40 ****         3.9103  -0.7408  -2.3117 H              1 S1                 0.0000
     41 ****         1.9111   2.1910   0.4309 H              1 S1                 0.0000
     42 ****         3.1974   1.7429  -0.6861 H              1 S1                 0.0000
     43 ****         3.5341   1.8764   1.0343 H              1 S1                 0.0000
     44 ****         1.0456   0.3839   2.1619 H              1 S1                 0.0000
     45 ****         2.7020   0.0809   2.6603 H              1 S1                 0.0000
     46 ****         1.7062  -1.2477   2.0882 H              1 S1                 0.0000
     47 ****        -5.8220   2.6995   0.8234 LP             1 S1                 0.0000
     48 ****        -4.4033   3.8780  -0.8620 LP             1 S1                 0.0000
     49 ****        -5.2474   2.6944  -1.6057 LP             1 S1                 0.0000
     50 ****        -0.9452   2.4630  -1.3522 LP             1 S1                 0.0000
     51 ****         0.6282   1.7539  -1.4992 LP             1 S1                 0.0000
     52 ****         4.3228  -0.1071  -0.1047 LP             1 S1                 0.0000
     53 ****         3.9559  -0.9775   1.2274 LP             1 S1                 0.0000
@<TRIPOS>BOND
    1    1    2 1     
    2    1   22 1     
    3    1   23 1     
    4    1   24 1     
    5    2    3 1     
    6    2   25 1     
    7    2   26 1     
    8    3    8 1     
    9    3    4 2     
   10    4    5 1     
   11    5    6 1     
   12    6    7 1     
   13    6    8 2     
   14    7   27 1     
   15    7   28 1     
   16    7   29 1     
   17    8    9 1     
   18    9   10 am    
   19    9   30 1     
   20   10   11 2     
   21   10   12 am    
   22   12   13 1     
   23   12   31 1     
   24   13   19 1     
   25   13   14 1     
   26   13   32 1     
   27   14   15 1     
   28   14   33 1     
   29   14   34 1     
   30   15   16 1     
   31   15   17 1     
   32   15   18 1     
   33   16   35 1     
   34   16   36 1     
   35   16   37 1     
   36   17   38 1     
   37   17   39 1     
   38   17   40 1     
   39   18   19 1     
   40   19   20 1     
   41   19   21 1     
   42   20   41 1     
   43   20   42 1     
   44   20   43 1     
   45   21   44 1     
   46   21   45 1     
   47   21   46 1     
   48    4   47 1     
   49    5   48 1     
   50    5   49 1     
   51   11   50 1     
   52   11   51 1     
   53   18   52 1     
   54   18   53 1     
@<TRIPOS>SUBSTRUCTURE
      1 S1             1
@<TRIPOS>SET
LONE_PAIRS      STATIC     ATOMS    <user>   **** ""
7 47 48 49 50 51 52 53
DONOR_HYDROGENS      STATIC     ATOMS    <user>   **** ""
2 30 31
ATOM$BLUE        STATIC     ATOMS    COLORGROUP SYSTEM
7 47 48 49 50 51 52 53
ATOM$RED        STATIC     ATOMS    COLORGROUP SYSTEM
2 30 31
