#       Name:                AV-unprocessed.smi:1236
#       Creating user name   scv26
#       Creation time:       Fri Mar 27 04:26:21 2020


#       File generated by GOLD software.
#

@<TRIPOS>MOLECULE
AV-unprocessed.smi:1236
    45    46     1
SMALL
NO_CHARGES


@<TRIPOS>ATOM
      1 ****        -0.4831   3.8315  -0.7953 C.3            1 S1                 0.0000
      2 ****        -0.1457   2.3375  -0.8921 C.3            1 S1                 0.0000
      3 ****         1.3840   2.1096  -0.9189 C.3            1 S1                 0.0000
      4 ****         1.7582   0.6782  -1.0469 N.4            1 S1                 1.0000
      5 ****         1.6484   0.1582  -2.4312 C.3            1 S1                 0.0000
      6 ****         1.9630  -1.3464  -2.4561 C.3            1 S1                 0.0000
      7 ****         3.2663  -1.5659  -1.9297 O.3            1 S1                 0.0000
      8 ****         3.3744  -1.1393  -0.5768 C.3            1 S1                 0.0000
      9 ****         3.0930   0.3705  -0.4831 C.3            1 S1                 0.0000
     10 ****        -0.7734   1.6352   0.2286 N.am           1 S1                 0.0000
     11 ****        -1.2599   0.3848   0.2017 C.2            1 S1                 0.0000
     12 ****        -1.2082  -0.3399  -0.7923 O.2            1 S1                 0.0000
     13 ****        -1.7869   0.0395   1.3894 N.am           1 S1                 0.0000
     14 ****        -2.3427  -1.2111   1.7700 C.ar           1 S1                 0.0000
     15 ****        -2.8340  -1.2709   3.0937 C.ar           1 S1                 0.0000
     16 ****        -3.4025  -2.4691   3.5683 C.ar           1 S1                 0.0000
     17 ****        -3.4638  -3.5783   2.7061 C.ar           1 S1                 0.0000
     18 ****        -2.9506  -3.4352   1.4038 C.ar           1 S1                 0.0000
     19 ****        -2.4045  -2.2881   0.9473 N.ar           1 S1                 0.0000
     20 ****        -0.0635   4.3836  -1.6369 H              1 S1                 0.0000
     21 ****        -0.0870   4.2717   0.1205 H              1 S1                 0.0000
     22 ****        -1.5617   3.9927  -0.8031 H              1 S1                 0.0000
     23 ****        -0.5794   1.9778  -1.8261 H              1 S1                 0.0000
     24 ****         1.8463   2.6804  -1.7257 H              1 S1                 0.0000
     25 ****         1.8007   2.5061   0.0083 H              1 S1                 0.0000
     26 ****         0.6454   0.3249  -2.8228 H              1 S1                 0.0000
     27 ****         2.3391   0.6954  -3.0831 H              1 S1                 0.0000
     28 ****         1.2238  -1.9087  -1.8828 H              1 S1                 0.0000
     29 ****         1.9263  -1.7220  -3.4788 H              1 S1                 0.0000
     30 ****         2.6825  -1.7037   0.0507 H              1 S1                 0.0000
     31 ****         4.3804  -1.3569  -0.2177 H              1 S1                 0.0000
     32 ****         3.8576   0.9312  -1.0228 H              1 S1                 0.0000
     33 ****         3.1377   0.6852   0.5604 H              1 S1                 0.0000
     34 ****        -0.8608   2.1544   1.0902 H              1 S1                 0.0000
     35 ****        -1.7780   0.7466   2.1096 H              1 S1                 0.0000
     36 ****        -2.7795  -0.4095   3.7435 H              1 S1                 0.0000
     37 ****        -3.7846  -2.5345   4.5764 H              1 S1                 0.0000
     38 ****        -3.8925  -4.5139   3.0340 H              1 S1                 0.0000
     39 ****        -2.9774  -4.2627   0.7103 H              1 S1                 0.0000
     40 ****         1.0921   0.1618  -0.4897 H              1 S1                 0.0000
     41 ****         3.9272  -1.0579  -2.4821 LP             1 S1                 0.0000
     42 ****         3.4733  -2.5431  -1.9775 LP             1 S1                 0.0000
     43 ****        -0.7875  -0.0037  -1.6349 LP             1 S1                 0.0000
     44 ****        -1.5868  -1.2648  -0.7570 LP             1 S1                 0.0000
     45 ****        -2.0498  -2.2329   0.0139 LP             1 S1                 0.0000
@<TRIPOS>BOND
    1    1    2 1     
    2    1   20 1     
    3    1   21 1     
    4    1   22 1     
    5    2    3 1     
    6    2   10 1     
    7    2   23 1     
    8    3    4 1     
    9    3   24 1     
   10    3   25 1     
   11    4    9 1     
   12    4    5 1     
   13    4   40 1     
   14    5    6 1     
   15    5   26 1     
   16    5   27 1     
   17    6    7 1     
   18    6   28 1     
   19    6   29 1     
   20    7    8 1     
   21    8    9 1     
   22    8   30 1     
   23    8   31 1     
   24    9   32 1     
   25    9   33 1     
   26   10   11 am    
   27   10   34 1     
   28   11   12 2     
   29   11   13 am    
   30   13   14 1     
   31   13   35 1     
   32   14   19 ar    
   33   14   15 ar    
   34   15   16 ar    
   35   15   36 1     
   36   16   17 ar    
   37   16   37 1     
   38   17   18 ar    
   39   17   38 1     
   40   18   19 ar    
   41   18   39 1     
   42    7   41 1     
   43    7   42 1     
   44   12   43 1     
   45   12   44 1     
   46   19   45 1     
@<TRIPOS>SUBSTRUCTURE
      1 S1             1
@<TRIPOS>SET
LONE_PAIRS      STATIC     ATOMS    <user>   **** ""
5 41 42 43 44 45
DONOR_HYDROGENS      STATIC     ATOMS    <user>   **** ""
3 40 34 35
ATOM$BLUE        STATIC     ATOMS    COLORGROUP SYSTEM
5 41 42 43 44 45
ATOM$RED        STATIC     ATOMS    COLORGROUP SYSTEM
3 40 34 35
