#       Name:                AV-unprocessed.smi:3208
#       Creating user name   scv26
#       Creation time:       Fri Mar 27 18:09:58 2020


#       File generated by GOLD software.
#

@<TRIPOS>MOLECULE
AV-unprocessed.smi:3208
    34    34     1
SMALL
NO_CHARGES


@<TRIPOS>ATOM
      1 ****        -4.8378   0.9112   0.6471 C.2            1 S1                 0.0000
      2 ****        -4.1406   0.4294  -0.3943 C.2            1 S1                 0.0000
      3 ****        -2.7671  -0.2079  -0.3165 C.3            1 S1                 0.0000
      4 ****        -2.2859  -0.2681   1.0227 O.3            1 S1                 0.0000
      5 ****        -1.0251  -0.9138   1.1839 C.3            1 S1                 0.0000
      6 ****        -0.8331  -1.1987   2.6797 C.3            1 S1                 0.0000
      7 ****         0.1091  -0.0232   0.6498 C.2            1 S1                 0.0000
      8 ****         0.0776   1.1854   0.8992 O.2            1 S1                 0.0000
      9 ****         1.0489  -0.7550  -0.0713 N.2            1 S1                 0.0000
     10 ****         2.0946  -0.2220  -0.6427 C.2            1 S1                 0.0000
     11 ****         2.3833   1.1532  -0.5969 N.pl3          1 S1                 0.0000
     12 ****         3.4894   1.7104  -1.2026 C.2            1 S1                 0.0000
     13 ****         4.3639   0.9645  -1.8797 C.2            1 S1                 0.0000
     14 ****         4.1390  -0.4632  -1.9759 C.2            1 S1                 0.0000
     15 ****         3.0347  -1.0848  -1.3810 C.2            1 S1                 0.0000
     16 ****         2.8805  -2.3235  -1.4899 O.co2          1 S1                -1.0000
     17 ****        -4.4510   0.8765   1.6549 H              1 S1                 0.0000
     18 ****        -5.8136   1.3505   0.5016 H              1 S1                 0.0000
     19 ****        -4.5734   0.4891  -1.3821 H              1 S1                 0.0000
     20 ****        -2.8327  -1.2139  -0.7331 H              1 S1                 0.0000
     21 ****        -2.0921   0.3667  -0.9513 H              1 S1                 0.0000
     22 ****        -1.0431  -1.8676   0.6521 H              1 S1                 0.0000
     23 ****         0.1126  -1.7086   2.8674 H              1 S1                 0.0000
     24 ****        -1.6317  -1.8379   3.0565 H              1 S1                 0.0000
     25 ****        -0.8414  -0.2791   3.2662 H              1 S1                 0.0000
     26 ****         3.5816   2.7796  -1.0826 H              1 S1                 0.0000
     27 ****         5.2253   1.4167  -2.3488 H              1 S1                 0.0000
     28 ****         4.8540  -1.0573  -2.5268 H              1 S1                 0.0000
     29 ****         1.7750   1.7911  -0.1054 H              1 S1                 0.0000
     30 ****        -2.9596  -0.7624   1.5720 LP             1 S1                 0.0000
     31 ****        -2.2003   0.6681   1.3635 LP             1 S1                 0.0000
     32 ****        -0.6744   1.5654   1.4379 LP             1 S1                 0.0000
     33 ****         0.8040   1.7845   0.5626 LP             1 S1                 0.0000
     34 ****         0.9155  -1.7424  -0.1561 LP             1 S1                 0.0000
@<TRIPOS>BOND
    1    1    2 2     
    2    1   17 1     
    3    1   18 1     
    4    2    3 1     
    5    2   19 1     
    6    3    4 1     
    7    3   20 1     
    8    3   21 1     
    9    4    5 1     
   10    5    6 1     
   11    5    7 1     
   12    5   22 1     
   13    6   23 1     
   14    6   24 1     
   15    6   25 1     
   16    7    8 2     
   17    7    9 1     
   18    9   10 2     
   19   10   15 1     
   20   10   11 1     
   21   11   29 1     
   22   11   12 1     
   23   12   26 1     
   24   12   13 2     
   25   13   27 1     
   26   13   14 1     
   27   14   15 2     
   28   14   28 1     
   29   15   16 ar    
   30    4   30 1     
   31    4   31 1     
   32    8   32 1     
   33    8   33 1     
   34    9   34 1     
@<TRIPOS>SUBSTRUCTURE
      1 S1             1
@<TRIPOS>SET
LONE_PAIRS      STATIC     ATOMS    <user>   **** ""
6 30 31 32 33 34 16
DONOR_HYDROGENS      STATIC     ATOMS    <user>   **** ""
1 29
ATOM$BLUE        STATIC     ATOMS    COLORGROUP SYSTEM
6 30 31 32 33 34 16
ATOM$RED        STATIC     ATOMS    COLORGROUP SYSTEM
1 29
