AV-unprocessed.smi:1099|AV-procd|sdf|4756|dock9
  -GOLD-   22720 3293D 1   1.00000     0.00000
 Structure written by MMmdl.
 41 43  0  0  0  0  0  0  0  0  1 V2000
  151.9514  145.1649  160.3939 C   0  0  0  0  0  0  0  0  0  0  0  0
  152.1996  144.1012  161.4683 C   0  0  0  0  0  0  0  0  0  0  0  0
  152.5077  142.7613  160.8881 C   0  0  0  0  0  0  0  0  0  0  0  0
  151.7637  142.1780  159.9445 N   0  0  0  0  0  0  0  0  0  0  0  0
  152.2757  140.9397  159.5438 C   0  0  0  0  0  0  0  0  0  0  0  0
  151.5583  140.1335  158.5045 C   0  0  0  0  0  0  0  0  0  0  0  0
  151.2617  140.9539  157.2381 C   0  0  0  0  0  0  0  0  0  0  0  0
  150.1411  140.4007  156.4868 N   0  0  0  0  0  0  0  0  0  0  0  0
  150.2202  139.8942  155.2468 C   0  0  0  0  0  0  0  0  0  0  0  0
  151.2696  139.8608  154.6028 O   0  0  0  0  0  0  0  0  0  0  0  0
  148.9037  139.3712  154.6455 C   0  0  1  0  0  0  0  0  0  0  0  0
  147.7075  139.3453  155.6292 C   0  0  0  0  0  0  0  0  0  0  0  0
  146.6179  140.1249  154.8690 C   0  0  1  0  0  0  0  0  0  0  0  0
  146.9691  141.6246  154.8594 C   0  0  0  0  0  0  0  0  0  0  0  0
  148.1235  141.6958  153.8430 C   0  0  0  0  0  0  0  0  0  0  0  0
  148.3396  140.2125  153.4695 C   0  0  2  0  0  0  0  0  0  0  0  0
  146.8950  139.7230  153.4249 C   0  0  0  0  0  0  0  0  0  0  0  0
  153.4356  140.5977  160.1933 C   0  0  0  0  0  0  0  0  0  0  0  0
  153.9284  141.8213  161.3310 S   0  0  0  0  0  0  0  0  0  0  0  0
  151.7342  146.1321  160.8477 H   0  0  0  0  0  0  0  0  0  0  0  0
  151.1052  144.8953  159.7614 H   0  0  0  0  0  0  0  0  0  0  0  0
  152.8245  145.2864  159.7523 H   0  0  0  0  0  0  0  0  0  0  0  0
  153.0302  144.4043  162.1065 H   0  0  0  0  0  0  0  0  0  0  0  0
  151.3252  144.0138  162.1145 H   0  0  0  0  0  0  0  0  0  0  0  0
  152.1519  139.2573  158.2403 H   0  0  0  0  0  0  0  0  0  0  0  0
  150.6264  139.7468  158.9189 H   0  0  0  0  0  0  0  0  0  0  0  0
  151.0605  141.9951  157.4959 H   0  0  0  0  0  0  0  0  0  0  0  0
  152.1351  140.9599  156.5852 H   0  0  0  0  0  0  0  0  0  0  0  0
  149.2412  140.3973  156.9450 H   0  0  0  0  0  0  0  0  0  0  0  0
  149.0734  138.3523  154.2917 H   0  0  0  0  0  0  0  0  0  0  0  0
  147.3879  138.3170  155.8035 H   0  0  0  0  0  0  0  0  0  0  0  0
  147.9152  139.7861  156.6053 H   0  0  0  0  0  0  0  0  0  0  0  0
  145.6073  139.9158  155.2211 H   0  0  0  0  0  0  0  0  0  0  0  0
  146.1229  142.2239  154.5216 H   0  0  0  0  0  0  0  0  0  0  0  0
  147.2626  141.9843  155.8463 H   0  0  0  0  0  0  0  0  0  0  0  0
  147.8133  142.2628  152.9640 H   0  0  0  0  0  0  0  0  0  0  0  0
  149.0106  142.1884  154.2392 H   0  0  0  0  0  0  0  0  0  0  0  0
  148.8867  140.0735  152.5364 H   0  0  0  0  0  0  0  0  0  0  0  0
  146.8043  138.6497  153.2480 H   0  0  0  0  0  0  0  0  0  0  0  0
  146.2767  140.2565  152.7005 H   0  0  0  0  0  0  0  0  0  0  0  0
  154.0285  139.7032  160.0703 H   0  0  0  0  0  0  0  0  0  0  0  0
  1  2  1  0  0  0  0
  1 20  1  0  0  0  0
  1 21  1  0  0  0  0
  1 22  1  0  0  0  0
  2  3  1  0  0  0  0
  2 23  1  0  0  0  0
  2 24  1  0  0  0  0
  3 19  1  0  0  0  0
  3  4  2  0  0  0  0
  4  5  1  0  0  0  0
  5  6  1  0  0  0  0
  5 18  2  0  0  0  0
  6  7  1  0  0  0  0
  6 25  1  0  0  0  0
  6 26  1  0  0  0  0
  7  8  1  0  0  0  0
  7 27  1  0  0  0  0
  7 28  1  0  0  0  0
  8  9  1  0  0  0  0
  8 29  1  0  0  0  0
  9 10  2  0  0  0  0
  9 11  1  0  0  0  0
 11 16  1  0  0  0  0
 11 12  1  0  0  0  0
 11 30  1  0  0  0  0
 12 13  1  0  0  0  0
 12 31  1  0  0  0  0
 12 32  1  0  0  0  0
 13 17  1  0  0  0  0
 13 14  1  0  0  0  0
 13 33  1  0  0  0  0
 14 15  1  0  0  0  0
 14 34  1  0  0  0  0
 14 35  1  0  0  0  0
 15 16  1  0  0  0  0
 15 36  1  0  0  0  0
 15 37  1  0  0  0  0
 16 17  1  0  0  0  0
 16 38  1  0  0  0  0
 17 39  1  0  0  0  0
 17 40  1  0  0  0  0
 18 19  1  0  0  0  0
 18 41  1  0  0  0  0
M  END
> <s_m_source_file>
AV-unprocessed.smi

> <i_m_source_file_index>
1099

> <i_lp_mmshare_version>
43012

> <i_f3d_flags>
0

> <s_epik_input>
W0NIM11bQ0gyXWMxbmMoW2NIXXMxKVtDSDJdW0NIMl1bTkhdQyg9TylbQ0BIXShbQ0gyXVtDQEBIXTIzKVtDQEBIXShbQ0gyXTMpW0NIMl1bQ0gyXTI=

> <s_epik_cmdline>
J2VwaWtfcHl0aG9uJywgJy1waCcsICc3LjAnLCAnLXRuJywgJzgnLCAnLW1hJywgJzIwMCcsICctbWV0YWxfYmluZGluZycsICctaW1hZScsICc8aW5maWxlLm1hZT4nLCAnLW9tYWUnLCAnPG91dGZpbGUubWFlPic=

> <r_epik_Ionization_Penalty>
0.00110131

> <r_epik_Ionization_Penalty_Charging>
0

> <r_epik_Ionization_Penalty_Neutral>
0.00110131

> <r_epik_State_Penalty>
0.00072257

> <r_epik_Charging_Adjusted_Penalty>
0.00072257

> <i_epik_Tot_Q>
0

> <i_epik_Tot_abs_Q>
0

> <r_epik_Metal_State_Penalty>
-0

> <b_epik_Metal_Only>
0

> <s_lp_Force_Field>
OPLS_2005

> <r_lp_Energy>
38.0082

> <b_lp_Chiralities_Consistent>
1

> <s_lp_Variant>
AV-unprocessed.smi:1099-2

> <Gold.Version>
5.8.1

> <Gold.Id.Protein>
6NUR|6NUR_protein|mol2

> <Gold.PLP.Fitness>
40.2104

> <Gold.PLP.PLP>
-37.9876

> <Gold.PLP.part.hbond>
-1.3642

> <Gold.PLP.part.metal>
0.0000

> <Gold.PLP.part.buried>
-1.1242

> <Gold.PLP.part.nonpolar>
-34.5778

> <Gold.PLP.part.repulsive>
0.1240

> <Gold.PLP.ligand.clash>
0.0000

> <Gold.PLP.ligand.torsion>
0.3863

> <Gold.PLP.Chemscore.Hbond>
0.9913

> <Gold.PLP.Chemscore.CHOScore>
0.0000

> <Gold.PLP.Chemscore.Metal>
0.0000

> <Gold.Chemscore.Hbonds>
donor molecule, donor type, donor heavy atom, donor atom, acceptor molecule, acceptor atom, score
      P1  H  7989  7998       L1    10  1.00

> <Gold.PLP.Chemscore.Internal.Correction>
0.0217

> <Gold.Rescore>
     Score         DG    S(hbond)    S(metal)    S(lipo)     H(rot)  DE(clash)    DE(int)     intcor
     16.31     -18.11       0.96        0.00     111.45       1.42       1.54       0.27       ----

> <Gold.Chemscore.Fitness>
16.3096

> <Gold.Chemscore.DG>
-18.1129

> <Gold.Chemscore.ZeroCoef>
-5.4800

> <Gold.Chemscore.Hbond>
0.9639

> <Gold.Chemscore.Metal>
0.0000

> <Gold.Chemscore.Lipo>
111.4494

> <Gold.Chemscore.Internal_Hbond>
0.0000

> <Gold.Chemscore.DEClash>
1.5370

> <Gold.Chemscore.DEInternal>
0.2663

> <Gold.Chemscore.Rot>
1.4165

> <Gold.Chemscore.Internal.Correction>
   9.000000E+99

> <Gold.Chemscore.Hbonds>
donor molecule, donor type, donor heavy atom, donor atom, acceptor molecule, acceptor atom, score
      P1  H  7989  7998       L1    10  0.93

> <Gold.Chemscore.Hbond.Weighted>
-3.2195

> <Gold.Chemscore.Metal.Weighted>
-0.0000

> <Gold.Chemscore.Lipo.Weighted>
-13.0396

> <Gold.Chemscore.Internal_Hbond.Weighted>
0.0000

> <Gold.Chemscore.DEClash.Weighted>
1.5370

> <Gold.Chemscore.DEInternal.Weighted>
0.2663

> <Gold.Chemscore.Rot.Weighted>
3.6262

> <Gold.Chemscore.Internal.Correction.Weighted>
   9.000000E+99

> <Gold.Protein.RotatedTorsions>
[ 6907 6896 6895 6894 ] final -109.10 input  -60.11 | X-H torsion
[ 7974 7965 7964 7962 ] final -165.68 input  175.53 | X-H torsion
[ 8008 7997 7996 7995 ] final  100.84 input   59.86 | X-H torsion
[ 10167 10162 10161 10158 ] final    1.56 input  -65.29 | X-H torsion
[ 10718 10713 10712 10709 ] final  -99.52 input   66.30 | X-H torsion
[ 10763 10752 10751 10750 ] final  166.10 input  -60.55 | X-H torsion
[ 11005 11000 10999 10996 ] final -161.06 input  -57.11 | X-H torsion

> <Gold.Protein.ActiveResidues>
 VAL166  LYS551  ARG553  GLY616  TRP617  ASP618  TYR619  PRO620  LYS621  CYS622 
 ASP623  PHE694  ASN695  SER759  ASP760  ASP761  ALA762  ILE779  LEU786  VAL792 
 PHE793  MET794  SER795  GLU796  ALA797  LYS798  CYS799  TRP800  GLU811  SER814 

> <Gold.Protein.RotatedAtoms>
  150.7542  133.9578  159.3505 H   0  0  0  0  0  0  0  0  0  0  0  0  # atno 6907 bound_to 6896
  151.7502  135.0832  160.0339 H   0  0  0  0  0  0  0  0  0  0  0  0  # atno 6908 bound_to 6896
  152.3471  133.6098  159.5954 H   0  0  0  0  0  0  0  0  0  0  0  0  # atno 6909 bound_to 6896
  144.7264  140.2779  143.6240 H   0  0  0  0  0  0  0  0  0  0  0  0  # atno 7974 bound_to 7965
  156.1242  140.3207  155.8252 H   0  0  0  0  0  0  0  0  0  0  0  0  # atno 8008 bound_to 7997
  155.4450  140.0528  157.3024 H   0  0  0  0  0  0  0  0  0  0  0  0  # atno 8009 bound_to 7997
  154.4850  140.2069  155.9690 H   0  0  0  0  0  0  0  0  0  0  0  0  # atno 8010 bound_to 7997
  140.6677  143.7135  150.7859 H   0  0  0  0  0  0  0  0  0  0  0  0  # atno 10167 bound_to 10162
  156.0136  130.5286  150.6682 H   0  0  0  0  0  0  0  0  0  0  0  0  # atno 10718 bound_to 10713
  154.3339  135.2754  155.2458 H   0  0  0  0  0  0  0  0  0  0  0  0  # atno 10763 bound_to 10752
  154.4758  135.5871  153.6357 H   0  0  0  0  0  0  0  0  0  0  0  0  # atno 10764 bound_to 10752
  152.9864  135.6099  154.3534 H   0  0  0  0  0  0  0  0  0  0  0  0  # atno 10765 bound_to 10752
  140.6246  134.4715  157.5226 H   0  0  0  0  0  0  0  0  0  0  0  0  # atno 11005 bound_to 11000
  145.7979  139.1952  143.2065 LP  0  0  0  0  0  0  0  0  0  0  0  0  # atno 17320 bound_to 7965
  146.0701  140.7878  142.9692 LP  0  0  0  0  0  0  0  0  0  0  0  0  # atno 17321 bound_to 7965
  140.0815  143.4964  152.2527 LP  0  0  0  0  0  0  0  0  0  0  0  0  # atno 17342 bound_to 10162
  139.5932  144.7557  151.3350 LP  0  0  0  0  0  0  0  0  0  0  0  0  # atno 17343 bound_to 10162
  157.4410  131.0861  151.0943 LP  0  0  0  0  0  0  0  0  0  0  0  0  # atno 17370 bound_to 10713
  157.1488  130.6175  149.5576 LP  0  0  0  0  0  0  0  0  0  0  0  0  # atno 17371 bound_to 10713
  139.9140  134.8285  156.1430 LP  0  0  0  0  0  0  0  0  0  0  0  0  # atno 17394 bound_to 11000
  141.0718  133.6793  156.2156 LP  0  0  0  0  0  0  0  0  0  0  0  0  # atno 17395 bound_to 11000

$$$$
