#       Name:                AV-unprocessed.smi:1634
#       Creating user name   scv26
#       Creation time:       Fri Mar 27 07:22:15 2020


#       File generated by GOLD software.
#

@<TRIPOS>MOLECULE
AV-unprocessed.smi:1634
    44    44     1
SMALL
NO_CHARGES


@<TRIPOS>ATOM
      1 ****        -4.0314   1.1217  -1.8278 C.3            1 S1                 0.0000
      2 ****        -3.3435  -0.2429  -1.6746 C.3            1 S1                 0.0000
      3 ****        -3.8428  -0.9674  -0.4145 C.3            1 S1                 0.0000
      4 ****        -1.8141  -0.0905  -1.6678 C.3            1 S1                 0.0000
      5 ****        -1.2135  -1.3805  -1.7189 O.3            1 S1                 0.0000
      6 ****         0.2113  -1.3932  -1.7548 C.3            1 S1                 0.0000
      7 ****         0.6522  -2.8122  -2.1433 C.3            1 S1                 0.0000
      8 ****         0.7831  -0.9841  -0.3876 C.2            1 S1                 0.0000
      9 ****         0.6093  -1.7201   0.5835 O.2            1 S1                 0.0000
     10 ****         1.4212   0.2027  -0.3655 N.am           1 S1                 0.0000
     11 ****         2.0413   0.8768   0.7007 C.2            1 S1                 0.0000
     12 ****         2.3148   0.3328   1.9193 C.2            1 S1                 0.0000
     13 ****         2.9663   1.0902   2.9813 C.2            1 S1                 0.0000
     14 ****         3.2672   0.5417   4.3640 C.3            1 S1                 0.0000
     15 ****         4.5819   0.5398   4.5812 F              1 S1                 0.0000
     16 ****         2.6965   1.3029   5.2974 F              1 S1                 0.0000
     17 ****         2.8161  -0.7051   4.5034 F              1 S1                 0.0000
     18 ****         3.2655   2.3823   2.5987 C.2            1 S1                 0.0000
     19 ****         3.0426   2.9920   1.4142 N.pl3          1 S1                -1.0000
     20 ****         2.4286   2.2773   0.4294 C.2            1 S1                 0.0000
     21 ****         2.1932   2.7724  -0.6734 O.2            1 S1                 0.0000
     22 ****        -3.7958   1.7797  -0.9906 H              1 S1                 0.0000
     23 ****        -5.1156   1.0137  -1.8719 H              1 S1                 0.0000
     24 ****        -3.7143   1.6221  -2.7433 H              1 S1                 0.0000
     25 ****        -3.6165  -0.8471  -2.5407 H              1 S1                 0.0000
     26 ****        -3.5917  -0.4099   0.4883 H              1 S1                 0.0000
     27 ****        -3.3995  -1.9596  -0.3251 H              1 S1                 0.0000
     28 ****        -4.9254  -1.0948  -0.4369 H              1 S1                 0.0000
     29 ****        -1.4943   0.4869  -2.5364 H              1 S1                 0.0000
     30 ****        -1.5030   0.4607  -0.7794 H              1 S1                 0.0000
     31 ****         0.5604  -0.7045  -2.5270 H              1 S1                 0.0000
     32 ****         1.7392  -2.8970  -2.1662 H              1 S1                 0.0000
     33 ****         0.2813  -3.0730  -3.1347 H              1 S1                 0.0000
     34 ****         0.2715  -3.5573  -1.4434 H              1 S1                 0.0000
     35 ****         1.4341   0.7137  -1.2365 H              1 S1                 0.0000
     36 ****         2.0668  -0.6919   2.1374 H              1 S1                 0.0000
     37 ****         3.7569   3.0217   3.3631 H              1 S1                 0.0000
     38 ****        -1.5465  -1.8430  -2.5406 LP             1 S1                 0.0000
     39 ****        -1.5058  -1.8887  -0.9088 LP             1 S1                 0.0000
     40 ****         0.1005  -2.5745   0.4785 LP             1 S1                 0.0000
     41 ****         0.9769  -1.4636   1.4774 LP             1 S1                 0.0000
     42 ****         3.3202   3.9409   1.2640 LP             1 S1                 0.0000
     43 ****         1.7421   2.2274  -1.3802 LP             1 S1                 0.0000
     44 ****         2.4531   3.7194  -0.8621 LP             1 S1                 0.0000
@<TRIPOS>BOND
    1    1    2 1     
    2    1   22 1     
    3    1   23 1     
    4    1   24 1     
    5    2    3 1     
    6    2    4 1     
    7    2   25 1     
    8    3   26 1     
    9    3   27 1     
   10    3   28 1     
   11    4    5 1     
   12    4   29 1     
   13    4   30 1     
   14    5    6 1     
   15    6    7 1     
   16    6    8 1     
   17    6   31 1     
   18    7   32 1     
   19    7   33 1     
   20    7   34 1     
   21    8    9 2     
   22    8   10 am    
   23   10   11 1     
   24   10   35 1     
   25   11   20 1     
   26   11   12 2     
   27   12   13 1     
   28   12   36 1     
   29   13   14 1     
   30   13   18 2     
   31   14   15 1     
   32   14   16 1     
   33   14   17 1     
   34   18   19 1     
   35   18   37 1     
   36   19   20 1     
   37   20   21 2     
   38    5   38 1     
   39    5   39 1     
   40    9   40 1     
   41    9   41 1     
   42   19   42 1     
   43   21   43 1     
   44   21   44 1     
@<TRIPOS>SUBSTRUCTURE
      1 S1             1
@<TRIPOS>SET
LONE_PAIRS      STATIC     ATOMS    <user>   **** ""
7 38 39 40 41 42 43 44
DONOR_HYDROGENS      STATIC     ATOMS    <user>   **** ""
1 35
ATOM$BLUE        STATIC     ATOMS    COLORGROUP SYSTEM
7 38 39 40 41 42 43 44
ATOM$RED        STATIC     ATOMS    COLORGROUP SYSTEM
1 35
