#       Name:                AV-unprocessed.smi:1251
#       Creating user name   scv26
#       Creation time:       Fri Mar 27 04:36:59 2020


#       File generated by GOLD software.
#

@<TRIPOS>MOLECULE
AV-unprocessed.smi:1251
    45    46     1
SMALL
NO_CHARGES


@<TRIPOS>ATOM
      1 ****        -7.2010   2.7703   0.1319 C.3            1 S1                 0.0000
      2 ****        -5.8121   2.1318   0.0244 C.3            1 S1                 0.0000
      3 ****        -5.1853   1.8519   1.3976 C.3            1 S1                 0.0000
      4 ****        -3.8235   1.2495   1.2946 C.2            1 S1                 0.0000
      5 ****        -3.6208  -0.0706   1.1996 N.2            1 S1                 0.0000
      6 ****        -2.2747  -0.3899   1.0864 N.2            1 S1                 0.0000
      7 ****        -1.5003   0.7039   1.0840 C.2            1 S1                 0.0000
      8 ****        -0.0849   0.6695   0.9774 N.am           1 S1                 0.0000
      9 ****         0.7164  -0.4025   0.8501 C.2            1 S1                 0.0000
     10 ****         0.3373  -1.5732   0.8064 O.2            1 S1                 0.0000
     11 ****         2.0041  -0.0350   0.7708 N.am           1 S1                 0.0000
     12 ****         3.1389  -0.9406   0.6040 C.3            1 S1                 0.0000
     13 ****         4.2942  -0.4419   1.4858 C.3            1 S1                 0.0000
     14 ****         3.5320  -1.0239  -0.8863 C.3            1 S1                 0.0000
     15 ****         4.6822  -1.9874  -1.1872 C.3            1 S1                 0.0000
     16 ****         4.4252  -2.3345  -2.6351 C.3            1 S1                 0.0000
     17 ****         2.9038  -2.4236  -2.6628 C.3            1 S1                 0.0000
     18 ****         2.4435  -1.5084  -1.6728 O.3            1 S1                 0.0000
     19 ****        -2.3620   2.2269   1.2219 S.3            1 S1                 0.0000
     20 ****        -7.6205   2.9569  -0.8568 H              1 S1                 0.0000
     21 ****        -7.1565   3.7235   0.6593 H              1 S1                 0.0000
     22 ****        -7.8923   2.1209   0.6696 H              1 S1                 0.0000
     23 ****        -5.8859   1.2020  -0.5408 H              1 S1                 0.0000
     24 ****        -5.1585   2.7906  -0.5485 H              1 S1                 0.0000
     25 ****        -5.1118   2.7769   1.9704 H              1 S1                 0.0000
     26 ****        -5.8243   1.1800   1.9722 H              1 S1                 0.0000
     27 ****         0.3718   1.5692   0.9952 H              1 S1                 0.0000
     28 ****         2.2177   0.9505   0.8138 H              1 S1                 0.0000
     29 ****         2.8658  -1.9388   0.9511 H              1 S1                 0.0000
     30 ****         5.1476  -1.1188   1.4438 H              1 S1                 0.0000
     31 ****         3.9879  -0.3725   2.5301 H              1 S1                 0.0000
     32 ****         4.6364   0.5451   1.1725 H              1 S1                 0.0000
     33 ****         3.7923  -0.0333  -1.2633 H              1 S1                 0.0000
     34 ****         5.6644  -1.5426  -1.0251 H              1 S1                 0.0000
     35 ****         4.6059  -2.8845  -0.5708 H              1 S1                 0.0000
     36 ****         4.7673  -1.5247  -3.2807 H              1 S1                 0.0000
     37 ****         4.9134  -3.2567  -2.9513 H              1 S1                 0.0000
     38 ****         2.4915  -2.1906  -3.6447 H              1 S1                 0.0000
     39 ****         2.5751  -3.4259  -2.3855 H              1 S1                 0.0000
     40 ****        -4.3554  -0.7491   1.2091 LP             1 S1                 0.0000
     41 ****        -1.9248  -1.3240   1.0152 LP             1 S1                 0.0000
     42 ****        -0.6380  -1.7855   0.8673 LP             1 S1                 0.0000
     43 ****         1.0047  -2.3116   0.7099 LP             1 S1                 0.0000
     44 ****         1.9950  -0.7363  -2.1231 LP             1 S1                 0.0000
     45 ****         1.7888  -1.9725  -1.0762 LP             1 S1                 0.0000
@<TRIPOS>BOND
    1    1    2 1     
    2    1   20 1     
    3    1   21 1     
    4    1   22 1     
    5    2    3 1     
    6    2   23 1     
    7    2   24 1     
    8    3    4 1     
    9    3   25 1     
   10    3   26 1     
   11    4   19 1     
   12    4    5 2     
   13    5    6 1     
   14    6    7 2     
   15    7    8 1     
   16    7   19 1     
   17    8    9 am    
   18    8   27 1     
   19    9   10 2     
   20    9   11 am    
   21   11   12 1     
   22   11   28 1     
   23   12   13 1     
   24   12   14 1     
   25   12   29 1     
   26   13   30 1     
   27   13   31 1     
   28   13   32 1     
   29   14   18 1     
   30   14   15 1     
   31   14   33 1     
   32   15   16 1     
   33   15   34 1     
   34   15   35 1     
   35   16   17 1     
   36   16   36 1     
   37   16   37 1     
   38   17   18 1     
   39   17   38 1     
   40   17   39 1     
   41    5   40 1     
   42    6   41 1     
   43   10   42 1     
   44   10   43 1     
   45   18   44 1     
   46   18   45 1     
@<TRIPOS>SUBSTRUCTURE
      1 S1             1
@<TRIPOS>SET
LONE_PAIRS      STATIC     ATOMS    <user>   **** ""
6 40 41 42 43 44 45
DONOR_HYDROGENS      STATIC     ATOMS    <user>   **** ""
2 27 28
ATOM$BLUE        STATIC     ATOMS    COLORGROUP SYSTEM
6 40 41 42 43 44 45
ATOM$RED        STATIC     ATOMS    COLORGROUP SYSTEM
2 27 28
