AV-unprocessed.smi:2749|AV-procd|sdf|10586|dock3
  -GOLD-   2272015 33D 1   1.00000     0.00000
 Structure written by MMmdl.
 32 34  0  0  0  0  0  0  0  0  1 V2000
  150.8796  140.9298  156.4383 O   0  0  0  0  0  0  0  0  0  0  0  0
  150.3365  142.0268  156.3221 C   0  0  0  0  0  0  0  0  0  0  0  0
  149.2700  142.1971  155.5120 N   0  0  0  0  0  0  0  0  0  0  0  0
  148.5635  141.2753  154.6846 C   0  0  0  0  0  0  0  0  0  0  0  0
  149.1338  139.9831  154.6243 C   0  0  0  0  0  0  0  0  0  0  0  0
  148.5140  138.9838  153.8487 C   0  0  0  0  0  0  0  0  0  0  0  0
  147.3326  139.3022  153.1562 C   0  0  0  0  0  0  0  0  0  0  0  0
  146.7003  138.3751  152.3987 F   0  0  0  0  0  0  0  0  0  0  0  0
  146.8244  140.6088  153.2721 C   0  0  0  0  0  0  0  0  0  0  0  0
  147.4190  141.5670  154.0141 N   0  0  0  0  0  0  0  0  0  0  0  0
  150.7634  143.1205  156.9728 N   0  0  0  0  0  0  0  0  0  0  0  0
  151.8693  143.1589  157.9239 C   0  0  1  0  0  0  0  0  0  0  0  0
  152.6383  144.4811  157.8502 C   0  0  0  0  0  0  0  0  0  0  0  0
  152.5022  145.0103  159.2842 C   0  0  1  0  0  0  0  0  0  0  0  0
  151.0792  145.5034  159.5825 C   0  0  0  0  0  0  0  0  0  0  0  0
  150.3120  144.1881  159.7059 C   0  0  0  0  0  0  0  0  0  0  0  0
  151.4098  143.1557  159.3970 C   0  0  2  0  0  0  0  0  0  0  0  0
  152.5182  143.7929  160.0097 O   0  0  0  0  0  0  0  0  0  0  0  0
  148.9518  143.1522  155.4367 H   0  0  0  0  0  0  0  0  0  0  0  0
  150.0410  139.7547  155.1652 H   0  0  0  0  0  0  0  0  0  0  0  0
  148.9375  137.9923  153.7881 H   0  0  0  0  0  0  0  0  0  0  0  0
  145.9186  140.8935  152.7577 H   0  0  0  0  0  0  0  0  0  0  0  0
  150.2613  143.9840  156.8213 H   0  0  0  0  0  0  0  0  0  0  0  0
  152.5570  142.3310  157.7417 H   0  0  0  0  0  0  0  0  0  0  0  0
  153.6853  144.2958  157.6076 H   0  0  0  0  0  0  0  0  0  0  0  0
  152.2414  145.1822  157.1143 H   0  0  0  0  0  0  0  0  0  0  0  0
  153.2833  145.7151  159.5703 H   0  0  0  0  0  0  0  0  0  0  0  0
  151.0455  146.0555  160.5224 H   0  0  0  0  0  0  0  0  0  0  0  0
  150.6908  146.1469  158.7924 H   0  0  0  0  0  0  0  0  0  0  0  0
  149.9473  144.0596  160.7256 H   0  0  0  0  0  0  0  0  0  0  0  0
  149.4538  144.1279  159.0362 H   0  0  0  0  0  0  0  0  0  0  0  0
  151.1979  142.1604  159.7885 H   0  0  0  0  0  0  0  0  0  0  0  0
  1  2  2  0  0  0  0
  2  3  1  0  0  0  0
  2 11  1  0  0  0  0
  3  4  1  0  0  0  0
  3 19  1  0  0  0  0
  4 10  1  0  0  0  0
  4  5  2  0  0  0  0
  5  6  1  0  0  0  0
  5 20  1  0  0  0  0
  6  7  2  0  0  0  0
  6 21  1  0  0  0  0
  7  8  1  0  0  0  0
  7  9  1  0  0  0  0
  9 10  2  0  0  0  0
  9 22  1  0  0  0  0
 11 12  1  0  0  0  0
 11 23  1  0  0  0  0
 12 17  1  0  0  0  0
 12 13  1  0  0  0  0
 12 24  1  0  0  0  0
 13 14  1  0  0  0  0
 13 25  1  0  0  0  0
 13 26  1  0  0  0  0
 14 18  1  0  0  0  0
 14 15  1  0  0  0  0
 14 27  1  0  0  0  0
 15 16  1  0  0  0  0
 15 28  1  0  0  0  0
 15 29  1  0  0  0  0
 16 17  1  0  0  0  0
 16 30  1  0  0  0  0
 16 31  1  0  0  0  0
 17 18  1  0  0  0  0
 17 32  1  0  0  0  0
M  END
> <s_m_source_file>
AV-unprocessed.smi

> <i_m_source_file_index>
2749

> <i_lp_mmshare_version>
43012

> <i_f3d_flags>
0

> <s_epik_input>
W0NIMl0xW0NIMl1bQ0BIXShPMilbQ0BASF0oW0NIMl1bQ0BASF0xMilbTkhdQyg9TylbTkhdYzNbY0hdW2NIXWMoRilbY0hdbjM=

> <s_epik_cmdline>
J2VwaWtfcHl0aG9uJywgJy1waCcsICc3LjAnLCAnLXRuJywgJzgnLCAnLW1hJywgJzIwMCcsICctbWV0YWxfYmluZGluZycsICctaW1hZScsICc8aW5maWxlLm1hZT4nLCAnLW9tYWUnLCAnPG91dGZpbGUubWFlPic=

> <r_lp_tautomer_probability>
1

> <r_epik_Ionization_Penalty>
3.37159e-05

> <r_epik_Ionization_Penalty_Charging>
0

> <r_epik_Ionization_Penalty_Neutral>
3.37159e-05

> <r_epik_State_Penalty>
-0

> <r_epik_Charging_Adjusted_Penalty>
0

> <i_epik_Tot_Q>
0

> <i_epik_Tot_abs_Q>
0

> <r_epik_Metal_State_Penalty>
-0

> <b_epik_Metal_Only>
0

> <s_lp_Force_Field>
OPLS_2005

> <r_lp_Energy>
40.3406

> <b_lp_Chiralities_Consistent>
1

> <s_lp_Variant>
AV-unprocessed.smi:2749-2

> <Gold.Version>
5.8.1

> <Gold.Id.Protein>
6NUR|6NUR_protein|mol2

> <Gold.PLP.Fitness>
41.4105

> <Gold.PLP.PLP>
-35.8203

> <Gold.PLP.part.hbond>
-2.0000

> <Gold.PLP.part.metal>
0.0000

> <Gold.PLP.part.buried>
-3.4317

> <Gold.PLP.part.nonpolar>
-31.5348

> <Gold.PLP.part.repulsive>
0.3891

> <Gold.PLP.ligand.clash>
2.1684

> <Gold.PLP.ligand.torsion>
0.3217

> <Gold.PLP.Chemscore.Hbond>
1.8320

> <Gold.PLP.Chemscore.CHOScore>
0.9621

> <Gold.PLP.Chemscore.Metal>
0.0000

> <Gold.Chemscore.Hbonds>
donor molecule, donor type, donor heavy atom, donor atom, acceptor molecule, acceptor atom, score
      L1  H     3    19       P1  8028  1.00
      L1  H    11    23       P1  8028  0.82
      L1  C     9    22       P1 10175  1.00

> <Gold.PLP.Chemscore.Internal.Correction>
0.0196

> <Gold.Rescore>
     Score         DG    S(hbond)    S(metal)    S(lipo)     H(rot)  DE(clash)    DE(int)     intcor
     18.13     -20.21       1.91        0.00      93.25       1.00       0.25       1.83       ----

> <Gold.Chemscore.Fitness>
18.1265

> <Gold.Chemscore.DG>
-20.2064

> <Gold.Chemscore.ZeroCoef>
-5.4800

> <Gold.Chemscore.Hbond>
1.9091

> <Gold.Chemscore.Metal>
0.0000

> <Gold.Chemscore.Lipo>
93.2471

> <Gold.Chemscore.Internal_Hbond>
0.0000

> <Gold.Chemscore.DEClash>
0.2518

> <Gold.Chemscore.DEInternal>
1.8281

> <Gold.Chemscore.Rot>
1.0000

> <Gold.Chemscore.Internal.Correction>
   9.000000E+99

> <Gold.Chemscore.Hbonds>
donor molecule, donor type, donor heavy atom, donor atom, acceptor molecule, acceptor atom, score
      L1  H     3    19       P1  8028  0.97
      L1  H    11    23       P1  8028  0.80

> <Gold.Chemscore.Hbond.Weighted>
-6.3765

> <Gold.Chemscore.Metal.Weighted>
-0.0000

> <Gold.Chemscore.Lipo.Weighted>
-10.9099

> <Gold.Chemscore.Internal_Hbond.Weighted>
0.0000

> <Gold.Chemscore.DEClash.Weighted>
0.2518

> <Gold.Chemscore.DEInternal.Weighted>
1.8281

> <Gold.Chemscore.Rot.Weighted>
2.5600

> <Gold.Chemscore.Internal.Correction.Weighted>
   9.000000E+99

> <Gold.Protein.RotatedTorsions>
[ 6907 6896 6895 6894 ] final   85.95 input  -60.11 | X-H torsion
[ 7974 7965 7964 7962 ] final -109.99 input  175.53 | X-H torsion
[ 8008 7997 7996 7995 ] final  128.73 input   59.86 | X-H torsion
[ 10167 10162 10161 10158 ] final   70.46 input  -65.29 | X-H torsion
[ 10718 10713 10712 10709 ] final   43.81 input   66.30 | X-H torsion
[ 10763 10752 10751 10750 ] final  -88.65 input  -60.55 | X-H torsion
[ 11005 11000 10999 10996 ] final -146.00 input  -57.11 | X-H torsion

> <Gold.Protein.ActiveResidues>
 VAL166  LYS551  ARG553  GLY616  TRP617  ASP618  TYR619  PRO620  LYS621  CYS622 
 ASP623  PHE694  ASN695  SER759  ASP760  ASP761  ALA762  ILE779  LEU786  VAL792 
 PHE793  MET794  SER795  GLU796  ALA797  LYS798  CYS799  TRP800  GLU811  SER814 

> <Gold.Protein.RotatedAtoms>
  152.5385  134.2506  159.8897 H   0  0  0  0  0  0  0  0  0  0  0  0  # atno 6907 bound_to 6896
  151.2470  133.4363  159.2617 H   0  0  0  0  0  0  0  0  0  0  0  0  # atno 6908 bound_to 6896
  151.0574  134.9728  159.8299 H   0  0  0  0  0  0  0  0  0  0  0  0  # atno 6909 bound_to 6896
  145.1737  140.8938  143.3520 H   0  0  0  0  0  0  0  0  0  0  0  0  # atno 7974 bound_to 7965
  156.2921  140.2637  156.2483 H   0  0  0  0  0  0  0  0  0  0  0  0  # atno 8008 bound_to 7997
  154.9908  140.0388  157.2337 H   0  0  0  0  0  0  0  0  0  0  0  0  # atno 8009 bound_to 7997
  154.7688  140.2774  155.6159 H   0  0  0  0  0  0  0  0  0  0  0  0  # atno 8010 bound_to 7997
  140.0567  144.5267  150.7324 H   0  0  0  0  0  0  0  0  0  0  0  0  # atno 10167 bound_to 10162
  157.4200  130.7963  149.7506 H   0  0  0  0  0  0  0  0  0  0  0  0  # atno 10718 bound_to 10713
  154.6468  135.5369  153.7854 H   0  0  0  0  0  0  0  0  0  0  0  0  # atno 10763 bound_to 10752
  153.0364  135.6473  154.1076 H   0  0  0  0  0  0  0  0  0  0  0  0  # atno 10764 bound_to 10752
  154.0997  135.2934  155.3234 H   0  0  0  0  0  0  0  0  0  0  0  0  # atno 10765 bound_to 10752
  140.7865  134.3018  157.5028 H   0  0  0  0  0  0  0  0  0  0  0  0  # atno 11005 bound_to 11000
  145.0206  139.3427  143.6074 LP  0  0  0  0  0  0  0  0  0  0  0  0  # atno 17320 bound_to 7965
  146.3464  139.9505  142.8729 LP  0  0  0  0  0  0  0  0  0  0  0  0  # atno 17321 bound_to 7965
  140.7191  143.2572  151.4337 LP  0  0  0  0  0  0  0  0  0  0  0  0  # atno 17342 bound_to 10162
  139.5919  144.1481  152.2098 LP  0  0  0  0  0  0  0  0  0  0  0  0  # atno 17343 bound_to 10162
  155.9877  130.3964  150.3151 LP  0  0  0  0  0  0  0  0  0  0  0  0  # atno 17370 bound_to 10713
  157.1298  131.0269  151.2974 LP  0  0  0  0  0  0  0  0  0  0  0  0  # atno 17371 bound_to 10713
  139.8736  134.9349  156.3620 LP  0  0  0  0  0  0  0  0  0  0  0  0  # atno 17394 bound_to 11000
  140.9431  133.7501  156.0173 LP  0  0  0  0  0  0  0  0  0  0  0  0  # atno 17395 bound_to 11000

$$$$
