AV-unprocessed.smi:139|AV-procd|sdf|1183|dock7
  -GOLD-   2262018333D 1   1.00000     0.00000
 Structure written by MMmdl.
 50 53  0  0  0  0  0  0  0  0  1 V2000
  150.9558  136.0209  155.4093 O   0  0  0  0  0  0  0  0  0  0  0  0
  149.7793  136.1528  155.7488 C   0  0  0  0  0  0  0  0  0  0  0  0
  149.0085  134.9800  156.3711 C   0  0  0  0  0  0  0  0  0  0  0  0
  148.7173  133.9063  155.3965 N   0  0  0  0  0  0  0  0  0  0  0  0
  149.3107  132.6325  155.5775 C   0  0  0  0  0  0  0  0  0  0  0  0
  150.0494  132.4008  156.5354 O   0  0  0  0  0  0  0  0  0  0  0  0
  148.9924  131.6397  154.5575 C   0  0  0  0  0  0  0  0  0  0  0  0
  149.5128  130.4039  154.6468 F   0  0  0  0  0  0  0  0  0  0  0  0
  148.1840  131.9415  153.5207 C   0  0  0  0  0  0  0  0  0  0  0  0
  147.6086  133.1893  153.3575 N   0  0  0  0  0  0  0  0  0  0  0  0
  146.7179  133.5187  152.1772 C   0  0  2  0  0  0  0  0  0  0  0  0
  145.3079  133.9180  152.6541 C   0  0  0  0  0  0  0  0  0  0  0  0
  144.4070  133.0034  151.8475 C   0  0  0  0  0  0  0  0  0  0  0  0
  145.3027  131.7950  151.6222 C   0  0  0  0  0  0  0  0  0  0  0  0
  146.5673  132.3897  151.3643 O   0  0  0  0  0  0  0  0  0  0  0  0
  147.8795  134.2084  154.2961 C   0  0  0  0  0  0  0  0  0  0  0  0
  147.3981  135.3353  154.1555 O   0  0  0  0  0  0  0  0  0  0  0  0
  149.0901  137.2972  155.6049 N   0  0  0  0  0  0  0  0  0  0  0  0
  149.5695  138.5358  154.9866 C   0  0  1  0  0  0  0  0  0  0  0  0
  148.4881  139.1737  154.0901 C   0  0  0  0  0  0  0  0  0  0  0  0
  148.9278  140.5450  153.5735 C   0  0  0  0  0  0  0  0  0  0  0  0
  149.1857  141.5114  154.7348 C   0  0  0  0  0  0  0  0  0  0  0  0
  150.0528  140.9173  155.8347 C   0  0  0  0  0  0  0  0  0  0  0  0
  150.6792  141.7925  156.7471 C   0  0  0  0  0  0  0  0  0  0  0  0
  151.4805  141.2868  157.7870 C   0  0  0  0  0  0  0  0  0  0  0  0
  151.6618  139.8989  157.9197 C   0  0  0  0  0  0  0  0  0  0  0  0
  151.0405  139.0195  157.0137 C   0  0  0  0  0  0  0  0  0  0  0  0
  150.2234  139.5145  155.9704 C   0  0  0  0  0  0  0  0  0  0  0  0
  149.5800  134.6134  157.2245 H   0  0  0  0  0  0  0  0  0  0  0  0
  148.0792  135.3475  156.8109 H   0  0  0  0  0  0  0  0  0  0  0  0
  147.9946  131.1618  152.7989 H   0  0  0  0  0  0  0  0  0  0  0  0
  147.2415  134.2999  151.6235 H   0  0  0  0  0  0  0  0  0  0  0  0
  145.1970  133.7171  153.7208 H   0  0  0  0  0  0  0  0  0  0  0  0
  145.1186  134.9759  152.4711 H   0  0  0  0  0  0  0  0  0  0  0  0
  143.4776  132.7574  152.3612 H   0  0  0  0  0  0  0  0  0  0  0  0
  144.1590  133.4674  150.8919 H   0  0  0  0  0  0  0  0  0  0  0  0
  145.3525  131.1754  152.5187 H   0  0  0  0  0  0  0  0  0  0  0  0
  144.9733  131.1733  150.7897 H   0  0  0  0  0  0  0  0  0  0  0  0
  148.1315  137.3016  155.9218 H   0  0  0  0  0  0  0  0  0  0  0  0
  150.3814  138.2278  154.3267 H   0  0  0  0  0  0  0  0  0  0  0  0
  148.2516  138.5103  153.2576 H   0  0  0  0  0  0  0  0  0  0  0  0
  147.5604  139.3068  154.6476 H   0  0  0  0  0  0  0  0  0  0  0  0
  149.8395  140.4294  152.9858 H   0  0  0  0  0  0  0  0  0  0  0  0
  148.1760  140.9603  152.9017 H   0  0  0  0  0  0  0  0  0  0  0  0
  149.6468  142.4250  154.3573 H   0  0  0  0  0  0  0  0  0  0  0  0
  148.2357  141.8036  155.1834 H   0  0  0  0  0  0  0  0  0  0  0  0
  150.5438  142.8600  156.6520 H   0  0  0  0  0  0  0  0  0  0  0  0
  151.9564  141.9633  158.4815 H   0  0  0  0  0  0  0  0  0  0  0  0
  152.2784  139.5078  158.7154 H   0  0  0  0  0  0  0  0  0  0  0  0
  151.1956  137.9568  157.1278 H   0  0  0  0  0  0  0  0  0  0  0  0
  1  2  2  0  0  0  0
  2  3  1  0  0  0  0
  2 18  1  0  0  0  0
  3  4  1  0  0  0  0
  3 29  1  0  0  0  0
  3 30  1  0  0  0  0
  4 16  1  0  0  0  0
  4  5  1  0  0  0  0
  5  6  2  0  0  0  0
  5  7  1  0  0  0  0
  7  8  1  0  0  0  0
  7  9  2  0  0  0  0
  9 10  1  0  0  0  0
  9 31  1  0  0  0  0
 10 11  1  0  0  0  0
 10 16  1  0  0  0  0
 11 15  1  0  0  0  0
 11 12  1  0  0  0  0
 11 32  1  0  0  0  0
 12 13  1  0  0  0  0
 12 33  1  0  0  0  0
 12 34  1  0  0  0  0
 13 14  1  0  0  0  0
 13 35  1  0  0  0  0
 13 36  1  0  0  0  0
 14 15  1  0  0  0  0
 14 37  1  0  0  0  0
 14 38  1  0  0  0  0
 16 17  2  0  0  0  0
 18 19  1  0  0  0  0
 18 39  1  0  0  0  0
 19 28  1  0  0  0  0
 19 20  1  0  0  0  0
 19 40  1  0  0  0  0
 20 21  1  0  0  0  0
 20 41  1  0  0  0  0
 20 42  1  0  0  0  0
 21 22  1  0  0  0  0
 21 43  1  0  0  0  0
 21 44  1  0  0  0  0
 22 23  1  0  0  0  0
 22 45  1  0  0  0  0
 22 46  1  0  0  0  0
 23 28  2  0  0  0  0
 23 24  1  0  0  0  0
 24 25  2  0  0  0  0
 24 47  1  0  0  0  0
 25 26  1  0  0  0  0
 25 48  1  0  0  0  0
 26 27  2  0  0  0  0
 26 49  1  0  0  0  0
 27 28  1  0  0  0  0
 27 50  1  0  0  0  0
M  END
> <s_m_source_file>
AV-unprocessed.smi

> <i_m_source_file_index>
139

> <i_lp_mmshare_version>
43012

> <i_f3d_flags>
0

> <s_epik_input>
W2NIXTFbY0hdW2NIXVtjSF1jKGMxMilbQ0BASF0oW0NIMl1bQ0gyXVtDSDJdMilbTkhdQyg9TylbQ0gyXW4zYyg9TyljKEYpW2NIXW4oYzM9TylbQ0BASF00W0NIMl1bQ0gyXVtDSDJdTzQ=

> <s_epik_cmdline>
J2VwaWtfcHl0aG9uJywgJy1waCcsICc3LjAnLCAnLXRuJywgJzgnLCAnLW1hJywgJzIwMCcsICctbWV0YWxfYmluZGluZycsICctaW1hZScsICc8aW5maWxlLm1hZT4nLCAnLW9tYWUnLCAnPG91dGZpbGUubWFlPic=

> <r_lp_tautomer_probability>
1

> <r_epik_Ionization_Penalty>
3.261e-08

> <r_epik_Ionization_Penalty_Charging>
3.6725e-09

> <r_epik_Ionization_Penalty_Neutral>
2.89375e-08

> <r_epik_State_Penalty>
-0

> <r_epik_Charging_Adjusted_Penalty>
3.6725e-09

> <i_epik_Tot_Q>
0

> <i_epik_Tot_abs_Q>
0

> <r_epik_Metal_State_Penalty>
-0

> <b_epik_Metal_Only>
0

> <s_epik_Chemistry_Notes>
This compound contains an acetal/aminal-like group ( X-CH(R)-Y where X, Y are N, S, or O) that may be acid/base labile, releasing an aldehyde.

> <s_lp_Force_Field>
OPLS_2005

> <r_lp_Energy>
30.9596

> <b_lp_Chiralities_Consistent>
1

> <s_lp_Variant>
AV-unprocessed.smi:139-3

> <Gold.Version>
5.8.1

> <Gold.Id.Protein>
6NUR|6NUR_protein|mol2

> <Gold.PLP.Fitness>
45.3387

> <Gold.PLP.PLP>
-40.1261

> <Gold.PLP.part.hbond>
-1.0000

> <Gold.PLP.part.metal>
0.0000

> <Gold.PLP.part.buried>
-0.7604

> <Gold.PLP.part.nonpolar>
-40.3567

> <Gold.PLP.part.repulsive>
2.8067

> <Gold.PLP.ligand.clash>
0.0000

> <Gold.PLP.ligand.torsion>
0.4312

> <Gold.PLP.Chemscore.Hbond>
1.0000

> <Gold.PLP.Chemscore.CHOScore>
1.0000

> <Gold.PLP.Chemscore.Metal>
0.0000

> <Gold.Chemscore.Hbonds>
donor molecule, donor type, donor heavy atom, donor atom, acceptor molecule, acceptor atom, score
      P1  H 10752 10765       L1     1  0.63
      L1  C     9    31       P1 10747  0.54

> <Gold.PLP.Chemscore.Internal.Correction>
0.0750

> <Gold.Rescore>
     Score         DG    S(hbond)    S(metal)    S(lipo)     H(rot)  DE(clash)    DE(int)     intcor
     13.14     -14.70       1.00        0.00      90.16       1.82       0.09       1.48       ----

> <Gold.Chemscore.Fitness>
13.1378

> <Gold.Chemscore.DG>
-14.7046

> <Gold.Chemscore.ZeroCoef>
-5.4800

> <Gold.Chemscore.Hbond>
0.9964

> <Gold.Chemscore.Metal>
0.0000

> <Gold.Chemscore.Lipo>
90.1622

> <Gold.Chemscore.Internal_Hbond>
0.0000

> <Gold.Chemscore.DEClash>
0.0854

> <Gold.Chemscore.DEInternal>
1.4814

> <Gold.Chemscore.Rot>
1.8174

> <Gold.Chemscore.Internal.Correction>
   9.000000E+99

> <Gold.Chemscore.Hbonds>
donor molecule, donor type, donor heavy atom, donor atom, acceptor molecule, acceptor atom, score
      P1  H 10752 10765       L1     1  0.63

> <Gold.Chemscore.Hbond.Weighted>
-3.3280

> <Gold.Chemscore.Metal.Weighted>
-0.0000

> <Gold.Chemscore.Lipo.Weighted>
-10.5490

> <Gold.Chemscore.Internal_Hbond.Weighted>
0.0000

> <Gold.Chemscore.DEClash.Weighted>
0.0854

> <Gold.Chemscore.DEInternal.Weighted>
1.4814

> <Gold.Chemscore.Rot.Weighted>
4.6524

> <Gold.Chemscore.Internal.Correction.Weighted>
   9.000000E+99

> <Gold.Protein.RotatedTorsions>
[ 6907 6896 6895 6894 ] final  156.58 input  -60.11 | X-H torsion
[ 7974 7965 7964 7962 ] final  107.44 input  175.53 | X-H torsion
[ 8008 7997 7996 7995 ] final    9.31 input   59.86 | X-H torsion
[ 10167 10162 10161 10158 ] final -111.25 input  -65.29 | X-H torsion
[ 10718 10713 10712 10709 ] final  -62.74 input   66.30 | X-H torsion
[ 10763 10752 10751 10750 ] final  179.88 input  -60.55 | X-H torsion
[ 11005 11000 10999 10996 ] final  -82.87 input  -57.11 | X-H torsion

> <Gold.Protein.ActiveResidues>
 VAL166  LYS551  ARG553  GLY616  TRP617  ASP618  TYR619  PRO620  LYS621  CYS622 
 ASP623  PHE694  ASN695  SER759  ASP760  ASP761  ALA762  ILE779  LEU786  VAL792 
 PHE793  MET794  SER795  GLU796  ALA797  LYS798  CYS799  TRP800  GLU811  SER814 

> <Gold.Protein.RotatedAtoms>
  152.0277  133.3924  159.4283 H   0  0  0  0  0  0  0  0  0  0  0  0  # atno 6907 bound_to 6896
  150.6885  134.3556  159.4937 H   0  0  0  0  0  0  0  0  0  0  0  0  # atno 6908 bound_to 6896
  152.1338  134.9114  160.0608 H   0  0  0  0  0  0  0  0  0  0  0  0  # atno 6909 bound_to 6896
  145.2935  139.2592  143.3852 H   0  0  0  0  0  0  0  0  0  0  0  0  # atno 7974 bound_to 7965
  154.7783  140.2814  155.6083 H   0  0  0  0  0  0  0  0  0  0  0  0  # atno 8008 bound_to 7997
  156.2946  140.2628  156.2531 H   0  0  0  0  0  0  0  0  0  0  0  0  # atno 8009 bound_to 7997
  154.9815  140.0374  157.2269 H   0  0  0  0  0  0  0  0  0  0  0  0  # atno 8010 bound_to 7997
  140.1356  143.4323  152.1597 H   0  0  0  0  0  0  0  0  0  0  0  0  # atno 10167 bound_to 10162
  156.0835  130.4212  150.1179 H   0  0  0  0  0  0  0  0  0  0  0  0  # atno 10718 bound_to 10713
  154.5264  135.2797  155.1219 H   0  0  0  0  0  0  0  0  0  0  0  0  # atno 10763 bound_to 10752
  154.2756  135.6295  153.5330 H   0  0  0  0  0  0  0  0  0  0  0  0  # atno 10764 bound_to 10752
  152.9947  135.5639  154.5766 H   0  0  0  0  0  0  0  0  0  0  0  0  # atno 10765 bound_to 10752
  141.1661  133.7266  156.8635 H   0  0  0  0  0  0  0  0  0  0  0  0  # atno 11005 bound_to 11000
  146.3176  140.3432  142.8650 LP  0  0  0  0  0  0  0  0  0  0  0  0  # atno 17320 bound_to 7965
  144.9152  140.7804  143.5782 LP  0  0  0  0  0  0  0  0  0  0  0  0  # atno 17321 bound_to 7965
  139.5497  144.7328  151.4472 LP  0  0  0  0  0  0  0  0  0  0  0  0  # atno 17342 bound_to 10162
  140.6791  143.8123  150.7097 LP  0  0  0  0  0  0  0  0  0  0  0  0  # atno 17343 bound_to 10162
  156.9205  130.9681  151.3549 LP  0  0  0  0  0  0  0  0  0  0  0  0  # atno 17370 bound_to 10713
  157.5961  130.8479  149.8731 LP  0  0  0  0  0  0  0  0  0  0  0  0  # atno 17371 bound_to 10713
  140.1831  134.9019  157.2973 LP  0  0  0  0  0  0  0  0  0  0  0  0  # atno 17394 bound_to 11000
  140.2372  134.3838  155.7496 LP  0  0  0  0  0  0  0  0  0  0  0  0  # atno 17395 bound_to 11000

$$$$
