AV-unprocessed.smi:2770|AV-procd|sdf|10659|dock2
  -GOLD-   2272015103D 1   1.00000     0.00000
 Structure written by MMmdl.
 34 35  0  0  0  0  0  0  0  0  1 V2000
  146.3054  143.0376  154.0869 C   0  0  0  0  0  0  0  0  0  0  0  0
  147.6452  142.6469  154.4976 N   0  0  0  0  0  0  0  0  0  0  0  0
  148.0383  141.3793  154.6888 C   0  0  0  0  0  0  0  0  0  0  0  0
  147.2931  140.4127  154.5233 O   0  0  0  0  0  0  0  0  0  0  0  0
  149.4924  141.1858  155.1336 C   0  0  1  0  0  0  0  0  0  0  0  0
  149.8224  141.9372  156.4426 C   0  0  0  0  0  0  0  0  0  0  0  0
  151.1884  141.6402  156.8556 N   0  0  0  0  0  0  0  0  0  0  0  0
  151.6129  142.3810  157.9676 C   0  0  0  0  0  0  0  0  0  0  0  0
  151.4552  143.7828  157.9567 C   0  0  0  0  0  0  0  0  0  0  0  0
  151.8822  144.5208  159.0775 C   0  0  0  0  0  0  0  0  0  0  0  0
  152.4510  143.8339  160.1667 C   0  0  0  0  0  0  0  0  0  0  0  0
  152.5680  142.4306  160.0855 C   0  0  0  0  0  0  0  0  0  0  0  0
  153.1717  141.6326  161.2218 C   0  0  0  0  0  0  0  0  0  0  0  0
  152.1608  141.7164  159.0135 N   0  0  0  0  0  0  0  0  0  0  0  0
  151.4312  140.2091  156.9833 C   0  0  0  0  0  0  0  0  0  0  0  0
  151.0653  139.4967  155.6702 C   0  0  0  0  0  0  0  0  0  0  0  0
  149.7137  139.7897  155.3258 O   0  0  0  0  0  0  0  0  0  0  0  0
  146.2378  144.1236  154.0242 H   0  0  0  0  0  0  0  0  0  0  0  0
  145.5619  142.6903  154.8056 H   0  0  0  0  0  0  0  0  0  0  0  0
  146.0634  142.6233  153.1075 H   0  0  0  0  0  0  0  0  0  0  0  0
  148.3173  143.3851  154.6484 H   0  0  0  0  0  0  0  0  0  0  0  0
  150.1458  141.5450  154.3357 H   0  0  0  0  0  0  0  0  0  0  0  0
  149.7108  143.0127  156.2986 H   0  0  0  0  0  0  0  0  0  0  0  0
  149.1325  141.6429  157.2355 H   0  0  0  0  0  0  0  0  0  0  0  0
  151.0149  144.2841  157.1073 H   0  0  0  0  0  0  0  0  0  0  0  0
  151.7751  145.5953  159.1012 H   0  0  0  0  0  0  0  0  0  0  0  0
  152.7881  144.3727  161.0400 H   0  0  0  0  0  0  0  0  0  0  0  0
  153.4596  142.2795  162.0510 H   0  0  0  0  0  0  0  0  0  0  0  0
  154.0602  141.1011  160.8801 H   0  0  0  0  0  0  0  0  0  0  0  0
  152.4542  140.9008  161.5942 H   0  0  0  0  0  0  0  0  0  0  0  0
  152.4790  140.0311  157.2279 H   0  0  0  0  0  0  0  0  0  0  0  0
  150.8350  139.8050  157.8028 H   0  0  0  0  0  0  0  0  0  0  0  0
  151.7316  139.8035  154.8622 H   0  0  0  0  0  0  0  0  0  0  0  0
  151.1781  138.4184  155.7831 H   0  0  0  0  0  0  0  0  0  0  0  0
  1  2  1  0  0  0  0
  1 18  1  0  0  0  0
  1 19  1  0  0  0  0
  1 20  1  0  0  0  0
  2  3  1  0  0  0  0
  2 21  1  0  0  0  0
  3  4  2  0  0  0  0
  3  5  1  0  0  0  0
  5 17  1  0  0  0  0
  5  6  1  0  0  0  0
  5 22  1  0  0  0  0
  6  7  1  0  0  0  0
  6 23  1  0  0  0  0
  6 24  1  0  0  0  0
  7  8  1  0  0  0  0
  7 15  1  0  0  0  0
  8 14  1  0  0  0  0
  8  9  2  0  0  0  0
  9 10  1  0  0  0  0
  9 25  1  0  0  0  0
 10 11  2  0  0  0  0
 10 26  1  0  0  0  0
 11 12  1  0  0  0  0
 11 27  1  0  0  0  0
 12 13  1  0  0  0  0
 12 14  2  0  0  0  0
 13 28  1  0  0  0  0
 13 29  1  0  0  0  0
 13 30  1  0  0  0  0
 15 16  1  0  0  0  0
 15 31  1  0  0  0  0
 15 32  1  0  0  0  0
 16 17  1  0  0  0  0
 16 33  1  0  0  0  0
 16 34  1  0  0  0  0
M  END
> <s_m_source_file>
AV-unprocessed.smi

> <i_m_source_file_index>
2770

> <i_lp_mmshare_version>
43012

> <i_f3d_flags>
0

> <s_epik_input>
W0NIM11bTkhdQyg9TylbQ0BASF0xW0NIMl1OKFtDSDJdW0NIMl1PMSljMltjSF1bY0hdW2NIXWMobjIpW0NIM10=

> <s_epik_cmdline>
J2VwaWtfcHl0aG9uJywgJy1waCcsICc3LjAnLCAnLXRuJywgJzgnLCAnLW1hJywgJzIwMCcsICctbWV0YWxfYmluZGluZycsICctaW1hZScsICc8aW5maWxlLm1hZT4nLCAnLW9tYWUnLCAnPG91dGZpbGUubWFlPic=

> <r_lp_tautomer_probability>
1

> <r_epik_Ionization_Penalty>
0.0115449

> <r_epik_Ionization_Penalty_Charging>
0

> <r_epik_Ionization_Penalty_Neutral>
0.0115449

> <r_epik_State_Penalty>
0.00889041

> <r_epik_Charging_Adjusted_Penalty>
0.00889041

> <i_epik_Tot_Q>
0

> <i_epik_Tot_abs_Q>
0

> <r_epik_Metal_State_Penalty>
0.00871946

> <b_epik_Metal_Only>
0

> <s_lp_Force_Field>
OPLS_2005

> <r_lp_Energy>
19.0153

> <b_lp_Chiralities_Consistent>
1

> <s_lp_Variant>
AV-unprocessed.smi:2770-2

> <Gold.Version>
5.8.1

> <Gold.Id.Protein>
6NUR|6NUR_protein|mol2

> <Gold.PLP.Fitness>
41.5130

> <Gold.PLP.PLP>
-38.5829

> <Gold.PLP.part.hbond>
-1.0000

> <Gold.PLP.part.metal>
0.0000

> <Gold.PLP.part.buried>
-3.4754

> <Gold.PLP.part.nonpolar>
-34.8918

> <Gold.PLP.part.repulsive>
0.3859

> <Gold.PLP.ligand.clash>
0.0000

> <Gold.PLP.ligand.torsion>
0.0863

> <Gold.PLP.Chemscore.Hbond>
1.0000

> <Gold.PLP.Chemscore.CHOScore>
0.0000

> <Gold.PLP.Chemscore.Metal>
0.0000

> <Gold.Chemscore.Hbonds>
donor molecule, donor type, donor heavy atom, donor atom, acceptor molecule, acceptor atom, score
      L1  H     2    21       P1  8028  0.98

> <Gold.PLP.Chemscore.Internal.Correction>
0.1027

> <Gold.Rescore>
     Score         DG    S(hbond)    S(metal)    S(lipo)     H(rot)  DE(clash)    DE(int)     intcor
     16.00     -16.08       0.96        0.00      90.93       1.27       0.00       0.08       ----

> <Gold.Chemscore.Fitness>
15.9998

> <Gold.Chemscore.DG>
-16.0813

> <Gold.Chemscore.ZeroCoef>
-5.4800

> <Gold.Chemscore.Hbond>
0.9649

> <Gold.Chemscore.Metal>
0.0000

> <Gold.Chemscore.Lipo>
90.9259

> <Gold.Chemscore.Internal_Hbond>
0.0000

> <Gold.Chemscore.DEClash>
0.0029

> <Gold.Chemscore.DEInternal>
0.0786

> <Gold.Chemscore.Rot>
1.2734

> <Gold.Chemscore.Internal.Correction>
   9.000000E+99

> <Gold.Chemscore.Hbonds>
donor molecule, donor type, donor heavy atom, donor atom, acceptor molecule, acceptor atom, score
      L1  H     2    21       P1  8028  0.91

> <Gold.Chemscore.Hbond.Weighted>
-3.2227

> <Gold.Chemscore.Metal.Weighted>
-0.0000

> <Gold.Chemscore.Lipo.Weighted>
-10.6383

> <Gold.Chemscore.Internal_Hbond.Weighted>
0.0000

> <Gold.Chemscore.DEClash.Weighted>
0.0029

> <Gold.Chemscore.DEInternal.Weighted>
0.0786

> <Gold.Chemscore.Rot.Weighted>
3.2598

> <Gold.Chemscore.Internal.Correction.Weighted>
   9.000000E+99

> <Gold.Protein.RotatedTorsions>
[ 6907 6896 6895 6894 ] final -129.53 input  -60.11 | X-H torsion
[ 7974 7965 7964 7962 ] final -103.81 input  175.53 | X-H torsion
[ 8008 7997 7996 7995 ] final  103.13 input   59.86 | X-H torsion
[ 10167 10162 10161 10158 ] final   64.00 input  -65.29 | X-H torsion
[ 10718 10713 10712 10709 ] final  -11.60 input   66.30 | X-H torsion
[ 10763 10752 10751 10750 ] final   80.60 input  -60.55 | X-H torsion
[ 11005 11000 10999 10996 ] final  -58.30 input  -57.11 | X-H torsion

> <Gold.Protein.ActiveResidues>
 VAL166  LYS551  ARG553  GLY616  TRP617  ASP618  TYR619  PRO620  LYS621  CYS622 
 ASP623  PHE694  ASN695  SER759  ASP760  ASP761  ALA762  ILE779  LEU786  VAL792 
 PHE793  MET794  SER795  GLU796  ALA797  LYS798  CYS799  TRP800  GLU811  SER814 

> <Gold.Protein.RotatedAtoms>
  150.9297  133.6781  159.2813 H   0  0  0  0  0  0  0  0  0  0  0  0  # atno 6907 bound_to 6896
  151.4207  135.0996  159.9622 H   0  0  0  0  0  0  0  0  0  0  0  0  # atno 6908 bound_to 6896
  152.5020  133.8750  159.7372 H   0  0  0  0  0  0  0  0  0  0  0  0  # atno 6909 bound_to 6896
  145.2512  140.9238  143.3094 H   0  0  0  0  0  0  0  0  0  0  0  0  # atno 7974 bound_to 7965
  156.1456  140.3170  155.8564 H   0  0  0  0  0  0  0  0  0  0  0  0  # atno 8008 bound_to 7997
  155.4071  140.0503  157.3051 H   0  0  0  0  0  0  0  0  0  0  0  0  # atno 8009 bound_to 7997
  154.5013  140.2130  155.9353 H   0  0  0  0  0  0  0  0  0  0  0  0  # atno 8010 bound_to 7997
  140.1269  144.4679  150.6887 H   0  0  0  0  0  0  0  0  0  0  0  0  # atno 10167 bound_to 10162
  156.6567  130.4970  149.6044 H   0  0  0  0  0  0  0  0  0  0  0  0  # atno 10718 bound_to 10713
  153.1047  135.4796  154.8930 H   0  0  0  0  0  0  0  0  0  0  0  0  # atno 10763 bound_to 10752
  154.7417  135.3084  154.8719 H   0  0  0  0  0  0  0  0  0  0  0  0  # atno 10764 bound_to 10752
  153.9325  135.6843  153.4799 H   0  0  0  0  0  0  0  0  0  0  0  0  # atno 10765 bound_to 10752
  141.1201  133.6612  156.4899 H   0  0  0  0  0  0  0  0  0  0  0  0  # atno 11005 bound_to 11000
  144.9501  139.4092  143.6406 LP  0  0  0  0  0  0  0  0  0  0  0  0  # atno 17320 bound_to 7965
  146.3302  139.8504  142.8874 LP  0  0  0  0  0  0  0  0  0  0  0  0  # atno 17321 bound_to 7965
  140.6839  143.2340  151.5311 LP  0  0  0  0  0  0  0  0  0  0  0  0  # atno 17342 bound_to 10162
  139.5539  144.2324  152.1579 LP  0  0  0  0  0  0  0  0  0  0  0  0  # atno 17343 bound_to 10162
  156.2042  130.6639  151.1200 LP  0  0  0  0  0  0  0  0  0  0  0  0  # atno 17370 bound_to 10713
  157.7123  131.0728  150.6456 LP  0  0  0  0  0  0  0  0  0  0  0  0  # atno 17371 bound_to 10713
  140.4532  134.6910  157.5049 LP  0  0  0  0  0  0  0  0  0  0  0  0  # atno 17394 bound_to 11000
  140.0152  134.6630  155.9320 LP  0  0  0  0  0  0  0  0  0  0  0  0  # atno 17395 bound_to 11000

$$$$
