AV-unprocessed.smi:443|AV-procd|sdf|2586|dock6
  -GOLD-   2262022573D 1   1.00000     0.00000
 Structure written by MMmdl.
 48 49  0  0  0  0  0  0  0  0  1 V2000
  151.9091  137.8779  154.0580 C   0  0  0  0  0  0  0  0  0  0  0  0
  151.0424  137.9382  155.2865 C   0  0  0  0  0  0  0  0  0  0  0  0
  150.6587  139.1125  155.6669 N   0  0  0  0  0  0  0  0  0  0  0  0
  149.8621  139.2814  156.7820 N   0  0  0  0  0  0  0  0  0  0  0  0
  149.4734  140.6729  157.0353 C   0  0  0  0  0  0  0  0  0  0  0  0
  150.3506  141.6591  156.2269 C   0  0  1  0  0  0  0  0  0  0  0  0
  149.5512  142.2994  155.2528 O   0  0  0  0  0  0  0  0  0  0  0  0
  150.9792  142.7533  157.1022 C   0  0  0  0  0  0  0  0  0  0  0  0
  151.8851  142.1436  158.0123 O   0  0  0  0  0  0  0  0  0  0  0  0
  152.0329  142.6898  159.2710 C   0  0  0  0  0  0  0  0  0  0  0  0
  151.4017  143.8978  159.6669 C   0  0  0  0  0  0  0  0  0  0  0  0
  151.5928  144.4209  160.9587 C   0  0  0  0  0  0  0  0  0  0  0  0
  152.4172  143.7471  161.8747 C   0  0  0  0  0  0  0  0  0  0  0  0
  153.0457  142.5478  161.4972 C   0  0  0  0  0  0  0  0  0  0  0  0
  152.8590  142.0091  160.2036 C   0  0  0  0  0  0  0  0  0  0  0  0
  153.5486  140.6927  159.8406 C   0  0  0  0  0  0  0  0  0  0  0  0
  152.5321  139.6324  159.3853 C   0  0  0  0  0  0  0  0  0  0  0  0
  154.4269  140.1763  160.9909 C   0  0  0  0  0  0  0  0  0  0  0  0
  149.4133  138.2700  157.5783 C   0  0  0  0  0  0  0  0  0  0  0  0
  148.6982  138.4669  158.5618 O   0  0  0  0  0  0  0  0  0  0  0  0
  149.8523  136.9425  157.1423 C   0  0  0  0  0  0  0  0  0  0  0  0
  149.4053  135.8525  157.9484 C   0  0  0  0  0  0  0  0  0  0  0  0
  149.0451  134.9812  158.6201 N   0  0  0  0  0  0  0  0  0  0  0  0
  150.6259  136.7611  156.0430 C   0  0  0  0  0  0  0  0  0  0  0  0
  151.1004  135.4016  155.5480 C   0  0  0  0  0  0  0  0  0  0  0  0
  152.7683  137.2258  154.2148 H   0  0  0  0  0  0  0  0  0  0  0  0
  152.2953  138.8609  153.7893 H   0  0  0  0  0  0  0  0  0  0  0  0
  151.3445  137.4979  153.2065 H   0  0  0  0  0  0  0  0  0  0  0  0
  148.4111  140.8221  156.8304 H   0  0  0  0  0  0  0  0  0  0  0  0
  149.5681  140.8755  158.1039 H   0  0  0  0  0  0  0  0  0  0  0  0
  151.1486  141.1298  155.7038 H   0  0  0  0  0  0  0  0  0  0  0  0
  149.5375  143.2262  155.4367 H   0  0  0  0  0  0  0  0  0  0  0  0
  151.5168  143.4592  156.4667 H   0  0  0  0  0  0  0  0  0  0  0  0
  150.2034  143.3003  157.6412 H   0  0  0  0  0  0  0  0  0  0  0  0
  150.7630  144.4500  158.9948 H   0  0  0  0  0  0  0  0  0  0  0  0
  151.1073  145.3419  161.2457 H   0  0  0  0  0  0  0  0  0  0  0  0
  152.5664  144.1479  162.8665 H   0  0  0  0  0  0  0  0  0  0  0  0
  153.6745  142.0392  162.2128 H   0  0  0  0  0  0  0  0  0  0  0  0
  154.2166  140.8576  158.9966 H   0  0  0  0  0  0  0  0  0  0  0  0
  151.9621  139.9837  158.5246 H   0  0  0  0  0  0  0  0  0  0  0  0
  151.8233  139.3833  160.1751 H   0  0  0  0  0  0  0  0  0  0  0  0
  153.0303  138.7078  159.0942 H   0  0  0  0  0  0  0  0  0  0  0  0
  155.1779  140.9155  161.2709 H   0  0  0  0  0  0  0  0  0  0  0  0
  154.9537  139.2666  160.7017 H   0  0  0  0  0  0  0  0  0  0  0  0
  153.8375  139.9471  161.8789 H   0  0  0  0  0  0  0  0  0  0  0  0
  150.5874  134.5816  156.0495 H   0  0  0  0  0  0  0  0  0  0  0  0
  152.1696  135.2858  155.7283 H   0  0  0  0  0  0  0  0  0  0  0  0
  150.9166  135.2888  154.4791 H   0  0  0  0  0  0  0  0  0  0  0  0
  1  2  1  0  0  0  0
  1 26  1  0  0  0  0
  1 27  1  0  0  0  0
  1 28  1  0  0  0  0
  2 24  1  0  0  0  0
  2  3  2  0  0  0  0
  3  4  1  0  0  0  0
  4  5  1  0  0  0  0
  4 19  1  0  0  0  0
  5  6  1  0  0  0  0
  5 29  1  0  0  0  0
  5 30  1  0  0  0  0
  6  7  1  0  0  0  0
  6  8  1  0  0  0  0
  6 31  1  0  0  0  0
  7 32  1  0  0  0  0
  8  9  1  0  0  0  0
  8 33  1  0  0  0  0
  8 34  1  0  0  0  0
  9 10  1  0  0  0  0
 10 15  1  0  0  0  0
 10 11  2  0  0  0  0
 11 12  1  0  0  0  0
 11 35  1  0  0  0  0
 12 13  2  0  0  0  0
 12 36  1  0  0  0  0
 13 14  1  0  0  0  0
 13 37  1  0  0  0  0
 14 15  2  0  0  0  0
 14 38  1  0  0  0  0
 15 16  1  0  0  0  0
 16 17  1  0  0  0  0
 16 18  1  0  0  0  0
 16 39  1  0  0  0  0
 17 40  1  0  0  0  0
 17 41  1  0  0  0  0
 17 42  1  0  0  0  0
 18 43  1  0  0  0  0
 18 44  1  0  0  0  0
 18 45  1  0  0  0  0
 19 20  2  0  0  0  0
 19 21  1  0  0  0  0
 21 22  1  0  0  0  0
 21 24  2  0  0  0  0
 22 23  3  0  0  0  0
 24 25  1  0  0  0  0
 25 46  1  0  0  0  0
 25 47  1  0  0  0  0
 25 48  1  0  0  0  0
M  END
> <s_m_source_file>
AV-unprocessed.smi

> <i_m_source_file_index>
443

> <i_lp_mmshare_version>
43012

> <i_f3d_flags>
0

> <s_epik_input>
TiNDYyhjMVtDSDNdKWMoPU8pbihuYzFbQ0gzXSlbQ0gyXVtDQEhdKFtPSF0pW0NIMl1PYzJbY0hdW2NIXVtjSF1bY0hdYzJbQ0hdKFtDSDNdKVtDSDNd

> <s_epik_cmdline>
J2VwaWtfcHl0aG9uJywgJy1waCcsICc3LjAnLCAnLXRuJywgJzgnLCAnLW1hJywgJzIwMCcsICctbWV0YWxfYmluZGluZycsICctaW1hZScsICc8aW5maWxlLm1hZT4nLCAnLW9tYWUnLCAnPG91dGZpbGUubWFlPic=

> <r_lp_tautomer_probability>
1

> <r_epik_Ionization_Penalty>
1.17331e-07

> <r_epik_Ionization_Penalty_Charging>
1.57223e-10

> <r_epik_Ionization_Penalty_Neutral>
1.17174e-07

> <r_epik_State_Penalty>
-0

> <r_epik_Charging_Adjusted_Penalty>
1.57223e-10

> <i_epik_Tot_Q>
0

> <i_epik_Tot_abs_Q>
0

> <r_epik_Metal_State_Penalty>
-0

> <b_epik_Metal_Only>
0

> <s_lp_Force_Field>
OPLS_2005

> <r_lp_Energy>
30.2937

> <b_lp_Chiralities_Consistent>
1

> <s_lp_Variant>
AV-unprocessed.smi:443-2

> <Gold.Version>
5.8.1

> <Gold.Id.Protein>
6NUR|6NUR_protein|mol2

> <Gold.PLP.Fitness>
49.9439

> <Gold.PLP.PLP>
-46.2299

> <Gold.PLP.part.hbond>
-3.0000

> <Gold.PLP.part.metal>
0.0000

> <Gold.PLP.part.buried>
-4.4510

> <Gold.PLP.part.nonpolar>
-38.2671

> <Gold.PLP.part.repulsive>
0.0280

> <Gold.PLP.ligand.clash>
0.0000

> <Gold.PLP.ligand.torsion>
1.1730

> <Gold.PLP.Chemscore.Hbond>
2.0000

> <Gold.PLP.Chemscore.CHOScore>
0.0000

> <Gold.PLP.Chemscore.Metal>
0.0000

> <Gold.Chemscore.Hbonds>
donor molecule, donor type, donor heavy atom, donor atom, acceptor molecule, acceptor atom, score
      L1  H     7    32       P1  8028  1.00
      P1  H  6896  6907       L1    23  1.00

> <Gold.PLP.Chemscore.Internal.Correction>
0.0600

> <Gold.Rescore>
     Score         DG    S(hbond)    S(metal)    S(lipo)     H(rot)  DE(clash)    DE(int)     intcor
     15.75     -18.41       1.12        0.00     131.25       2.41       0.06       2.60       ----

> <Gold.Chemscore.Fitness>
15.7539

> <Gold.Chemscore.DG>
-18.4082

> <Gold.Chemscore.ZeroCoef>
-5.4800

> <Gold.Chemscore.Hbond>
1.1189

> <Gold.Chemscore.Metal>
0.0000

> <Gold.Chemscore.Lipo>
131.2536

> <Gold.Chemscore.Internal_Hbond>
0.0000

> <Gold.Chemscore.DEClash>
0.0558

> <Gold.Chemscore.DEInternal>
2.5985

> <Gold.Chemscore.Rot>
2.4084

> <Gold.Chemscore.Internal.Correction>
   9.000000E+99

> <Gold.Chemscore.Hbonds>
donor molecule, donor type, donor heavy atom, donor atom, acceptor molecule, acceptor atom, score
      L1  H     7    32       P1  8028  0.99
      P1  H  6896  6907       L1    23  0.35

> <Gold.Chemscore.Hbond.Weighted>
-3.7370

> <Gold.Chemscore.Metal.Weighted>
-0.0000

> <Gold.Chemscore.Lipo.Weighted>
-15.3567

> <Gold.Chemscore.Internal_Hbond.Weighted>
0.0000

> <Gold.Chemscore.DEClash.Weighted>
0.0558

> <Gold.Chemscore.DEInternal.Weighted>
2.5985

> <Gold.Chemscore.Rot.Weighted>
6.1655

> <Gold.Chemscore.Internal.Correction.Weighted>
   9.000000E+99

> <Gold.Protein.RotatedTorsions>
[ 6907 6896 6895 6894 ] final  -77.05 input  -60.11 | X-H torsion
[ 7974 7965 7964 7962 ] final -177.47 input  175.53 | X-H torsion
[ 8008 7997 7996 7995 ] final  159.81 input   59.86 | X-H torsion
[ 10167 10162 10161 10158 ] final  179.20 input  -65.29 | X-H torsion
[ 10718 10713 10712 10709 ] final  117.27 input   66.30 | X-H torsion
[ 10763 10752 10751 10750 ] final -120.00 input  -60.55 | X-H torsion
[ 11005 11000 10999 10996 ] final -124.26 input  -57.11 | X-H torsion

> <Gold.Protein.ActiveResidues>
 VAL166  LYS551  ARG553  GLY616  TRP617  ASP618  TYR619  PRO620  LYS621  CYS622 
 ASP623  PHE694  ASN695  SER759  ASP760  ASP761  ALA762  ILE779  LEU786  VAL792 
 PHE793  MET794  SER795  GLU796  ALA797  LYS798  CYS799  TRP800  GLU811  SER814 

> <Gold.Protein.RotatedAtoms>
  150.7010  134.4481  159.5322 H   0  0  0  0  0  0  0  0  0  0  0  0  # atno 6907 bound_to 6896
  152.2178  134.8438  160.0499 H   0  0  0  0  0  0  0  0  0  0  0  0  # atno 6908 bound_to 6896
  151.9300  133.3573  159.3964 H   0  0  0  0  0  0  0  0  0  0  0  0  # atno 6909 bound_to 6896
  144.7128  140.1014  143.6416 H   0  0  0  0  0  0  0  0  0  0  0  0  # atno 7974 bound_to 7965
  156.2214  140.1821  156.7468 H   0  0  0  0  0  0  0  0  0  0  0  0  # atno 8008 bound_to 7997
  154.5871  140.0656  156.9215 H   0  0  0  0  0  0  0  0  0  0  0  0  # atno 8009 bound_to 7997
  155.2400  140.3321  155.4296 H   0  0  0  0  0  0  0  0  0  0  0  0  # atno 8010 bound_to 7997
  139.5326  144.2589  152.0723 H   0  0  0  0  0  0  0  0  0  0  0  0  # atno 10167 bound_to 10162
  157.6107  131.1035  150.7592 H   0  0  0  0  0  0  0  0  0  0  0  0  # atno 10718 bound_to 10713
  154.8632  135.4218  154.2389 H   0  0  0  0  0  0  0  0  0  0  0  0  # atno 10763 bound_to 10752
  153.3358  135.6991  153.6914 H   0  0  0  0  0  0  0  0  0  0  0  0  # atno 10764 bound_to 10752
  153.5913  135.3554  155.2885 H   0  0  0  0  0  0  0  0  0  0  0  0  # atno 10765 bound_to 10752
  140.9855  134.0613  157.3716 H   0  0  0  0  0  0  0  0  0  0  0  0  # atno 11005 bound_to 11000
  145.9534  139.2750  143.1198 LP  0  0  0  0  0  0  0  0  0  0  0  0  # atno 17320 bound_to 7965
  145.9298  140.9056  143.0362 LP  0  0  0  0  0  0  0  0  0  0  0  0  # atno 17321 bound_to 7965
  140.2055  144.4615  150.6411 LP  0  0  0  0  0  0  0  0  0  0  0  0  # atno 17342 bound_to 10162
  140.6514  143.2226  151.6069 LP  0  0  0  0  0  0  0  0  0  0  0  0  # atno 17343 bound_to 10162
  156.7970  130.4908  149.5376 LP  0  0  0  0  0  0  0  0  0  0  0  0  # atno 17370 bound_to 10713
  156.1209  130.6109  151.0191 LP  0  0  0  0  0  0  0  0  0  0  0  0  # atno 17371 bound_to 10713
  139.8969  135.0148  156.7072 LP  0  0  0  0  0  0  0  0  0  0  0  0  # atno 17394 bound_to 11000
  140.7121  133.9214  155.8091 LP  0  0  0  0  0  0  0  0  0  0  0  0  # atno 17395 bound_to 11000

$$$$
