AV-unprocessed.smi:156|AV-procd|sdf|1288|dock9
  -GOLD-   2262018563D 1   1.00000     0.00000
 Structure written by MMmdl.
 51 53  0  0  0  0  0  0  0  0  1 V2000
  147.6929  138.5821  156.8371 C   0  0  0  0  0  0  0  0  0  0  0  0
  147.9185  138.1657  155.3701 C   0  0  1  0  0  0  0  0  0  0  0  0
  149.4232  138.1707  154.9606 C   0  0  2  0  0  0  0  0  0  0  0  0
  150.2510  137.1053  155.7042 C   0  0  0  0  0  0  0  0  0  0  0  0
  150.2360  139.8374  155.1810 S   0  0  0  0  0  0  0  0  0  0  0  0
  149.2030  140.9573  154.1439 C   0  0  0  0  0  0  0  0  0  0  0  0
  150.0614  140.2545  156.5807 O   0  0  0  0  0  0  0  0  0  0  0  0
  151.5877  139.8105  154.6024 O   0  0  0  0  0  0  0  0  0  0  0  0
  147.2575  136.8731  155.1251 N   0  0  0  0  0  0  0  0  0  0  0  0
  147.0369  135.9443  156.2313 C   0  0  0  0  0  0  0  0  0  0  0  0
  146.4948  136.7289  154.0043 C   0  0  0  0  0  0  0  0  0  0  0  0
  146.2524  137.8343  153.2515 N   0  0  0  0  0  0  0  0  0  0  0  0
  145.5304  137.7570  152.1312 C   0  0  0  0  0  0  0  0  0  0  0  0
  144.9588  136.6862  151.5819 N   0  0  0  0  0  0  0  0  0  0  0  0
  145.1870  135.5683  152.3280 C   0  0  0  0  0  0  0  0  0  0  0  0
  145.9386  135.4971  153.5379 C   0  0  0  0  0  0  0  0  0  0  0  0
  145.9435  134.1839  153.9979 N   0  0  0  0  0  0  0  0  0  0  0  0
  145.2541  133.5222  153.1105 C   0  0  0  0  0  0  0  0  0  0  0  0
  144.7466  134.2789  152.0798 N   0  0  0  0  0  0  0  0  0  0  0  0
  143.9481  133.8084  150.9556 C   0  0  0  0  0  0  0  0  0  0  0  0
  144.5394  132.5955  150.1963 C   0  0  0  0  0  0  0  0  0  0  0  0
  143.9265  132.5693  148.7893 C   0  0  0  0  0  0  0  0  0  0  0  0
  142.6321  132.0022  148.8034 O   0  0  0  0  0  0  0  0  0  0  0  0
  146.0705  132.4569  150.2422 C   0  0  0  0  0  0  0  0  0  0  0  0
  146.0015  131.4152  151.2381 O   0  0  0  0  0  0  0  0  0  0  0  0
  144.6006  131.2470  150.9349 C   0  0  0  0  0  0  0  0  0  0  0  0
  147.9943  139.6137  157.0163 H   0  0  0  0  0  0  0  0  0  0  0  0
  148.2508  137.9459  157.5248 H   0  0  0  0  0  0  0  0  0  0  0  0
  146.6377  138.5138  157.1045 H   0  0  0  0  0  0  0  0  0  0  0  0
  147.4387  138.9413  154.7758 H   0  0  0  0  0  0  0  0  0  0  0  0
  149.5081  137.9407  153.8997 H   0  0  0  0  0  0  0  0  0  0  0  0
  149.9529  136.0969  155.4188 H   0  0  0  0  0  0  0  0  0  0  0  0
  150.1384  137.1907  156.7847 H   0  0  0  0  0  0  0  0  0  0  0  0
  151.3121  137.1920  155.4714 H   0  0  0  0  0  0  0  0  0  0  0  0
  149.6129  141.9657  154.1942 H   0  0  0  0  0  0  0  0  0  0  0  0
  148.1799  140.9736  154.5168 H   0  0  0  0  0  0  0  0  0  0  0  0
  149.2098  140.6256  153.1078 H   0  0  0  0  0  0  0  0  0  0  0  0
  146.8866  134.9294  155.8615 H   0  0  0  0  0  0  0  0  0  0  0  0
  146.1622  136.2379  156.8120 H   0  0  0  0  0  0  0  0  0  0  0  0
  147.8893  135.9105  156.9069 H   0  0  0  0  0  0  0  0  0  0  0  0
  145.3928  138.6863  151.5984 H   0  0  0  0  0  0  0  0  0  0  0  0
  145.0971  132.4566  153.1876 H   0  0  0  0  0  0  0  0  0  0  0  0
  142.9529  133.5797  151.3382 H   0  0  0  0  0  0  0  0  0  0  0  0
  143.8131  134.6484  150.2732 H   0  0  0  0  0  0  0  0  0  0  0  0
  143.8699  133.5726  148.3660 H   0  0  0  0  0  0  0  0  0  0  0  0
  144.5399  131.9790  148.1077 H   0  0  0  0  0  0  0  0  0  0  0  0
  142.0006  132.6945  148.9267 H   0  0  0  0  0  0  0  0  0  0  0  0
  146.5122  132.0929  149.3130 H   0  0  0  0  0  0  0  0  0  0  0  0
  146.5986  133.3440  150.5888 H   0  0  0  0  0  0  0  0  0  0  0  0
  143.9773  131.1810  151.8251 H   0  0  0  0  0  0  0  0  0  0  0  0
  144.4313  130.3845  150.2879 H   0  0  0  0  0  0  0  0  0  0  0  0
  1  2  1  0  0  0  0
  1 27  1  0  0  0  0
  1 28  1  0  0  0  0
  1 29  1  0  0  0  0
  2  3  1  0  0  0  0
  2  9  1  0  0  0  0
  2 30  1  0  0  0  0
  3  4  1  0  0  0  0
  3  5  1  0  0  0  0
  3 31  1  0  0  0  0
  4 32  1  0  0  0  0
  4 33  1  0  0  0  0
  4 34  1  0  0  0  0
  5  6  1  0  0  0  0
  5  7  2  0  0  0  0
  5  8  2  0  0  0  0
  6 35  1  0  0  0  0
  6 36  1  0  0  0  0
  6 37  1  0  0  0  0
  9 10  1  0  0  0  0
  9 11  1  0  0  0  0
 10 38  1  0  0  0  0
 10 39  1  0  0  0  0
 10 40  1  0  0  0  0
 11 16  1  0  0  0  0
 11 12  2  0  0  0  0
 12 13  1  0  0  0  0
 13 14  2  0  0  0  0
 13 41  1  0  0  0  0
 14 15  1  0  0  0  0
 15 19  1  0  0  0  0
 15 16  2  0  0  0  0
 16 17  1  0  0  0  0
 17 18  2  0  0  0  0
 18 19  1  0  0  0  0
 18 42  1  0  0  0  0
 19 20  1  0  0  0  0
 20 21  1  0  0  0  0
 20 43  1  0  0  0  0
 20 44  1  0  0  0  0
 21 26  1  0  0  0  0
 21 22  1  0  0  0  0
 21 24  1  0  0  0  0
 22 23  1  0  0  0  0
 22 45  1  0  0  0  0
 22 46  1  0  0  0  0
 23 47  1  0  0  0  0
 24 25  1  0  0  0  0
 24 48  1  0  0  0  0
 24 49  1  0  0  0  0
 25 26  1  0  0  0  0
 26 50  1  0  0  0  0
 26 51  1  0  0  0  0
M  END
> <s_m_source_file>
AV-unprocessed.smi

> <i_m_source_file_index>
156

> <i_lp_mmshare_version>
43012

> <i_f3d_flags>
0

> <s_epik_input>
W0NIM11TKD1PKSg9TylbQ0BASF0oW0NIM10pW0NAQEhdKFtDSDNdKU4oW0NIM10pYyhuW2NIXW4xKWMoYzEyKW5bY0hdbjJbQ0gyXUMzKFtDSDJdW09IXSlbQ0gyXU9bQ0gyXTM=

> <s_epik_cmdline>
J2VwaWtfcHl0aG9uJywgJy1waCcsICc3LjAnLCAnLXRuJywgJzgnLCAnLW1hJywgJzIwMCcsICctbWV0YWxfYmluZGluZycsICctaW1hZScsICc8aW5maWxlLm1hZT4nLCAnLW9tYWUnLCAnPG91dGZpbGUubWFlPic=

> <r_lp_tautomer_probability>
1

> <r_epik_Ionization_Penalty>
0.00107697

> <r_epik_Ionization_Penalty_Charging>
0

> <r_epik_Ionization_Penalty_Neutral>
0.00107697

> <r_epik_State_Penalty>
0.000614712

> <r_epik_Charging_Adjusted_Penalty>
0.000614712

> <i_epik_Tot_Q>
0

> <i_epik_Tot_abs_Q>
0

> <r_epik_Metal_State_Penalty>
-0

> <b_epik_Metal_Only>
0

> <s_lp_Force_Field>
OPLS_2005

> <r_lp_Energy>
29.1467

> <b_lp_Chiralities_Consistent>
1

> <s_lp_Variant>
AV-unprocessed.smi:156-2

> <Gold.Version>
5.8.1

> <Gold.Id.Protein>
6NUR|6NUR_protein|mol2

> <Gold.PLP.Fitness>
46.2749

> <Gold.PLP.PLP>
-33.9582

> <Gold.PLP.part.hbond>
-4.0000

> <Gold.PLP.part.metal>
0.0000

> <Gold.PLP.part.buried>
-6.8819

> <Gold.PLP.part.nonpolar>
-25.9490

> <Gold.PLP.part.repulsive>
2.4801

> <Gold.PLP.ligand.clash>
0.0000

> <Gold.PLP.ligand.torsion>
1.5343

> <Gold.PLP.Chemscore.Hbond>
3.0000

> <Gold.PLP.Chemscore.CHOScore>
1.6942

> <Gold.PLP.Chemscore.Metal>
0.0000

> <Gold.Chemscore.Hbonds>
donor molecule, donor type, donor heavy atom, donor atom, acceptor molecule, acceptor atom, score
      L1  H    23    47       P1 10186  0.91
      P1  H  7989  7998       L1     8  0.98
      P1  H 10785 10796       L1    23  0.85
      L1  C    13    41       P1 10171  0.72
      L1  C    13    41       P1 10175  0.67

> <Gold.PLP.Chemscore.Internal.Correction>
1.3026

> <Gold.Rescore>
     Score         DG    S(hbond)    S(metal)    S(lipo)     H(rot)  DE(clash)    DE(int)     intcor
      8.52     -12.62       2.36        0.00      63.77       3.21       0.14       3.97       ----

> <Gold.Chemscore.Fitness>
8.5163

> <Gold.Chemscore.DG>
-12.6177

> <Gold.Chemscore.ZeroCoef>
-5.4800

> <Gold.Chemscore.Hbond>
2.3648

> <Gold.Chemscore.Metal>
0.0000

> <Gold.Chemscore.Lipo>
63.7680

> <Gold.Chemscore.Internal_Hbond>
0.0000

> <Gold.Chemscore.DEClash>
0.1354

> <Gold.Chemscore.DEInternal>
3.9660

> <Gold.Chemscore.Rot>
3.2115

> <Gold.Chemscore.Internal.Correction>
   9.000000E+99

> <Gold.Chemscore.Hbonds>
donor molecule, donor type, donor heavy atom, donor atom, acceptor molecule, acceptor atom, score
      L1  H    23    47       P1 10186  0.87
      P1  H  7989  7998       L1     8  0.60
      P1  H 10785 10796       L1    23  0.14

> <Gold.Chemscore.Hbond.Weighted>
-7.8983

> <Gold.Chemscore.Metal.Weighted>
-0.0000

> <Gold.Chemscore.Lipo.Weighted>
-7.4609

> <Gold.Chemscore.Internal_Hbond.Weighted>
0.0000

> <Gold.Chemscore.DEClash.Weighted>
0.1354

> <Gold.Chemscore.DEInternal.Weighted>
3.9660

> <Gold.Chemscore.Rot.Weighted>
8.2215

> <Gold.Chemscore.Internal.Correction.Weighted>
   9.000000E+99

> <Gold.Protein.RotatedTorsions>
[ 6907 6896 6895 6894 ] final   54.74 input  -60.11 | X-H torsion
[ 7974 7965 7964 7962 ] final  -33.75 input  175.53 | X-H torsion
[ 8008 7997 7996 7995 ] final -152.75 input   59.86 | X-H torsion
[ 10167 10162 10161 10158 ] final  162.10 input  -65.29 | X-H torsion
[ 10718 10713 10712 10709 ] final -103.57 input   66.30 | X-H torsion
[ 10763 10752 10751 10750 ] final   49.81 input  -60.55 | X-H torsion
[ 11005 11000 10999 10996 ] final   -6.58 input  -57.11 | X-H torsion

> <Gold.Protein.ActiveResidues>
 VAL166  LYS551  ARG553  GLY616  TRP617  ASP618  TYR619  PRO620  LYS621  CYS622 
 ASP623  PHE694  ASN695  SER759  ASP760  ASP761  ALA762  ILE779  LEU786  VAL792 
 PHE793  MET794  SER795  GLU796  ALA797  LYS798  CYS799  TRP800  GLU811  SER814 

> <Gold.Protein.RotatedAtoms>
  152.3469  134.7059  160.0247 H   0  0  0  0  0  0  0  0  0  0  0  0  # atno 6907 bound_to 6896
  151.7425  133.3317  159.3378 H   0  0  0  0  0  0  0  0  0  0  0  0  # atno 6908 bound_to 6896
  150.7515  134.6198  159.6174 H   0  0  0  0  0  0  0  0  0  0  0  0  # atno 6909 bound_to 6896
  146.0885  140.5955  142.8875 H   0  0  0  0  0  0  0  0  0  0  0  0  # atno 7974 bound_to 7965
  155.6601  140.0721  157.2557 H   0  0  0  0  0  0  0  0  0  0  0  0  # atno 8008 bound_to 7997
  154.4144  140.1718  156.1818 H   0  0  0  0  0  0  0  0  0  0  0  0  # atno 8009 bound_to 7997
  155.9704  140.3362  155.6574 H   0  0  0  0  0  0  0  0  0  0  0  0  # atno 8010 bound_to 7997
  139.4856  144.4471  151.8877 H   0  0  0  0  0  0  0  0  0  0  0  0  # atno 10167 bound_to 10162
  156.0270  130.5473  150.7271 H   0  0  0  0  0  0  0  0  0  0  0  0  # atno 10718 bound_to 10713
  152.9786  135.5899  154.4149 H   0  0  0  0  0  0  0  0  0  0  0  0  # atno 10763 bound_to 10752
  154.3780  135.2767  155.2229 H   0  0  0  0  0  0  0  0  0  0  0  0  # atno 10764 bound_to 10752
  154.4155  135.6071  153.6033 H   0  0  0  0  0  0  0  0  0  0  0  0  # atno 10765 bound_to 10752
  140.7035  133.8969  155.8700 H   0  0  0  0  0  0  0  0  0  0  0  0  # atno 11005 bound_to 11000
  144.7343  140.4763  143.6915 LP  0  0  0  0  0  0  0  0  0  0  0  0  # atno 17320 bound_to 7965
  145.6084  139.1510  143.3090 LP  0  0  0  0  0  0  0  0  0  0  0  0  # atno 17321 bound_to 7965
  140.3926  144.2596  150.5898 LP  0  0  0  0  0  0  0  0  0  0  0  0  # atno 17342 bound_to 10162
  140.5132  143.2285  151.8504 LP  0  0  0  0  0  0  0  0  0  0  0  0  # atno 17343 bound_to 10162
  157.4873  131.0908  151.0468 LP  0  0  0  0  0  0  0  0  0  0  0  0  # atno 17370 bound_to 10713
  157.0885  130.5932  149.5434 LP  0  0  0  0  0  0  0  0  0  0  0  0  # atno 17371 bound_to 10713
  141.0143  134.0976  157.4188 LP  0  0  0  0  0  0  0  0  0  0  0  0  # atno 17394 bound_to 11000
  139.8890  135.0102  156.6655 LP  0  0  0  0  0  0  0  0  0  0  0  0  # atno 17395 bound_to 11000

$$$$
