AV-unprocessed.smi:3303|AV-procd|sdf|12671|dock5
  -GOLD-   2272019 03D 1   1.00000     0.00000
 Structure written by MMmdl.
 45 46  0  0  0  0  0  0  0  0  3 V2000
  146.5258  142.0663  155.0940 C   0  0  0  0  0  0  0  0  0  0  0  0
  147.7800  141.9819  154.1987 C   0  0  2  0  0  0  0  0  0  0  0  0
  147.5069  141.1488  152.9313 C   0  0  0  0  0  0  0  0  0  0  0  0
  147.3463  139.7007  153.2337 N   0  3  1  0  0  0  0  0  0  0  0  0
  146.9427  138.9511  152.0191 C   0  0  0  0  0  0  0  0  0  0  0  0
  148.5402  139.1312  153.9306 C   0  0  2  0  0  0  0  0  0  0  0  0
  148.3582  137.6455  154.2979 C   0  0  0  0  0  0  0  0  0  0  0  0
  148.8714  139.9388  155.2057 C   0  0  0  0  0  0  0  0  0  0  0  0
  149.0392  141.4411  154.9095 C   0  0  2  0  0  0  0  0  0  0  0  0
  149.3491  142.2300  156.1255 N   0  3  0  0  0  0  0  0  0  0  0  0
  150.6875  141.9986  156.7089 C   0  0  0  0  0  0  0  0  0  0  0  0
  150.9570  142.9711  157.8658 C   0  0  0  0  0  0  0  0  0  0  0  0
  151.9756  142.4277  158.8499 C   0  0  0  0  0  0  0  0  0  0  0  0
  152.6890  141.2421  158.5710 C   0  0  0  0  0  0  0  0  0  0  0  0
  153.6256  140.7848  159.5183 C   0  0  0  0  0  0  0  0  0  0  0  0
  153.8093  141.5247  160.7023 C   0  0  0  0  0  0  0  0  0  0  0  0
  153.0458  142.6947  160.8872 C   0  0  0  0  0  0  0  0  0  0  0  0
  152.1457  143.1426  159.9848 N   0  0  0  0  0  0  0  0  0  0  0  0
  146.2124  141.0878  155.4574 H   0  0  0  0  0  0  0  0  0  0  0  0
  145.6858  142.4906  154.5428 H   0  0  0  0  0  0  0  0  0  0  0  0
  146.6911  142.7054  155.9614 H   0  0  0  0  0  0  0  0  0  0  0  0
  147.9985  143.0003  153.8740 H   0  0  0  0  0  0  0  0  0  0  0  0
  146.6105  141.5247  152.4357 H   0  0  0  0  0  0  0  0  0  0  0  0
  148.3263  141.2749  152.2215 H   0  0  0  0  0  0  0  0  0  0  0  0
  147.7650  138.8904  151.3048 H   0  0  0  0  0  0  0  0  0  0  0  0
  146.1015  139.4389  151.5251 H   0  0  0  0  0  0  0  0  0  0  0  0
  146.6160  137.9399  152.2597 H   0  0  0  0  0  0  0  0  0  0  0  0
  149.3903  139.2073  153.2503 H   0  0  0  0  0  0  0  0  0  0  0  0
  149.2001  137.2852  154.8899 H   0  0  0  0  0  0  0  0  0  0  0  0
  148.3067  137.0072  153.4162 H   0  0  0  0  0  0  0  0  0  0  0  0
  147.4527  137.4879  154.8847 H   0  0  0  0  0  0  0  0  0  0  0  0
  148.0918  139.7891  155.9537 H   0  0  0  0  0  0  0  0  0  0  0  0
  149.7870  139.5411  155.6435 H   0  0  0  0  0  0  0  0  0  0  0  0
  149.8784  141.5634  154.2221 H   0  0  0  0  0  0  0  0  0  0  0  0
  149.2986  143.2080  155.8774 H   0  0  0  0  0  0  0  0  0  0  0  0
  150.7610  140.9728  157.0692 H   0  0  0  0  0  0  0  0  0  0  0  0
  151.4460  142.1257  155.9355 H   0  0  0  0  0  0  0  0  0  0  0  0
  151.3093  143.9269  157.4757 H   0  0  0  0  0  0  0  0  0  0  0  0
  150.0303  143.1813  158.4020 H   0  0  0  0  0  0  0  0  0  0  0  0
  152.5277  140.6949  157.6538 H   0  0  0  0  0  0  0  0  0  0  0  0
  154.1930  139.8832  159.3396 H   0  0  0  0  0  0  0  0  0  0  0  0
  154.5186  141.2034  161.4507 H   0  0  0  0  0  0  0  0  0  0  0  0
  153.1614  143.2862  161.7834 H   0  0  0  0  0  0  0  0  0  0  0  0
  148.6455  142.0438  156.8262 H   0  0  0  0  0  0  0  0  0  0  0  0
  146.5720  139.6290  153.8787 H   0  0  0  0  0  0  0  0  0  0  0  0
  1  2  1  0  0  0  0
  1 19  1  0  0  0  0
  1 20  1  0  0  0  0
  1 21  1  0  0  0  0
  2  9  1  0  0  0  0
  2  3  1  0  0  0  0
  2 22  1  0  0  0  0
  3  4  1  0  0  0  0
  3 23  1  0  0  0  0
  3 24  1  0  0  0  0
  4  5  1  0  0  0  0
  4  6  1  0  0  0  0
  4 45  1  0  0  0  0
  5 25  1  0  0  0  0
  5 26  1  0  0  0  0
  5 27  1  0  0  0  0
  6  7  1  0  0  0  0
  6  8  1  0  0  0  0
  6 28  1  0  0  0  0
  7 29  1  0  0  0  0
  7 30  1  0  0  0  0
  7 31  1  0  0  0  0
  8  9  1  0  0  0  0
  8 32  1  0  0  0  0
  8 33  1  0  0  0  0
  9 10  1  0  0  0  0
  9 34  1  0  0  0  0
 10 11  1  0  0  0  0
 10 35  1  0  0  0  0
 10 44  1  0  0  0  0
 11 12  1  0  0  0  0
 11 36  1  0  0  0  0
 11 37  1  0  0  0  0
 12 13  1  0  0  0  0
 12 38  1  0  0  0  0
 12 39  1  0  0  0  0
 13 18  1  0  0  0  0
 13 14  2  0  0  0  0
 14 15  1  0  0  0  0
 14 40  1  0  0  0  0
 15 16  2  0  0  0  0
 15 41  1  0  0  0  0
 16 17  1  0  0  0  0
 16 42  1  0  0  0  0
 17 18  2  0  0  0  0
 17 43  1  0  0  0  0
M  CHG  1   4   1
M  CHG  1  10   1
M  END
> <s_m_source_file>
AV-unprocessed.smi

> <i_m_source_file_index>
3303

> <i_lp_mmshare_version>
43012

> <i_f3d_flags>
0

> <s_epik_input>
W0NIM11bQ0BASF0xW0NIMl1OKFtDSDNdKVtDQEBIXShbQ0gzXSlbQ0gyXVtDQEhdMVtOSF1bQ0gyXVtDSDJdYzJbY0hdW2NIXVtjSF1bY0hdbjI=

> <s_epik_cmdline>
J2VwaWtfcHl0aG9uJywgJy1waCcsICc3LjAnLCAnLXRuJywgJzgnLCAnLW1hJywgJzIwMCcsICctbWV0YWxfYmluZGluZycsICctaW1hZScsICc8aW5maWxlLm1hZT4nLCAnLW9tYWUnLCAnPG91dGZpbGUubWFlPic=

> <r_epik_Ionization_Penalty>
0.0769462

> <r_epik_Ionization_Penalty_Charging>
0.0759813

> <r_epik_Ionization_Penalty_Neutral>
0.000964829

> <r_epik_State_Penalty>
0.0654373

> <r_epik_Charging_Adjusted_Penalty>
0.141419

> <i_epik_Tot_Q>
2

> <i_epik_Tot_abs_Q>
2

> <r_epik_Metal_State_Penalty>
0.0656439

> <b_epik_Metal_Only>
0

> <s_lp_Force_Field>
OPLS_2005

> <r_lp_Energy>
31.1482

> <b_lp_Chiralities_Consistent>
1

> <s_lp_Variant>
AV-unprocessed.smi:3303-15

> <Gold.Version>
5.8.1

> <Gold.Id.Protein>
6NUR|6NUR_protein|mol2

> <Gold.PLP.Fitness>
42.7100

> <Gold.PLP.PLP>
-37.2284

> <Gold.PLP.part.hbond>
-1.2564

> <Gold.PLP.part.metal>
0.0000

> <Gold.PLP.part.buried>
-2.7832

> <Gold.PLP.part.nonpolar>
-33.0075

> <Gold.PLP.part.repulsive>
0.1167

> <Gold.PLP.ligand.clash>
0.0000

> <Gold.PLP.ligand.torsion>
0.2729

> <Gold.PLP.Chemscore.Hbond>
2.0000

> <Gold.PLP.Chemscore.CHOScore>
0.0000

> <Gold.PLP.Chemscore.Metal>
0.0000

> <Gold.Chemscore.Hbonds>
donor molecule, donor type, donor heavy atom, donor atom, acceptor molecule, acceptor atom, score
      L1  H    10    35       P1  8028  2.00

> <Gold.PLP.Chemscore.Internal.Correction>
0.0276

> <Gold.Rescore>
     Score         DG    S(hbond)    S(metal)    S(lipo)     H(rot)  DE(clash)    DE(int)     intcor
     18.12     -18.53       1.00        0.00     113.13       1.37       0.16       0.25       ----

> <Gold.Chemscore.Fitness>
18.1204

> <Gold.Chemscore.DG>
-18.5289

> <Gold.Chemscore.ZeroCoef>
-5.4800

> <Gold.Chemscore.Hbond>
0.9974

> <Gold.Chemscore.Metal>
0.0000

> <Gold.Chemscore.Lipo>
113.1295

> <Gold.Chemscore.Internal_Hbond>
0.0000

> <Gold.Chemscore.DEClash>
0.1602

> <Gold.Chemscore.DEInternal>
0.2483

> <Gold.Chemscore.Rot>
1.3744

> <Gold.Chemscore.Internal.Correction>
   9.000000E+99

> <Gold.Chemscore.Hbonds>
donor molecule, donor type, donor heavy atom, donor atom, acceptor molecule, acceptor atom, score
      L1  H    10    35       P1  8028  0.98

> <Gold.Chemscore.Hbond.Weighted>
-3.3312

> <Gold.Chemscore.Metal.Weighted>
-0.0000

> <Gold.Chemscore.Lipo.Weighted>
-13.2361

> <Gold.Chemscore.Internal_Hbond.Weighted>
0.0000

> <Gold.Chemscore.DEClash.Weighted>
0.1602

> <Gold.Chemscore.DEInternal.Weighted>
0.2483

> <Gold.Chemscore.Rot.Weighted>
3.5185

> <Gold.Chemscore.Internal.Correction.Weighted>
   9.000000E+99

> <Gold.Protein.RotatedTorsions>
[ 6907 6896 6895 6894 ] final  126.44 input  -60.11 | X-H torsion
[ 7974 7965 7964 7962 ] final  165.33 input  175.53 | X-H torsion
[ 8008 7997 7996 7995 ] final   64.53 input   59.86 | X-H torsion
[ 10167 10162 10161 10158 ] final   84.14 input  -65.29 | X-H torsion
[ 10718 10713 10712 10709 ] final    0.52 input   66.30 | X-H torsion
[ 10763 10752 10751 10750 ] final  -71.15 input  -60.55 | X-H torsion
[ 11005 11000 10999 10996 ] final   -8.12 input  -57.11 | X-H torsion

> <Gold.Protein.ActiveResidues>
 VAL166  LYS551  ARG553  GLY616  TRP617  ASP618  TYR619  PRO620  LYS621  CYS622 
 ASP623  PHE694  ASN695  SER759  ASP760  ASP761  ALA762  ILE779  LEU786  VAL792 
 PHE793  MET794  SER795  GLU796  ALA797  LYS798  CYS799  TRP800  GLU811  SER814 

> <Gold.Protein.RotatedAtoms>
  152.3903  133.6670  159.6232 H   0  0  0  0  0  0  0  0  0  0  0  0  # atno 6907 bound_to 6896
  150.7813  133.8965  159.3337 H   0  0  0  0  0  0  0  0  0  0  0  0  # atno 6908 bound_to 6896
  151.6753  135.0971  160.0257 H   0  0  0  0  0  0  0  0  0  0  0  0  # atno 6909 bound_to 6896
  144.7507  139.8454  143.6367 H   0  0  0  0  0  0  0  0  0  0  0  0  # atno 7974 bound_to 7965
  155.6475  140.3497  155.4736 H   0  0  0  0  0  0  0  0  0  0  0  0  # atno 8008 bound_to 7997
  155.9875  140.1187  157.0692 H   0  0  0  0  0  0  0  0  0  0  0  0  # atno 8009 bound_to 7997
  154.4209  140.1126  156.5506 H   0  0  0  0  0  0  0  0  0  0  0  0  # atno 8010 bound_to 7997
  139.9111  144.6271  150.8536 H   0  0  0  0  0  0  0  0  0  0  0  0  # atno 10167 bound_to 10162
  156.8346  130.5500  149.5683 H   0  0  0  0  0  0  0  0  0  0  0  0  # atno 10718 bound_to 10713
  154.4277  135.5971  153.6049 H   0  0  0  0  0  0  0  0  0  0  0  0  # atno 10763 bound_to 10752
  152.9797  135.5967  154.3877 H   0  0  0  0  0  0  0  0  0  0  0  0  # atno 10764 bound_to 10752
  154.3711  135.2841  155.2244 H   0  0  0  0  0  0  0  0  0  0  0  0  # atno 10765 bound_to 10752
  140.7200  133.8836  155.8814 H   0  0  0  0  0  0  0  0  0  0  0  0  # atno 11005 bound_to 11000
  146.1453  139.4521  143.0083 LP  0  0  0  0  0  0  0  0  0  0  0  0  # atno 17320 bound_to 7965
  145.6954  141.0152  143.1533 LP  0  0  0  0  0  0  0  0  0  0  0  0  # atno 17321 bound_to 7965
  140.7685  143.3365  151.2298 LP  0  0  0  0  0  0  0  0  0  0  0  0  # atno 17342 bound_to 10162
  139.6942  143.9642  152.2874 LP  0  0  0  0  0  0  0  0  0  0  0  0  # atno 17343 bound_to 10162
  156.0915  130.5899  150.9741 LP  0  0  0  0  0  0  0  0  0  0  0  0  # atno 17370 bound_to 10713
  157.6388  131.0913  150.8293 LP  0  0  0  0  0  0  0  0  0  0  0  0  # atno 17371 bound_to 10713
  141.0011  134.1149  157.4316 LP  0  0  0  0  0  0  0  0  0  0  0  0  # atno 17394 bound_to 11000
  139.8850  135.0068  156.6408 LP  0  0  0  0  0  0  0  0  0  0  0  0  # atno 17395 bound_to 11000

$$$$
