AV-unprocessed.smi:320|AV-procd|sdf|2332|dock8
  -GOLD-   2262022233D 1   1.00000     0.00000
 Structure written by MMmdl.
 49 52  0  0  0  0  0  0  0  0  1 V2000
  149.1328  141.5874  154.9207 C   0  0  0  0  0  0  0  0  0  0  0  0
  149.8807  140.8874  156.0739 C   0  0  2  0  0  0  0  0  0  0  0  0
  150.7945  141.8517  156.6885 N   0  0  0  0  0  0  0  0  0  0  0  0
  150.7016  142.3414  157.9341 C   0  0  0  0  0  0  0  0  0  0  0  0
  149.8184  142.0112  158.7269 O   0  0  0  0  0  0  0  0  0  0  0  0
  151.7881  143.3493  158.3364 C   0  0  0  0  0  0  0  0  0  0  0  0
  152.5700  142.9303  159.5117 N   0  0  0  0  0  0  0  0  0  0  0  0
  152.5249  143.7696  160.6427 C   0  0  0  0  0  0  0  0  0  0  0  0
  153.2048  143.4861  161.7649 C   0  0  0  0  0  0  0  0  0  0  0  0
  153.9997  142.2814  161.7954 C   0  0  0  0  0  0  0  0  0  0  0  0
  154.0531  141.4733  160.7177 C   0  0  0  0  0  0  0  0  0  0  0  0
  153.3135  141.7809  159.4878 C   0  0  0  0  0  0  0  0  0  0  0  0
  153.3600  141.0507  158.4973 O   0  0  0  0  0  0  0  0  0  0  0  0
  150.6335  139.5754  155.6839 C   0  0  0  0  0  0  0  0  0  0  0  0
  150.7327  138.6430  156.9279 C   0  0  0  0  0  0  0  0  0  0  0  0
  151.4518  137.3243  156.5760 C   0  0  2  0  0  0  0  0  0  0  0  0
  152.8777  137.6350  156.0766 C   0  0  0  0  0  0  0  0  0  0  0  0
  152.7916  138.5271  154.8214 C   0  0  1  0  0  0  0  0  0  0  0  0
  152.0070  137.7898  153.7167 C   0  0  0  0  0  0  0  0  0  0  0  0
  150.5841  137.4798  154.2260 C   0  0  1  0  0  0  0  0  0  0  0  0
  150.6637  136.5840  155.4775 C   0  0  0  0  0  0  0  0  0  0  0  0
  149.8637  138.7994  154.5765 C   0  0  0  0  0  0  0  0  0  0  0  0
  152.0773  139.8511  155.1714 C   0  0  0  0  0  0  0  0  0  0  0  0
  148.3513  140.9575  154.4980 H   0  0  0  0  0  0  0  0  0  0  0  0
  149.8056  141.8796  154.1151 H   0  0  0  0  0  0  0  0  0  0  0  0
  148.6414  142.4946  155.2740 H   0  0  0  0  0  0  0  0  0  0  0  0
  149.1261  140.6078  156.8115 H   0  0  0  0  0  0  0  0  0  0  0  0
  151.5576  142.1769  156.1128 H   0  0  0  0  0  0  0  0  0  0  0  0
  152.4429  143.5043  157.4778 H   0  0  0  0  0  0  0  0  0  0  0  0
  151.3259  144.3211  158.5212 H   0  0  0  0  0  0  0  0  0  0  0  0
  151.9136  144.6539  160.5355 H   0  0  0  0  0  0  0  0  0  0  0  0
  153.1615  144.1442  162.6203 H   0  0  0  0  0  0  0  0  0  0  0  0
  154.5552  142.0272  162.6861 H   0  0  0  0  0  0  0  0  0  0  0  0
  154.6547  140.5771  160.7581 H   0  0  0  0  0  0  0  0  0  0  0  0
  151.2720  139.1319  157.7398 H   0  0  0  0  0  0  0  0  0  0  0  0
  149.7365  138.4261  157.3157 H   0  0  0  0  0  0  0  0  0  0  0  0
  151.5091  136.6950  157.4648 H   0  0  0  0  0  0  0  0  0  0  0  0
  153.4517  138.1352  156.8576 H   0  0  0  0  0  0  0  0  0  0  0  0
  153.4081  136.7097  155.8481 H   0  0  0  0  0  0  0  0  0  0  0  0
  153.7987  138.7446  154.4643 H   0  0  0  0  0  0  0  0  0  0  0  0
  151.9619  138.3994  152.8134 H   0  0  0  0  0  0  0  0  0  0  0  0
  152.5191  136.8671  153.4411 H   0  0  0  0  0  0  0  0  0  0  0  0
  150.0270  136.9603  153.4457 H   0  0  0  0  0  0  0  0  0  0  0  0
  151.1487  135.6373  155.2360 H   0  0  0  0  0  0  0  0  0  0  0  0
  149.6615  136.3370  155.8305 H   0  0  0  0  0  0  0  0  0  0  0  0
  148.8431  138.5908  154.9005 H   0  0  0  0  0  0  0  0  0  0  0  0
  149.7807  139.3969  153.6692 H   0  0  0  0  0  0  0  0  0  0  0  0
  152.0562  140.4900  154.2884 H   0  0  0  0  0  0  0  0  0  0  0  0
  152.6599  140.3871  155.9215 H   0  0  0  0  0  0  0  0  0  0  0  0
  1  2  1  0  0  0  0
  1 24  1  0  0  0  0
  1 25  1  0  0  0  0
  1 26  1  0  0  0  0
  2  3  1  0  0  0  0
  2 14  1  0  0  0  0
  2 27  1  0  0  0  0
  3  4  1  0  0  0  0
  3 28  1  0  0  0  0
  4  5  2  0  0  0  0
  4  6  1  0  0  0  0
  6  7  1  0  0  0  0
  6 29  1  0  0  0  0
  6 30  1  0  0  0  0
  7 12  1  0  0  0  0
  7  8  1  0  0  0  0
  8  9  2  0  0  0  0
  8 31  1  0  0  0  0
  9 10  1  0  0  0  0
  9 32  1  0  0  0  0
 10 11  2  0  0  0  0
 10 33  1  0  0  0  0
 11 12  1  0  0  0  0
 11 34  1  0  0  0  0
 12 13  2  0  0  0  0
 14 22  1  0  0  0  0
 14 23  1  0  0  0  0
 14 15  1  0  0  0  0
 15 16  1  0  0  0  0
 15 35  1  0  0  0  0
 15 36  1  0  0  0  0
 16 21  1  0  0  0  0
 16 17  1  0  0  0  0
 16 37  1  0  0  0  0
 17 18  1  0  0  0  0
 17 38  1  0  0  0  0
 17 39  1  0  0  0  0
 18 19  1  0  0  0  0
 18 23  1  0  0  0  0
 18 40  1  0  0  0  0
 19 20  1  0  0  0  0
 19 41  1  0  0  0  0
 19 42  1  0  0  0  0
 20 21  1  0  0  0  0
 20 22  1  0  0  0  0
 20 43  1  0  0  0  0
 21 44  1  0  0  0  0
 21 45  1  0  0  0  0
 22 46  1  0  0  0  0
 22 47  1  0  0  0  0
 23 48  1  0  0  0  0
 23 49  1  0  0  0  0
M  END
> <s_m_source_file>
AV-unprocessed.smi

> <i_m_source_file_index>
320

> <i_lp_mmshare_version>
43012

> <i_f3d_flags>
0

> <s_epik_input>
W0NIMl0xW0NAQEhdKFtDSDJdMilbQ0gyXVtDQEBIXShbQ0gyXTMpW0NIMl1bQ0BIXTFbQ0gyXUMyM1tDQEhdKFtDSDNdKVtOSF1DKD1PKVtDSDJdbjRbY0hdW2NIXVtjSF1bY0hdYzQ9Tw==

> <s_epik_cmdline>
J2VwaWtfcHl0aG9uJywgJy1waCcsICc3LjAnLCAnLXRuJywgJzgnLCAnLW1hJywgJzIwMCcsICctbWV0YWxfYmluZGluZycsICctaW1hZScsICc8aW5maWxlLm1hZT4nLCAnLW9tYWUnLCAnPG91dGZpbGUubWFlPic=

> <r_lp_tautomer_probability>
1

> <r_epik_Ionization_Penalty>
4.15949e-07

> <r_epik_Ionization_Penalty_Charging>
3.97363e-07

> <r_epik_Ionization_Penalty_Neutral>
1.85865e-08

> <r_epik_State_Penalty>
-0

> <r_epik_Charging_Adjusted_Penalty>
3.97363e-07

> <i_epik_Tot_Q>
0

> <i_epik_Tot_abs_Q>
0

> <r_epik_Metal_State_Penalty>
-0

> <b_epik_Metal_Only>
0

> <s_lp_Force_Field>
OPLS_2005

> <r_lp_Energy>
45.4177

> <b_lp_Chiralities_Consistent>
1

> <s_lp_Variant>
AV-unprocessed.smi:320-1

> <Gold.Version>
5.8.1

> <Gold.Id.Protein>
6NUR|6NUR_protein|mol2

> <Gold.PLP.Fitness>
48.4613

> <Gold.PLP.PLP>
-50.1145

> <Gold.PLP.part.hbond>
-0.1815

> <Gold.PLP.part.metal>
0.0000

> <Gold.PLP.part.buried>
-0.3251

> <Gold.PLP.part.nonpolar>
-47.0925

> <Gold.PLP.part.repulsive>
0.1684

> <Gold.PLP.ligand.clash>
0.0000

> <Gold.PLP.ligand.torsion>
0.8524

> <Gold.PLP.Chemscore.Hbond>
0.0000

> <Gold.PLP.Chemscore.CHOScore>
0.0000

> <Gold.PLP.Chemscore.Metal>
0.0000

> <Gold.Chemscore.Hbonds>
donor molecule, donor type, donor heavy atom, donor atom, acceptor molecule, acceptor atom, score
      P1  H  7997  8010       L1    13  0.35

> <Gold.PLP.Chemscore.Internal.Correction>
0.0516

> <Gold.Rescore>
     Score         DG    S(hbond)    S(metal)    S(lipo)     H(rot)  DE(clash)    DE(int)     intcor
     14.79     -16.40       0.00        0.00     126.59       1.52       0.75       0.86       ----

> <Gold.Chemscore.Fitness>
14.7930

> <Gold.Chemscore.DG>
-16.3993

> <Gold.Chemscore.ZeroCoef>
-5.4800

> <Gold.Chemscore.Hbond>
0.0000

> <Gold.Chemscore.Metal>
0.0000

> <Gold.Chemscore.Lipo>
126.5894

> <Gold.Chemscore.Internal_Hbond>
0.0000

> <Gold.Chemscore.DEClash>
0.7452

> <Gold.Chemscore.DEInternal>
0.8612

> <Gold.Chemscore.Rot>
1.5202

> <Gold.Chemscore.Internal.Correction>
   9.000000E+99

> <Gold.Chemscore.Hbonds>
donor molecule, donor type, donor heavy atom, donor atom, acceptor molecule, acceptor atom, score
      P1  H  7997  8010       L1    13  0.34

> <Gold.Chemscore.Hbond.Weighted>
-0.0000

> <Gold.Chemscore.Metal.Weighted>
-0.0000

> <Gold.Chemscore.Lipo.Weighted>
-14.8110

> <Gold.Chemscore.Internal_Hbond.Weighted>
0.0000

> <Gold.Chemscore.DEClash.Weighted>
0.7452

> <Gold.Chemscore.DEInternal.Weighted>
0.8612

> <Gold.Chemscore.Rot.Weighted>
3.8916

> <Gold.Chemscore.Internal.Correction.Weighted>
   9.000000E+99

> <Gold.Protein.RotatedTorsions>
[ 6907 6896 6895 6894 ] final   90.89 input  -60.11 | X-H torsion
[ 7974 7965 7964 7962 ] final  -56.14 input  175.53 | X-H torsion
[ 8008 7997 7996 7995 ] final   35.80 input   59.86 | X-H torsion
[ 10167 10162 10161 10158 ] final  -35.33 input  -65.29 | X-H torsion
[ 10718 10713 10712 10709 ] final   54.60 input   66.30 | X-H torsion
[ 10763 10752 10751 10750 ] final -115.40 input  -60.55 | X-H torsion
[ 11005 11000 10999 10996 ] final  -93.65 input  -57.11 | X-H torsion

> <Gold.Protein.ActiveResidues>
 VAL166  LYS551  ARG553  GLY616  TRP617  ASP618  TYR619  PRO620  LYS621  CYS622 
 ASP623  PHE694  ASN695  SER759  ASP760  ASP761  ALA762  ILE779  LEU786  VAL792 
 PHE793  MET794  SER795  GLU796  ALA797  LYS798  CYS799  TRP800  GLU811  SER814 

> <Gold.Protein.RotatedAtoms>
  152.5447  134.1741  159.8608 H   0  0  0  0  0  0  0  0  0  0  0  0  # atno 6907 bound_to 6896
  151.1749  133.4754  159.2601 H   0  0  0  0  0  0  0  0  0  0  0  0  # atno 6908 bound_to 6896
  151.1237  135.0104  159.8605 H   0  0  0  0  0  0  0  0  0  0  0  0  # atno 6909 bound_to 6896
  145.8662  140.8250  142.9912 H   0  0  0  0  0  0  0  0  0  0  0  0  # atno 7974 bound_to 7965
  155.1770  140.3296  155.4382 H   0  0  0  0  0  0  0  0  0  0  0  0  # atno 8008 bound_to 7997
  156.2490  140.1933  156.6820 H   0  0  0  0  0  0  0  0  0  0  0  0  # atno 8009 bound_to 7997
  154.6298  140.0584  156.9704 H   0  0  0  0  0  0  0  0  0  0  0  0  # atno 8010 bound_to 7997
  140.7167  143.3485  151.2206 H   0  0  0  0  0  0  0  0  0  0  0  0  # atno 10167 bound_to 10162
  157.5271  130.8605  149.8636 H   0  0  0  0  0  0  0  0  0  0  0  0  # atno 10718 bound_to 10713
  154.8480  135.4383  154.1658 H   0  0  0  0  0  0  0  0  0  0  0  0  # atno 10763 bound_to 10752
  153.2783  135.6951  153.7417 H   0  0  0  0  0  0  0  0  0  0  0  0  # atno 10764 bound_to 10752
  153.6630  135.3431  155.3107 H   0  0  0  0  0  0  0  0  0  0  0  0  # atno 10765 bound_to 10752
  141.1491  133.7902  157.0189 H   0  0  0  0  0  0  0  0  0  0  0  0  # atno 11005 bound_to 11000
  144.6726  140.1169  143.7452 LP  0  0  0  0  0  0  0  0  0  0  0  0  # atno 17320 bound_to 7965
  145.9191  139.2534  143.1392 LP  0  0  0  0  0  0  0  0  0  0  0  0  # atno 17321 bound_to 7965
  139.7010  143.9534  152.2905 LP  0  0  0  0  0  0  0  0  0  0  0  0  # atno 17342 bound_to 10162
  139.9227  144.6790  150.8445 LP  0  0  0  0  0  0  0  0  0  0  0  0  # atno 17343 bound_to 10162
  156.0395  130.3742  150.1473 LP  0  0  0  0  0  0  0  0  0  0  0  0  # atno 17370 bound_to 10713
  156.9659  130.9819  151.3469 LP  0  0  0  0  0  0  0  0  0  0  0  0  # atno 17371 bound_to 10713
  140.0829  134.9638  157.1653 LP  0  0  0  0  0  0  0  0  0  0  0  0  # atno 17394 bound_to 11000
  140.3552  134.2554  155.7193 LP  0  0  0  0  0  0  0  0  0  0  0  0  # atno 17395 bound_to 11000

$$$$
