AV-unprocessed.smi:1454|AV-procd|sdf|5913|dock8
  -GOLD-   22720 5593D 1   1.00000     0.00000
 Structure written by MMmdl.
 44 45  0  0  0  0  0  0  0  0  1 V2000
  149.7405  137.9161  156.1183 O   0  0  0  0  0  0  0  0  0  0  0  0
  150.1988  138.1689  157.2331 C   0  0  0  0  0  0  0  0  0  0  0  0
  149.9511  137.2264  158.4158 C   0  0  0  0  0  0  0  0  0  0  0  0
  148.6849  136.3622  158.2515 C   0  0  0  0  0  0  0  0  0  0  0  0
  148.4548  135.5175  159.4179 N   0  0  0  0  0  0  0  0  0  0  0  0
  147.9928  135.9449  160.6031 C   0  0  0  0  0  0  0  0  0  0  0  0
  147.7202  137.1235  160.8343 O   0  0  0  0  0  0  0  0  0  0  0  0
  147.8141  134.8748  161.6928 C   0  0  0  0  0  0  0  0  0  0  0  0
  146.9503  133.6882  161.2037 C   0  0  0  0  0  0  0  0  0  0  0  0
  145.7236  133.6182  162.1221 C   0  0  0  0  0  0  0  0  0  0  0  0
  145.6205  134.9995  162.7623 C   0  0  0  0  0  0  0  0  0  0  0  0
  147.0762  135.4342  162.9244 C   0  0  0  0  0  0  0  0  0  0  0  0
  150.9398  139.2566  157.4891 N   0  0  0  0  0  0  0  0  0  0  0  0
  151.2990  140.2581  156.4945 C   0  0  0  0  0  0  0  0  0  0  0  0
  150.5993  141.5914  156.7900 C   0  0  0  0  0  0  0  0  0  0  0  0
  151.3832  142.4411  157.7708 C   0  0  0  0  0  0  0  0  0  0  0  0
  151.7153  143.7777  157.4679 C   0  0  0  0  0  0  0  0  0  0  0  0
  152.4504  144.5237  158.4092 C   0  0  0  0  0  0  0  0  0  0  0  0
  152.8238  143.8990  159.6160 C   0  0  0  0  0  0  0  0  0  0  0  0
  152.5115  142.6199  159.9167 N   0  0  0  0  0  0  0  0  0  0  0  0
  151.8061  141.9118  159.0087 C   0  0  0  0  0  0  0  0  0  0  0  0
  150.8261  136.5855  158.5292 H   0  0  0  0  0  0  0  0  0  0  0  0
  149.8771  137.8191  159.3287 H   0  0  0  0  0  0  0  0  0  0  0  0
  147.8104  136.9886  158.0670 H   0  0  0  0  0  0  0  0  0  0  0  0
  148.7851  135.7056  157.3865 H   0  0  0  0  0  0  0  0  0  0  0  0
  148.6532  134.5328  159.3139 H   0  0  0  0  0  0  0  0  0  0  0  0
  148.7978  134.5153  161.9998 H   0  0  0  0  0  0  0  0  0  0  0  0
  146.6270  133.8201  160.1694 H   0  0  0  0  0  0  0  0  0  0  0  0
  147.5089  132.7523  161.2362 H   0  0  0  0  0  0  0  0  0  0  0  0
  144.8156  133.3374  161.5874 H   0  0  0  0  0  0  0  0  0  0  0  0
  145.8930  132.8709  162.8986 H   0  0  0  0  0  0  0  0  0  0  0  0
  145.1007  135.6825  162.0893 H   0  0  0  0  0  0  0  0  0  0  0  0
  145.0782  134.9847  163.7079 H   0  0  0  0  0  0  0  0  0  0  0  0
  147.4916  134.9879  163.8289 H   0  0  0  0  0  0  0  0  0  0  0  0
  147.1665  136.5162  163.0332 H   0  0  0  0  0  0  0  0  0  0  0  0
  151.2796  139.3959  158.4299 H   0  0  0  0  0  0  0  0  0  0  0  0
  152.3813  140.3971  156.4960 H   0  0  0  0  0  0  0  0  0  0  0  0
  151.0202  139.8984  155.5028 H   0  0  0  0  0  0  0  0  0  0  0  0
  150.4578  142.1540  155.8662 H   0  0  0  0  0  0  0  0  0  0  0  0
  149.6034  141.4102  157.1969 H   0  0  0  0  0  0  0  0  0  0  0  0
  151.4154  144.2236  156.5309 H   0  0  0  0  0  0  0  0  0  0  0  0
  152.7232  145.5496  158.2109 H   0  0  0  0  0  0  0  0  0  0  0  0
  153.3897  144.4409  160.3592 H   0  0  0  0  0  0  0  0  0  0  0  0
  151.5749  140.8915  159.2775 H   0  0  0  0  0  0  0  0  0  0  0  0
  1  2  2  0  0  0  0
  2  3  1  0  0  0  0
  2 13  1  0  0  0  0
  3  4  1  0  0  0  0
  3 22  1  0  0  0  0
  3 23  1  0  0  0  0
  4  5  1  0  0  0  0
  4 24  1  0  0  0  0
  4 25  1  0  0  0  0
  5  6  1  0  0  0  0
  5 26  1  0  0  0  0
  6  7  2  0  0  0  0
  6  8  1  0  0  0  0
  8 12  1  0  0  0  0
  8  9  1  0  0  0  0
  8 27  1  0  0  0  0
  9 10  1  0  0  0  0
  9 28  1  0  0  0  0
  9 29  1  0  0  0  0
 10 11  1  0  0  0  0
 10 30  1  0  0  0  0
 10 31  1  0  0  0  0
 11 12  1  0  0  0  0
 11 32  1  0  0  0  0
 11 33  1  0  0  0  0
 12 34  1  0  0  0  0
 12 35  1  0  0  0  0
 13 14  1  0  0  0  0
 13 36  1  0  0  0  0
 14 15  1  0  0  0  0
 14 37  1  0  0  0  0
 14 38  1  0  0  0  0
 15 16  1  0  0  0  0
 15 39  1  0  0  0  0
 15 40  1  0  0  0  0
 16 21  1  0  0  0  0
 16 17  2  0  0  0  0
 17 18  1  0  0  0  0
 17 41  1  0  0  0  0
 18 19  2  0  0  0  0
 18 42  1  0  0  0  0
 19 20  1  0  0  0  0
 19 43  1  0  0  0  0
 20 21  2  0  0  0  0
 21 44  1  0  0  0  0
M  END
> <s_m_source_file>
AV-unprocessed.smi

> <i_m_source_file_index>
1454

> <i_lp_mmshare_version>
43012

> <i_f3d_flags>
0

> <s_epik_input>
W2NIXTFuW2NIXVtjSF1bY0hdYzFbQ0gyXVtDSDJdW05IXUMoPU8pW0NIMl1bQ0gyXVtOSF1DKD1PKVtDSF0yW0NIMl1bQ0gyXVtDSDJdW0NIMl0y

> <s_epik_cmdline>
J2VwaWtfcHl0aG9uJywgJy1waCcsICc3LjAnLCAnLXRuJywgJzgnLCAnLW1hJywgJzIwMCcsICctbWV0YWxfYmluZGluZycsICctaW1hZScsICc8aW5maWxlLm1hZT4nLCAnLW9tYWUnLCAnPG91dGZpbGUubWFlPic=

> <r_epik_Ionization_Penalty>
0.013238

> <r_epik_Ionization_Penalty_Charging>
0

> <r_epik_Ionization_Penalty_Neutral>
0.013238

> <r_epik_State_Penalty>
0.0102918

> <r_epik_Charging_Adjusted_Penalty>
0.0102918

> <i_epik_Tot_Q>
0

> <i_epik_Tot_abs_Q>
0

> <r_epik_Metal_State_Penalty>
0.0100665

> <b_epik_Metal_Only>
0

> <s_lp_Force_Field>
OPLS_2005

> <r_lp_Energy>
20.9977

> <b_lp_Chiralities_Consistent>
1

> <s_lp_Variant>
AV-unprocessed.smi:1454-1

> <Gold.Version>
5.8.1

> <Gold.Id.Protein>
6NUR|6NUR_protein|mol2

> <Gold.PLP.Fitness>
47.1096

> <Gold.PLP.PLP>
-43.1488

> <Gold.PLP.part.hbond>
-2.0000

> <Gold.PLP.part.metal>
0.0000

> <Gold.PLP.part.buried>
-6.2799

> <Gold.PLP.part.nonpolar>
-35.4880

> <Gold.PLP.part.repulsive>
0.1638

> <Gold.PLP.ligand.clash>
0.0000

> <Gold.PLP.ligand.torsion>
0.7846

> <Gold.PLP.Chemscore.Hbond>
1.7920

> <Gold.PLP.Chemscore.CHOScore>
0.0000

> <Gold.PLP.Chemscore.Metal>
0.0000

> <Gold.Chemscore.Hbonds>
donor molecule, donor type, donor heavy atom, donor atom, acceptor molecule, acceptor atom, score
      P1  H  6931  6943       L1     7  0.87
      P1  H  6934  6947       L1     7  0.91

> <Gold.PLP.Chemscore.Internal.Correction>
0.1539

> <Gold.Rescore>
     Score         DG    S(hbond)    S(metal)    S(lipo)     H(rot)  DE(clash)    DE(int)     intcor
     18.92     -19.70       1.71        0.00     118.49       2.10       0.02       0.76       ----

> <Gold.Chemscore.Fitness>
18.9198

> <Gold.Chemscore.DG>
-19.6978

> <Gold.Chemscore.ZeroCoef>
-5.4800

> <Gold.Chemscore.Hbond>
1.7126

> <Gold.Chemscore.Metal>
0.0000

> <Gold.Chemscore.Lipo>
118.4917

> <Gold.Chemscore.Internal_Hbond>
0.0000

> <Gold.Chemscore.DEClash>
0.0198

> <Gold.Chemscore.DEInternal>
0.7581

> <Gold.Chemscore.Rot>
2.0961

> <Gold.Chemscore.Internal.Correction>
   9.000000E+99

> <Gold.Chemscore.Hbonds>
donor molecule, donor type, donor heavy atom, donor atom, acceptor molecule, acceptor atom, score
      P1  H  6931  6943       L1     7  0.77
      P1  H  6934  6947       L1     7  0.86

> <Gold.Chemscore.Hbond.Weighted>
-5.7202

> <Gold.Chemscore.Metal.Weighted>
-0.0000

> <Gold.Chemscore.Lipo.Weighted>
-13.8635

> <Gold.Chemscore.Internal_Hbond.Weighted>
0.0000

> <Gold.Chemscore.DEClash.Weighted>
0.0198

> <Gold.Chemscore.DEInternal.Weighted>
0.7581

> <Gold.Chemscore.Rot.Weighted>
5.3660

> <Gold.Chemscore.Internal.Correction.Weighted>
   9.000000E+99

> <Gold.Protein.RotatedTorsions>
[ 6907 6896 6895 6894 ] final   32.73 input  -60.11 | X-H torsion
[ 7974 7965 7964 7962 ] final  121.44 input  175.53 | X-H torsion
[ 8008 7997 7996 7995 ] final   75.69 input   59.86 | X-H torsion
[ 10167 10162 10161 10158 ] final  -10.27 input  -65.29 | X-H torsion
[ 10718 10713 10712 10709 ] final   88.71 input   66.30 | X-H torsion
[ 10763 10752 10751 10750 ] final   -5.78 input  -60.55 | X-H torsion
[ 11005 11000 10999 10996 ] final   23.60 input  -57.11 | X-H torsion

> <Gold.Protein.ActiveResidues>
 VAL166  LYS551  ARG553  GLY616  TRP617  ASP618  TYR619  PRO620  LYS621  CYS622 
 ASP623  PHE694  ASN695  SER759  ASP760  ASP761  ALA762  ILE779  LEU786  VAL792 
 PHE793  MET794  SER795  GLU796  ALA797  LYS798  CYS799  TRP800  GLU811  SER814 

> <Gold.Protein.RotatedAtoms>
  152.0786  134.9486  160.0573 H   0  0  0  0  0  0  0  0  0  0  0  0  # atno 6907 bound_to 6896
  152.0784  133.4135  159.4498 H   0  0  0  0  0  0  0  0  0  0  0  0  # atno 6908 bound_to 6896
  150.6836  134.2931  159.4718 H   0  0  0  0  0  0  0  0  0  0  0  0  # atno 6909 bound_to 6896
  145.1192  139.3400  143.4723 H   0  0  0  0  0  0  0  0  0  0  0  0  # atno 7974 bound_to 7965
  155.8166  140.3471  155.5489 H   0  0  0  0  0  0  0  0  0  0  0  0  # atno 8008 bound_to 7997
  155.8386  140.0938  157.1769 H   0  0  0  0  0  0  0  0  0  0  0  0  # atno 8009 bound_to 7997
  154.4005  140.1399  156.3688 H   0  0  0  0  0  0  0  0  0  0  0  0  # atno 8010 bound_to 7997
  140.7109  143.5766  150.9036 H   0  0  0  0  0  0  0  0  0  0  0  0  # atno 10167 bound_to 10162
  157.6951  131.0305  150.3315 H   0  0  0  0  0  0  0  0  0  0  0  0  # atno 10718 bound_to 10713
  153.4032  135.7005  153.6411 H   0  0  0  0  0  0  0  0  0  0  0  0  # atno 10763 bound_to 10752
  153.4936  135.3667  155.2504 H   0  0  0  0  0  0  0  0  0  0  0  0  # atno 10764 bound_to 10752
  154.8712  135.4095  154.3371 H   0  0  0  0  0  0  0  0  0  0  0  0  # atno 10765 bound_to 10752
  140.3678  134.2055  155.7668 H   0  0  0  0  0  0  0  0  0  0  0  0  # atno 11005 bound_to 11000
  146.3522  140.1145  142.8602 LP  0  0  0  0  0  0  0  0  0  0  0  0  # atno 17320 bound_to 7965
  145.0759  140.9188  143.4854 LP  0  0  0  0  0  0  0  0  0  0  0  0  # atno 17321 bound_to 7965
  139.9492  143.6292  152.3033 LP  0  0  0  0  0  0  0  0  0  0  0  0  # atno 17342 bound_to 10162
  139.6804  144.7656  151.1618 LP  0  0  0  0  0  0  0  0  0  0  0  0  # atno 17343 bound_to 10162
  156.3788  130.3877  149.7117 LP  0  0  0  0  0  0  0  0  0  0  0  0  # atno 17370 bound_to 10713
  156.4507  130.7905  151.2926 LP  0  0  0  0  0  0  0  0  0  0  0  0  # atno 17371 bound_to 10713
  141.1964  133.8083  157.0674 LP  0  0  0  0  0  0  0  0  0  0  0  0  # atno 17394 bound_to 11000
  140.0575  134.9772  157.1247 LP  0  0  0  0  0  0  0  0  0  0  0  0  # atno 17395 bound_to 11000

$$$$
