AV-unprocessed.smi:2126|AV-procd|sdf|8678|dock4
  -GOLD-   2272011433D 1   1.00000     0.00000
 Structure written by MMmdl.
 41 43  0  0  0  0  0  0  0  0  2 V2000
  150.1008  142.6469  157.7997 C   0  0  0  0  0  0  0  0  0  0  0  0
  150.4239  141.7895  156.7149 O   0  0  0  0  0  0  0  0  0  0  0  0
  149.3896  141.2907  155.9527 C   0  0  0  0  0  0  0  0  0  0  0  0
  148.0275  141.6339  156.1345 C   0  0  0  0  0  0  0  0  0  0  0  0
  147.0358  141.0763  155.3047 C   0  0  0  0  0  0  0  0  0  0  0  0
  147.3725  140.1675  154.2822 C   0  0  0  0  0  0  0  0  0  0  0  0
  146.3378  139.6722  153.5180 O   0  0  0  0  0  0  0  0  0  0  0  0
  146.6588  138.9450  152.3393 C   0  0  0  0  0  0  0  0  0  0  0  0
  145.7732  137.6924  152.2757 C   0  0  1  0  0  0  0  0  0  0  0  0
  144.4301  138.0947  152.0911 O   0  0  0  0  0  0  0  0  0  0  0  0
  146.1888  136.7376  151.1386 C   0  0  0  0  0  0  0  0  0  0  0  0
  145.2325  135.6424  150.9346 N   0  0  0  0  0  0  0  0  0  0  0  0
  144.0011  135.6520  150.3564 C   0  0  0  0  0  0  0  0  0  0  0  0
  143.5130  134.3816  150.4084 N   0  3  0  0  0  0  0  0  0  0  0  0
  144.4459  133.5487  151.0302 C   0  0  0  0  0  0  0  0  0  0  0  0
  144.4072  132.1871  151.3144 C   0  0  0  0  0  0  0  0  0  0  0  0
  145.5346  131.6441  151.9655 C   0  0  0  0  0  0  0  0  0  0  0  0
  146.6429  132.4463  152.3080 C   0  0  0  0  0  0  0  0  0  0  0  0
  146.6722  133.8255  152.0137 C   0  0  0  0  0  0  0  0  0  0  0  0
  145.5535  134.3535  151.3709 C   0  0  0  0  0  0  0  0  0  0  0  0
  148.7343  139.8227  154.1017 C   0  0  0  0  0  0  0  0  0  0  0  0
  149.7262  140.3823  154.9298 C   0  0  0  0  0  0  0  0  0  0  0  0
  151.0186  142.9598  158.2973 H   0  0  0  0  0  0  0  0  0  0  0  0
  149.4818  142.1370  158.5391 H   0  0  0  0  0  0  0  0  0  0  0  0
  149.5886  143.5474  157.4582 H   0  0  0  0  0  0  0  0  0  0  0  0
  147.7162  142.3242  156.9035 H   0  0  0  0  0  0  0  0  0  0  0  0
  146.0020  141.3503  155.4564 H   0  0  0  0  0  0  0  0  0  0  0  0
  146.4722  139.5706  151.4645 H   0  0  0  0  0  0  0  0  0  0  0  0
  147.7125  138.6601  152.3353 H   0  0  0  0  0  0  0  0  0  0  0  0
  145.8290  137.1727  153.2326 H   0  0  0  0  0  0  0  0  0  0  0  0
  144.3311  138.4137  151.2068 H   0  0  0  0  0  0  0  0  0  0  0  0
  146.2687  137.2823  150.1968 H   0  0  0  0  0  0  0  0  0  0  0  0
  147.1712  136.3031  151.3286 H   0  0  0  0  0  0  0  0  0  0  0  0
  143.5012  136.5124  149.9351 H   0  0  0  0  0  0  0  0  0  0  0  0
  143.5597  131.5704  151.0533 H   0  0  0  0  0  0  0  0  0  0  0  0
  145.5495  130.5913  152.2071 H   0  0  0  0  0  0  0  0  0  0  0  0
  147.4883  131.9948  152.8067 H   0  0  0  0  0  0  0  0  0  0  0  0
  147.5247  134.4331  152.2799 H   0  0  0  0  0  0  0  0  0  0  0  0
  149.0464  139.1325  153.3331 H   0  0  0  0  0  0  0  0  0  0  0  0
  150.7604  140.1102  154.7774 H   0  0  0  0  0  0  0  0  0  0  0  0
  142.6089  134.1069  150.0463 H   0  0  0  0  0  0  0  0  0  0  0  0
  1  2  1  0  0  0  0
  1 23  1  0  0  0  0
  1 24  1  0  0  0  0
  1 25  1  0  0  0  0
  2  3  1  0  0  0  0
  3 22  1  0  0  0  0
  3  4  2  0  0  0  0
  4  5  1  0  0  0  0
  4 26  1  0  0  0  0
  5  6  2  0  0  0  0
  5 27  1  0  0  0  0
  6  7  1  0  0  0  0
  6 21  1  0  0  0  0
  7  8  1  0  0  0  0
  8  9  1  0  0  0  0
  8 28  1  0  0  0  0
  8 29  1  0  0  0  0
  9 10  1  0  0  0  0
  9 11  1  0  0  0  0
  9 30  1  0  0  0  0
 10 31  1  0  0  0  0
 11 12  1  0  0  0  0
 11 32  1  0  0  0  0
 11 33  1  0  0  0  0
 12 20  1  0  0  0  0
 12 13  1  0  0  0  0
 13 14  2  0  0  0  0
 13 34  1  0  0  0  0
 14 15  1  0  0  0  0
 14 41  1  0  0  0  0
 15 20  2  0  0  0  0
 15 16  1  0  0  0  0
 16 17  2  0  0  0  0
 16 35  1  0  0  0  0
 17 18  1  0  0  0  0
 17 36  1  0  0  0  0
 18 19  2  0  0  0  0
 18 37  1  0  0  0  0
 19 20  1  0  0  0  0
 19 38  1  0  0  0  0
 21 22  2  0  0  0  0
 21 39  1  0  0  0  0
 22 40  1  0  0  0  0
M  CHG  1  14   1
M  END
> <s_m_source_file>
AV-unprocessed.smi

> <i_m_source_file_index>
2126

> <i_lp_mmshare_version>
43012

> <i_f3d_flags>
0

> <s_epik_input>
W0NIM11PYzFbY0hdW2NIXWMoW2NIXVtjSF0xKU9bQ0gyXVtDQEhdKFtPSF0pW0NIMl1uKFtjSF1uMiljKGMyMylbY0hdW2NIXVtjSF1bY0hdMw==

> <s_epik_cmdline>
J2VwaWtfcHl0aG9uJywgJy1waCcsICc3LjAnLCAnLXRuJywgJzgnLCAnLW1hJywgJzIwMCcsICctbWV0YWxfYmluZGluZycsICctaW1hZScsICc8aW5maWxlLm1hZT4nLCAnLW9tYWUnLCAnPG91dGZpbGUubWFlPic=

> <r_lp_tautomer_probability>
1

> <r_epik_Ionization_Penalty>
1.37822

> <r_epik_Ionization_Penalty_Charging>
1.37822

> <r_epik_Ionization_Penalty_Neutral>
2.3993e-06

> <r_epik_State_Penalty>
1.45852

> <r_epik_Charging_Adjusted_Penalty>
2.83674

> <i_epik_Tot_Q>
1

> <i_epik_Tot_abs_Q>
1

> <r_epik_Metal_State_Penalty>
5.4985

> <b_epik_Metal_Only>
0

> <s_lp_Force_Field>
OPLS_2005

> <r_lp_Energy>
22.1455

> <b_lp_Chiralities_Consistent>
1

> <s_lp_Variant>
AV-unprocessed.smi:2126-4

> <Gold.Version>
5.8.1

> <Gold.Id.Protein>
6NUR|6NUR_protein|mol2

> <Gold.PLP.Fitness>
47.6644

> <Gold.PLP.PLP>
-36.9335

> <Gold.PLP.part.hbond>
-3.0000

> <Gold.PLP.part.metal>
0.0000

> <Gold.PLP.part.buried>
-1.0039

> <Gold.PLP.part.nonpolar>
-34.2632

> <Gold.PLP.part.repulsive>
0.2705

> <Gold.PLP.ligand.clash>
0.0000

> <Gold.PLP.ligand.torsion>
0.6895

> <Gold.PLP.Chemscore.Hbond>
2.9840

> <Gold.PLP.Chemscore.CHOScore>
1.0000

> <Gold.PLP.Chemscore.Metal>
0.0000

> <Gold.Chemscore.Hbonds>
donor molecule, donor type, donor heavy atom, donor atom, acceptor molecule, acceptor atom, score
      L1  H    10    31       P1 10171  0.86
      L1  H    14    41       P1 10186  2.00
      L1  C    13    34       P1 10171  1.00

> <Gold.PLP.Chemscore.Internal.Correction>
0.1579

> <Gold.Rescore>
     Score         DG    S(hbond)    S(metal)    S(lipo)     H(rot)  DE(clash)    DE(int)     intcor
     13.90     -15.91       1.89        0.00      92.17       2.60       1.38       0.63       ----

> <Gold.Chemscore.Fitness>
13.8981

> <Gold.Chemscore.DG>
-15.9100

> <Gold.Chemscore.ZeroCoef>
-5.4800

> <Gold.Chemscore.Hbond>
1.8903

> <Gold.Chemscore.Metal>
0.0000

> <Gold.Chemscore.Lipo>
92.1661

> <Gold.Chemscore.Internal_Hbond>
0.0000

> <Gold.Chemscore.DEClash>
1.3788

> <Gold.Chemscore.DEInternal>
0.6331

> <Gold.Chemscore.Rot>
2.6043

> <Gold.Chemscore.Internal.Correction>
   9.000000E+99

> <Gold.Chemscore.Hbonds>
donor molecule, donor type, donor heavy atom, donor atom, acceptor molecule, acceptor atom, score
      L1  H    10    31       P1 10171  0.84
      L1  H    14    41       P1 10186  0.95

> <Gold.Chemscore.Hbond.Weighted>
-6.3135

> <Gold.Chemscore.Metal.Weighted>
-0.0000

> <Gold.Chemscore.Lipo.Weighted>
-10.7834

> <Gold.Chemscore.Internal_Hbond.Weighted>
0.0000

> <Gold.Chemscore.DEClash.Weighted>
1.3788

> <Gold.Chemscore.DEInternal.Weighted>
0.6331

> <Gold.Chemscore.Rot.Weighted>
6.6670

> <Gold.Chemscore.Internal.Correction.Weighted>
   9.000000E+99

> <Gold.Protein.RotatedTorsions>
[ 6907 6896 6895 6894 ] final  131.85 input  -60.11 | X-H torsion
[ 7974 7965 7964 7962 ] final  -41.91 input  175.53 | X-H torsion
[ 8008 7997 7996 7995 ] final   -9.89 input   59.86 | X-H torsion
[ 10167 10162 10161 10158 ] final   50.46 input  -65.29 | X-H torsion
[ 10718 10713 10712 10709 ] final  123.90 input   66.30 | X-H torsion
[ 10763 10752 10751 10750 ] final    6.50 input  -60.55 | X-H torsion
[ 11005 11000 10999 10996 ] final   91.55 input  -57.11 | X-H torsion

> <Gold.Protein.ActiveResidues>
 VAL166  LYS551  ARG553  GLY616  TRP617  ASP618  TYR619  PRO620  LYS621  CYS622 
 ASP623  PHE694  ASN695  SER759  ASP760  ASP761  ALA762  ILE779  LEU786  VAL792 
 PHE793  MET794  SER795  GLU796  ALA797  LYS798  CYS799  TRP800  GLU811  SER814 

> <Gold.Protein.RotatedAtoms>
  152.3384  133.6038  159.5858 H   0  0  0  0  0  0  0  0  0  0  0  0  # atno 6907 bound_to 6896
  150.7464  133.9760  159.3570 H   0  0  0  0  0  0  0  0  0  0  0  0  # atno 6908 bound_to 6896
  151.7627  135.0807  160.0399 H   0  0  0  0  0  0  0  0  0  0  0  0  # atno 6909 bound_to 6896
  146.0166  140.6900  142.9198 H   0  0  0  0  0  0  0  0  0  0  0  0  # atno 7974 bound_to 7965
  154.5605  140.2343  155.8343 H   0  0  0  0  0  0  0  0  0  0  0  0  # atno 8008 bound_to 7997
  156.2025  140.3048  155.9516 H   0  0  0  0  0  0  0  0  0  0  0  0  # atno 8009 bound_to 7997
  155.2898  140.0426  157.3012 H   0  0  0  0  0  0  0  0  0  0  0  0  # atno 8010 bound_to 7997
  140.2722  144.3252  150.6287 H   0  0  0  0  0  0  0  0  0  0  0  0  # atno 10167 bound_to 10162
  157.5628  131.1088  150.8508 H   0  0  0  0  0  0  0  0  0  0  0  0  # atno 10718 bound_to 10713
  153.2470  135.6909  153.7721 H   0  0  0  0  0  0  0  0  0  0  0  0  # atno 10763 bound_to 10752
  153.6830  135.3325  155.3184 H   0  0  0  0  0  0  0  0  0  0  0  0  # atno 10764 bound_to 10752
  154.8379  135.4527  154.1412 H   0  0  0  0  0  0  0  0  0  0  0  0  # atno 10765 bound_to 10752
  139.8837  134.8681  156.3445 H   0  0  0  0  0  0  0  0  0  0  0  0  # atno 11005 bound_to 11000
  144.6973  140.3492  143.7185 LP  0  0  0  0  0  0  0  0  0  0  0  0  # atno 17320 bound_to 7965
  145.7259  139.1722  143.2458 LP  0  0  0  0  0  0  0  0  0  0  0  0  # atno 17321 bound_to 7965
  140.5880  143.2169  151.7306 LP  0  0  0  0  0  0  0  0  0  0  0  0  # atno 17342 bound_to 10162
  139.4985  144.3981  152.0209 LP  0  0  0  0  0  0  0  0  0  0  0  0  # atno 17343 bound_to 10162
  156.9001  130.5244  149.5283 LP  0  0  0  0  0  0  0  0  0  0  0  0  # atno 17370 bound_to 10713
  156.0679  130.5718  150.9324 LP  0  0  0  0  0  0  0  0  0  0  0  0  # atno 17371 bound_to 10713
  140.9636  133.7372  156.0435 LP  0  0  0  0  0  0  0  0  0  0  0  0  # atno 17394 bound_to 11000
  140.7959  134.3565  157.5452 LP  0  0  0  0  0  0  0  0  0  0  0  0  # atno 17395 bound_to 11000

$$$$
