#       Name:                AV-unprocessed.smi:3253
#       Creating user name   scv26
#       Creation time:       Fri Mar 27 18:34:21 2020


#       File generated by GOLD software.
#

@<TRIPOS>MOLECULE
AV-unprocessed.smi:3253
    41    42     1
SMALL
NO_CHARGES


@<TRIPOS>ATOM
      1 ****        -3.0550  -0.3348  -2.6011 C.3            1 S1                 0.0000
      2 ****        -2.3127  -0.0259  -1.2941 C.3            1 S1                 0.0000
      3 ****        -2.9037  -0.8264  -0.1123 C.3            1 S1                 0.0000
      4 ****        -2.3133  -0.4671   1.1819 N.pl3          1 S1                 0.0000
      5 ****        -1.4254  -1.2034   1.9243 C.2            1 S1                 0.0000
      6 ****        -1.1399  -0.4608   3.0410 C.2            1 S1                 0.0000
      7 ****        -1.8720   0.6917   2.9379 N.pl3          1 S1                 1.0000
      8 ****        -2.5888   0.6837   1.8094 C.2            1 S1                 0.0000
      9 ****        -0.8920  -0.3241  -1.4737 N.am           1 S1                 0.0000
     10 ****         0.1262   0.3724  -0.9436 C.2            1 S1                 0.0000
     11 ****        -0.0321   1.3752  -0.2460 O.2            1 S1                 0.0000
     12 ****         1.5402  -0.1620  -1.2172 C.3            1 S1                 0.0000
     13 ****         2.4610   0.9289  -1.8020 C.3            1 S1                 0.0000
     14 ****         3.4524   1.2083  -0.6840 C.2            1 S1                 0.0000
     15 ****         4.2824   2.1142  -0.7370 O.2            1 S1                 0.0000
     16 ****         3.2785   0.3582   0.3319 N.am           1 S1                 0.0000
     17 ****         4.0357   0.3503   1.5760 C.3            1 S1                 0.0000
     18 ****         2.2403  -0.6254   0.0787 C.3            1 S1                 0.0000
     19 ****        -4.1162  -0.0999  -2.5149 H              1 S1                 0.0000
     20 ****        -2.9687  -1.3886  -2.8689 H              1 S1                 0.0000
     21 ****        -2.6557   0.2533  -3.4281 H              1 S1                 0.0000
     22 ****        -2.4413   1.0401  -1.0977 H              1 S1                 0.0000
     23 ****        -3.9786  -0.6555  -0.0371 H              1 S1                 0.0000
     24 ****        -2.7645  -1.8981  -0.2625 H              1 S1                 0.0000
     25 ****        -1.0642  -2.1708   1.6065 H              1 S1                 0.0000
     26 ****        -0.4875  -0.6603   3.8787 H              1 S1                 0.0000
     27 ****        -3.2488   1.4604   1.4661 H              1 S1                 0.0000
     28 ****        -0.6665  -1.1323  -2.0359 H              1 S1                 0.0000
     29 ****         1.4747  -0.9989  -1.9148 H              1 S1                 0.0000
     30 ****         2.9970   0.5620  -2.6776 H              1 S1                 0.0000
     31 ****         1.9369   1.8424  -2.0876 H              1 S1                 0.0000
     32 ****         5.1039   0.2602   1.3754 H              1 S1                 0.0000
     33 ****         3.7401  -0.4849   2.2114 H              1 S1                 0.0000
     34 ****         3.8664   1.2744   2.1299 H              1 S1                 0.0000
     35 ****         1.5615  -0.6947   0.9311 H              1 S1                 0.0000
     36 ****         2.6984  -1.6060  -0.0581 H              1 S1                 0.0000
     37 ****        -1.8705   1.4445   3.6148 H              1 S1                 0.0000
     38 ****        -0.9547   1.7074  -0.0501 LP             1 S1                 0.0000
     39 ****         0.7621   1.8571   0.1244 LP             1 S1                 0.0000
     40 ****         4.3257   2.7063  -1.5417 LP             1 S1                 0.0000
     41 ****         4.9141   2.2587   0.0246 LP             1 S1                 0.0000
@<TRIPOS>BOND
    1    1    2 1     
    2    1   19 1     
    3    1   20 1     
    4    1   21 1     
    5    2    3 1     
    6    2    9 1     
    7    2   22 1     
    8    3    4 1     
    9    3   23 1     
   10    3   24 1     
   11    4    8 1     
   12    4    5 1     
   13    5    6 2     
   14    5   25 1     
   15    6    7 1     
   16    6   26 1     
   17    7    8 2     
   18    7   37 1     
   19    8   27 1     
   20    9   10 am    
   21    9   28 1     
   22   10   11 2     
   23   10   12 1     
   24   12   18 1     
   25   12   13 1     
   26   12   29 1     
   27   13   14 1     
   28   13   30 1     
   29   13   31 1     
   30   14   15 2     
   31   14   16 am    
   32   16   17 1     
   33   16   18 1     
   34   17   32 1     
   35   17   33 1     
   36   17   34 1     
   37   18   35 1     
   38   18   36 1     
   39   11   38 1     
   40   11   39 1     
   41   15   40 1     
   42   15   41 1     
@<TRIPOS>SUBSTRUCTURE
      1 S1             1
@<TRIPOS>SET
LONE_PAIRS      STATIC     ATOMS    <user>   **** ""
4 38 39 40 41
DONOR_HYDROGENS      STATIC     ATOMS    <user>   **** ""
2 37 28
ATOM$BLUE        STATIC     ATOMS    COLORGROUP SYSTEM
4 38 39 40 41
ATOM$RED        STATIC     ATOMS    COLORGROUP SYSTEM
2 37 28
