#       Name:                AV-unprocessed.smi:115
#       Creating user name   scv26
#       Creation time:       Thu Mar 26 18:24:55 2020


#       File generated by GOLD software.
#

@<TRIPOS>MOLECULE
AV-unprocessed.smi:115
    65    67     1
SMALL
NO_CHARGES


@<TRIPOS>ATOM
      1 ****        -6.5108  -0.3390  -3.8226 C.3            1 S1                 0.0000
      2 ****        -6.1431   0.6837  -2.9132 O.3            1 S1                 0.0000
      3 ****        -4.9706   0.3660  -2.1800 C.3            1 S1                 0.0000
      4 ****        -4.6229   1.5456  -1.2489 C.3            1 S1                 0.0000
      5 ****        -5.5791   1.6979  -0.0534 C.3            1 S1                 0.0000
      6 ****        -3.2114   1.5678  -0.8307 N.pl3          1 S1                 0.0000
      7 ****        -2.3924   2.6926  -0.9215 C.2            1 S1                 0.0000
      8 ****        -2.8568   4.0137  -1.4495 C.3            1 S1                 0.0000
      9 ****        -1.1559   2.3502  -0.4644 C.2            1 S1                 0.0000
     10 ****        -1.1845   0.9910  -0.0546 C.2            1 S1                 0.0000
     11 ****        -0.0605   0.1776   0.4771 C.2            1 S1                 0.0000
     12 ****        -0.1096  -1.0474   0.5976 O.2            1 S1                 0.0000
     13 ****         1.2073   0.9614   0.8657 C.3            1 S1                 0.0000
     14 ****         2.2242   0.1254   1.4932 N.am           1 S1                 0.0000
     15 ****         2.1642  -0.0402   2.8991 C.2            1 S1                 0.0000
     16 ****         1.2820   0.4811   3.5837 O.2            1 S1                 0.0000
     17 ****         3.2245  -0.8724   3.4546 C.2            1 S1                 0.0000
     18 ****         3.3039  -1.0473   4.7848 F              1 S1                 0.0000
     19 ****         4.1418  -1.4588   2.6559 C.2            1 S1                 0.0000
     20 ****         4.1349  -1.3420   1.2751 N.am           1 S1                 0.0000
     21 ****         5.2346  -1.9435   0.4237 C.3            1 S1                 0.0000
     22 ****         5.8111  -3.2583   0.9784 C.3            1 S1                 0.0000
     23 ****         7.1578  -2.8197   1.5206 C.3            1 S1                 0.0000
     24 ****         7.5101  -1.6728   0.5813 C.3            1 S1                 0.0000
     25 ****         6.2719  -1.0109   0.3583 O.3            1 S1                 0.0000
     26 ****         3.1899  -0.4894   0.6589 C.2            1 S1                 0.0000
     27 ****         3.2023  -0.3034  -0.5602 O.2            1 S1                 0.0000
     28 ****        -2.4672   0.5286  -0.2500 C.2            1 S1                 0.0000
     29 ****        -3.0606  -0.8184   0.0589 C.3            1 S1                 0.0000
     30 ****        -7.4175  -0.0485  -4.3531 H              1 S1                 0.0000
     31 ****        -6.7105  -1.2771  -3.3030 H              1 S1                 0.0000
     32 ****        -5.7277  -0.5083  -4.5630 H              1 S1                 0.0000
     33 ****        -5.1373  -0.5553  -1.6238 H              1 S1                 0.0000
     34 ****        -4.1499   0.1891  -2.8776 H              1 S1                 0.0000
     35 ****        -4.7838   2.4259  -1.8687 H              1 S1                 0.0000
     36 ****        -6.6110   1.7927  -0.3925 H              1 S1                 0.0000
     37 ****        -5.3420   2.5942   0.5203 H              1 S1                 0.0000
     38 ****        -5.5389   0.8517   0.6294 H              1 S1                 0.0000
     39 ****        -2.0802   4.7706  -1.3373 H              1 S1                 0.0000
     40 ****        -3.7379   4.3641  -0.9112 H              1 S1                 0.0000
     41 ****        -3.1021   3.9473  -2.5098 H              1 S1                 0.0000
     42 ****        -0.3074   3.0181  -0.4347 H              1 S1                 0.0000
     43 ****         1.6506   1.4442  -0.0062 H              1 S1                 0.0000
     44 ****         0.9689   1.7737   1.5542 H              1 S1                 0.0000
     45 ****         4.9120  -2.0387   3.1386 H              1 S1                 0.0000
     46 ****         4.8020  -2.1113  -0.5635 H              1 S1                 0.0000
     47 ****         5.1596  -3.7470   1.7029 H              1 S1                 0.0000
     48 ****         5.9556  -3.9437   0.1422 H              1 S1                 0.0000
     49 ****         7.0633  -2.4514   2.5422 H              1 S1                 0.0000
     50 ****         7.9004  -3.6180   1.5144 H              1 S1                 0.0000
     51 ****         8.2569  -0.9979   0.9999 H              1 S1                 0.0000
     52 ****         7.8877  -2.0556  -0.3681 H              1 S1                 0.0000
     53 ****        -2.5729  -1.2854   0.9131 H              1 S1                 0.0000
     54 ****        -2.9611  -1.4906  -0.7935 H              1 S1                 0.0000
     55 ****        -4.1107  -0.7592   0.3292 H              1 S1                 0.0000
     56 ****        -6.8950   0.8253  -2.2693 LP             1 S1                 0.0000
     57 ****        -5.9812   1.5261  -3.4270 LP             1 S1                 0.0000
     58 ****        -0.9362  -1.5433   0.3314 LP             1 S1                 0.0000
     59 ****         0.6771  -1.5460   0.9617 LP             1 S1                 0.0000
     60 ****         0.5778   1.0423   3.1489 LP             1 S1                 0.0000
     61 ****         1.2703   0.3428   4.5741 LP             1 S1                 0.0000
     62 ****         6.1363  -0.3102   1.0587 LP             1 S1                 0.0000
     63 ****         6.2797  -0.5822  -0.5451 LP             1 S1                 0.0000
     64 ****         2.5197   0.2934  -0.9819 LP             1 S1                 0.0000
     65 ****         3.8949  -0.7495  -1.1270 LP             1 S1                 0.0000
@<TRIPOS>BOND
    1    1    2 1     
    2    1   30 1     
    3    1   31 1     
    4    1   32 1     
    5    2    3 1     
    6    3    4 1     
    7    3   33 1     
    8    3   34 1     
    9    4    5 1     
   10    4    6 1     
   11    4   35 1     
   12    5   36 1     
   13    5   37 1     
   14    5   38 1     
   15    6   28 1     
   16    6    7 1     
   17    7    8 1     
   18    7    9 2     
   19    8   39 1     
   20    8   40 1     
   21    8   41 1     
   22    9   10 1     
   23    9   42 1     
   24   10   11 1     
   25   10   28 2     
   26   11   12 2     
   27   11   13 1     
   28   13   14 1     
   29   13   43 1     
   30   13   44 1     
   31   14   26 am    
   32   14   15 am    
   33   15   16 2     
   34   15   17 1     
   35   17   18 1     
   36   17   19 2     
   37   19   20 1     
   38   19   45 1     
   39   20   21 1     
   40   20   26 am    
   41   21   25 1     
   42   21   22 1     
   43   21   46 1     
   44   22   23 1     
   45   22   47 1     
   46   22   48 1     
   47   23   24 1     
   48   23   49 1     
   49   23   50 1     
   50   24   25 1     
   51   24   51 1     
   52   24   52 1     
   53   26   27 2     
   54   28   29 1     
   55   29   53 1     
   56   29   54 1     
   57   29   55 1     
   58    2   56 1     
   59    2   57 1     
   60   12   58 1     
   61   12   59 1     
   62   16   60 1     
   63   16   61 1     
   64   25   62 1     
   65   25   63 1     
   66   27   64 1     
   67   27   65 1     
@<TRIPOS>SUBSTRUCTURE
      1 S1             1
@<TRIPOS>SET
LONE_PAIRS      STATIC     ATOMS    <user>   **** ""
10 56 57 58 59 60 61 62 63 64 65
ATOM$BLUE        STATIC     ATOMS    COLORGROUP SYSTEM
10 56 57 58 59 60 61 62 63 64 65
