#       Name:                AV-unprocessed.smi:3058
#       Creating user name   scv26
#       Creation time:       Fri Mar 27 17:07:39 2020


#       File generated by GOLD software.
#

@<TRIPOS>MOLECULE
AV-unprocessed.smi:3058
    41    43     1
SMALL
NO_CHARGES


@<TRIPOS>ATOM
      1 ****        -0.2730   1.1816   0.0979 O.2            1 S1                 0.0000
      2 ****        -0.7046   0.0334   0.2105 C.2            1 S1                 0.0000
      3 ****         0.0916  -1.0463   0.2358 N.am           1 S1                 0.0000
      4 ****         1.5462  -1.0192   0.1432 C.3            1 S1                 0.0000
      5 ****         2.0166  -0.8616  -1.3117 C.3            1 S1                 0.0000
      6 ****         3.5279  -0.8807  -1.4284 C.ar           1 S1                 0.0000
      7 ****         4.2702   0.3183  -1.4172 C.ar           1 S1                 0.0000
      8 ****         5.6726   0.2482  -1.5252 C.ar           1 S1                 0.0000
      9 ****         6.2740  -1.0213  -1.6391 C.ar           1 S1                 0.0000
     10 ****         5.5732  -2.1757  -1.6497 N.ar           1 S1                 0.0000
     11 ****         4.2289  -2.0998  -1.5462 C.ar           1 S1                 0.0000
     12 ****        -2.2165  -0.2411   0.2986 C.3            1 S1                 0.0000
     13 ****        -3.0943   0.6781  -0.5868 C.3            1 S1                 0.0000
     14 ****        -4.1293   1.2333   0.4102 C.3            1 S1                 0.0000
     15 ****        -3.4537   2.2661   1.3314 C.3            1 S1                 0.0000
     16 ****        -2.6057   1.3836   2.2655 C.3            1 S1                 0.0000
     17 ****        -2.8443  -0.0352   1.7029 C.3            1 S1                 0.0000
     18 ****        -4.3266   0.0492   1.3501 C.3            1 S1                 0.0000
     19 ****        -0.3432  -1.9536   0.3226 H              1 S1                 0.0000
     20 ****         1.9471  -0.2172   0.7658 H              1 S1                 0.0000
     21 ****         1.9262  -1.9537   0.5570 H              1 S1                 0.0000
     22 ****         1.6053  -1.6629  -1.9268 H              1 S1                 0.0000
     23 ****         1.6414   0.0721  -1.7329 H              1 S1                 0.0000
     24 ****         3.7757   1.2745  -1.3262 H              1 S1                 0.0000
     25 ****         6.2735   1.1455  -1.5201 H              1 S1                 0.0000
     26 ****         7.3469  -1.1116  -1.7232 H              1 S1                 0.0000
     27 ****         3.6974  -3.0402  -1.5558 H              1 S1                 0.0000
     28 ****        -2.3912  -1.2744  -0.0082 H              1 S1                 0.0000
     29 ****        -2.5471   1.4769  -1.0892 H              1 S1                 0.0000
     30 ****        -3.5888   0.0913  -1.3620 H              1 S1                 0.0000
     31 ****        -5.0386   1.6016  -0.0655 H              1 S1                 0.0000
     32 ****        -2.8486   2.9815   0.7735 H              1 S1                 0.0000
     33 ****        -4.1952   2.8267   1.9019 H              1 S1                 0.0000
     34 ****        -1.5578   1.6788   2.2966 H              1 S1                 0.0000
     35 ****        -2.9833   1.4505   3.2867 H              1 S1                 0.0000
     36 ****        -2.5988  -0.8301   2.4079 H              1 S1                 0.0000
     37 ****        -4.9656   0.2770   2.2053 H              1 S1                 0.0000
     38 ****        -4.7069  -0.8429   0.8492 H              1 S1                 0.0000
     39 ****         0.7112   1.3404   0.0204 LP             1 S1                 0.0000
     40 ****        -0.9069   1.9549   0.0841 LP             1 S1                 0.0000
     41 ****         6.0351  -3.0588  -1.7316 LP             1 S1                 0.0000
@<TRIPOS>BOND
    1    1    2 2     
    2    2    3 am    
    3    2   12 1     
    4    3    4 1     
    5    3   19 1     
    6    4    5 1     
    7    4   20 1     
    8    4   21 1     
    9    5    6 1     
   10    5   22 1     
   11    5   23 1     
   12    6   11 ar    
   13    6    7 ar    
   14    7    8 ar    
   15    7   24 1     
   16    8    9 ar    
   17    8   25 1     
   18    9   10 ar    
   19    9   26 1     
   20   10   11 ar    
   21   11   27 1     
   22   12   17 1     
   23   12   13 1     
   24   12   28 1     
   25   13   14 1     
   26   13   29 1     
   27   13   30 1     
   28   14   18 1     
   29   14   15 1     
   30   14   31 1     
   31   15   16 1     
   32   15   32 1     
   33   15   33 1     
   34   16   17 1     
   35   16   34 1     
   36   16   35 1     
   37   17   18 1     
   38   17   36 1     
   39   18   37 1     
   40   18   38 1     
   41    1   39 1     
   42    1   40 1     
   43   10   41 1     
@<TRIPOS>SUBSTRUCTURE
      1 S1             1
@<TRIPOS>SET
LONE_PAIRS      STATIC     ATOMS    <user>   **** ""
3 39 40 41
DONOR_HYDROGENS      STATIC     ATOMS    <user>   **** ""
1 19
ATOM$BLUE        STATIC     ATOMS    COLORGROUP SYSTEM
3 39 40 41
ATOM$RED        STATIC     ATOMS    COLORGROUP SYSTEM
1 19
