AV-unprocessed.smi:2204|AV-procd|sdf|8939|dock6
  -GOLD-   2272012153D 1   1.00000     0.00000
 Structure written by MMmdl.
 39 40  0  0  0  0  0  0  0  0  1 V2000
  154.1612  141.1526  161.4777 C   0  0  0  0  0  0  0  0  0  0  0  0
  153.3835  141.7725  160.3547 C   0  0  0  0  0  0  0  0  0  0  0  0
  153.3752  143.1315  159.9346 C   0  0  0  0  0  0  0  0  0  0  0  0
  152.4869  143.1587  158.8967 C   0  0  0  0  0  0  0  0  0  0  0  0
  152.0292  144.3040  158.0552 C   0  0  0  0  0  0  0  0  0  0  0  0
  152.0197  141.8659  158.7328 N   0  0  0  0  0  0  0  0  0  0  0  0
  151.0347  141.3532  157.7878 C   0  0  0  0  0  0  0  0  0  0  0  0
  151.6635  140.3744  156.7908 C   0  0  0  0  0  0  0  0  0  0  0  0
  152.8472  140.0575  156.9035 O   0  0  0  0  0  0  0  0  0  0  0  0
  150.8541  139.8948  155.8333 N   0  0  0  0  0  0  0  0  0  0  0  0
  151.1663  138.8244  154.8914 C   0  0  2  0  0  0  0  0  0  0  0  0
  150.0250  138.6714  153.8758 C   0  0  0  0  0  0  0  0  0  0  0  0
  151.4465  137.5175  155.6618 C   0  0  1  0  0  0  0  0  0  0  0  0
  150.2889  137.0216  156.5397 C   0  0  0  0  0  0  0  0  0  0  0  0
  150.4994  135.5251  156.5273 C   0  0  0  0  0  0  0  0  0  0  0  0
  150.9645  135.2981  155.0946 C   0  0  0  0  0  0  0  0  0  0  0  0
  151.7382  136.4461  154.7628 O   0  0  0  0  0  0  0  0  0  0  0  0
  152.5760  141.0190  159.6271 N   0  0  0  0  0  0  0  0  0  0  0  0
  154.9403  141.8261  161.8352 H   0  0  0  0  0  0  0  0  0  0  0  0
  154.6428  140.2264  161.1628 H   0  0  0  0  0  0  0  0  0  0  0  0
  153.5100  140.9215  162.3211 H   0  0  0  0  0  0  0  0  0  0  0  0
  153.9287  143.9641  160.3428 H   0  0  0  0  0  0  0  0  0  0  0  0
  152.5026  145.2336  158.3722 H   0  0  0  0  0  0  0  0  0  0  0  0
  150.9495  144.4356  158.1322 H   0  0  0  0  0  0  0  0  0  0  0  0
  152.2796  144.1411  157.0067 H   0  0  0  0  0  0  0  0  0  0  0  0
  150.2299  140.8551  158.3285 H   0  0  0  0  0  0  0  0  0  0  0  0
  150.5867  142.1937  157.2554 H   0  0  0  0  0  0  0  0  0  0  0  0
  149.9021  140.2310  155.8201 H   0  0  0  0  0  0  0  0  0  0  0  0
  152.0710  139.0735  154.3343 H   0  0  0  0  0  0  0  0  0  0  0  0
  150.2474  137.8858  153.1533 H   0  0  0  0  0  0  0  0  0  0  0  0
  149.8700  139.5960  153.3189 H   0  0  0  0  0  0  0  0  0  0  0  0
  149.0850  138.4161  154.3664 H   0  0  0  0  0  0  0  0  0  0  0  0
  152.3246  137.6489  156.2958 H   0  0  0  0  0  0  0  0  0  0  0  0
  150.3077  137.4467  157.5434 H   0  0  0  0  0  0  0  0  0  0  0  0
  149.3193  137.2518  156.0975 H   0  0  0  0  0  0  0  0  0  0  0  0
  151.2872  135.2486  157.2291 H   0  0  0  0  0  0  0  0  0  0  0  0
  149.5995  134.9628  156.7778 H   0  0  0  0  0  0  0  0  0  0  0  0
  151.5397  134.3795  154.9791 H   0  0  0  0  0  0  0  0  0  0  0  0
  150.1085  135.2495  154.4213 H   0  0  0  0  0  0  0  0  0  0  0  0
  1  2  1  0  0  0  0
  1 19  1  0  0  0  0
  1 20  1  0  0  0  0
  1 21  1  0  0  0  0
  2 18  2  0  0  0  0
  2  3  1  0  0  0  0
  3  4  2  0  0  0  0
  3 22  1  0  0  0  0
  4  5  1  0  0  0  0
  4  6  1  0  0  0  0
  5 23  1  0  0  0  0
  5 24  1  0  0  0  0
  5 25  1  0  0  0  0
  6  7  1  0  0  0  0
  6 18  1  0  0  0  0
  7  8  1  0  0  0  0
  7 26  1  0  0  0  0
  7 27  1  0  0  0  0
  8  9  2  0  0  0  0
  8 10  1  0  0  0  0
 10 11  1  0  0  0  0
 10 28  1  0  0  0  0
 11 12  1  0  0  0  0
 11 13  1  0  0  0  0
 11 29  1  0  0  0  0
 12 30  1  0  0  0  0
 12 31  1  0  0  0  0
 12 32  1  0  0  0  0
 13 17  1  0  0  0  0
 13 14  1  0  0  0  0
 13 33  1  0  0  0  0
 14 15  1  0  0  0  0
 14 34  1  0  0  0  0
 14 35  1  0  0  0  0
 15 16  1  0  0  0  0
 15 36  1  0  0  0  0
 15 37  1  0  0  0  0
 16 17  1  0  0  0  0
 16 38  1  0  0  0  0
 16 39  1  0  0  0  0
M  END
> <s_m_source_file>
AV-unprocessed.smi

> <i_m_source_file_index>
2204

> <i_lp_mmshare_version>
43012

> <i_f3d_flags>
0

> <s_epik_input>
W0NIM11jMVtjSF1jKFtDSDNdKW4objEpW0NIMl1DKD1PKVtOSF1bQ0BIXShbQ0gzXSlbQ0BASF0yW0NIMl1bQ0gyXVtDSDJdTzI=

> <s_epik_cmdline>
J2VwaWtfcHl0aG9uJywgJy1waCcsICc3LjAnLCAnLXRuJywgJzgnLCAnLW1hJywgJzIwMCcsICctbWV0YWxfYmluZGluZycsICctaW1hZScsICc8aW5maWxlLm1hZT4nLCAnLW9tYWUnLCAnPG91dGZpbGUubWFlPic=

> <r_lp_tautomer_probability>
1

> <r_epik_Ionization_Penalty>
0.000433354

> <r_epik_Ionization_Penalty_Charging>
0

> <r_epik_Ionization_Penalty_Neutral>
0.000433354

> <r_epik_State_Penalty>
-0

> <r_epik_Charging_Adjusted_Penalty>
0

> <i_epik_Tot_Q>
0

> <i_epik_Tot_abs_Q>
0

> <r_epik_Metal_State_Penalty>
-0

> <b_epik_Metal_Only>
0

> <s_lp_Force_Field>
OPLS_2005

> <r_lp_Energy>
16.4317

> <b_lp_Chiralities_Consistent>
1

> <s_lp_Variant>
AV-unprocessed.smi:2204-3

> <Gold.Version>
5.8.1

> <Gold.Id.Protein>
6NUR|6NUR_protein|mol2

> <Gold.PLP.Fitness>
42.0064

> <Gold.PLP.PLP>
-36.1240

> <Gold.PLP.part.hbond>
-2.0000

> <Gold.PLP.part.metal>
0.0000

> <Gold.PLP.part.buried>
-2.8179

> <Gold.PLP.part.nonpolar>
-31.2226

> <Gold.PLP.part.repulsive>
0.2220

> <Gold.PLP.ligand.clash>
0.0000

> <Gold.PLP.ligand.torsion>
0.0725

> <Gold.PLP.Chemscore.Hbond>
2.0000

> <Gold.PLP.Chemscore.CHOScore>
0.0000

> <Gold.PLP.Chemscore.Metal>
0.0000

> <Gold.Chemscore.Hbonds>
donor molecule, donor type, donor heavy atom, donor atom, acceptor molecule, acceptor atom, score
      P1  H  7997  8009       L1     9  1.00
      P1  H 10752 10765       L1    17  0.57

> <Gold.PLP.Chemscore.Internal.Correction>
0.0275

> <Gold.Rescore>
     Score         DG    S(hbond)    S(metal)    S(lipo)     H(rot)  DE(clash)    DE(int)     intcor
     17.71     -19.25       1.97        0.00      94.24       1.50       0.01       1.52       ----

> <Gold.Chemscore.Fitness>
17.7123

> <Gold.Chemscore.DG>
-19.2489

> <Gold.Chemscore.ZeroCoef>
-5.4800

> <Gold.Chemscore.Hbond>
1.9711

> <Gold.Chemscore.Metal>
0.0000

> <Gold.Chemscore.Lipo>
94.2444

> <Gold.Chemscore.Internal_Hbond>
0.0000

> <Gold.Chemscore.DEClash>
0.0137

> <Gold.Chemscore.DEInternal>
1.5229

> <Gold.Chemscore.Rot>
1.5005

> <Gold.Chemscore.Internal.Correction>
   9.000000E+99

> <Gold.Chemscore.Hbonds>
donor molecule, donor type, donor heavy atom, donor atom, acceptor molecule, acceptor atom, score
      P1  H  7997  8009       L1     9  0.93
      P1  H 10752 10765       L1    17  0.05

> <Gold.Chemscore.Hbond.Weighted>
-6.5835

> <Gold.Chemscore.Metal.Weighted>
-0.0000

> <Gold.Chemscore.Lipo.Weighted>
-11.0266

> <Gold.Chemscore.Internal_Hbond.Weighted>
0.0000

> <Gold.Chemscore.DEClash.Weighted>
0.0137

> <Gold.Chemscore.DEInternal.Weighted>
1.5229

> <Gold.Chemscore.Rot.Weighted>
3.8412

> <Gold.Chemscore.Internal.Correction.Weighted>
   9.000000E+99

> <Gold.Protein.RotatedTorsions>
[ 6907 6896 6895 6894 ] final -101.64 input  -60.11 | X-H torsion
[ 7974 7965 7964 7962 ] final   30.01 input  175.53 | X-H torsion
[ 8008 7997 7996 7995 ] final  177.37 input   59.86 | X-H torsion
[ 10167 10162 10161 10158 ] final   22.19 input  -65.29 | X-H torsion
[ 10718 10713 10712 10709 ] final  152.09 input   66.30 | X-H torsion
[ 10763 10752 10751 10750 ] final  167.33 input  -60.55 | X-H torsion
[ 11005 11000 10999 10996 ] final   46.53 input  -57.11 | X-H torsion

> <Gold.Protein.ActiveResidues>
 VAL166  LYS551  ARG553  GLY616  TRP617  ASP618  TYR619  PRO620  LYS621  CYS622 
 ASP623  PHE694  ASN695  SER759  ASP760  ASP761  ALA762  ILE779  LEU786  VAL792 
 PHE793  MET794  SER795  GLU796  ALA797  LYS798  CYS799  TRP800  GLU811  SER814 

> <Gold.Protein.RotatedAtoms>
  150.7163  134.0704  159.3862 H   0  0  0  0  0  0  0  0  0  0  0  0  # atno 6907 bound_to 6896
  151.8686  135.0496  160.0486 H   0  0  0  0  0  0  0  0  0  0  0  0  # atno 6908 bound_to 6896
  152.2661  133.5305  159.5447 H   0  0  0  0  0  0  0  0  0  0  0  0  # atno 6909 bound_to 6896
  146.1637  139.6845  142.9015 H   0  0  0  0  0  0  0  0  0  0  0  0  # atno 7974 bound_to 7965
  156.0664  140.1360  156.9881 H   0  0  0  0  0  0  0  0  0  0  0  0  # atno 8008 bound_to 7997
  154.4508  140.0981  156.6664 H   0  0  0  0  0  0  0  0  0  0  0  0  # atno 8009 bound_to 7997
  155.5297  140.3458  155.4426 H   0  0  0  0  0  0  0  0  0  0  0  0  # atno 8010 bound_to 7997
  140.5368  143.9746  150.6496 H   0  0  0  0  0  0  0  0  0  0  0  0  # atno 10167 bound_to 10162
  157.2623  131.0800  151.1657 H   0  0  0  0  0  0  0  0  0  0  0  0  # atno 10718 bound_to 10713
  154.3522  135.2753  155.2366 H   0  0  0  0  0  0  0  0  0  0  0  0  # atno 10763 bound_to 10752
  154.4590  135.5912  153.6246 H   0  0  0  0  0  0  0  0  0  0  0  0  # atno 10764 bound_to 10752
  152.9849  135.6060  154.3734 H   0  0  0  0  0  0  0  0  0  0  0  0  # atno 10765 bound_to 10752
  140.1360  134.4644  155.8485 H   0  0  0  0  0  0  0  0  0  0  0  0  # atno 11005 bound_to 11000
  145.4522  141.0429  143.2798 LP  0  0  0  0  0  0  0  0  0  0  0  0  # atno 17320 bound_to 7965
  144.8063  139.6046  143.7049 LP  0  0  0  0  0  0  0  0  0  0  0  0  # atno 17321 bound_to 7965
  140.3136  143.3182  152.0854 LP  0  0  0  0  0  0  0  0  0  0  0  0  # atno 17342 bound_to 10162
  139.4974  144.6620  151.6443 LP  0  0  0  0  0  0  0  0  0  0  0  0  # atno 17343 bound_to 10162
  157.3162  130.6914  149.6243 LP  0  0  0  0  0  0  0  0  0  0  0  0  # atno 17370 bound_to 10713
  155.9664  130.4349  150.5067 LP  0  0  0  0  0  0  0  0  0  0  0  0  # atno 17371 bound_to 10713
  141.2178  133.6814  156.7158 LP  0  0  0  0  0  0  0  0  0  0  0  0  # atno 17394 bound_to 11000
  140.2782  134.8338  157.3909 LP  0  0  0  0  0  0  0  0  0  0  0  0  # atno 17395 bound_to 11000

$$$$
