#       Name:                AV-unprocessed.smi:1428
#       Creating user name   scv26
#       Creation time:       Fri Mar 27 05:46:50 2020


#       File generated by GOLD software.
#

@<TRIPOS>MOLECULE
AV-unprocessed.smi:1428
    51    52     1
SMALL
NO_CHARGES


@<TRIPOS>ATOM
      1 ****        -4.1367  -4.8352  -0.0969 C.3            1 S1                 0.0000
      2 ****        -3.4990  -3.5627  -0.1002 O.3            1 S1                 0.0000
      3 ****        -4.2886  -2.4290  -0.0670 C.ar           1 S1                 0.0000
      4 ****        -5.6361  -2.5823  -0.0291 N.ar           1 S1                 0.0000
      5 ****        -6.4081  -1.4769   0.0083 C.ar           1 S1                 0.0000
      6 ****        -5.8841  -0.1714   0.0160 C.ar           1 S1                 0.0000
      7 ****        -4.4867  -0.0095  -0.0230 C.ar           1 S1                 0.0000
      8 ****        -3.6632  -1.1603  -0.0771 C.ar           1 S1                 0.0000
      9 ****        -2.2419  -1.1122  -0.0969 N.am           1 S1                 0.0000
     10 ****        -1.4427  -0.1065  -0.4909 C.2            1 S1                 0.0000
     11 ****        -1.8249   0.9662  -0.9584 O.2            1 S1                 0.0000
     12 ****        -0.1507  -0.4237  -0.3270 N.am           1 S1                 0.0000
     13 ****         0.9766   0.4426  -0.6583 C.3            1 S1                 0.0000
     14 ****         2.2499  -0.3986  -0.8240 C.3            1 S1                 0.0000
     15 ****         3.4810   0.4961  -1.0493 C.3            1 S1                 0.0000
     16 ****         3.6531   1.4293   0.0692 N.3            1 S1                 0.0000
     17 ****         4.9150   2.1836  -0.1141 C.3            1 S1                 0.0000
     18 ****         5.2805   3.1154   1.0476 C.2            1 S1                 0.0000
     19 ****         5.4233   2.5581   2.2530 N.am           1 S1                 0.0000
     20 ****         5.4387   4.3190   0.8564 O.2            1 S1                 0.0000
     21 ****         2.4818   2.3119   0.1766 C.3            1 S1                 0.0000
     22 ****         1.2093   1.4894   0.4442 C.3            1 S1                 0.0000
     23 ****        -3.3790  -5.6181  -0.1188 H              1 S1                 0.0000
     24 ****        -4.7717  -4.9646  -0.9745 H              1 S1                 0.0000
     25 ****        -4.7349  -4.9803   0.8039 H              1 S1                 0.0000
     26 ****        -7.4755  -1.6384   0.0397 H              1 S1                 0.0000
     27 ****        -6.5391   0.6863   0.0566 H              1 S1                 0.0000
     28 ****        -4.0776   0.9884   0.0052 H              1 S1                 0.0000
     29 ****        -1.7794  -1.9680   0.1734 H              1 S1                 0.0000
     30 ****         0.0707  -1.3293   0.0605 H              1 S1                 0.0000
     31 ****         0.7745   0.9530  -1.6020 H              1 S1                 0.0000
     32 ****         2.4090  -1.0161   0.0617 H              1 S1                 0.0000
     33 ****         2.1358  -1.0858  -1.6631 H              1 S1                 0.0000
     34 ****         4.3636  -0.1385  -1.1400 H              1 S1                 0.0000
     35 ****         3.3848   1.0417  -1.9900 H              1 S1                 0.0000
     36 ****         5.7429   1.4838  -0.2376 H              1 S1                 0.0000
     37 ****         4.8641   2.7674  -1.0353 H              1 S1                 0.0000
     38 ****         5.6706   3.1332   3.0453 H              1 S1                 0.0000
     39 ****         5.2905   1.5636   2.3656 H              1 S1                 0.0000
     40 ****         2.6012   3.0217   0.9949 H              1 S1                 0.0000
     41 ****         2.3678   2.9002  -0.7357 H              1 S1                 0.0000
     42 ****         0.3514   2.1591   0.5151 H              1 S1                 0.0000
     43 ****         1.2963   0.9964   1.4138 H              1 S1                 0.0000
     44 ****        -2.9450  -3.5123  -0.9312 LP             1 S1                 0.0000
     45 ****        -2.9016  -3.5299   0.7011 LP             1 S1                 0.0000
     46 ****        -6.0474  -3.4938  -0.0289 LP             1 S1                 0.0000
     47 ****        -2.8028   1.1428  -1.0704 LP             1 S1                 0.0000
     48 ****        -1.1574   1.6611  -1.2262 LP             1 S1                 0.0000
     49 ****         3.7190   0.9275   0.9317 LP             1 S1                 0.0000
     50 ****         5.3292   4.6979  -0.0625 LP             1 S1                 0.0000
     51 ****         5.6770   4.9195   1.6197 LP             1 S1                 0.0000
@<TRIPOS>BOND
    1    1    2 1     
    2    1   23 1     
    3    1   24 1     
    4    1   25 1     
    5    2    3 1     
    6    3    8 ar    
    7    3    4 ar    
    8    4    5 ar    
    9    5    6 ar    
   10    5   26 1     
   11    6    7 ar    
   12    6   27 1     
   13    7    8 ar    
   14    7   28 1     
   15    8    9 1     
   16    9   10 am    
   17    9   29 1     
   18   10   11 2     
   19   10   12 am    
   20   12   13 1     
   21   12   30 1     
   22   13   22 1     
   23   13   14 1     
   24   13   31 1     
   25   14   15 1     
   26   14   32 1     
   27   14   33 1     
   28   15   16 1     
   29   15   34 1     
   30   15   35 1     
   31   16   17 1     
   32   16   21 1     
   33   17   18 1     
   34   17   36 1     
   35   17   37 1     
   36   18   19 am    
   37   18   20 2     
   38   19   38 1     
   39   19   39 1     
   40   21   22 1     
   41   21   40 1     
   42   21   41 1     
   43   22   42 1     
   44   22   43 1     
   45    2   44 1     
   46    2   45 1     
   47    4   46 1     
   48   11   47 1     
   49   11   48 1     
   50   16   49 1     
   51   20   50 1     
   52   20   51 1     
@<TRIPOS>SUBSTRUCTURE
      1 S1             1
@<TRIPOS>SET
LONE_PAIRS      STATIC     ATOMS    <user>   **** ""
8 44 45 46 47 48 49 50 51
DONOR_HYDROGENS      STATIC     ATOMS    <user>   **** ""
4 29 30 38 39
ATOM$BLUE        STATIC     ATOMS    COLORGROUP SYSTEM
8 44 45 46 47 48 49 50 51
ATOM$RED        STATIC     ATOMS    COLORGROUP SYSTEM
4 29 30 38 39
