AV-unprocessed.smi:1199|AV-procd|sdf|5021|dock4
  -GOLD-   22720 4 43D 1   1.00000     0.00000
 Structure written by MMmdl.
 42 43  0  0  0  0  0  0  0  0  2 V2000
  146.5545  139.0101  151.1412 C   0  0  0  0  0  0  0  0  0  0  0  0
  146.8071  139.0670  152.6536 C   0  0  1  0  0  0  0  0  0  0  0  0
  146.0607  137.9366  153.3998 C   0  0  0  0  0  0  0  0  0  0  0  0
  146.2798  136.5996  152.7904 N   0  3  0  0  0  0  0  0  0  0  0  0
  146.2823  135.4902  153.7732 C   0  0  0  0  0  0  0  0  0  0  0  0
  146.6234  134.1668  153.0694 C   0  0  0  0  0  0  0  0  0  0  0  0
  145.6789  133.9267  152.0328 O   0  0  0  0  0  0  0  0  0  0  0  0
  145.7029  134.9456  151.0404 C   0  0  0  0  0  0  0  0  0  0  0  0
  145.3518  136.3027  151.6749 C   0  0  0  0  0  0  0  0  0  0  0  0
  148.2447  138.9858  152.9101 N   0  0  0  0  0  0  0  0  0  0  0  0
  148.8187  138.7874  154.1077 C   0  0  0  0  0  0  0  0  0  0  0  0
  148.1926  138.7421  155.1659 O   0  0  0  0  0  0  0  0  0  0  0  0
  150.3311  138.5549  154.1003 C   0  0  0  0  0  0  0  0  0  0  0  0
  150.8348  138.3446  155.4649 N   0  0  0  0  0  0  0  0  0  0  0  0
  150.0867  137.4427  156.2067 N   0  0  0  0  0  0  0  0  0  0  0  0
  150.4149  137.1791  157.4261 C   0  0  0  0  0  0  0  0  0  0  0  0
  149.6432  136.2826  158.1233 O   0  0  0  0  0  0  0  0  0  0  0  0
  151.5602  137.8087  158.0450 C   0  0  0  0  0  0  0  0  0  0  0  0
  152.2777  138.6932  157.3185 C   0  0  0  0  0  0  0  0  0  0  0  0
  151.9239  139.0262  155.9375 C   0  0  0  0  0  0  0  0  0  0  0  0
  152.5403  139.8526  155.2663 O   0  0  0  0  0  0  0  0  0  0  0  0
  150.2520  135.7526  158.6146 H   0  0  0  0  0  0  0  0  0  0  0  0
  145.4899  139.0890  150.9193 H   0  0  0  0  0  0  0  0  0  0  0  0
  146.9154  138.0752  150.7109 H   0  0  0  0  0  0  0  0  0  0  0  0
  147.0589  139.8296  150.6281 H   0  0  0  0  0  0  0  0  0  0  0  0
  146.4274  140.0284  153.0023 H   0  0  0  0  0  0  0  0  0  0  0  0
  146.3374  137.9167  154.4549 H   0  0  0  0  0  0  0  0  0  0  0  0
  144.9935  138.1626  153.3701 H   0  0  0  0  0  0  0  0  0  0  0  0
  147.0094  135.6805  154.5619 H   0  0  0  0  0  0  0  0  0  0  0  0
  145.3046  135.4187  154.2519 H   0  0  0  0  0  0  0  0  0  0  0  0
  147.6355  134.1919  152.6614 H   0  0  0  0  0  0  0  0  0  0  0  0
  146.5856  133.3418  153.7808 H   0  0  0  0  0  0  0  0  0  0  0  0
  146.6850  134.9818  150.5686 H   0  0  0  0  0  0  0  0  0  0  0  0
  144.9841  134.6971  150.2595 H   0  0  0  0  0  0  0  0  0  0  0  0
  144.3251  136.2934  152.0440 H   0  0  0  0  0  0  0  0  0  0  0  0
  145.4172  137.0855  150.9185 H   0  0  0  0  0  0  0  0  0  0  0  0
  148.8503  139.0200  152.1023 H   0  0  0  0  0  0  0  0  0  0  0  0
  150.5632  137.6953  153.4684 H   0  0  0  0  0  0  0  0  0  0  0  0
  150.8283  139.4058  153.6308 H   0  0  0  0  0  0  0  0  0  0  0  0
  151.8288  137.5716  159.0639 H   0  0  0  0  0  0  0  0  0  0  0  0
  153.1353  139.1717  157.7685 H   0  0  0  0  0  0  0  0  0  0  0  0
  147.2041  136.6278  152.3834 H   0  0  0  0  0  0  0  0  0  0  0  0
  1  2  1  0  0  0  0
  1 23  1  0  0  0  0
  1 24  1  0  0  0  0
  1 25  1  0  0  0  0
  2  3  1  0  0  0  0
  2 10  1  0  0  0  0
  2 26  1  0  0  0  0
  3  4  1  0  0  0  0
  3 27  1  0  0  0  0
  3 28  1  0  0  0  0
  4  9  1  0  0  0  0
  4  5  1  0  0  0  0
  4 42  1  0  0  0  0
  5  6  1  0  0  0  0
  5 29  1  0  0  0  0
  5 30  1  0  0  0  0
  6  7  1  0  0  0  0
  6 31  1  0  0  0  0
  6 32  1  0  0  0  0
  7  8  1  0  0  0  0
  8  9  1  0  0  0  0
  8 33  1  0  0  0  0
  8 34  1  0  0  0  0
  9 35  1  0  0  0  0
  9 36  1  0  0  0  0
 10 11  1  0  0  0  0
 10 37  1  0  0  0  0
 11 12  2  0  0  0  0
 11 13  1  0  0  0  0
 13 38  1  0  0  0  0
 13 39  1  0  0  0  0
 13 14  1  0  0  0  0
 14 15  1  0  0  0  0
 14 20  1  0  0  0  0
 15 16  2  0  0  0  0
 16 17  1  0  0  0  0
 16 18  1  0  0  0  0
 17 22  1  0  0  0  0
 18 40  1  0  0  0  0
 18 19  2  0  0  0  0
 19 41  1  0  0  0  0
 19 20  1  0  0  0  0
 20 21  2  0  0  0  0
M  CHG  1   4   1
M  END
> <s_m_source_file>
AV-unprocessed.smi

> <i_m_source_file_index>
1199

> <i_lp_mmshare_version>
43012

> <i_f3d_flags>
0

> <s_epik_input>
W0NIMl0xW0NIMl1PW0NIMl1bQ0gyXU4xW0NIMl1bQ0BASF0oW0NIM10pW05IXUMoPU8pW0NIMl1uMltuSF1jKD1PKVtjSF1bY0hdYzI9Tw==

> <s_epik_cmdline>
J2VwaWtfcHl0aG9uJywgJy1waCcsICc3LjAnLCAnLXRuJywgJzgnLCAnLW1hJywgJzIwMCcsICctbWV0YWxfYmluZGluZycsICctaW1hZScsICc8aW5maWxlLm1hZT4nLCAnLW9tYWUnLCAnPG91dGZpbGUubWFlPic=

> <r_lp_tautomer_probability>
0.9996

> <r_epik_Ionization_Penalty>
2.86815

> <r_epik_Ionization_Penalty_Charging>
0.656653

> <r_epik_Ionization_Penalty_Neutral>
2.21149

> <r_epik_State_Penalty>
2.43136

> <r_epik_Charging_Adjusted_Penalty>
3.08801

> <i_epik_Tot_Q>
1

> <i_epik_Tot_abs_Q>
1

> <r_epik_Metal_State_Penalty>
2.43136

> <b_epik_Metal_Only>
0

> <s_lp_Force_Field>
OPLS_2005

> <r_lp_Energy>
31.569

> <b_lp_Chiralities_Consistent>
1

> <s_lp_Variant>
AV-unprocessed.smi:1199-8

> <Gold.Version>
5.8.1

> <Gold.Id.Protein>
6NUR|6NUR_protein|mol2

> <Gold.PLP.Fitness>
41.5169

> <Gold.PLP.PLP>
-29.7316

> <Gold.PLP.part.hbond>
-4.6442

> <Gold.PLP.part.metal>
0.0000

> <Gold.PLP.part.buried>
-0.3068

> <Gold.PLP.part.nonpolar>
-24.0058

> <Gold.PLP.part.repulsive>
0.2918

> <Gold.PLP.ligand.clash>
0.0000

> <Gold.PLP.ligand.torsion>
0.7084

> <Gold.PLP.Chemscore.Hbond>
4.3586

> <Gold.PLP.Chemscore.CHOScore>
0.0000

> <Gold.PLP.Chemscore.Metal>
0.0000

> <Gold.Chemscore.Hbonds>
donor molecule, donor type, donor heavy atom, donor atom, acceptor molecule, acceptor atom, score
      L1  H     4    42       P1  7948  2.00
      L1  H    10    37       P1  7957  0.86
      P1  H  7989  7998       L1    21  0.34
      P1  H  7997  8010       L1    21  1.00

> <Gold.PLP.Chemscore.Internal.Correction>
0.1262

> <Gold.Rescore>
     Score         DG    S(hbond)    S(metal)    S(lipo)     H(rot)  DE(clash)    DE(int)     intcor
      9.82     -13.92       2.95        0.00      54.41       3.03       0.23       3.87       ----

> <Gold.Chemscore.Fitness>
9.8219

> <Gold.Chemscore.DG>
-13.9244

> <Gold.Chemscore.ZeroCoef>
-5.4800

> <Gold.Chemscore.Hbond>
2.9475

> <Gold.Chemscore.Metal>
0.0000

> <Gold.Chemscore.Lipo>
54.4083

> <Gold.Chemscore.Internal_Hbond>
0.0000

> <Gold.Chemscore.DEClash>
0.2301

> <Gold.Chemscore.DEInternal>
3.8724

> <Gold.Chemscore.Rot>
3.0336

> <Gold.Chemscore.Internal.Correction>
   9.000000E+99

> <Gold.Chemscore.Hbonds>
donor molecule, donor type, donor heavy atom, donor atom, acceptor molecule, acceptor atom, score
      L1  H     4    42       P1  7948  1.00
      L1  H    10    37       P1  7957  0.78
      P1  H  7989  7998       L1    21  0.35
      P1  H  7997  8010       L1    21  0.77

> <Gold.Chemscore.Hbond.Weighted>
-9.8447

> <Gold.Chemscore.Metal.Weighted>
-0.0000

> <Gold.Chemscore.Lipo.Weighted>
-6.3658

> <Gold.Chemscore.Internal_Hbond.Weighted>
0.0000

> <Gold.Chemscore.DEClash.Weighted>
0.2301

> <Gold.Chemscore.DEInternal.Weighted>
3.8724

> <Gold.Chemscore.Rot.Weighted>
7.7661

> <Gold.Chemscore.Internal.Correction.Weighted>
   9.000000E+99

> <Gold.Protein.RotatedTorsions>
[ 6907 6896 6895 6894 ] final  110.21 input  -60.11 | X-H torsion
[ 7974 7965 7964 7962 ] final   95.82 input  175.53 | X-H torsion
[ 8008 7997 7996 7995 ] final   98.75 input   59.86 | X-H torsion
[ 10167 10162 10161 10158 ] final   17.76 input  -65.29 | X-H torsion
[ 10718 10713 10712 10709 ] final -128.74 input   66.30 | X-H torsion
[ 10763 10752 10751 10750 ] final   -1.23 input  -60.55 | X-H torsion
[ 11005 11000 10999 10996 ] final -156.52 input  -57.11 | X-H torsion

> <Gold.Protein.ActiveResidues>
 VAL166  LYS551  ARG553  GLY616  TRP617  ASP618  TYR619  PRO620  LYS621  CYS622 
 ASP623  PHE694  ASN695  SER759  ASP760  ASP761  ALA762  ILE779  LEU786  VAL792 
 PHE793  MET794  SER795  GLU796  ALA797  LYS798  CYS799  TRP800  GLU811  SER814 

> <Gold.Protein.RotatedAtoms>
  152.5031  133.8833  159.7357 H   0  0  0  0  0  0  0  0  0  0  0  0  # atno 6907 bound_to 6896
  150.9290  133.6780  159.2821 H   0  0  0  0  0  0  0  0  0  0  0  0  # atno 6908 bound_to 6896
  151.4131  135.0992  159.9644 H   0  0  0  0  0  0  0  0  0  0  0  0  # atno 6909 bound_to 6896
  145.4470  139.2296  143.3060 H   0  0  0  0  0  0  0  0  0  0  0  0  # atno 7974 bound_to 7965
  156.1036  140.3239  155.7976 H   0  0  0  0  0  0  0  0  0  0  0  0  # atno 8008 bound_to 7997
  155.4794  140.0553  157.2986 H   0  0  0  0  0  0  0  0  0  0  0  0  # atno 8009 bound_to 7997
  154.4713  140.2012  156.0003 H   0  0  0  0  0  0  0  0  0  0  0  0  # atno 8010 bound_to 7997
  140.5703  143.9174  150.6708 H   0  0  0  0  0  0  0  0  0  0  0  0  # atno 10167 bound_to 10162
  156.1980  130.6839  151.0505 H   0  0  0  0  0  0  0  0  0  0  0  0  # atno 10718 bound_to 10713
  153.3422  135.6981  153.6857 H   0  0  0  0  0  0  0  0  0  0  0  0  # atno 10763 bound_to 10752
  153.5618  135.3533  155.2803 H   0  0  0  0  0  0  0  0  0  0  0  0  # atno 10764 bound_to 10752
  154.8638  135.4251  154.2638 H   0  0  0  0  0  0  0  0  0  0  0  0  # atno 10765 bound_to 10752
  140.6746  134.4210  157.5230 H   0  0  0  0  0  0  0  0  0  0  0  0  # atno 11005 bound_to 11000
  146.2525  140.5225  142.8887 LP  0  0  0  0  0  0  0  0  0  0  0  0  # atno 17320 bound_to 7965
  144.8085  140.6343  143.6431 LP  0  0  0  0  0  0  0  0  0  0  0  0  # atno 17321 bound_to 7965
  140.2647  143.3498  152.1291 LP  0  0  0  0  0  0  0  0  0  0  0  0  # atno 17342 bound_to 10162
  139.5114  144.6900  151.5786 LP  0  0  0  0  0  0  0  0  0  0  0  0  # atno 17343 bound_to 10162
  157.6969  131.0790  150.6941 LP  0  0  0  0  0  0  0  0  0  0  0  0  # atno 17370 bound_to 10713
  156.6998  130.4620  149.5576 LP  0  0  0  0  0  0  0  0  0  0  0  0  # atno 17371 bound_to 10713
  139.8971  134.8645  156.2060 LP  0  0  0  0  0  0  0  0  0  0  0  0  # atno 17394 bound_to 11000
  141.0365  133.6960  156.1522 LP  0  0  0  0  0  0  0  0  0  0  0  0  # atno 17395 bound_to 11000

$$$$
