#       Name:                AV-unprocessed.smi:2691
#       Creating user name   scv26
#       Creation time:       Fri Mar 27 14:42:45 2020


#       File generated by GOLD software.
#

@<TRIPOS>MOLECULE
AV-unprocessed.smi:2691
    55    57     1
SMALL
NO_CHARGES


@<TRIPOS>ATOM
      1 ****        -5.1338  -3.4243   0.2822 C.3            1 S1                 0.0000
      2 ****        -4.0875  -2.6960  -0.5442 C.ar           1 S1                 0.0000
      3 ****        -4.5130  -1.9568  -1.6714 C.ar           1 S1                 0.0000
      4 ****        -3.5328  -1.3000  -2.4063 C.ar           1 S1                 0.0000
      5 ****        -3.6244  -0.5007  -3.5484 N.pl3          1 S1                 1.0000
      6 ****        -2.3810  -0.0737  -3.9050 C.2            1 S1                 0.0000
      7 ****        -1.4979  -0.5902  -3.0080 N.pl3          1 S1                 0.0000
      8 ****        -0.0394  -0.4397  -2.9223 C.3            1 S1                 0.0000
      9 ****         0.3893   0.6222  -1.8904 C.3            1 S1                 0.0000
     10 ****        -0.1518   1.8650  -2.2954 O.3            1 S1                 0.0000
     11 ****         1.9260   0.7482  -1.7983 C.3            1 S1                 0.0000
     12 ****         2.3598   1.1751  -0.4580 N.am           1 S1                 0.0000
     13 ****         2.5903   0.1536   0.4845 C.2            1 S1                 0.0000
     14 ****         2.9573   0.4156   1.6983 N.2            1 S1                 0.0000
     15 ****         3.1333   1.7445   2.1000 C.2            1 S1                 0.0000
     16 ****         3.5626   1.9812   3.5422 C.3            1 S1                 0.0000
     17 ****         2.5109   2.7877   4.3206 C.3            1 S1                 0.0000
     18 ****         4.9499   2.6377   3.6171 C.3            1 S1                 0.0000
     19 ****         2.9191   2.7617   1.2305 C.2            1 S1                 0.0000
     20 ****         2.4986   2.4959  -0.1450 C.2            1 S1                 0.0000
     21 ****         2.2797   3.3952  -0.9566 O.2            1 S1                 0.0000
     22 ****        -2.1706  -1.3612  -2.0550 C.ar           1 S1                 0.0000
     23 ****        -1.7336  -2.0850  -0.9486 C.ar           1 S1                 0.0000
     24 ****        -2.7151  -2.7597  -0.1880 C.ar           1 S1                 0.0000
     25 ****        -2.2686  -3.5585   1.0245 C.3            1 S1                 0.0000
     26 ****        -6.1377  -3.2614  -0.1109 H              1 S1                 0.0000
     27 ****        -5.1204  -3.0735   1.3146 H              1 S1                 0.0000
     28 ****        -4.9448  -4.4980   0.2780 H              1 S1                 0.0000
     29 ****        -5.5557  -1.9043  -1.9490 H              1 S1                 0.0000
     30 ****        -2.1391   0.5633  -4.7437 H              1 S1                 0.0000
     31 ****         0.3903  -1.4136  -2.6844 H              1 S1                 0.0000
     32 ****         0.3247  -0.1752  -3.9161 H              1 S1                 0.0000
     33 ****        -0.0270   0.3607  -0.9168 H              1 S1                 0.0000
     34 ****         0.1406   2.5318  -1.6921 H              1 S1                 0.0000
     35 ****         2.3836  -0.2167  -2.0262 H              1 S1                 0.0000
     36 ****         2.3107   1.4105  -2.5765 H              1 S1                 0.0000
     37 ****         2.4318  -0.8636   0.1218 H              1 S1                 0.0000
     38 ****         3.6419   1.0061   4.0259 H              1 S1                 0.0000
     39 ****         1.5356   2.3014   4.2810 H              1 S1                 0.0000
     40 ****         2.3975   3.7956   3.9200 H              1 S1                 0.0000
     41 ****         2.7887   2.8806   5.3709 H              1 S1                 0.0000
     42 ****         5.6946   2.0416   3.0884 H              1 S1                 0.0000
     43 ****         5.2805   2.7341   4.6514 H              1 S1                 0.0000
     44 ****         4.9470   3.6352   3.1771 H              1 S1                 0.0000
     45 ****         3.0559   3.7850   1.5487 H              1 S1                 0.0000
     46 ****        -0.6890  -2.1313  -0.6781 H              1 S1                 0.0000
     47 ****        -1.1851  -3.5299   1.1440 H              1 S1                 0.0000
     48 ****        -2.5641  -4.6034   0.9269 H              1 S1                 0.0000
     49 ****        -2.7149  -3.1548   1.9336 H              1 S1                 0.0000
     50 ****        -4.4712  -0.2599  -4.0477 H              1 S1                 0.0000
     51 ****        -1.1506   1.8168  -2.2862 LP             1 S1                 0.0000
     52 ****         0.1628   2.0847  -3.2189 LP             1 S1                 0.0000
     53 ****         3.1144  -0.3293   2.3466 LP             1 S1                 0.0000
     54 ****         1.9880   3.1698  -1.8862 LP             1 S1                 0.0000
     55 ****         2.3935   4.3513  -0.6863 LP             1 S1                 0.0000
@<TRIPOS>BOND
    1    1    2 1     
    2    1   26 1     
    3    1   27 1     
    4    1   28 1     
    5    2   24 ar    
    6    2    3 ar    
    7    3    4 ar    
    8    3   29 1     
    9    4   22 ar    
   10    4    5 1     
   11    5    6 2     
   12    5   50 1     
   13    6    7 1     
   14    6   30 1     
   15    7    8 1     
   16    7   22 1     
   17    8    9 1     
   18    8   31 1     
   19    8   32 1     
   20    9   10 1     
   21    9   11 1     
   22    9   33 1     
   23   10   34 1     
   24   11   12 1     
   25   11   35 1     
   26   11   36 1     
   27   12   20 am    
   28   12   13 1     
   29   13   14 2     
   30   13   37 1     
   31   14   15 1     
   32   15   16 1     
   33   15   19 2     
   34   16   17 1     
   35   16   18 1     
   36   16   38 1     
   37   17   39 1     
   38   17   40 1     
   39   17   41 1     
   40   18   42 1     
   41   18   43 1     
   42   18   44 1     
   43   19   20 1     
   44   19   45 1     
   45   20   21 2     
   46   22   23 ar    
   47   23   24 ar    
   48   23   46 1     
   49   24   25 1     
   50   25   47 1     
   51   25   48 1     
   52   25   49 1     
   53   10   51 1     
   54   10   52 1     
   55   14   53 1     
   56   21   54 1     
   57   21   55 1     
@<TRIPOS>SUBSTRUCTURE
      1 S1             1
@<TRIPOS>SET
LONE_PAIRS      STATIC     ATOMS    <user>   **** ""
5 51 52 53 54 55
DONOR_HYDROGENS      STATIC     ATOMS    <user>   **** ""
2 50 34
ATOM$BLUE        STATIC     ATOMS    COLORGROUP SYSTEM
5 51 52 53 54 55
ATOM$RED        STATIC     ATOMS    COLORGROUP SYSTEM
2 50 34
