AV-unprocessed.smi:2429|AV-procd|sdf|9582|dock1
  -GOLD-   2272013213D 1   1.00000     0.00000
 Structure written by MMmdl.
 34 35  0  0  0  0  0  0  0  0  1 V2000
  148.5712  140.2966  154.1702 C   0  0  0  0  0  0  0  0  0  0  0  0
  147.6596  141.2341  154.9911 C   0  0  0  0  0  0  0  0  0  0  0  0
  148.4685  142.0239  155.9320 N   0  0  0  0  0  0  0  0  0  0  0  0
  149.3952  141.5946  156.8053 C   0  0  0  0  0  0  0  0  0  0  0  0
  149.7158  140.4149  156.9443 O   0  0  0  0  0  0  0  0  0  0  0  0
  149.9277  142.6270  157.4809 N   0  0  0  0  0  0  0  0  0  0  0  0
  150.9218  142.6110  158.4971 C   0  0  0  0  0  0  0  0  0  0  0  0
  151.6007  141.4456  158.9285 C   0  0  0  0  0  0  0  0  0  0  0  0
  152.5541  141.5630  159.9598 C   0  0  0  0  0  0  0  0  0  0  0  0
  152.8519  142.7303  160.5690 N   0  0  0  0  0  0  0  0  0  0  0  0
  152.1920  143.8363  160.1654 C   0  0  0  0  0  0  0  0  0  0  0  0
  151.2211  143.8287  159.1439 C   0  0  0  0  0  0  0  0  0  0  0  0
  150.5916  144.9755  158.7904 F   0  0  0  0  0  0  0  0  0  0  0  0
  146.8189  142.1386  154.0571 C   0  0  0  0  0  0  0  0  0  0  0  0
  145.7436  142.9234  154.8298 C   0  0  0  0  0  0  0  0  0  0  0  0
  144.8973  142.0198  155.5308 O   0  0  0  0  0  0  0  0  0  0  0  0
  145.5935  141.2471  156.5016 C   0  0  0  0  0  0  0  0  0  0  0  0
  146.6710  140.3838  155.8180 C   0  0  0  0  0  0  0  0  0  0  0  0
  147.9848  139.6389  153.5278 H   0  0  0  0  0  0  0  0  0  0  0  0
  149.1765  139.6633  154.8199 H   0  0  0  0  0  0  0  0  0  0  0  0
  149.2507  140.8495  153.5216 H   0  0  0  0  0  0  0  0  0  0  0  0
  148.3014  143.0193  155.9093 H   0  0  0  0  0  0  0  0  0  0  0  0
  149.6228  143.5465  157.1965 H   0  0  0  0  0  0  0  0  0  0  0  0
  151.4050  140.4727  158.5048 H   0  0  0  0  0  0  0  0  0  0  0  0
  153.0880  140.6920  160.3100 H   0  0  0  0  0  0  0  0  0  0  0  0
  152.4435  144.7560  160.6727 H   0  0  0  0  0  0  0  0  0  0  0  0
  147.4486  142.8263  153.4932 H   0  0  0  0  0  0  0  0  0  0  0  0
  146.3200  141.5190  153.3105 H   0  0  0  0  0  0  0  0  0  0  0  0
  146.1942  143.6340  155.5242 H   0  0  0  0  0  0  0  0  0  0  0  0
  145.1357  143.5035  154.1355 H   0  0  0  0  0  0  0  0  0  0  0  0
  146.0307  141.9018  157.2567 H   0  0  0  0  0  0  0  0  0  0  0  0
  144.8776  140.6076  157.0181 H   0  0  0  0  0  0  0  0  0  0  0  0
  146.1733  139.6638  155.1666 H   0  0  0  0  0  0  0  0  0  0  0  0
  147.2048  139.7957  156.5659 H   0  0  0  0  0  0  0  0  0  0  0  0
  1  2  1  0  0  0  0
  1 19  1  0  0  0  0
  1 20  1  0  0  0  0
  1 21  1  0  0  0  0
  2 18  1  0  0  0  0
  2  3  1  0  0  0  0
  2 14  1  0  0  0  0
  3  4  1  0  0  0  0
  3 22  1  0  0  0  0
  4  5  2  0  0  0  0
  4  6  1  0  0  0  0
  6  7  1  0  0  0  0
  6 23  1  0  0  0  0
  7 12  1  0  0  0  0
  7  8  2  0  0  0  0
  8  9  1  0  0  0  0
  8 24  1  0  0  0  0
  9 10  2  0  0  0  0
  9 25  1  0  0  0  0
 10 11  1  0  0  0  0
 11 12  2  0  0  0  0
 11 26  1  0  0  0  0
 12 13  1  0  0  0  0
 14 15  1  0  0  0  0
 14 27  1  0  0  0  0
 14 28  1  0  0  0  0
 15 16  1  0  0  0  0
 15 29  1  0  0  0  0
 15 30  1  0  0  0  0
 16 17  1  0  0  0  0
 17 18  1  0  0  0  0
 17 31  1  0  0  0  0
 17 32  1  0  0  0  0
 18 33  1  0  0  0  0
 18 34  1  0  0  0  0
M  END
> <s_m_source_file>
AV-unprocessed.smi

> <i_m_source_file_index>
2429

> <i_lp_mmshare_version>
43012

> <i_f3d_flags>
0

> <s_epik_input>
W0NIMl0xW0NIMl1PW0NIMl1bQ0gyXUMxKFtDSDNdKVtOSF1DKD1PKVtOSF1jMltjSF1bY0hdbltjSF1jMkY=

> <s_epik_cmdline>
J2VwaWtfcHl0aG9uJywgJy1waCcsICc3LjAnLCAnLXRuJywgJzgnLCAnLW1hJywgJzIwMCcsICctbWV0YWxfYmluZGluZycsICctaW1hZScsICc8aW5maWxlLm1hZT4nLCAnLW9tYWUnLCAnPG91dGZpbGUubWFlPic=

> <r_epik_Ionization_Penalty>
0.00367474

> <r_epik_Ionization_Penalty_Charging>
0

> <r_epik_Ionization_Penalty_Neutral>
0.00367474

> <r_epik_State_Penalty>
0.00258877

> <r_epik_Charging_Adjusted_Penalty>
0.00258877

> <i_epik_Tot_Q>
0

> <i_epik_Tot_abs_Q>
0

> <r_epik_Metal_State_Penalty>
-0

> <b_epik_Metal_Only>
0

> <s_lp_Force_Field>
OPLS_2005

> <r_lp_Energy>
14.8008

> <b_lp_Chiralities_Consistent>
1

> <s_lp_Variant>
AV-unprocessed.smi:2429-1

> <Gold.Version>
5.8.1

> <Gold.Id.Protein>
6NUR|6NUR_protein|mol2

> <Gold.PLP.Fitness>
40.2812

> <Gold.PLP.PLP>
-34.5463

> <Gold.PLP.part.hbond>
-2.0000

> <Gold.PLP.part.metal>
0.0000

> <Gold.PLP.part.buried>
-5.9886

> <Gold.PLP.part.nonpolar>
-26.6193

> <Gold.PLP.part.repulsive>
0.2843

> <Gold.PLP.ligand.clash>
0.0000

> <Gold.PLP.ligand.torsion>
0.1008

> <Gold.PLP.Chemscore.Hbond>
1.9760

> <Gold.PLP.Chemscore.CHOScore>
0.0000

> <Gold.PLP.Chemscore.Metal>
0.0000

> <Gold.Chemscore.Hbonds>
donor molecule, donor type, donor heavy atom, donor atom, acceptor molecule, acceptor atom, score
      L1  H     3    22       P1  8028  1.00
      L1  H     6    23       P1  8028  0.87

> <Gold.PLP.Chemscore.Internal.Correction>
0.0085

> <Gold.Rescore>
     Score         DG    S(hbond)    S(metal)    S(lipo)     H(rot)  DE(clash)    DE(int)     intcor
     17.54     -18.76       1.95        0.00      79.60       1.00       0.03       1.19       ----

> <Gold.Chemscore.Fitness>
17.5408

> <Gold.Chemscore.DG>
-18.7618

> <Gold.Chemscore.ZeroCoef>
-5.4800

> <Gold.Chemscore.Hbond>
1.9548

> <Gold.Chemscore.Metal>
0.0000

> <Gold.Chemscore.Lipo>
79.5953

> <Gold.Chemscore.Internal_Hbond>
0.0000

> <Gold.Chemscore.DEClash>
0.0284

> <Gold.Chemscore.DEInternal>
1.1926

> <Gold.Chemscore.Rot>
1.0000

> <Gold.Chemscore.Internal.Correction>
   9.000000E+99

> <Gold.Chemscore.Hbonds>
donor molecule, donor type, donor heavy atom, donor atom, acceptor molecule, acceptor atom, score
      L1  H     3    22       P1  8028  0.87
      L1  H     6    23       P1  8028  0.72

> <Gold.Chemscore.Hbond.Weighted>
-6.5292

> <Gold.Chemscore.Metal.Weighted>
-0.0000

> <Gold.Chemscore.Lipo.Weighted>
-9.3127

> <Gold.Chemscore.Internal_Hbond.Weighted>
0.0000

> <Gold.Chemscore.DEClash.Weighted>
0.0284

> <Gold.Chemscore.DEInternal.Weighted>
1.1926

> <Gold.Chemscore.Rot.Weighted>
2.5600

> <Gold.Chemscore.Internal.Correction.Weighted>
   9.000000E+99

> <Gold.Protein.RotatedTorsions>
[ 6907 6896 6895 6894 ] final  -49.78 input  -60.11 | X-H torsion
[ 7974 7965 7964 7962 ] final   44.97 input  175.53 | X-H torsion
[ 8008 7997 7996 7995 ] final    8.48 input   59.86 | X-H torsion
[ 10167 10162 10161 10158 ] final  -71.56 input  -65.29 | X-H torsion
[ 10718 10713 10712 10709 ] final  120.01 input   66.30 | X-H torsion
[ 10763 10752 10751 10750 ] final    9.60 input  -60.55 | X-H torsion
[ 11005 11000 10999 10996 ] final  -51.70 input  -57.11 | X-H torsion

> <Gold.Protein.ActiveResidues>
 VAL166  LYS551  ARG553  GLY616  TRP617  ASP618  TYR619  PRO620  LYS621  CYS622 
 ASP623  PHE694  ASN695  SER759  ASP760  ASP761  ALA762  ILE779  LEU786  VAL792 
 PHE793  MET794  SER795  GLU796  ALA797  LYS798  CYS799  TRP800  GLU811  SER814 

> <Gold.Protein.RotatedAtoms>
  150.8772  134.8157  159.7198 H   0  0  0  0  0  0  0  0  0  0  0  0  # atno 6907 bound_to 6896
  152.4754  134.4853  159.9688 H   0  0  0  0  0  0  0  0  0  0  0  0  # atno 6908 bound_to 6896
  151.4933  133.3481  159.2892 H   0  0  0  0  0  0  0  0  0  0  0  0  # atno 6909 bound_to 6896
  146.0521  139.5015  142.9711 H   0  0  0  0  0  0  0  0  0  0  0  0  # atno 7974 bound_to 7965
  154.7674  140.2795  155.6165 H   0  0  0  0  0  0  0  0  0  0  0  0  # atno 8008 bound_to 7997
  156.2927  140.2648  156.2395 H   0  0  0  0  0  0  0  0  0  0  0  0  # atno 8009 bound_to 7997
  154.9942  140.0373  157.2322 H   0  0  0  0  0  0  0  0  0  0  0  0  # atno 8010 bound_to 7997
  140.5263  143.2326  151.7341 H   0  0  0  0  0  0  0  0  0  0  0  0  # atno 10167 bound_to 10162
  157.5921  131.1063  150.7976 H   0  0  0  0  0  0  0  0  0  0  0  0  # atno 10718 bound_to 10713
  153.2122  135.6870  153.8100 H   0  0  0  0  0  0  0  0  0  0  0  0  # atno 10763 bound_to 10752
  153.7328  135.3250  155.3290 H   0  0  0  0  0  0  0  0  0  0  0  0  # atno 10764 bound_to 10752
  154.8228  135.4640  154.0935 H   0  0  0  0  0  0  0  0  0  0  0  0  # atno 10765 bound_to 10752
  141.0885  133.6637  156.3916 H   0  0  0  0  0  0  0  0  0  0  0  0  # atno 11005 bound_to 11000
  145.6706  141.0217  143.1660 LP  0  0  0  0  0  0  0  0  0  0  0  0  # atno 17320 bound_to 7965
  144.7128  139.8306  143.7409 LP  0  0  0  0  0  0  0  0  0  0  0  0  # atno 17321 bound_to 7965
  139.4939  144.4180  152.0008 LP  0  0  0  0  0  0  0  0  0  0  0  0  # atno 17342 bound_to 10162
  140.3280  144.3350  150.5994 LP  0  0  0  0  0  0  0  0  0  0  0  0  # atno 17343 bound_to 10162
  156.8396  130.5043  149.5322 LP  0  0  0  0  0  0  0  0  0  0  0  0  # atno 17370 bound_to 10713
  156.0977  130.5945  150.9842 LP  0  0  0  0  0  0  0  0  0  0  0  0  # atno 17371 bound_to 10713
  140.5307  134.6215  157.5349 LP  0  0  0  0  0  0  0  0  0  0  0  0  # atno 17394 bound_to 11000
  139.9707  134.7298  156.0047 LP  0  0  0  0  0  0  0  0  0  0  0  0  # atno 17395 bound_to 11000

$$$$
