AV-unprocessed.smi:1512|AV-procd|sdf|6100|dock8
  -GOLD-   22720 6233D 1   1.00000     0.00000
 Structure written by MMmdl.
 44 46  0  0  0  0  0  0  0  0  3 V2000
  149.3565  141.7900  156.4839 C   0  0  0  0  0  0  0  0  0  0  0  0
  150.8424  141.9525  156.8445 C   0  0  2  0  0  0  0  0  0  0  0  0
  151.5137  140.6770  156.5976 N   0  0  0  0  0  0  0  0  0  0  0  0
  151.3437  139.8901  155.5235 C   0  0  0  0  0  0  0  0  0  0  0  0
  150.5962  140.1729  154.5861 O   0  0  0  0  0  0  0  0  0  0  0  0
  152.1706  138.5967  155.5049 C   0  0  0  0  0  0  0  0  0  0  0  0
  151.3569  137.3834  155.6945 N   0  0  0  0  0  0  0  0  0  0  0  0
  151.2392  136.5172  154.5915 C   0  0  0  0  0  0  0  0  0  0  0  0
  150.5205  135.3873  154.6512 C   0  0  0  0  0  0  0  0  0  0  0  0
  149.8502  135.0691  155.8884 C   0  0  0  0  0  0  0  0  0  0  0  0
  149.9435  135.8891  156.9606 C   0  0  0  0  0  0  0  0  0  0  0  0
  149.2385  135.5160  158.1656 N   0  3  0  0  0  0  0  0  0  0  0  0
  149.2564  134.3425  158.5242 O   0  0  0  0  0  0  0  0  0  0  0  0
  148.6553  136.3917  158.7976 O   0  5  0  0  0  0  0  0  0  0  0  0
  150.7463  137.1280  156.8937 C   0  0  0  0  0  0  0  0  0  0  0  0
  150.8771  137.8929  157.8514 O   0  0  0  0  0  0  0  0  0  0  0  0
  151.0466  142.3951  158.3154 C   0  0  2  0  0  0  0  0  0  0  0  0
  150.1394  143.5783  158.7339 C   0  0  0  0  0  0  0  0  0  0  0  0
  151.1345  144.6122  159.2895 C   0  0  1  0  0  0  0  0  0  0  0  0
  151.7156  144.1048  160.6214 C   0  0  0  0  0  0  0  0  0  0  0  0
  152.6520  142.9695  160.1690 C   0  0  0  0  0  0  0  0  0  0  0  0
  152.4564  142.9551  158.6406 C   0  0  2  0  0  0  0  0  0  0  0  0
  152.3128  144.4432  158.3400 C   0  0  0  0  0  0  0  0  0  0  0  0
  148.8089  142.7252  156.5991 H   0  0  0  0  0  0  0  0  0  0  0  0
  148.8736  141.0438  157.1156 H   0  0  0  0  0  0  0  0  0  0  0  0
  149.2389  141.4731  155.4471 H   0  0  0  0  0  0  0  0  0  0  0  0
  151.2547  142.7220  156.1902 H   0  0  0  0  0  0  0  0  0  0  0  0
  152.1562  140.3627  157.3102 H   0  0  0  0  0  0  0  0  0  0  0  0
  152.7091  138.5538  154.5571 H   0  0  0  0  0  0  0  0  0  0  0  0
  152.9475  138.6515  156.2701 H   0  0  0  0  0  0  0  0  0  0  0  0
  151.7622  136.8314  153.6998 H   0  0  0  0  0  0  0  0  0  0  0  0
  150.4388  134.7361  153.7931 H   0  0  0  0  0  0  0  0  0  0  0  0
  149.2584  134.1667  155.9414 H   0  0  0  0  0  0  0  0  0  0  0  0
  150.8463  141.5343  158.9556 H   0  0  0  0  0  0  0  0  0  0  0  0
  149.6129  144.0024  157.8781 H   0  0  0  0  0  0  0  0  0  0  0  0
  149.3892  143.2857  159.4696 H   0  0  0  0  0  0  0  0  0  0  0  0
  150.7287  145.6226  159.3455 H   0  0  0  0  0  0  0  0  0  0  0  0
  152.2809  144.8904  161.1242 H   0  0  0  0  0  0  0  0  0  0  0  0
  150.9398  143.7586  161.3054 H   0  0  0  0  0  0  0  0  0  0  0  0
  153.6865  143.2044  160.4227 H   0  0  0  0  0  0  0  0  0  0  0  0
  152.4052  142.0136  160.6323 H   0  0  0  0  0  0  0  0  0  0  0  0
  153.2770  142.4633  158.1190 H   0  0  0  0  0  0  0  0  0  0  0  0
  152.0671  144.6563  157.2986 H   0  0  0  0  0  0  0  0  0  0  0  0
  153.1875  145.0296  158.6269 H   0  0  0  0  0  0  0  0  0  0  0  0
  1  2  1  0  0  0  0
  1 24  1  0  0  0  0
  1 25  1  0  0  0  0
  1 26  1  0  0  0  0
  2  3  1  0  0  0  0
  2 17  1  0  0  0  0
  2 27  1  0  0  0  0
  3  4  1  0  0  0  0
  3 28  1  0  0  0  0
  4  5  2  0  0  0  0
  4  6  1  0  0  0  0
  6  7  1  0  0  0  0
  6 29  1  0  0  0  0
  6 30  1  0  0  0  0
  7 15  1  0  0  0  0
  7  8  1  0  0  0  0
  8  9  2  0  0  0  0
  8 31  1  0  0  0  0
  9 10  1  0  0  0  0
  9 32  1  0  0  0  0
 10 11  2  0  0  0  0
 10 33  1  0  0  0  0
 11 12  1  0  0  0  0
 11 15  1  0  0  0  0
 12 13  2  0  0  0  0
 12 14  1  0  0  0  0
 15 16  2  0  0  0  0
 17 22  1  0  0  0  0
 17 18  1  0  0  0  0
 17 34  1  0  0  0  0
 18 19  1  0  0  0  0
 18 35  1  0  0  0  0
 18 36  1  0  0  0  0
 19 23  1  0  0  0  0
 19 20  1  0  0  0  0
 19 37  1  0  0  0  0
 20 21  1  0  0  0  0
 20 38  1  0  0  0  0
 20 39  1  0  0  0  0
 21 22  1  0  0  0  0
 21 40  1  0  0  0  0
 21 41  1  0  0  0  0
 22 23  1  0  0  0  0
 22 42  1  0  0  0  0
 23 43  1  0  0  0  0
 23 44  1  0  0  0  0
M  CHG  1  12   1
M  CHG  1  14  -1
M  END
> <s_m_source_file>
AV-unprocessed.smi

> <i_m_source_file_index>
1512

> <i_lp_mmshare_version>
43012

> <i_f3d_flags>
0

> <s_epik_input>
W0NIMl0xW0NIMl1bQ0BIXShbQ0gyXTIpW0NAQEhdKFtDSDJdW0NAQEhdMTIpW0NASF0oW0NIM10pW05IXUMoPU8pW0NIMl1uM1tjSF1bY0hdW2NIXWMoW04rXSg9TylbTy1dKWMzPU8=

> <s_epik_cmdline>
J2VwaWtfcHl0aG9uJywgJy1waCcsICc3LjAnLCAnLXRuJywgJzgnLCAnLW1hJywgJzIwMCcsICctbWV0YWxfYmluZGluZycsICctaW1hZScsICc8aW5maWxlLm1hZT4nLCAnLW9tYWUnLCAnPG91dGZpbGUubWFlPic=

> <r_lp_tautomer_probability>
1

> <r_epik_Ionization_Penalty>
2.17697e-08

> <r_epik_Ionization_Penalty_Charging>
1.42735e-10

> <r_epik_Ionization_Penalty_Neutral>
2.16269e-08

> <r_epik_State_Penalty>
-0

> <r_epik_Charging_Adjusted_Penalty>
1.42735e-10

> <i_epik_Tot_Q>
0

> <i_epik_Tot_abs_Q>
2

> <r_epik_Metal_State_Penalty>
-0

> <b_epik_Metal_Only>
0

> <s_lp_Force_Field>
OPLS_2005

> <r_lp_Energy>
64.3974

> <b_lp_Chiralities_Consistent>
1

> <s_lp_Variant>
AV-unprocessed.smi:1512-1

> <Gold.Version>
5.8.1

> <Gold.Id.Protein>
6NUR|6NUR_protein|mol2

> <Gold.PLP.Fitness>
47.9499

> <Gold.PLP.PLP>
-41.3456

> <Gold.PLP.part.hbond>
-2.0000

> <Gold.PLP.part.metal>
0.0000

> <Gold.PLP.part.buried>
-3.5065

> <Gold.PLP.part.nonpolar>
-36.5361

> <Gold.PLP.part.repulsive>
0.2055

> <Gold.PLP.ligand.clash>
0.0000

> <Gold.PLP.ligand.torsion>
1.2062

> <Gold.PLP.Chemscore.Hbond>
2.0000

> <Gold.PLP.Chemscore.CHOScore>
0.9932

> <Gold.PLP.Chemscore.Metal>
0.0000

> <Gold.Chemscore.Hbonds>
donor molecule, donor type, donor heavy atom, donor atom, acceptor molecule, acceptor atom, score
      P1  H  6896  6909       L1    13  1.00
      P1  H  7989  7998       L1     5  1.00
      L1  C     8    31       P1  7949  0.84

> <Gold.PLP.Chemscore.Internal.Correction>
0.0370

> <Gold.Rescore>
     Score         DG    S(hbond)    S(metal)    S(lipo)     H(rot)  DE(clash)    DE(int)     intcor
     16.95     -21.19       1.86        0.00     119.34       1.75       0.41       3.83       ----

> <Gold.Chemscore.Fitness>
16.9530

> <Gold.Chemscore.DG>
-21.1901

> <Gold.Chemscore.ZeroCoef>
-5.4800

> <Gold.Chemscore.Hbond>
1.8626

> <Gold.Chemscore.Metal>
0.0000

> <Gold.Chemscore.Lipo>
119.3370

> <Gold.Chemscore.Internal_Hbond>
0.0000

> <Gold.Chemscore.DEClash>
0.4084

> <Gold.Chemscore.DEInternal>
3.8287

> <Gold.Chemscore.Rot>
1.7474

> <Gold.Chemscore.Internal.Correction>
   9.000000E+99

> <Gold.Chemscore.Hbonds>
donor molecule, donor type, donor heavy atom, donor atom, acceptor molecule, acceptor atom, score
      P1  H  6896  6909       L1    13  0.74
      P1  H  7989  7998       L1     5  0.39

> <Gold.Chemscore.Hbond.Weighted>
-6.2209

> <Gold.Chemscore.Metal.Weighted>
-0.0000

> <Gold.Chemscore.Lipo.Weighted>
-13.9624

> <Gold.Chemscore.Internal_Hbond.Weighted>
0.0000

> <Gold.Chemscore.DEClash.Weighted>
0.4084

> <Gold.Chemscore.DEInternal.Weighted>
3.8287

> <Gold.Chemscore.Rot.Weighted>
4.4733

> <Gold.Chemscore.Internal.Correction.Weighted>
   9.000000E+99

> <Gold.Protein.RotatedTorsions>
[ 6907 6896 6895 6894 ] final   14.94 input  -60.11 | X-H torsion
[ 7974 7965 7964 7962 ] final  -38.73 input  175.53 | X-H torsion
[ 8008 7997 7996 7995 ] final -116.73 input   59.86 | X-H torsion
[ 10167 10162 10161 10158 ] final  159.63 input  -65.29 | X-H torsion
[ 10718 10713 10712 10709 ] final  -63.67 input   66.30 | X-H torsion
[ 10763 10752 10751 10750 ] final  -27.38 input  -60.55 | X-H torsion
[ 11005 11000 10999 10996 ] final   85.21 input  -57.11 | X-H torsion

> <Gold.Protein.ActiveResidues>
 VAL166  LYS551  ARG553  GLY616  TRP617  ASP618  TYR619  PRO620  LYS621  CYS622 
 ASP623  PHE694  ASN695  SER759  ASP760  ASP761  ALA762  ILE779  LEU786  VAL792 
 PHE793  MET794  SER795  GLU796  ALA797  LYS798  CYS799  TRP800  GLU811  SER814 

> <Gold.Protein.RotatedAtoms>
  151.8102  135.0683  160.0411 H   0  0  0  0  0  0  0  0  0  0  0  0  # atno 6907 bound_to 6896
  152.3026  133.5666  159.5637 H   0  0  0  0  0  0  0  0  0  0  0  0  # atno 6908 bound_to 6896
  150.7281  134.0185  159.3735 H   0  0  0  0  0  0  0  0  0  0  0  0  # atno 6909 bound_to 6896
  146.0460  140.6545  142.9064 H   0  0  0  0  0  0  0  0  0  0  0  0  # atno 7974 bound_to 7965
  155.0725  140.0393  157.2613 H   0  0  0  0  0  0  0  0  0  0  0  0  # atno 8008 bound_to 7997
  154.6971  140.2665  155.6730 H   0  0  0  0  0  0  0  0  0  0  0  0  # atno 8009 bound_to 7997
  156.2748  140.2748  156.1570 H   0  0  0  0  0  0  0  0  0  0  0  0  # atno 8010 bound_to 7997
  139.4834  144.4711  151.8575 H   0  0  0  0  0  0  0  0  0  0  0  0  # atno 10167 bound_to 10162
  156.0777  130.4223  150.1310 H   0  0  0  0  0  0  0  0  0  0  0  0  # atno 10718 bound_to 10713
  153.7312  135.6938  153.4989 H   0  0  0  0  0  0  0  0  0  0  0  0  # atno 10763 bound_to 10752
  153.2134  135.4395  155.0405 H   0  0  0  0  0  0  0  0  0  0  0  0  # atno 10764 bound_to 10752
  154.8252  135.3442  154.6842 H   0  0  0  0  0  0  0  0  0  0  0  0  # atno 10765 bound_to 10752
  139.8978  134.8271  156.2552 H   0  0  0  0  0  0  0  0  0  0  0  0  # atno 11005 bound_to 11000
  144.7098  140.3995  143.7089 LP  0  0  0  0  0  0  0  0  0  0  0  0  # atno 17320 bound_to 7965
  145.6805  139.1617  143.2703 LP  0  0  0  0  0  0  0  0  0  0  0  0  # atno 17321 bound_to 7965
  140.4180  144.2281  150.5887 LP  0  0  0  0  0  0  0  0  0  0  0  0  # atno 17342 bound_to 10162
  140.4902  143.2350  151.8830 LP  0  0  0  0  0  0  0  0  0  0  0  0  # atno 17343 bound_to 10162
  156.9348  130.9725  151.3526 LP  0  0  0  0  0  0  0  0  0  0  0  0  # atno 17370 bound_to 10713
  157.5879  130.8423  149.8617 LP  0  0  0  0  0  0  0  0  0  0  0  0  # atno 17371 bound_to 10713
  141.0198  133.7047  156.1250 LP  0  0  0  0  0  0  0  0  0  0  0  0  # atno 17394 bound_to 11000
  140.7249  134.4318  157.5571 LP  0  0  0  0  0  0  0  0  0  0  0  0  # atno 17395 bound_to 11000

$$$$
