AV-unprocessed.smi:601|AV-procd|sdf|3032|dock4
  -GOLD-   2262023543D 1   1.00000     0.00000
 Structure written by MMmdl.
 50 51  0  0  0  0  0  0  0  0  1 V2000
  147.0234  141.9151  154.5300 C   0  0  0  0  0  0  0  0  0  0  0  0
  147.6007  140.7323  155.3155 C   0  0  0  0  0  0  0  0  0  0  0  0
  149.1027  140.5377  155.0657 C   0  0  0  0  0  0  0  0  0  0  0  0
  149.9626  141.5723  155.8136 C   0  0  0  0  0  0  0  0  0  0  0  0
  150.7074  140.9679  156.9284 N   0  0  0  0  0  0  0  0  0  0  0  0
  151.1246  141.7208  157.9802 C   0  0  0  0  0  0  0  0  0  0  0  0
  151.8371  141.2519  158.8702 O   0  0  0  0  0  0  0  0  0  0  0  0
  150.6565  143.1952  158.0923 C   0  0  1  0  0  0  0  0  0  0  0  0
  150.8467  143.8269  159.4776 C   0  0  0  0  0  0  0  0  0  0  0  0
  152.2743  144.3592  159.4620 C   0  0  0  0  0  0  0  0  0  0  0  0
  152.6677  144.3455  157.9819 C   0  0  0  0  0  0  0  0  0  0  0  0
  151.4680  144.0367  157.2808 O   0  0  0  0  0  0  0  0  0  0  0  0
  150.9994  139.5961  156.8253 C   0  0  0  0  0  0  0  0  0  0  0  0
  150.4338  138.6786  157.6651 C   0  0  0  0  0  0  0  0  0  0  0  0
  149.5279  139.0838  158.6347 N   0  0  0  0  0  0  0  0  0  0  0  0
  150.7440  137.3179  157.5813 N   0  0  0  0  0  0  0  0  0  0  0  0
  150.1641  136.3067  158.4430 C   0  0  0  0  0  0  0  0  0  0  0  0
  149.4436  135.1992  157.6559 C   0  0  0  0  0  0  0  0  0  0  0  0
  148.9429  134.0717  158.5635 C   0  0  0  0  0  0  0  0  0  0  0  0
  151.7046  136.8653  156.6447 C   0  0  0  0  0  0  0  0  0  0  0  0
  152.0536  135.6888  156.5426 O   0  0  0  0  0  0  0  0  0  0  0  0
  152.2759  137.8198  155.8106 N   0  0  0  0  0  0  0  0  0  0  0  0
  151.9932  139.1832  155.8257 C   0  0  0  0  0  0  0  0  0  0  0  0
  152.5746  139.9300  155.0393 O   0  0  0  0  0  0  0  0  0  0  0  0
  152.9590  137.4978  155.1404 H   0  0  0  0  0  0  0  0  0  0  0  0
  145.9579  142.0313  154.7289 H   0  0  0  0  0  0  0  0  0  0  0  0
  147.1472  141.7725  153.4561 H   0  0  0  0  0  0  0  0  0  0  0  0
  147.5171  142.8477  154.8043 H   0  0  0  0  0  0  0  0  0  0  0  0
  147.4233  140.8869  156.3805 H   0  0  0  0  0  0  0  0  0  0  0  0
  147.0634  139.8237  155.0415 H   0  0  0  0  0  0  0  0  0  0  0  0
  149.3883  139.5294  155.3670 H   0  0  0  0  0  0  0  0  0  0  0  0
  149.3000  140.6057  153.9954 H   0  0  0  0  0  0  0  0  0  0  0  0
  150.6598  142.0314  155.1107 H   0  0  0  0  0  0  0  0  0  0  0  0
  149.3382  142.3897  156.1782 H   0  0  0  0  0  0  0  0  0  0  0  0
  149.6112  143.2700  157.7914 H   0  0  0  0  0  0  0  0  0  0  0  0
  150.1489  144.6571  159.5923 H   0  0  0  0  0  0  0  0  0  0  0  0
  150.6631  143.1383  160.3033 H   0  0  0  0  0  0  0  0  0  0  0  0
  152.3213  145.3633  159.8846 H   0  0  0  0  0  0  0  0  0  0  0  0
  152.9426  143.7203  160.0406 H   0  0  0  0  0  0  0  0  0  0  0  0
  153.0761  145.3003  157.6504 H   0  0  0  0  0  0  0  0  0  0  0  0
  153.4134  143.5733  157.7866 H   0  0  0  0  0  0  0  0  0  0  0  0
  149.2648  140.0525  158.7458 H   0  0  0  0  0  0  0  0  0  0  0  0
  149.1374  138.4346  159.3025 H   0  0  0  0  0  0  0  0  0  0  0  0
  150.9732  135.9029  159.0509 H   0  0  0  0  0  0  0  0  0  0  0  0
  149.5008  136.8043  159.1530 H   0  0  0  0  0  0  0  0  0  0  0  0
  148.5984  135.6204  157.1106 H   0  0  0  0  0  0  0  0  0  0  0  0
  150.1173  134.7833  156.9058 H   0  0  0  0  0  0  0  0  0  0  0  0
  148.4384  133.2998  157.9820 H   0  0  0  0  0  0  0  0  0  0  0  0
  148.2350  134.4478  159.3027 H   0  0  0  0  0  0  0  0  0  0  0  0
  149.7686  133.6004  159.0977 H   0  0  0  0  0  0  0  0  0  0  0  0
  1  2  1  0  0  0  0
  1 26  1  0  0  0  0
  1 27  1  0  0  0  0
  1 28  1  0  0  0  0
  2  3  1  0  0  0  0
  2 29  1  0  0  0  0
  2 30  1  0  0  0  0
  3  4  1  0  0  0  0
  3 31  1  0  0  0  0
  3 32  1  0  0  0  0
  4  5  1  0  0  0  0
  4 33  1  0  0  0  0
  4 34  1  0  0  0  0
  5  6  1  0  0  0  0
  5 13  1  0  0  0  0
  6  7  2  0  0  0  0
  6  8  1  0  0  0  0
  8 12  1  0  0  0  0
  8  9  1  0  0  0  0
  8 35  1  0  0  0  0
  9 10  1  0  0  0  0
  9 36  1  0  0  0  0
  9 37  1  0  0  0  0
 10 11  1  0  0  0  0
 10 38  1  0  0  0  0
 10 39  1  0  0  0  0
 11 12  1  0  0  0  0
 11 40  1  0  0  0  0
 11 41  1  0  0  0  0
 13 23  1  0  0  0  0
 13 14  2  0  0  0  0
 14 15  1  0  0  0  0
 14 16  1  0  0  0  0
 15 42  1  0  0  0  0
 15 43  1  0  0  0  0
 16 17  1  0  0  0  0
 16 20  1  0  0  0  0
 17 18  1  0  0  0  0
 17 44  1  0  0  0  0
 17 45  1  0  0  0  0
 18 19  1  0  0  0  0
 18 46  1  0  0  0  0
 18 47  1  0  0  0  0
 19 48  1  0  0  0  0
 19 49  1  0  0  0  0
 19 50  1  0  0  0  0
 20 21  2  0  0  0  0
 20 22  1  0  0  0  0
 22 25  1  0  0  0  0
 22 23  1  0  0  0  0
 23 24  2  0  0  0  0
M  END
> <s_m_source_file>
AV-unprocessed.smi

> <i_m_source_file_index>
601

> <i_lp_mmshare_version>
43012

> <i_f3d_flags>
0

> <s_epik_input>
TzFbQ0gyXVtDSDJdW0NIMl1bQ0BIXTFDKD1PKU4oW0NIMl1bQ0gyXVtDSDJdW0NIM10pYzJjKFtOSDJdKW4oW0NIMl1bQ0gyXVtDSDNdKWMoPU8pW25IXWMyPU8=

> <s_epik_cmdline>
J2VwaWtfcHl0aG9uJywgJy1waCcsICc3LjAnLCAnLXRuJywgJzgnLCAnLW1hJywgJzIwMCcsICctbWV0YWxfYmluZGluZycsICctaW1hZScsICc8aW5maWxlLm1hZT4nLCAnLW9tYWUnLCAnPG91dGZpbGUubWFlPic=

> <r_lp_tautomer_probability>
1

> <r_epik_Ionization_Penalty>
6.19718e-05

> <r_epik_Ionization_Penalty_Charging>
2.78773e-05

> <r_epik_Ionization_Penalty_Neutral>
3.40944e-05

> <r_epik_State_Penalty>
-0

> <r_epik_Charging_Adjusted_Penalty>
2.78773e-05

> <i_epik_Tot_Q>
0

> <i_epik_Tot_abs_Q>
0

> <r_epik_Metal_State_Penalty>
0.0271358

> <b_epik_Metal_Only>
0

> <s_lp_Force_Field>
OPLS_2005

> <r_lp_Energy>
41.2463

> <b_lp_Chiralities_Consistent>
1

> <s_lp_Variant>
AV-unprocessed.smi:601-2

> <Gold.Version>
5.8.1

> <Gold.Id.Protein>
6NUR|6NUR_protein|mol2

> <Gold.PLP.Fitness>
42.1116

> <Gold.PLP.PLP>
-37.3967

> <Gold.PLP.part.hbond>
-3.0000

> <Gold.PLP.part.metal>
0.0000

> <Gold.PLP.part.buried>
-4.7799

> <Gold.PLP.part.nonpolar>
-30.5635

> <Gold.PLP.part.repulsive>
0.5211

> <Gold.PLP.ligand.clash>
0.0000

> <Gold.PLP.ligand.torsion>
2.5995

> <Gold.PLP.Chemscore.Hbond>
2.4960

> <Gold.PLP.Chemscore.CHOScore>
0.0000

> <Gold.PLP.Chemscore.Metal>
0.0000

> <Gold.Chemscore.Hbonds>
donor molecule, donor type, donor heavy atom, donor atom, acceptor molecule, acceptor atom, score
      P1  H  7989  7998       L1    24  0.56
      P1  H  7997  8008       L1    24  0.89
      P1  H 10752 10765       L1    21  1.00

> <Gold.PLP.Chemscore.Internal.Correction>
2.4259

> <Gold.Rescore>
     Score         DG    S(hbond)    S(metal)    S(lipo)     H(rot)  DE(clash)    DE(int)     intcor
     13.02     -16.97       2.07        0.00      81.92       1.96       0.70       3.25       ----

> <Gold.Chemscore.Fitness>
13.0208

> <Gold.Chemscore.DG>
-16.9734

> <Gold.Chemscore.ZeroCoef>
-5.4800

> <Gold.Chemscore.Hbond>
2.0740

> <Gold.Chemscore.Metal>
0.0000

> <Gold.Chemscore.Lipo>
81.9205

> <Gold.Chemscore.Internal_Hbond>
0.0000

> <Gold.Chemscore.DEClash>
0.7028

> <Gold.Chemscore.DEInternal>
3.2498

> <Gold.Chemscore.Rot>
1.9603

> <Gold.Chemscore.Internal.Correction>
   9.000000E+99

> <Gold.Chemscore.Hbonds>
donor molecule, donor type, donor heavy atom, donor atom, acceptor molecule, acceptor atom, score
      P1  H  7989  7998       L1    24  0.53
      P1  H  7997  8008       L1    24  0.38
      P1  H 10752 10765       L1    21  0.74

> <Gold.Chemscore.Hbond.Weighted>
-6.9272

> <Gold.Chemscore.Metal.Weighted>
-0.0000

> <Gold.Chemscore.Lipo.Weighted>
-9.5847

> <Gold.Chemscore.Internal_Hbond.Weighted>
0.0000

> <Gold.Chemscore.DEClash.Weighted>
0.7028

> <Gold.Chemscore.DEInternal.Weighted>
3.2498

> <Gold.Chemscore.Rot.Weighted>
5.0185

> <Gold.Chemscore.Internal.Correction.Weighted>
   9.000000E+99

> <Gold.Protein.RotatedTorsions>
[ 6907 6896 6895 6894 ] final  167.54 input  -60.11 | X-H torsion
[ 7974 7965 7964 7962 ] final  105.10 input  175.53 | X-H torsion
[ 8008 7997 7996 7995 ] final  -15.75 input   59.86 | X-H torsion
[ 10167 10162 10161 10158 ] final  -52.85 input  -65.29 | X-H torsion
[ 10718 10713 10712 10709 ] final -168.38 input   66.30 | X-H torsion
[ 10763 10752 10751 10750 ] final -154.20 input  -60.55 | X-H torsion
[ 11005 11000 10999 10996 ] final  104.78 input  -57.11 | X-H torsion

> <Gold.Protein.ActiveResidues>
 VAL166  LYS551  ARG553  GLY616  TRP617  ASP618  TYR619  PRO620  LYS621  CYS622 
 ASP623  PHE694  ASN695  SER759  ASP760  ASP761  ALA762  ILE779  LEU786  VAL792 
 PHE793  MET794  SER795  GLU796  ALA797  LYS798  CYS799  TRP800  GLU811  SER814 

> <Gold.Protein.RotatedAtoms>
  151.8617  133.3458  159.3705 H   0  0  0  0  0  0  0  0  0  0  0  0  # atno 6907 bound_to 6896
  150.7177  134.5199  159.5658 H   0  0  0  0  0  0  0  0  0  0  0  0  # atno 6908 bound_to 6896
  152.2714  134.7929  160.0464 H   0  0  0  0  0  0  0  0  0  0  0  0  # atno 6909 bound_to 6896
  145.3241  139.2504  143.3696 H   0  0  0  0  0  0  0  0  0  0  0  0  # atno 7974 bound_to 7965
  154.5106  140.2188  155.9164 H   0  0  0  0  0  0  0  0  0  0  0  0  # atno 8008 bound_to 7997
  156.1547  140.3154  155.8672 H   0  0  0  0  0  0  0  0  0  0  0  0  # atno 8009 bound_to 7997
  155.3870  140.0476  157.3032 H   0  0  0  0  0  0  0  0  0  0  0  0  # atno 8010 bound_to 7997
  140.6516  143.2570  151.4707 H   0  0  0  0  0  0  0  0  0  0  0  0  # atno 10167 bound_to 10162
  156.6961  130.9178  151.3074 H   0  0  0  0  0  0  0  0  0  0  0  0  # atno 10718 bound_to 10713
  154.7875  135.3195  154.7852 H   0  0  0  0  0  0  0  0  0  0  0  0  # atno 10763 bound_to 10752
  153.8549  135.6859  153.4793 H   0  0  0  0  0  0  0  0  0  0  0  0  # atno 10764 bound_to 10752
  153.1532  135.4691  154.9606 H   0  0  0  0  0  0  0  0  0  0  0  0  # atno 10765 bound_to 10752
  139.8795  134.9312  156.5413 H   0  0  0  0  0  0  0  0  0  0  0  0  # atno 11005 bound_to 11000
  146.3071  140.3804  142.8683 LP  0  0  0  0  0  0  0  0  0  0  0  0  # atno 17320 bound_to 7965
  144.8916  140.7531  143.5923 LP  0  0  0  0  0  0  0  0  0  0  0  0  # atno 17321 bound_to 7965
  139.5732  144.1881  152.1866 LP  0  0  0  0  0  0  0  0  0  0  0  0  # atno 17342 bound_to 10162
  140.1183  144.5396  150.6879 LP  0  0  0  0  0  0  0  0  0  0  0  0  # atno 17343 bound_to 10162
  157.6991  130.9313  150.0730 LP  0  0  0  0  0  0  0  0  0  0  0  0  # atno 17370 bound_to 10713
  156.1762  130.3648  149.9097 LP  0  0  0  0  0  0  0  0  0  0  0  0  # atno 17371 bound_to 10713
  140.8308  133.8280  155.8982 LP  0  0  0  0  0  0  0  0  0  0  0  0  # atno 17394 bound_to 11000
  140.9330  134.1997  157.4851 LP  0  0  0  0  0  0  0  0  0  0  0  0  # atno 17395 bound_to 11000

$$$$
