AV-unprocessed.smi:33|AV-procd|sdf|204|dock3
  -GOLD-   2262015483D 1   1.00000     0.00000
 Structure written by MMmdl.
 67 72  0  0  0  0  0  0  0  0  1 V2000
  153.7607  139.8020  158.9123 O   0  0  0  0  0  0  0  0  0  0  0  0
  152.6767  140.3320  158.6598 C   0  0  0  0  0  0  0  0  0  0  0  0
  151.6196  139.6616  158.1493 O   0  0  0  0  0  0  0  0  0  0  0  0
  151.7070  138.2565  157.9544 C   0  0  0  0  0  0  0  0  0  0  0  0
  152.2859  137.8621  156.5809 C   0  0  1  0  0  0  0  0  0  0  0  0
  151.9511  136.5266  156.2117 O   0  0  0  0  0  0  0  0  0  0  0  0
  150.9057  136.5077  155.2796 C   0  0  1  0  0  0  0  0  0  0  0  0
  149.6984  135.9283  155.9511 N   0  0  0  0  0  0  0  0  0  0  0  0
  149.0352  136.3572  157.0826 C   0  0  0  0  0  0  0  0  0  0  0  0
  147.9952  135.6463  157.4262 N   0  0  0  0  0  0  0  0  0  0  0  0
  147.9712  134.6183  156.4937 C   0  0  0  0  0  0  0  0  0  0  0  0
  147.1351  133.4884  156.2895 C   0  0  0  0  0  0  0  0  0  0  0  0
  146.0660  133.2236  157.0747 N   0  0  0  0  0  0  0  0  0  0  0  0
  145.3942  134.3722  157.6941 C   0  0  0  0  0  0  0  0  0  0  0  0
  145.3402  135.4473  157.0944 O   0  0  0  0  0  0  0  0  0  0  0  0
  144.7254  134.2214  159.0306 C   0  0  0  0  0  0  0  0  0  0  0  0
  143.5986  135.0090  159.3533 C   0  0  0  0  0  0  0  0  0  0  0  0
  142.9861  134.8869  160.6156 C   0  0  0  0  0  0  0  0  0  0  0  0
  143.5073  133.9913  161.5689 C   0  0  0  0  0  0  0  0  0  0  0  0
  144.6470  133.2234  161.2630 C   0  0  0  0  0  0  0  0  0  0  0  0
  145.2591  133.3435  160.0008 C   0  0  0  0  0  0  0  0  0  0  0  0
  145.6930  131.8137  157.2671 C   0  0  0  0  0  0  0  0  0  0  0  0
  146.5065  130.9229  157.0140 O   0  0  0  0  0  0  0  0  0  0  0  0
  144.3370  131.4513  157.8036 C   0  0  0  0  0  0  0  0  0  0  0  0
  144.1894  130.3238  158.6406 C   0  0  0  0  0  0  0  0  0  0  0  0
  142.9201  129.9692  159.1371 C   0  0  0  0  0  0  0  0  0  0  0  0
  141.7881  130.7284  158.7851 C   0  0  0  0  0  0  0  0  0  0  0  0
  141.9240  131.8377  157.9289 C   0  0  0  0  0  0  0  0  0  0  0  0
  143.1930  132.1937  157.4327 C   0  0  0  0  0  0  0  0  0  0  0  0
  147.4314  132.6525  155.2612 N   0  0  0  0  0  0  0  0  0  0  0  0
  148.4752  132.9196  154.4702 C   0  0  0  0  0  0  0  0  0  0  0  0
  149.3324  133.9417  154.5339 N   0  0  0  0  0  0  0  0  0  0  0  0
  149.0421  134.7766  155.5734 C   0  0  0  0  0  0  0  0  0  0  0  0
  150.6352  137.9649  154.8551 C   0  0  2  0  0  0  0  0  0  0  0  0
  150.5193  138.1369  153.4565 O   0  0  0  0  0  0  0  0  0  0  0  0
  151.8487  138.7118  155.3910 C   0  0  2  0  0  0  0  0  0  0  0  0
  152.8470  138.6919  154.5028 F   0  0  0  0  0  0  0  0  0  0  0  0
  152.3953  141.7746  158.9118 C   0  0  0  0  0  0  0  0  0  0  0  0
  151.7263  142.5308  157.9207 C   0  0  0  0  0  0  0  0  0  0  0  0
  151.4479  143.8959  158.1251 C   0  0  0  0  0  0  0  0  0  0  0  0
  151.8309  144.5203  159.3257 C   0  0  0  0  0  0  0  0  0  0  0  0
  152.5005  143.7807  160.3177 C   0  0  0  0  0  0  0  0  0  0  0  0
  152.7816  142.4165  160.1133 C   0  0  0  0  0  0  0  0  0  0  0  0
  152.3344  137.8429  158.7447 H   0  0  0  0  0  0  0  0  0  0  0  0
  150.7222  137.7992  158.0612 H   0  0  0  0  0  0  0  0  0  0  0  0
  153.3709  137.9076  156.6816 H   0  0  0  0  0  0  0  0  0  0  0  0
  151.1255  135.8255  154.4574 H   0  0  0  0  0  0  0  0  0  0  0  0
  149.3292  137.2341  157.6405 H   0  0  0  0  0  0  0  0  0  0  0  0
  143.1916  135.7012  158.6302 H   0  0  0  0  0  0  0  0  0  0  0  0
  142.1170  135.4825  160.8532 H   0  0  0  0  0  0  0  0  0  0  0  0
  143.0377  133.8988  162.5372 H   0  0  0  0  0  0  0  0  0  0  0  0
  145.0537  132.5436  161.9971 H   0  0  0  0  0  0  0  0  0  0  0  0
  146.1392  132.7561  159.7806 H   0  0  0  0  0  0  0  0  0  0  0  0
  145.0516  129.7342  158.9175 H   0  0  0  0  0  0  0  0  0  0  0  0
  142.8153  129.1135  159.7876 H   0  0  0  0  0  0  0  0  0  0  0  0
  140.8150  130.4561  159.1661 H   0  0  0  0  0  0  0  0  0  0  0  0
  141.0548  132.4155  157.6515 H   0  0  0  0  0  0  0  0  0  0  0  0
  143.2842  133.0443  156.7726 H   0  0  0  0  0  0  0  0  0  0  0  0
  148.6475  132.2144  153.6706 H   0  0  0  0  0  0  0  0  0  0  0  0
  149.7315  138.3315  155.3389 H   0  0  0  0  0  0  0  0  0  0  0  0
  150.1423  137.3522  153.0888 H   0  0  0  0  0  0  0  0  0  0  0  0
  151.6492  139.7543  155.6407 H   0  0  0  0  0  0  0  0  0  0  0  0
  151.4217  142.0730  156.9905 H   0  0  0  0  0  0  0  0  0  0  0  0
  150.9401  144.4643  157.3597 H   0  0  0  0  0  0  0  0  0  0  0  0
  151.6199  145.5679  159.4822 H   0  0  0  0  0  0  0  0  0  0  0  0
  152.8031  144.2618  161.2363 H   0  0  0  0  0  0  0  0  0  0  0  0
  153.2948  141.8800  160.8952 H   0  0  0  0  0  0  0  0  0  0  0  0
  1  2  2  0  0  0  0
  2  3  1  0  0  0  0
  2 38  1  0  0  0  0
  3  4  1  0  0  0  0
  4  5  1  0  0  0  0
  4 44  1  0  0  0  0
  4 45  1  0  0  0  0
  5 36  1  0  0  0  0
  5  6  1  0  0  0  0
  5 46  1  0  0  0  0
  6  7  1  0  0  0  0
  7  8  1  0  0  0  0
  7 34  1  0  0  0  0
  7 47  1  0  0  0  0
  8 33  1  0  0  0  0
  8  9  1  0  0  0  0
  9 10  2  0  0  0  0
  9 48  1  0  0  0  0
 10 11  1  0  0  0  0
 11 33  2  0  0  0  0
 11 12  1  0  0  0  0
 12 13  1  0  0  0  0
 12 30  2  0  0  0  0
 13 14  1  0  0  0  0
 13 22  1  0  0  0  0
 14 15  2  0  0  0  0
 14 16  1  0  0  0  0
 16 21  1  0  0  0  0
 16 17  2  0  0  0  0
 17 18  1  0  0  0  0
 17 49  1  0  0  0  0
 18 19  2  0  0  0  0
 18 50  1  0  0  0  0
 19 20  1  0  0  0  0
 19 51  1  0  0  0  0
 20 21  2  0  0  0  0
 20 52  1  0  0  0  0
 21 53  1  0  0  0  0
 22 23  2  0  0  0  0
 22 24  1  0  0  0  0
 24 29  1  0  0  0  0
 24 25  2  0  0  0  0
 25 26  1  0  0  0  0
 25 54  1  0  0  0  0
 26 27  2  0  0  0  0
 26 55  1  0  0  0  0
 27 28  1  0  0  0  0
 27 56  1  0  0  0  0
 28 29  2  0  0  0  0
 28 57  1  0  0  0  0
 29 58  1  0  0  0  0
 30 31  1  0  0  0  0
 31 32  2  0  0  0  0
 31 59  1  0  0  0  0
 32 33  1  0  0  0  0
 34 35  1  0  0  0  0
 34 36  1  0  0  0  0
 34 60  1  0  0  0  0
 35 61  1  0  0  0  0
 36 37  1  0  0  0  0
 36 62  1  0  0  0  0
 38 43  1  0  0  0  0
 38 39  2  0  0  0  0
 39 40  1  0  0  0  0
 39 63  1  0  0  0  0
 40 41  2  0  0  0  0
 40 64  1  0  0  0  0
 41 42  1  0  0  0  0
 41 65  1  0  0  0  0
 42 43  2  0  0  0  0
 42 66  1  0  0  0  0
 43 67  1  0  0  0  0
M  END
> <s_m_source_file>
AV-unprocessed.smi

> <i_m_source_file_index>
33

> <i_lp_mmshare_version>
43012

> <i_f3d_flags>
0

> <s_epik_input>
W2NIXTFbY0hdW2NIXVtjSF1bY0hdYzFDKD1PKU9bQ0gyXVtDQEBIXTJPW0NASF0oW0NAQEhdKFtPSF0pW0NAQEhdMkYpbihbY0hdbjMpYyhjMzQpbltjSF1uYzROKEMoPU8pYzVbY0hdW2NIXVtjSF1bY0hdW2NIXTUpQyg9TyljNltjSF1bY0hdW2NIXVtjSF1bY0hdNg==

> <s_epik_cmdline>
J2VwaWtfcHl0aG9uJywgJy1waCcsICc3LjAnLCAnLXRuJywgJzgnLCAnLW1hJywgJzIwMCcsICctbWV0YWxfYmluZGluZycsICctaW1hZScsICc8aW5maWxlLm1hZT4nLCAnLW9tYWUnLCAnPG91dGZpbGUubWFlPic=

> <r_lp_tautomer_probability>
1

> <r_epik_Ionization_Penalty>
0.00067664

> <r_epik_Ionization_Penalty_Charging>
0

> <r_epik_Ionization_Penalty_Neutral>
0.00067664

> <r_epik_State_Penalty>
0.000428095

> <r_epik_Charging_Adjusted_Penalty>
0.000428095

> <i_epik_Tot_Q>
0

> <i_epik_Tot_abs_Q>
0

> <r_epik_Metal_State_Penalty>
-0

> <b_epik_Metal_Only>
0

> <s_epik_Chemistry_Notes>
This compound has an ester and may undergo hydrolysis at high or low pH. This compound contains an acetal/aminal-like group ( X-CH(R)-Y where X, Y are N, S, or O) that may be acid/base labile, releasing an aldehyde.

> <s_lp_Force_Field>
OPLS_2005

> <r_lp_Energy>
67.2923

> <b_lp_Chiralities_Consistent>
1

> <s_lp_Variant>
AV-unprocessed.smi:33-6

> <Gold.Version>
5.8.1

> <Gold.Id.Protein>
6NUR|6NUR_protein|mol2

> <Gold.PLP.Fitness>
60.3481

> <Gold.PLP.PLP>
-53.4009

> <Gold.PLP.part.hbond>
-4.4615

> <Gold.PLP.part.metal>
0.0000

> <Gold.PLP.part.buried>
-8.1508

> <Gold.PLP.part.nonpolar>
-39.9557

> <Gold.PLP.part.repulsive>
0.1431

> <Gold.PLP.ligand.clash>
0.0000

> <Gold.PLP.ligand.torsion>
2.9496

> <Gold.PLP.Chemscore.Hbond>
3.0000

> <Gold.PLP.Chemscore.CHOScore>
0.0000

> <Gold.PLP.Chemscore.Metal>
0.0000

> <Gold.Chemscore.Hbonds>
donor molecule, donor type, donor heavy atom, donor atom, acceptor molecule, acceptor atom, score
      L1  H    35    61       P1  7948  0.75
      P1  H  7997  8009       L1     1  1.00
      P1  H 10752 10763       L1     6  0.90

> <Gold.PLP.Chemscore.Internal.Correction>
3.8464

> <Gold.Rescore>
     Score         DG    S(hbond)    S(metal)    S(lipo)     H(rot)  DE(clash)    DE(int)     intcor
     12.66     -22.77       2.31        0.00     137.06       2.52       0.06      10.05       ----

> <Gold.Chemscore.Fitness>
12.6638

> <Gold.Chemscore.DG>
-22.7724

> <Gold.Chemscore.ZeroCoef>
-5.4800

> <Gold.Chemscore.Hbond>
2.3114

> <Gold.Chemscore.Metal>
0.0000

> <Gold.Chemscore.Lipo>
137.0567

> <Gold.Chemscore.Internal_Hbond>
0.0000

> <Gold.Chemscore.DEClash>
0.0579

> <Gold.Chemscore.DEInternal>
10.0506

> <Gold.Chemscore.Rot>
2.5247

> <Gold.Chemscore.Internal.Correction>
   9.000000E+99

> <Gold.Chemscore.Hbonds>
donor molecule, donor type, donor heavy atom, donor atom, acceptor molecule, acceptor atom, score
      L1  H    35    61       P1  7948  0.09
      P1  H  7997  8009       L1     1  0.52
      P1  H 10752 10763       L1     6  0.17

> <Gold.Chemscore.Hbond.Weighted>
-7.7200

> <Gold.Chemscore.Metal.Weighted>
-0.0000

> <Gold.Chemscore.Lipo.Weighted>
-16.0356

> <Gold.Chemscore.Internal_Hbond.Weighted>
0.0000

> <Gold.Chemscore.DEClash.Weighted>
0.0579

> <Gold.Chemscore.DEInternal.Weighted>
10.0506

> <Gold.Chemscore.Rot.Weighted>
6.4633

> <Gold.Chemscore.Internal.Correction.Weighted>
   9.000000E+99

> <Gold.Protein.RotatedTorsions>
[ 6907 6896 6895 6894 ] final   87.64 input  -60.11 | X-H torsion
[ 7974 7965 7964 7962 ] final  111.28 input  175.53 | X-H torsion
[ 8008 7997 7996 7995 ] final  132.84 input   59.86 | X-H torsion
[ 10167 10162 10161 10158 ] final -145.44 input  -65.29 | X-H torsion
[ 10718 10713 10712 10709 ] final  133.89 input   66.30 | X-H torsion
[ 10763 10752 10751 10750 ] final   99.77 input  -60.55 | X-H torsion
[ 11005 11000 10999 10996 ] final  -66.73 input  -57.11 | X-H torsion

> <Gold.Protein.ActiveResidues>
 VAL166  LYS551  ARG553  GLY616  TRP617  ASP618  TYR619  PRO620  LYS621  CYS622 
 ASP623  PHE694  ASN695  SER759  ASP760  ASP761  ALA762  ILE779  LEU786  VAL792 
 PHE793  MET794  SER795  GLU796  ALA797  LYS798  CYS799  TRP800  GLU811  SER814 

> <Gold.Protein.RotatedAtoms>
  152.5414  134.2244  159.8800 H   0  0  0  0  0  0  0  0  0  0  0  0  # atno 6907 bound_to 6896
  151.2220  133.4490  159.2608 H   0  0  0  0  0  0  0  0  0  0  0  0  # atno 6908 bound_to 6896
  151.0797  134.9863  159.8405 H   0  0  0  0  0  0  0  0  0  0  0  0  # atno 6909 bound_to 6896
  145.2443  139.2766  143.4101 H   0  0  0  0  0  0  0  0  0  0  0  0  # atno 7974 bound_to 7965
  156.2987  140.2536  156.3155 H   0  0  0  0  0  0  0  0  0  0  0  0  # atno 8008 bound_to 7997
  154.9285  140.0399  157.2054 H   0  0  0  0  0  0  0  0  0  0  0  0  # atno 8009 bound_to 7997
  154.8241  140.2865  155.5771 H   0  0  0  0  0  0  0  0  0  0  0  0  # atno 8010 bound_to 7997
  139.7806  143.8107  152.2638 H   0  0  0  0  0  0  0  0  0  0  0  0  # atno 10167 bound_to 10162
  157.4728  131.1081  150.9782 H   0  0  0  0  0  0  0  0  0  0  0  0  # atno 10718 bound_to 10713
  153.3056  135.4102  155.1291 H   0  0  0  0  0  0  0  0  0  0  0  0  # atno 10763 bound_to 10752
  154.8561  135.3552  154.5793 H   0  0  0  0  0  0  0  0  0  0  0  0  # atno 10764 bound_to 10752
  153.6220  135.7064  153.5365 H   0  0  0  0  0  0  0  0  0  0  0  0  # atno 10765 bound_to 10752
  141.1490  133.6705  156.6184 H   0  0  0  0  0  0  0  0  0  0  0  0  # atno 11005 bound_to 11000
  146.3320  140.2815  142.8610 LP  0  0  0  0  0  0  0  0  0  0  0  0  # atno 17320 bound_to 7965
  144.9561  140.8227  143.5542 LP  0  0  0  0  0  0  0  0  0  0  0  0  # atno 17321 bound_to 7965
  139.8168  144.7313  150.9624 LP  0  0  0  0  0  0  0  0  0  0  0  0  # atno 17342 bound_to 10162
  140.7818  143.4197  151.0861 LP  0  0  0  0  0  0  0  0  0  0  0  0  # atno 17343 bound_to 10162
  157.0541  130.5799  149.5375 LP  0  0  0  0  0  0  0  0  0  0  0  0  # atno 17370 bound_to 10713
  156.0081  130.5170  150.7899 LP  0  0  0  0  0  0  0  0  0  0  0  0  # atno 17371 bound_to 10713
  140.3559  134.7729  157.4500 LP  0  0  0  0  0  0  0  0  0  0  0  0  # atno 17394 bound_to 11000
  140.0823  134.5714  155.8528 LP  0  0  0  0  0  0  0  0  0  0  0  0  # atno 17395 bound_to 11000

$$$$
