AV-unprocessed.smi:2825|AV-procd|sdf|10888|dock8
  -GOLD-   2272015333D 1   1.00000     0.00000
 Structure written by MMmdl.
 48 49  0  0  0  0  0  0  0  0  1 V2000
  147.0696  135.0138  162.7422 C   0  0  0  0  0  0  0  0  0  0  0  0
  147.0841  133.9516  161.6383 C   0  0  0  0  0  0  0  0  0  0  0  0
  147.8772  134.3950  160.4005 C   0  0  0  0  0  0  0  0  0  0  0  0
  147.4085  136.0994  159.8568 S   0  0  0  0  0  0  0  0  0  0  0  0
  146.0703  136.0251  159.2505 O   0  0  0  0  0  0  0  0  0  0  0  0
  147.6693  137.0502  160.9491 O   0  0  0  0  0  0  0  0  0  0  0  0
  148.5294  136.4413  158.5753 N   0  0  0  0  0  0  0  0  0  0  0  0
  148.3409  135.7949  157.2706 C   0  0  0  0  0  0  0  0  0  0  0  0
  149.8624  137.0072  158.8655 C   0  0  0  0  0  0  0  0  0  0  0  0
  150.8127  137.0411  157.6483 C   0  0  2  0  0  0  0  0  0  0  0  0
  151.3636  135.7448  157.5215 O   0  0  0  0  0  0  0  0  0  0  0  0
  151.9677  138.0591  157.7822 C   0  0  0  0  0  0  0  0  0  0  0  0
  151.6576  139.3487  157.1886 N   0  0  0  0  0  0  0  0  0  0  0  0
  151.2698  139.5896  155.9208 C   0  0  0  0  0  0  0  0  0  0  0  0
  151.0244  140.8533  155.5880 N   0  0  0  0  0  0  0  0  0  0  0  0
  151.2961  141.5117  156.7748 C   0  0  0  0  0  0  0  0  0  0  0  0
  151.2301  142.8849  157.0967 C   0  0  0  0  0  0  0  0  0  0  0  0
  151.5611  143.3429  158.3919 C   0  0  0  0  0  0  0  0  0  0  0  0
  151.4727  144.8282  158.6955 C   0  0  0  0  0  0  0  0  0  0  0  0
  151.9703  142.4205  159.3877 C   0  0  0  0  0  0  0  0  0  0  0  0
  152.3309  142.8871  160.7870 C   0  0  0  0  0  0  0  0  0  0  0  0
  152.0439  141.0457  159.0820 C   0  0  0  0  0  0  0  0  0  0  0  0
  151.7030  140.6005  157.7929 C   0  0  0  0  0  0  0  0  0  0  0  0
  146.5260  134.6563  163.6169 H   0  0  0  0  0  0  0  0  0  0  0  0
  146.5832  135.9273  162.4026 H   0  0  0  0  0  0  0  0  0  0  0  0
  148.0812  135.2682  163.0597 H   0  0  0  0  0  0  0  0  0  0  0  0
  147.5146  133.0307  162.0332 H   0  0  0  0  0  0  0  0  0  0  0  0
  146.0574  133.7169  161.3563 H   0  0  0  0  0  0  0  0  0  0  0  0
  148.9470  134.3727  160.5943 H   0  0  0  0  0  0  0  0  0  0  0  0
  147.6927  133.7182  159.5660 H   0  0  0  0  0  0  0  0  0  0  0  0
  148.3983  134.7114  157.3704 H   0  0  0  0  0  0  0  0  0  0  0  0
  149.0916  136.1227  156.5511 H   0  0  0  0  0  0  0  0  0  0  0  0
  147.3588  136.0463  156.8702 H   0  0  0  0  0  0  0  0  0  0  0  0
  149.7533  138.0066  159.2889 H   0  0  0  0  0  0  0  0  0  0  0  0
  150.3116  136.4088  159.6591 H   0  0  0  0  0  0  0  0  0  0  0  0
  150.2495  137.2298  156.7362 H   0  0  0  0  0  0  0  0  0  0  0  0
  151.6201  135.6156  156.6211 H   0  0  0  0  0  0  0  0  0  0  0  0
  152.2119  138.2287  158.8290 H   0  0  0  0  0  0  0  0  0  0  0  0
  152.8729  137.6725  157.3116 H   0  0  0  0  0  0  0  0  0  0  0  0
  151.1522  138.7896  155.2041 H   0  0  0  0  0  0  0  0  0  0  0  0
  150.9216  143.5874  156.3363 H   0  0  0  0  0  0  0  0  0  0  0  0
  152.4415  145.2115  159.0159 H   0  0  0  0  0  0  0  0  0  0  0  0
  150.7472  145.0136  159.4878 H   0  0  0  0  0  0  0  0  0  0  0  0
  151.1625  145.3965  157.8183 H   0  0  0  0  0  0  0  0  0  0  0  0
  152.6021  142.0482  161.4287 H   0  0  0  0  0  0  0  0  0  0  0  0
  151.4864  143.3996  161.2483 H   0  0  0  0  0  0  0  0  0  0  0  0
  153.1784  143.5722  160.7551 H   0  0  0  0  0  0  0  0  0  0  0  0
  152.3599  140.3365  159.8309 H   0  0  0  0  0  0  0  0  0  0  0  0
  1  2  1  0  0  0  0
  1 24  1  0  0  0  0
  1 25  1  0  0  0  0
  1 26  1  0  0  0  0
  2  3  1  0  0  0  0
  2 27  1  0  0  0  0
  2 28  1  0  0  0  0
  3  4  1  0  0  0  0
  3 29  1  0  0  0  0
  3 30  1  0  0  0  0
  4  5  2  0  0  0  0
  4  6  2  0  0  0  0
  4  7  1  0  0  0  0
  7  8  1  0  0  0  0
  7  9  1  0  0  0  0
  8 31  1  0  0  0  0
  8 32  1  0  0  0  0
  8 33  1  0  0  0  0
  9 10  1  0  0  0  0
  9 34  1  0  0  0  0
  9 35  1  0  0  0  0
 10 11  1  0  0  0  0
 10 12  1  0  0  0  0
 10 36  1  0  0  0  0
 11 37  1  0  0  0  0
 12 13  1  0  0  0  0
 12 38  1  0  0  0  0
 12 39  1  0  0  0  0
 13 23  1  0  0  0  0
 13 14  1  0  0  0  0
 14 15  2  0  0  0  0
 14 40  1  0  0  0  0
 15 16  1  0  0  0  0
 16 23  2  0  0  0  0
 16 17  1  0  0  0  0
 17 18  2  0  0  0  0
 17 41  1  0  0  0  0
 18 19  1  0  0  0  0
 18 20  1  0  0  0  0
 19 42  1  0  0  0  0
 19 43  1  0  0  0  0
 19 44  1  0  0  0  0
 20 21  1  0  0  0  0
 20 22  2  0  0  0  0
 21 45  1  0  0  0  0
 21 46  1  0  0  0  0
 21 47  1  0  0  0  0
 22 23  1  0  0  0  0
 22 48  1  0  0  0  0
M  END
> <s_m_source_file>
AV-unprocessed.smi

> <i_m_source_file_index>
2825

> <i_lp_mmshare_version>
43012

> <i_f3d_flags>
0

> <s_epik_input>
W0NIM11bQ0gyXVtDSDJdUyg9TykoPU8pTihbQ0gzXSlbQ0gyXVtDQEhdKFtPSF0pW0NIMl1uKFtjSF1uMSljKGMxMilbY0hdYyhbQ0gzXSljKFtjSF0yKVtDSDNd

> <s_epik_cmdline>
J2VwaWtfcHl0aG9uJywgJy1waCcsICc3LjAnLCAnLXRuJywgJzgnLCAnLW1hJywgJzIwMCcsICctbWV0YWxfYmluZGluZycsICctaW1hZScsICc8aW5maWxlLm1hZT4nLCAnLW9tYWUnLCAnPG91dGZpbGUubWFlPic=

> <r_epik_Ionization_Penalty>
0.104931

> <r_epik_Ionization_Penalty_Charging>
0

> <r_epik_Ionization_Penalty_Neutral>
0.104931

> <r_epik_State_Penalty>
0.0948201

> <r_epik_Charging_Adjusted_Penalty>
0.0948201

> <i_epik_Tot_Q>
0

> <i_epik_Tot_abs_Q>
0

> <r_epik_Metal_State_Penalty>
0.00010282

> <b_epik_Metal_Only>
0

> <s_lp_Force_Field>
OPLS_2005

> <r_lp_Energy>
0.666552

> <b_lp_Chiralities_Consistent>
1

> <s_lp_Variant>
AV-unprocessed.smi:2825-1

> <Gold.Version>
5.8.1

> <Gold.Id.Protein>
6NUR|6NUR_protein|mol2

> <Gold.PLP.Fitness>
50.6853

> <Gold.PLP.PLP>
-45.4798

> <Gold.PLP.part.hbond>
-4.0000

> <Gold.PLP.part.metal>
0.0000

> <Gold.PLP.part.buried>
-5.3454

> <Gold.PLP.part.nonpolar>
-35.4035

> <Gold.PLP.part.repulsive>
0.0448

> <Gold.PLP.ligand.clash>
0.0000

> <Gold.PLP.ligand.torsion>
1.8865

> <Gold.PLP.Chemscore.Hbond>
2.1666

> <Gold.PLP.Chemscore.CHOScore>
0.0000

> <Gold.PLP.Chemscore.Metal>
0.0000

> <Gold.Chemscore.Hbonds>
donor molecule, donor type, donor heavy atom, donor atom, acceptor molecule, acceptor atom, score
      P1  H  6931  6943       L1     6  0.87
      P1  H  6934  6947       L1     6  0.93
      P1  H  7989  7998       L1    15  0.50

> <Gold.PLP.Chemscore.Internal.Correction>
2.4788

> <Gold.Rescore>
     Score         DG    S(hbond)    S(metal)    S(lipo)     H(rot)  DE(clash)    DE(int)     intcor
     17.59     -20.68       2.63        0.00     108.12       2.43       0.07       3.02       ----

> <Gold.Chemscore.Fitness>
17.5876

> <Gold.Chemscore.DG>
-20.6793

> <Gold.Chemscore.ZeroCoef>
-5.4800

> <Gold.Chemscore.Hbond>
2.6281

> <Gold.Chemscore.Metal>
0.0000

> <Gold.Chemscore.Lipo>
108.1221

> <Gold.Chemscore.Internal_Hbond>
0.0000

> <Gold.Chemscore.DEClash>
0.0727

> <Gold.Chemscore.DEInternal>
3.0190

> <Gold.Chemscore.Rot>
2.4332

> <Gold.Chemscore.Internal.Correction>
   9.000000E+99

> <Gold.Chemscore.Hbonds>
donor molecule, donor type, donor heavy atom, donor atom, acceptor molecule, acceptor atom, score
      P1  H  6931  6943       L1     6  0.82
      P1  H  6934  6947       L1     6  0.85
      P1  H  7989  7998       L1    15  0.18

> <Gold.Chemscore.Hbond.Weighted>
-8.7780

> <Gold.Chemscore.Metal.Weighted>
-0.0000

> <Gold.Chemscore.Lipo.Weighted>
-12.6503

> <Gold.Chemscore.Internal_Hbond.Weighted>
0.0000

> <Gold.Chemscore.DEClash.Weighted>
0.0727

> <Gold.Chemscore.DEInternal.Weighted>
3.0190

> <Gold.Chemscore.Rot.Weighted>
6.2289

> <Gold.Chemscore.Internal.Correction.Weighted>
   9.000000E+99

> <Gold.Protein.RotatedTorsions>
[ 6907 6896 6895 6894 ] final -132.17 input  -60.11 | X-H torsion
[ 7974 7965 7964 7962 ] final   -1.39 input  175.53 | X-H torsion
[ 8008 7997 7996 7995 ] final  152.28 input   59.86 | X-H torsion
[ 10167 10162 10161 10158 ] final -137.87 input  -65.29 | X-H torsion
[ 10718 10713 10712 10709 ] final  132.67 input   66.30 | X-H torsion
[ 10763 10752 10751 10750 ] final   40.77 input  -60.55 | X-H torsion
[ 11005 11000 10999 10996 ] final  136.20 input  -57.11 | X-H torsion

> <Gold.Protein.ActiveResidues>
 VAL166  LYS551  ARG553  GLY616  TRP617  ASP618  TYR619  PRO620  LYS621  CYS622 
 ASP623  PHE694  ASN695  SER759  ASP760  ASP761  ALA762  ILE779  LEU786  VAL792 
 PHE793  MET794  SER795  GLU796  ALA797  LYS798  CYS799  TRP800  GLU811  SER814 

> <Gold.Protein.RotatedAtoms>
  150.9593  133.6463  159.2757 H   0  0  0  0  0  0  0  0  0  0  0  0  # atno 6907 bound_to 6896
  151.3791  135.0935  159.9500 H   0  0  0  0  0  0  0  0  0  0  0  0  # atno 6908 bound_to 6896
  152.5141  133.9131  159.7552 H   0  0  0  0  0  0  0  0  0  0  0  0  # atno 6909 bound_to 6896
  146.2417  140.1413  142.8335 H   0  0  0  0  0  0  0  0  0  0  0  0  # atno 7974 bound_to 7965
  156.2636  140.2025  156.6309 H   0  0  0  0  0  0  0  0  0  0  0  0  # atno 8008 bound_to 7997
  154.6684  140.0553  157.0163 H   0  0  0  0  0  0  0  0  0  0  0  0  # atno 8009 bound_to 7997
  155.1174  140.3221  155.4509 H   0  0  0  0  0  0  0  0  0  0  0  0  # atno 8010 bound_to 7997
  139.8534  143.7169  152.2656 H   0  0  0  0  0  0  0  0  0  0  0  0  # atno 10167 bound_to 10162
  157.4848  131.1087  150.9634 H   0  0  0  0  0  0  0  0  0  0  0  0  # atno 10718 bound_to 10713
  152.9927  135.6181  154.2680 H   0  0  0  0  0  0  0  0  0  0  0  0  # atno 10763 bound_to 10752
  154.2414  135.2788  155.2854 H   0  0  0  0  0  0  0  0  0  0  0  0  # atno 10764 bound_to 10752
  154.5366  135.5773  153.6861 H   0  0  0  0  0  0  0  0  0  0  0  0  # atno 10765 bound_to 10752
  140.0030  134.9471  157.0114 H   0  0  0  0  0  0  0  0  0  0  0  0  # atno 11005 bound_to 11000
  145.0244  140.8820  143.5147 LP  0  0  0  0  0  0  0  0  0  0  0  0  # atno 17320 bound_to 7965
  145.1467  139.2539  143.5462 LP  0  0  0  0  0  0  0  0  0  0  0  0  # atno 17321 bound_to 7965
  139.7443  144.7551  151.0604 LP  0  0  0  0  0  0  0  0  0  0  0  0  # atno 17342 bound_to 10162
  140.7784  143.4935  150.9862 LP  0  0  0  0  0  0  0  0  0  0  0  0  # atno 17343 bound_to 10162
  157.0355  130.5728  149.5349 LP  0  0  0  0  0  0  0  0  0  0  0  0  # atno 17370 bound_to 10713
  156.0141  130.5234  150.8080 LP  0  0  0  0  0  0  0  0  0  0  0  0  # atno 17371 bound_to 10713
  140.4693  134.1403  155.7201 LP  0  0  0  0  0  0  0  0  0  0  0  0  # atno 17394 bound_to 11000
  141.1656  133.8709  157.1724 LP  0  0  0  0  0  0  0  0  0  0  0  0  # atno 17395 bound_to 11000

$$$$
