AV-unprocessed.smi:1475|AV-procd|sdf|5979|dock7
  -GOLD-   22720 6 73D 1   1.00000     0.00000
 Structure written by MMmdl.
 50 51  0  0  0  0  0  0  0  0  2 V2000
  145.0064  135.3356  151.1064 C   0  0  0  0  0  0  0  0  0  0  0  0
  145.7528  134.1021  151.5215 C   0  0  0  0  0  0  0  0  0  0  0  0
  145.3194  132.7479  151.4638 C   0  0  0  0  0  0  0  0  0  0  0  0
  146.3732  132.0341  151.9607 C   0  0  0  0  0  0  0  0  0  0  0  0
  146.5289  130.5617  152.1578 C   0  0  0  0  0  0  0  0  0  0  0  0
  147.3599  132.9488  152.2864 N   0  0  0  0  0  0  0  0  0  0  0  0
  148.6797  132.7170  152.8593 C   0  0  0  0  0  0  0  0  0  0  0  0
  148.8391  133.3549  154.2445 C   0  0  0  0  0  0  0  0  0  0  0  0
  148.7533  132.6556  155.2531 O   0  0  0  0  0  0  0  0  0  0  0  0
  149.0542  134.6788  154.2902 N   0  0  0  0  0  0  0  0  0  0  0  0
  149.2461  135.4432  155.5136 C   0  0  0  0  0  0  0  0  0  0  0  0
  148.6726  136.8598  155.3516 C   0  0  0  0  0  0  0  0  0  0  0  0
  149.3807  137.6434  154.3040 N   0  3  1  0  0  0  0  0  0  0  0  0
  148.6631  138.8829  153.9058 C   0  0  0  0  0  0  0  0  0  0  0  0
  148.7926  139.9965  154.9664 C   0  0  2  0  0  0  0  0  0  0  0  0
  148.0431  141.2664  154.5391 C   0  0  0  0  0  0  0  0  0  0  0  0
  150.2775  140.2889  155.2446 C   0  0  0  0  0  0  0  0  0  0  0  0
  151.0269  139.0063  155.6466 C   0  0  2  0  0  0  0  0  0  0  0  0
  152.5189  139.2820  155.8805 C   0  0  0  0  0  0  0  0  0  0  0  0
  150.8196  137.9068  154.5815 C   0  0  0  0  0  0  0  0  0  0  0  0
  146.9742  134.2152  152.0162 N   0  0  0  0  0  0  0  0  0  0  0  0
  144.1278  135.0828  150.5128 H   0  0  0  0  0  0  0  0  0  0  0  0
  145.6336  135.9940  150.5045 H   0  0  0  0  0  0  0  0  0  0  0  0
  144.6693  135.8996  151.9761 H   0  0  0  0  0  0  0  0  0  0  0  0
  144.3760  132.3592  151.1095 H   0  0  0  0  0  0  0  0  0  0  0  0
  145.6193  130.0328  151.8726 H   0  0  0  0  0  0  0  0  0  0  0  0
  146.7392  130.3276  153.2015 H   0  0  0  0  0  0  0  0  0  0  0  0
  147.3459  130.1727  151.5501 H   0  0  0  0  0  0  0  0  0  0  0  0
  148.8618  131.6449  152.9325 H   0  0  0  0  0  0  0  0  0  0  0  0
  149.4326  133.1182  152.1788 H   0  0  0  0  0  0  0  0  0  0  0  0
  149.1087  135.1812  153.4160 H   0  0  0  0  0  0  0  0  0  0  0  0
  148.7589  134.9085  156.3288 H   0  0  0  0  0  0  0  0  0  0  0  0
  150.3101  135.4982  155.7504 H   0  0  0  0  0  0  0  0  0  0  0  0
  147.6227  136.7636  155.0707 H   0  0  0  0  0  0  0  0  0  0  0  0
  148.6827  137.3883  156.3046 H   0  0  0  0  0  0  0  0  0  0  0  0
  149.0804  139.2293  152.9592 H   0  0  0  0  0  0  0  0  0  0  0  0
  147.6141  138.6594  153.7070 H   0  0  0  0  0  0  0  0  0  0  0  0
  148.3342  139.6480  155.8929 H   0  0  0  0  0  0  0  0  0  0  0  0
  148.4556  141.6807  153.6185 H   0  0  0  0  0  0  0  0  0  0  0  0
  148.1065  142.0370  155.3080 H   0  0  0  0  0  0  0  0  0  0  0  0
  146.9863  141.0603  154.3673 H   0  0  0  0  0  0  0  0  0  0  0  0
  150.7399  140.7217  154.3560 H   0  0  0  0  0  0  0  0  0  0  0  0
  150.3681  141.0351  156.0349 H   0  0  0  0  0  0  0  0  0  0  0  0
  150.6169  138.6578  156.5945 H   0  0  0  0  0  0  0  0  0  0  0  0
  153.0060  139.6343  154.9706 H   0  0  0  0  0  0  0  0  0  0  0  0
  153.0374  138.3805  156.2084 H   0  0  0  0  0  0  0  0  0  0  0  0
  152.6619  140.0416  156.6494 H   0  0  0  0  0  0  0  0  0  0  0  0
  151.3301  136.9906  154.8752 H   0  0  0  0  0  0  0  0  0  0  0  0
  151.2877  138.2184  153.6467 H   0  0  0  0  0  0  0  0  0  0  0  0
  149.3601  137.0520  153.4852 H   0  0  0  0  0  0  0  0  0  0  0  0
  1  2  1  0  0  0  0
  1 22  1  0  0  0  0
  1 23  1  0  0  0  0
  1 24  1  0  0  0  0
  2 21  2  0  0  0  0
  2  3  1  0  0  0  0
  3  4  2  0  0  0  0
  3 25  1  0  0  0  0
  4  5  1  0  0  0  0
  4  6  1  0  0  0  0
  5 26  1  0  0  0  0
  5 27  1  0  0  0  0
  5 28  1  0  0  0  0
  6  7  1  0  0  0  0
  6 21  1  0  0  0  0
  7  8  1  0  0  0  0
  7 29  1  0  0  0  0
  7 30  1  0  0  0  0
  8  9  2  0  0  0  0
  8 10  1  0  0  0  0
 10 11  1  0  0  0  0
 10 31  1  0  0  0  0
 11 12  1  0  0  0  0
 11 32  1  0  0  0  0
 11 33  1  0  0  0  0
 12 13  1  0  0  0  0
 12 34  1  0  0  0  0
 12 35  1  0  0  0  0
 13 20  1  0  0  0  0
 13 14  1  0  0  0  0
 13 50  1  0  0  0  0
 14 15  1  0  0  0  0
 14 36  1  0  0  0  0
 14 37  1  0  0  0  0
 15 16  1  0  0  0  0
 15 17  1  0  0  0  0
 15 38  1  0  0  0  0
 16 39  1  0  0  0  0
 16 40  1  0  0  0  0
 16 41  1  0  0  0  0
 17 18  1  0  0  0  0
 17 42  1  0  0  0  0
 17 43  1  0  0  0  0
 18 19  1  0  0  0  0
 18 20  1  0  0  0  0
 18 44  1  0  0  0  0
 19 45  1  0  0  0  0
 19 46  1  0  0  0  0
 19 47  1  0  0  0  0
 20 48  1  0  0  0  0
 20 49  1  0  0  0  0
M  CHG  1  13   1
M  END
> <s_m_source_file>
AV-unprocessed.smi

> <i_m_source_file_index>
1475

> <i_lp_mmshare_version>
43012

> <i_f3d_flags>
0

> <s_epik_input>
W0NIM11jMVtjSF1jKFtDSDNdKW4objEpW0NIMl1DKD1PKVtOSF1bQ0gyXVtDSDJdTjJbQ0gyXVtDQEBIXShbQ0gzXSlbQ0gyXVtDQEBIXShbQ0gzXSlbQ0gyXTI=

> <s_epik_cmdline>
J2VwaWtfcHl0aG9uJywgJy1waCcsICc3LjAnLCAnLXRuJywgJzgnLCAnLW1hJywgJzIwMCcsICctbWV0YWxfYmluZGluZycsICctaW1hZScsICc8aW5maWxlLm1hZT4nLCAnLW9tYWUnLCAnPG91dGZpbGUubWFlPic=

> <r_lp_tautomer_probability>
1

> <r_epik_Ionization_Penalty>
0.00206431

> <r_epik_Ionization_Penalty_Charging>
0.00187095

> <r_epik_Ionization_Penalty_Neutral>
0.000193364

> <r_epik_State_Penalty>
-0

> <r_epik_Charging_Adjusted_Penalty>
0.00187095

> <i_epik_Tot_Q>
1

> <i_epik_Tot_abs_Q>
1

> <r_epik_Metal_State_Penalty>
-0

> <b_epik_Metal_Only>
0

> <s_lp_Force_Field>
OPLS_2005

> <r_lp_Energy>
18.0361

> <b_lp_Chiralities_Consistent>
1

> <s_lp_Variant>
AV-unprocessed.smi:1475-4

> <Gold.Version>
5.8.1

> <Gold.Id.Protein>
6NUR|6NUR_protein|mol2

> <Gold.PLP.Fitness>
45.5757

> <Gold.PLP.PLP>
-37.5146

> <Gold.PLP.part.hbond>
-2.0000

> <Gold.PLP.part.metal>
0.0000

> <Gold.PLP.part.buried>
-2.3012

> <Gold.PLP.part.nonpolar>
-35.2059

> <Gold.PLP.part.repulsive>
1.8076

> <Gold.PLP.ligand.clash>
0.0000

> <Gold.PLP.ligand.torsion>
0.4934

> <Gold.PLP.Chemscore.Hbond>
3.0000

> <Gold.PLP.Chemscore.CHOScore>
0.0000

> <Gold.PLP.Chemscore.Metal>
0.0000

> <Gold.Chemscore.Hbonds>
donor molecule, donor type, donor heavy atom, donor atom, acceptor molecule, acceptor atom, score
      L1  H    10    31       P1  7948  1.00
      L1  H    13    50       P1  7948  2.00

> <Gold.PLP.Chemscore.Internal.Correction>
0.0478

> <Gold.Rescore>
     Score         DG    S(hbond)    S(metal)    S(lipo)     H(rot)  DE(clash)    DE(int)     intcor
     17.02     -17.64       1.94        0.00      84.46       1.64       0.03       0.59       ----

> <Gold.Chemscore.Fitness>
17.0193

> <Gold.Chemscore.DG>
-17.6393

> <Gold.Chemscore.ZeroCoef>
-5.4800

> <Gold.Chemscore.Hbond>
1.9388

> <Gold.Chemscore.Metal>
0.0000

> <Gold.Chemscore.Lipo>
84.4598

> <Gold.Chemscore.Internal_Hbond>
0.0000

> <Gold.Chemscore.DEClash>
0.0279

> <Gold.Chemscore.DEInternal>
0.5921

> <Gold.Chemscore.Rot>
1.6399

> <Gold.Chemscore.Internal.Correction>
   9.000000E+99

> <Gold.Chemscore.Hbonds>
donor molecule, donor type, donor heavy atom, donor atom, acceptor molecule, acceptor atom, score
      L1  H    10    31       P1  7948  0.30
      L1  H    13    50       P1  7948  0.96

> <Gold.Chemscore.Hbond.Weighted>
-6.4756

> <Gold.Chemscore.Metal.Weighted>
-0.0000

> <Gold.Chemscore.Lipo.Weighted>
-9.8818

> <Gold.Chemscore.Internal_Hbond.Weighted>
0.0000

> <Gold.Chemscore.DEClash.Weighted>
0.0279

> <Gold.Chemscore.DEInternal.Weighted>
0.5921

> <Gold.Chemscore.Rot.Weighted>
4.1982

> <Gold.Chemscore.Internal.Correction.Weighted>
   9.000000E+99

> <Gold.Protein.RotatedTorsions>
[ 6907 6896 6895 6894 ] final  -63.70 input  -60.11 | X-H torsion
[ 7974 7965 7964 7962 ] final  -76.54 input  175.53 | X-H torsion
[ 8008 7997 7996 7995 ] final   51.98 input   59.86 | X-H torsion
[ 10167 10162 10161 10158 ] final -141.04 input  -65.29 | X-H torsion
[ 10718 10713 10712 10709 ] final  -29.72 input   66.30 | X-H torsion
[ 10763 10752 10751 10750 ] final  -91.64 input  -60.55 | X-H torsion
[ 11005 11000 10999 10996 ] final   97.12 input  -57.11 | X-H torsion

> <Gold.Protein.ActiveResidues>
 VAL166  LYS551  ARG553  GLY616  TRP617  ASP618  TYR619  PRO620  LYS621  CYS622 
 ASP623  PHE694  ASN695  SER759  ASP760  ASP761  ALA762  ILE779  LEU786  VAL792 
 PHE793  MET794  SER795  GLU796  ALA797  LYS798  CYS799  TRP800  GLU811  SER814 

> <Gold.Protein.RotatedAtoms>
  150.7632  134.6399  159.6230 H   0  0  0  0  0  0  0  0  0  0  0  0  # atno 6907 bound_to 6896
  152.3650  134.6814  160.0204 H   0  0  0  0  0  0  0  0  0  0  0  0  # atno 6908 bound_to 6896
  151.7192  133.3278  159.3347 H   0  0  0  0  0  0  0  0  0  0  0  0  # atno 6909 bound_to 6896
  145.6115  140.9385  143.1187 H   0  0  0  0  0  0  0  0  0  0  0  0  # atno 7974 bound_to 7965
  155.4442  140.3455  155.4293 H   0  0  0  0  0  0  0  0  0  0  0  0  # atno 8008 bound_to 7997
  156.1260  140.1500  156.9166 H   0  0  0  0  0  0  0  0  0  0  0  0  # atno 8009 bound_to 7997
  154.4858  140.0856  156.7463 H   0  0  0  0  0  0  0  0  0  0  0  0  # atno 8010 bound_to 7997
  139.8223  143.7557  152.2666 H   0  0  0  0  0  0  0  0  0  0  0  0  # atno 10167 bound_to 10162
  156.4089  130.4404  149.7267 H   0  0  0  0  0  0  0  0  0  0  0  0  # atno 10718 bound_to 10713
  154.6781  135.5260  153.8226 H   0  0  0  0  0  0  0  0  0  0  0  0  # atno 10763 bound_to 10752
  153.0546  135.6545  154.0619 H   0  0  0  0  0  0  0  0  0  0  0  0  # atno 10764 bound_to 10752
  154.0510  135.2969  155.3320 H   0  0  0  0  0  0  0  0  0  0  0  0  # atno 10765 bound_to 10752
  139.8777  134.8985  156.4260 H   0  0  0  0  0  0  0  0  0  0  0  0  # atno 11005 bound_to 11000
  144.7268  139.7851  143.7362 LP  0  0  0  0  0  0  0  0  0  0  0  0  # atno 17320 bound_to 7965
  146.1501  139.4581  143.0054 LP  0  0  0  0  0  0  0  0  0  0  0  0  # atno 17321 bound_to 7965
  139.7739  144.7467  151.0184 LP  0  0  0  0  0  0  0  0  0  0  0  0  # atno 17342 bound_to 10162
  140.7812  143.4615  151.0272 LP  0  0  0  0  0  0  0  0  0  0  0  0  # atno 17343 bound_to 10162
  156.4253  130.7789  151.2807 LP  0  0  0  0  0  0  0  0  0  0  0  0  # atno 17370 bound_to 10713
  157.7506  131.0170  150.3569 LP  0  0  0  0  0  0  0  0  0  0  0  0  # atno 17371 bound_to 10713
  140.9100  133.7718  155.9780 LP  0  0  0  0  0  0  0  0  0  0  0  0  # atno 17394 bound_to 11000
  140.8557  134.2901  157.5256 LP  0  0  0  0  0  0  0  0  0  0  0  0  # atno 17395 bound_to 11000

$$$$
