#       Name:                AV-unprocessed.smi:265
#       Creating user name   scv26
#       Creation time:       Thu Mar 26 21:22:44 2020


#       File generated by GOLD software.
#

@<TRIPOS>MOLECULE
AV-unprocessed.smi:265
    64    68     1
SMALL
NO_CHARGES


@<TRIPOS>ATOM
      1 ****        -2.3692  -2.6019   5.5162 C.3            1 S1                 0.0000
      2 ****        -3.2716  -1.6413   4.7258 C.3            1 S1                 0.0000
      3 ****        -4.3832  -2.3938   4.2457 O.3            1 S1                 0.0000
      4 ****        -4.8157  -1.8410   3.0154 C.3            1 S1                 0.0000
      5 ****        -3.5004  -1.5043   2.3301 C.3            1 S1                 0.0000
      6 ****        -2.6456  -0.9642   3.4731 C.3            1 S1                 0.0000
      7 ****        -2.8861   0.4300   3.5730 O.3            1 S1                 0.0000
      8 ****        -1.1221  -1.1733   3.2654 C.3            1 S1                 0.0000
      9 ****        -0.5970  -0.5035   2.0842 N.pl3          1 S1                 0.0000
     10 ****        -0.1118   0.7834   2.0183 C.2            1 S1                 0.0000
     11 ****         0.3041   1.1626   0.8409 N.2            1 S1                 0.0000
     12 ****         0.1055   0.0476   0.0350 C.ar           1 S1                 0.0000
     13 ****         0.3348  -0.2330  -1.3418 C.ar           1 S1                 0.0000
     14 ****         0.8788   0.6734  -2.1929 N.3            1 S1                 0.0000
     15 ****         0.6080   0.5108  -3.6211 C.3            1 S1                 0.0000
     16 ****         0.9421   1.7998  -4.3873 C.3            1 S1                 0.0000
     17 ****         2.3793   2.2706  -4.1120 C.3            1 S1                 0.0000
     18 ****         3.3109   1.3612  -4.6831 O.3            1 S1                 0.0000
     19 ****         4.6645   1.8145  -4.6311 C.3            1 S1                 0.0000
     20 ****         5.0643   2.3030  -3.2265 C.2            1 S1                 0.0000
     21 ****         6.2514   2.4414  -2.9408 O.2            1 S1                 0.0000
     22 ****         4.0849   2.6068  -2.3596 N.am           1 S1                 0.0000
     23 ****         2.6684   2.3481  -2.5966 C.3            1 S1                 0.0000
     24 ****         2.2536   1.0511  -1.8715 C.3            1 S1                 0.0000
     25 ****        -0.0106  -1.4687  -1.7932 N.ar           1 S1                 0.0000
     26 ****        -0.5324  -2.3716  -0.9579 C.ar           1 S1                 0.0000
     27 ****        -0.7935  -2.2498   0.3449 N.ar           1 S1                 0.0000
     28 ****        -0.4611  -1.0093   0.8027 C.ar           1 S1                 0.0000
     29 ****         2.5175   3.2507  -4.5732 H              1 S1                 0.0000
     30 ****         2.1007   3.1784  -2.1745 H              1 S1                 0.0000
     31 ****        -1.5039  -2.0862   5.9327 H              1 S1                 0.0000
     32 ****        -2.0117  -3.4209   4.8917 H              1 S1                 0.0000
     33 ****        -2.9166  -3.0430   6.3495 H              1 S1                 0.0000
     34 ****        -3.6565  -0.8866   5.4143 H              1 S1                 0.0000
     35 ****        -5.4205  -2.5474   2.4465 H              1 S1                 0.0000
     36 ****        -5.4080  -0.9432   3.1992 H              1 S1                 0.0000
     37 ****        -3.0683  -2.4274   1.9422 H              1 S1                 0.0000
     38 ****        -3.6131  -0.8124   1.4942 H              1 S1                 0.0000
     39 ****        -2.6177   0.8376   2.7638 H              1 S1                 0.0000
     40 ****        -0.5697  -0.8057   4.1310 H              1 S1                 0.0000
     41 ****        -0.8893  -2.2351   3.1786 H              1 S1                 0.0000
     42 ****        -0.0825   1.4393   2.8766 H              1 S1                 0.0000
     43 ****         1.2019  -0.3179  -4.0094 H              1 S1                 0.0000
     44 ****        -0.4412   0.2580  -3.7796 H              1 S1                 0.0000
     45 ****         0.7931   1.6506  -5.4570 H              1 S1                 0.0000
     46 ****         0.2459   2.5833  -4.0856 H              1 S1                 0.0000
     47 ****         5.3231   1.0030  -4.9418 H              1 S1                 0.0000
     48 ****         4.8009   2.6314  -5.3408 H              1 S1                 0.0000
     49 ****         4.3448   2.9639  -1.4517 H              1 S1                 0.0000
     50 ****         2.3892   1.1797  -0.7979 H              1 S1                 0.0000
     51 ****         2.9094   0.2310  -2.1685 H              1 S1                 0.0000
     52 ****        -0.7755  -3.3286  -1.3958 H              1 S1                 0.0000
     53 ****        -5.1281  -2.3540   4.9117 LP             1 S1                 0.0000
     54 ****        -4.1097  -3.3458   4.1081 LP             1 S1                 0.0000
     55 ****        -2.3595   0.8099   4.3335 LP             1 S1                 0.0000
     56 ****        -3.8604   0.5945   3.7272 LP             1 S1                 0.0000
     57 ****         0.6795   2.0515   0.5786 LP             1 S1                 0.0000
     58 ****         0.3272   1.4829  -1.9917 LP             1 S1                 0.0000
     59 ****         3.0634   1.2163  -5.6411 LP             1 S1                 0.0000
     60 ****         3.2493   0.4944  -4.1882 LP             1 S1                 0.0000
     61 ****         6.9562   2.2369  -3.6200 LP             1 S1                 0.0000
     62 ****         6.5125   2.7585  -2.0291 LP             1 S1                 0.0000
     63 ****         0.1267  -1.7028  -2.7557 LP             1 S1                 0.0000
     64 ****        -1.1830  -2.9751   0.9126 LP             1 S1                 0.0000
@<TRIPOS>BOND
    1    1    2 1     
    2    1   31 1     
    3    1   32 1     
    4    1   33 1     
    5    2    6 1     
    6    2    3 1     
    7    2   34 1     
    8    3    4 1     
    9    4    5 1     
   10    4   35 1     
   11    4   36 1     
   12    5    6 1     
   13    5   37 1     
   14    5   38 1     
   15    6    7 1     
   16    6    8 1     
   17    7   39 1     
   18    8    9 1     
   19    8   40 1     
   20    8   41 1     
   21    9   28 1     
   22    9   10 1     
   23   10   11 2     
   24   10   42 1     
   25   11   12 1     
   26   12   28 ar    
   27   12   13 ar    
   28   13   14 1     
   29   13   25 ar    
   30   14   24 1     
   31   14   15 1     
   32   15   16 1     
   33   15   43 1     
   34   15   44 1     
   35   16   17 1     
   36   16   45 1     
   37   16   46 1     
   38   17   29 1     
   39   17   23 1     
   40   17   18 1     
   41   18   19 1     
   42   19   20 1     
   43   19   47 1     
   44   19   48 1     
   45   20   21 2     
   46   20   22 am    
   47   22   23 1     
   48   22   49 1     
   49   23   30 1     
   50   23   24 1     
   51   24   50 1     
   52   24   51 1     
   53   25   26 ar    
   54   26   27 ar    
   55   26   52 1     
   56   27   28 ar    
   57    3   53 1     
   58    3   54 1     
   59    7   55 1     
   60    7   56 1     
   61   11   57 1     
   62   14   58 1     
   63   18   59 1     
   64   18   60 1     
   65   21   61 1     
   66   21   62 1     
   67   25   63 1     
   68   27   64 1     
@<TRIPOS>SUBSTRUCTURE
      1 S1             1
@<TRIPOS>SET
LONE_PAIRS      STATIC     ATOMS    <user>   **** ""
12 53 54 55 56 57 58 59 60 61 62 63 64
DONOR_HYDROGENS      STATIC     ATOMS    <user>   **** ""
2 39 49
ATOM$BLUE        STATIC     ATOMS    COLORGROUP SYSTEM
12 53 54 55 56 57 58 59 60 61 62 63 64
ATOM$RED        STATIC     ATOMS    COLORGROUP SYSTEM
2 39 49
