AV-unprocessed.smi:1251|AV-procd|sdf|5261|dock8
  -GOLD-   22720 4373D 1   1.00000     0.00000
 Structure written by MMmdl.
 38 39  0  0  0  0  0  0  0  0  2 V2000
  147.5610  140.8644  153.7340 C   0  0  0  0  0  0  0  0  0  0  0  0
  148.6743  141.7248  154.3418 C   0  0  0  0  0  0  0  0  0  0  0  0
  149.2624  141.1106  155.6199 C   0  0  0  0  0  0  0  0  0  0  0  0
  150.1144  139.9174  155.3423 C   0  0  0  0  0  0  0  0  0  0  0  0
  151.4292  140.0003  155.1234 N   0  0  0  0  0  0  0  0  0  0  0  0
  151.9947  138.7603  154.8644 N   0  0  0  0  0  0  0  0  0  0  0  0
  151.0989  137.7630  154.8668 C   0  0  0  0  0  0  0  0  0  0  0  0
  151.4426  136.4843  154.6415 N   0  5  0  0  0  0  0  0  0  0  0  0
  150.6807  135.4819  155.1356 C   0  0  0  0  0  0  0  0  0  0  0  0
  150.8983  134.8383  156.1649 O   0  0  0  0  0  0  0  0  0  0  0  0
  149.6000  135.2104  154.3899 N   0  0  0  0  0  0  0  0  0  0  0  0
  148.5975  134.1818  154.6591 C   0  0  1  0  0  0  0  0  0  0  0  0
  147.2492  134.6058  154.0509 C   0  0  0  0  0  0  0  0  0  0  0  0
  149.0968  132.8377  154.0957 C   0  0  2  0  0  0  0  0  0  0  0  0
  148.0199  131.7642  153.9401 C   0  0  0  0  0  0  0  0  0  0  0  0
  148.8132  130.4685  153.9582 C   0  0  0  0  0  0  0  0  0  0  0  0
  150.1408  130.8556  154.6162 C   0  0  0  0  0  0  0  0  0  0  0  0
  149.9907  132.2142  155.0059 O   0  0  0  0  0  0  0  0  0  0  0  0
  149.4547  138.2957  155.2140 S   0  0  0  0  0  0  0  0  0  0  0  0
  147.1582  141.3301  152.8344 H   0  0  0  0  0  0  0  0  0  0  0  0
  146.7386  140.7310  154.4373 H   0  0  0  0  0  0  0  0  0  0  0  0
  147.9323  139.8766  153.4600 H   0  0  0  0  0  0  0  0  0  0  0  0
  149.4660  141.8612  153.6043 H   0  0  0  0  0  0  0  0  0  0  0  0
  148.2815  142.7185  154.5611 H   0  0  0  0  0  0  0  0  0  0  0  0
  149.8597  141.8515  156.1528 H   0  0  0  0  0  0  0  0  0  0  0  0
  148.4601  140.8131  156.2956 H   0  0  0  0  0  0  0  0  0  0  0  0
  149.4684  135.7619  153.5548 H   0  0  0  0  0  0  0  0  0  0  0  0
  148.4743  134.0731  155.7381 H   0  0  0  0  0  0  0  0  0  0  0  0
  146.4658  133.8829  154.2772 H   0  0  0  0  0  0  0  0  0  0  0  0
  147.3153  134.6987  152.9664 H   0  0  0  0  0  0  0  0  0  0  0  0
  146.9235  135.5683  154.4467 H   0  0  0  0  0  0  0  0  0  0  0  0
  149.6097  132.9885  153.1436 H   0  0  0  0  0  0  0  0  0  0  0  0
  147.3392  131.7881  154.7923 H   0  0  0  0  0  0  0  0  0  0  0  0
  147.4293  131.8845  153.0316 H   0  0  0  0  0  0  0  0  0  0  0  0
  148.2904  129.6891  154.5132 H   0  0  0  0  0  0  0  0  0  0  0  0
  148.9859  130.1026  152.9454 H   0  0  0  0  0  0  0  0  0  0  0  0
  150.3760  130.2321  155.4789 H   0  0  0  0  0  0  0  0  0  0  0  0
  150.9615  130.7729  153.9025 H   0  0  0  0  0  0  0  0  0  0  0  0
  1  2  1  0  0  0  0
  1 20  1  0  0  0  0
  1 21  1  0  0  0  0
  1 22  1  0  0  0  0
  2  3  1  0  0  0  0
  2 23  1  0  0  0  0
  2 24  1  0  0  0  0
  3  4  1  0  0  0  0
  3 25  1  0  0  0  0
  3 26  1  0  0  0  0
  4 19  1  0  0  0  0
  4  5  2  0  0  0  0
  5  6  1  0  0  0  0
  6  7  2  0  0  0  0
  7  8  1  0  0  0  0
  7 19  1  0  0  0  0
  8  9  1  0  0  0  0
  9 10  2  0  0  0  0
  9 11  1  0  0  0  0
 11 12  1  0  0  0  0
 11 27  1  0  0  0  0
 12 13  1  0  0  0  0
 12 14  1  0  0  0  0
 12 28  1  0  0  0  0
 13 29  1  0  0  0  0
 13 30  1  0  0  0  0
 13 31  1  0  0  0  0
 14 18  1  0  0  0  0
 14 15  1  0  0  0  0
 14 32  1  0  0  0  0
 15 16  1  0  0  0  0
 15 33  1  0  0  0  0
 15 34  1  0  0  0  0
 16 17  1  0  0  0  0
 16 35  1  0  0  0  0
 16 36  1  0  0  0  0
 17 18  1  0  0  0  0
 17 37  1  0  0  0  0
 17 38  1  0  0  0  0
M  CHG  1   8  -1
M  END
> <s_m_source_file>
AV-unprocessed.smi

> <i_m_source_file_index>
1251

> <i_lp_mmshare_version>
43012

> <i_f3d_flags>
0

> <s_epik_input>
W0NIM11bQ0gyXVtDSDJdYzFubmMoczEpW05IXUMoPU8pW05IXVtDQEhdKFtDSDNdKVtDQEBIXTJbQ0gyXVtDSDJdW0NIMl1PMg==

> <s_epik_cmdline>
J2VwaWtfcHl0aG9uJywgJy1waCcsICc3LjAnLCAnLXRuJywgJzgnLCAnLW1hJywgJzIwMCcsICctbWV0YWxfYmluZGluZycsICctaW1hZScsICc8aW5maWxlLm1hZT4nLCAnLW9tYWUnLCAnPG91dGZpbGUubWFlPic=

> <r_lp_tautomer_probability>
1

> <r_epik_Ionization_Penalty>
4.22551

> <r_epik_Ionization_Penalty_Charging>
4.21437

> <r_epik_Ionization_Penalty_Neutral>
0.0111434

> <r_epik_State_Penalty>
4.21389

> <r_epik_Charging_Adjusted_Penalty>
8.42826

> <i_epik_Tot_Q>
-1

> <i_epik_Tot_abs_Q>
1

> <r_epik_Metal_State_Penalty>
0.69377

> <b_epik_Metal_Only>
1

> <s_lp_Force_Field>
OPLS_2005

> <r_lp_Energy>
12.2708

> <b_lp_Chiralities_Consistent>
1

> <s_lp_Variant>
AV-unprocessed.smi:1251-6

> <Gold.Version>
5.8.1

> <Gold.Id.Protein>
6NUR|6NUR_protein|mol2

> <Gold.PLP.Fitness>
39.7858

> <Gold.PLP.PLP>
-31.7718

> <Gold.PLP.part.hbond>
-3.3490

> <Gold.PLP.part.metal>
0.0000

> <Gold.PLP.part.buried>
-3.5253

> <Gold.PLP.part.nonpolar>
-25.1174

> <Gold.PLP.part.repulsive>
0.3958

> <Gold.PLP.ligand.clash>
0.0000

> <Gold.PLP.ligand.torsion>
2.0158

> <Gold.PLP.Chemscore.Hbond>
4.0000

> <Gold.PLP.Chemscore.CHOScore>
0.0000

> <Gold.PLP.Chemscore.Metal>
0.0000

> <Gold.Chemscore.Hbonds>
donor molecule, donor type, donor heavy atom, donor atom, acceptor molecule, acceptor atom, score
      L1  H    11    27       P1  7948  1.00
      P1  H  7989  7998       L1     5  1.00
      P1  H 10752 10765       L1     8  2.00

> <Gold.PLP.Chemscore.Internal.Correction>
0.0456

> <Gold.Rescore>
     Score         DG    S(hbond)    S(metal)    S(lipo)     H(rot)  DE(clash)    DE(int)     intcor
     12.35     -15.27       2.16        0.00      55.74       1.55       0.15       2.77       ----

> <Gold.Chemscore.Fitness>
12.3540

> <Gold.Chemscore.DG>
-15.2722

> <Gold.Chemscore.ZeroCoef>
-5.4800

> <Gold.Chemscore.Hbond>
2.1649

> <Gold.Chemscore.Metal>
0.0000

> <Gold.Chemscore.Lipo>
55.7378

> <Gold.Chemscore.Internal_Hbond>
0.0000

> <Gold.Chemscore.DEClash>
0.1489

> <Gold.Chemscore.DEInternal>
2.7693

> <Gold.Chemscore.Rot>
1.5469

> <Gold.Chemscore.Internal.Correction>
   9.000000E+99

> <Gold.Chemscore.Hbonds>
donor molecule, donor type, donor heavy atom, donor atom, acceptor molecule, acceptor atom, score
      L1  H    11    27       P1  7948  0.35
      P1  H  7989  7998       L1     5  0.21
      P1  H 10752 10765       L1     8  0.44

> <Gold.Chemscore.Hbond.Weighted>
-7.2309

> <Gold.Chemscore.Metal.Weighted>
-0.0000

> <Gold.Chemscore.Lipo.Weighted>
-6.5213

> <Gold.Chemscore.Internal_Hbond.Weighted>
0.0000

> <Gold.Chemscore.DEClash.Weighted>
0.1489

> <Gold.Chemscore.DEInternal.Weighted>
2.7693

> <Gold.Chemscore.Rot.Weighted>
3.9600

> <Gold.Chemscore.Internal.Correction.Weighted>
   9.000000E+99

> <Gold.Protein.RotatedTorsions>
[ 6907 6896 6895 6894 ] final  -90.83 input  -60.11 | X-H torsion
[ 7974 7965 7964 7962 ] final  -89.17 input  175.53 | X-H torsion
[ 8008 7997 7996 7995 ] final  -28.66 input   59.86 | X-H torsion
[ 10167 10162 10161 10158 ] final   73.66 input  -65.29 | X-H torsion
[ 10718 10713 10712 10709 ] final   78.86 input   66.30 | X-H torsion
[ 10763 10752 10751 10750 ] final  155.06 input  -60.55 | X-H torsion
[ 11005 11000 10999 10996 ] final -156.79 input  -57.11 | X-H torsion

> <Gold.Protein.ActiveResidues>
 VAL166  LYS551  ARG553  GLY616  TRP617  ASP618  TYR619  PRO620  LYS621  CYS622 
 ASP623  PHE694  ASN695  SER759  ASP760  ASP761  ALA762  ILE779  LEU786  VAL792 
 PHE793  MET794  SER795  GLU796  ALA797  LYS798  CYS799  TRP800  GLU811  SER814 

> <Gold.Protein.RotatedAtoms>
  150.6886  134.2371  159.4457 H   0  0  0  0  0  0  0  0  0  0  0  0  # atno 6907 bound_to 6896
  152.0318  134.9761  160.0582 H   0  0  0  0  0  0  0  0  0  0  0  0  # atno 6908 bound_to 6896
  152.1297  133.4366  159.4752 H   0  0  0  0  0  0  0  0  0  0  0  0  # atno 6909 bound_to 6896
  145.4433  140.9559  143.2063 H   0  0  0  0  0  0  0  0  0  0  0  0  # atno 7974 bound_to 7965
  154.4323  140.1839  156.1124 H   0  0  0  0  0  0  0  0  0  0  0  0  # atno 8008 bound_to 7997
  156.0207  140.3341  155.7010 H   0  0  0  0  0  0  0  0  0  0  0  0  # atno 8009 bound_to 7997
  155.5980  140.0637  157.2731 H   0  0  0  0  0  0  0  0  0  0  0  0  # atno 8010 bound_to 7997
  140.0221  144.5532  150.7573 H   0  0  0  0  0  0  0  0  0  0  0  0  # atno 10167 bound_to 10162
  157.6758  130.9888  150.1849 H   0  0  0  0  0  0  0  0  0  0  0  0  # atno 10718 bound_to 10713
  154.1623  135.2809  155.3105 H   0  0  0  0  0  0  0  0  0  0  0  0  # atno 10763 bound_to 10752
  154.6138  135.5490  153.7504 H   0  0  0  0  0  0  0  0  0  0  0  0  # atno 10764 bound_to 10752
  153.0189  135.6422  154.1764 H   0  0  0  0  0  0  0  0  0  0  0  0  # atno 10765 bound_to 10752
  140.6717  134.4240  157.5231 H   0  0  0  0  0  0  0  0  0  0  0  0  # atno 11005 bound_to 11000
  144.8107  139.5967  143.7030 LP  0  0  0  0  0  0  0  0  0  0  0  0  # atno 17320 bound_to 7965
  146.2544  139.6270  142.9405 LP  0  0  0  0  0  0  0  0  0  0  0  0  # atno 17321 bound_to 7965
  140.7338  143.2721  151.3855 LP  0  0  0  0  0  0  0  0  0  0  0  0  # atno 17342 bound_to 10162
  139.6132  144.1055  152.2320 LP  0  0  0  0  0  0  0  0  0  0  0  0  # atno 17343 bound_to 10162
  156.2573  130.3707  149.8168 LP  0  0  0  0  0  0  0  0  0  0  0  0  # atno 17370 bound_to 10713
  156.5923  130.8512  151.3411 LP  0  0  0  0  0  0  0  0  0  0  0  0  # atno 17371 bound_to 10713
  139.8979  134.8625  156.2022 LP  0  0  0  0  0  0  0  0  0  0  0  0  # atno 17394 bound_to 11000
  141.0387  133.6949  156.1559 LP  0  0  0  0  0  0  0  0  0  0  0  0  # atno 17395 bound_to 11000

$$$$
