AV-unprocessed.smi:1586|AV-procd|sdf|6386|dock1
  -GOLD-   22720 7 23D 1   1.00000     0.00000
 Structure written by MMmdl.
 45 46  0  0  0  0  0  0  0  0  2 V2000
  152.6443  143.6894  159.5544 C   0  0  0  0  0  0  0  0  0  0  0  0
  151.7264  143.5855  158.3281 C   0  0  0  0  0  0  0  0  0  0  0  0
  151.6438  142.2537  157.7315 N   0  0  0  0  0  0  0  0  0  0  0  0
  150.4713  142.0959  156.8719 C   0  0  0  0  0  0  0  0  0  0  0  0
  150.3976  140.6838  156.2601 C   0  0  0  0  0  0  0  0  0  0  0  0
  150.3465  139.6279  157.2832 N   0  0  0  0  0  0  0  0  0  0  0  0
  150.2795  138.2665  156.7017 C   0  0  1  0  0  0  0  0  0  0  0  0
  151.2955  138.0602  155.5489 C   0  0  0  0  0  0  0  0  0  0  0  0
  150.4791  137.1389  157.7516 C   0  0  0  0  0  0  0  0  0  0  0  0
  149.7214  137.3784  158.9760 N   0  0  0  0  0  0  0  0  0  0  0  0
  148.9534  136.4772  159.6029 C   0  0  0  0  0  0  0  0  0  0  0  0
  148.8543  135.3342  159.1503 O   0  0  0  0  0  0  0  0  0  0  0  0
  148.3464  136.9565  160.7135 N   0  5  0  0  0  0  0  0  0  0  0  0
  147.5705  136.1542  161.4586 C   0  0  0  0  0  0  0  0  0  0  0  0
  146.7800  135.0757  160.9757 C   0  0  0  0  0  0  0  0  0  0  0  0
  146.1828  134.5951  162.1061 C   0  0  0  0  0  0  0  0  0  0  0  0
  145.2323  133.4729  162.3487 C   0  0  0  0  0  0  0  0  0  0  0  0
  146.5657  135.3246  163.1886 O   0  0  0  0  0  0  0  0  0  0  0  0
  147.4489  136.3248  162.7646 N   0  0  0  0  0  0  0  0  0  0  0  0
  151.5168  139.8111  158.1551 C   0  0  0  0  0  0  0  0  0  0  0  0
  151.5787  141.2236  158.7636 C   0  0  0  0  0  0  0  0  0  0  0  0
  152.5718  144.6802  160.0034 H   0  0  0  0  0  0  0  0  0  0  0  0
  153.6904  143.5280  159.2952 H   0  0  0  0  0  0  0  0  0  0  0  0
  152.3674  142.9606  160.3164 H   0  0  0  0  0  0  0  0  0  0  0  0
  150.7276  143.8912  158.6419 H   0  0  0  0  0  0  0  0  0  0  0  0
  152.0398  144.3111  157.5761 H   0  0  0  0  0  0  0  0  0  0  0  0
  149.5603  142.2965  157.4383 H   0  0  0  0  0  0  0  0  0  0  0  0
  150.5000  142.8218  156.0600 H   0  0  0  0  0  0  0  0  0  0  0  0
  149.5052  140.6608  155.6384 H   0  0  0  0  0  0  0  0  0  0  0  0
  151.2500  140.5233  155.5982 H   0  0  0  0  0  0  0  0  0  0  0  0
  149.2836  138.1315  156.2767 H   0  0  0  0  0  0  0  0  0  0  0  0
  151.2905  137.0414  155.1636 H   0  0  0  0  0  0  0  0  0  0  0  0
  152.3121  138.2784  155.8771 H   0  0  0  0  0  0  0  0  0  0  0  0
  151.0762  138.6888  154.6873 H   0  0  0  0  0  0  0  0  0  0  0  0
  150.1946  136.1775  157.3202 H   0  0  0  0  0  0  0  0  0  0  0  0
  151.5193  137.0568  158.0623 H   0  0  0  0  0  0  0  0  0  0  0  0
  149.7783  138.3027  159.3773 H   0  0  0  0  0  0  0  0  0  0  0  0
  146.6732  134.7119  159.9648 H   0  0  0  0  0  0  0  0  0  0  0  0
  145.6631  132.5265  162.0218 H   0  0  0  0  0  0  0  0  0  0  0  0
  144.3038  133.6295  161.7995 H   0  0  0  0  0  0  0  0  0  0  0  0
  144.9879  133.3850  163.4075 H   0  0  0  0  0  0  0  0  0  0  0  0
  151.4880  139.1106  158.9874 H   0  0  0  0  0  0  0  0  0  0  0  0
  152.4337  139.6071  157.6000 H   0  0  0  0  0  0  0  0  0  0  0  0
  152.4539  141.2945  159.4103 H   0  0  0  0  0  0  0  0  0  0  0  0
  150.7075  141.3856  159.4006 H   0  0  0  0  0  0  0  0  0  0  0  0
  1  2  1  0  0  0  0
  1 22  1  0  0  0  0
  1 23  1  0  0  0  0
  1 24  1  0  0  0  0
  2  3  1  0  0  0  0
  2 25  1  0  0  0  0
  2 26  1  0  0  0  0
  3 21  1  0  0  0  0
  3  4  1  0  0  0  0
  4  5  1  0  0  0  0
  4 27  1  0  0  0  0
  4 28  1  0  0  0  0
  5  6  1  0  0  0  0
  5 29  1  0  0  0  0
  5 30  1  0  0  0  0
  6  7  1  0  0  0  0
  6 20  1  0  0  0  0
  7  8  1  0  0  0  0
  7  9  1  0  0  0  0
  7 31  1  0  0  0  0
  8 32  1  0  0  0  0
  8 33  1  0  0  0  0
  8 34  1  0  0  0  0
  9 10  1  0  0  0  0
  9 35  1  0  0  0  0
  9 36  1  0  0  0  0
 10 11  1  0  0  0  0
 10 37  1  0  0  0  0
 11 12  2  0  0  0  0
 11 13  1  0  0  0  0
 13 14  1  0  0  0  0
 14 19  2  0  0  0  0
 14 15  1  0  0  0  0
 15 16  2  0  0  0  0
 15 38  1  0  0  0  0
 16 17  1  0  0  0  0
 16 18  1  0  0  0  0
 17 39  1  0  0  0  0
 17 40  1  0  0  0  0
 17 41  1  0  0  0  0
 18 19  1  0  0  0  0
 20 21  1  0  0  0  0
 20 42  1  0  0  0  0
 20 43  1  0  0  0  0
 21 44  1  0  0  0  0
 21 45  1  0  0  0  0
M  CHG  1  13  -1
M  END
> <s_m_source_file>
AV-unprocessed.smi

> <i_m_source_file_index>
1586

> <i_lp_mmshare_version>
43012

> <i_f3d_flags>
0

> <s_epik_input>
W0NIM11bQ0gyXU4xW0NIMl1bQ0gyXU4oW0NIMl1bQ0gyXTEpW0NASF0oW0NIM10pW0NIMl1bTkhdQyg9TylbTkhdYzJbY0hdYyhbQ0gzXSlvbjI=

> <s_epik_cmdline>
J2VwaWtfcHl0aG9uJywgJy1waCcsICc3LjAnLCAnLXRuJywgJzgnLCAnLW1hJywgJzIwMCcsICctbWV0YWxfYmluZGluZycsICctaW1hZScsICc8aW5maWxlLm1hZT4nLCAnLW9tYWUnLCAnPG91dGZpbGUubWFlPic=

> <r_epik_Ionization_Penalty>
9.09031

> <r_epik_Ionization_Penalty_Charging>
6.65437

> <r_epik_Ionization_Penalty_Neutral>
2.43594

> <r_epik_State_Penalty>
8.41762

> <r_epik_Charging_Adjusted_Penalty>
15.072

> <i_epik_Tot_Q>
-1

> <i_epik_Tot_abs_Q>
1

> <r_epik_Metal_State_Penalty>
4.3436

> <b_epik_Metal_Only>
1

> <s_lp_Force_Field>
OPLS_2005

> <r_lp_Energy>
36.2307

> <b_lp_Chiralities_Consistent>
1

> <s_lp_Variant>
AV-unprocessed.smi:1586-14

> <Gold.Version>
5.8.1

> <Gold.Id.Protein>
6NUR|6NUR_protein|mol2

> <Gold.PLP.Fitness>
41.4116

> <Gold.PLP.PLP>
-33.8132

> <Gold.PLP.part.hbond>
-2.5240

> <Gold.PLP.part.metal>
0.0000

> <Gold.PLP.part.buried>
-5.7191

> <Gold.PLP.part.nonpolar>
-27.1190

> <Gold.PLP.part.repulsive>
0.2336

> <Gold.PLP.ligand.clash>
0.0000

> <Gold.PLP.ligand.torsion>
0.6913

> <Gold.PLP.Chemscore.Hbond>
2.9520

> <Gold.PLP.Chemscore.CHOScore>
0.0000

> <Gold.PLP.Chemscore.Metal>
0.0000

> <Gold.Chemscore.Hbonds>
donor molecule, donor type, donor heavy atom, donor atom, acceptor molecule, acceptor atom, score
      P1  H  6896  6909       L1    12  0.85
      P1  H  6931  6943       L1    13  1.86
      P1  H  6934  6947       L1    13  0.19

> <Gold.PLP.Chemscore.Internal.Correction>
0.1249

> <Gold.Rescore>
     Score         DG    S(hbond)    S(metal)    S(lipo)     H(rot)  DE(clash)    DE(int)     intcor
     14.83     -16.76       1.86        0.00      80.13       1.68       0.00       1.93       ----

> <Gold.Chemscore.Fitness>
14.8284

> <Gold.Chemscore.DG>
-16.7613

> <Gold.Chemscore.ZeroCoef>
-5.4800

> <Gold.Chemscore.Hbond>
1.8576

> <Gold.Chemscore.Metal>
0.0000

> <Gold.Chemscore.Lipo>
80.1255

> <Gold.Chemscore.Internal_Hbond>
0.0000

> <Gold.Chemscore.DEClash>
0.0029

> <Gold.Chemscore.DEInternal>
1.9300

> <Gold.Chemscore.Rot>
1.6788

> <Gold.Chemscore.Internal.Correction>
   9.000000E+99

> <Gold.Chemscore.Hbonds>
donor molecule, donor type, donor heavy atom, donor atom, acceptor molecule, acceptor atom, score
      P1  H  6896  6909       L1    12  0.62
      P1  H  6931  6943       L1    13  0.49
      P1  H  6934  6947       L1    13  0.03

> <Gold.Chemscore.Hbond.Weighted>
-6.2045

> <Gold.Chemscore.Metal.Weighted>
-0.0000

> <Gold.Chemscore.Lipo.Weighted>
-9.3747

> <Gold.Chemscore.Internal_Hbond.Weighted>
0.0000

> <Gold.Chemscore.DEClash.Weighted>
0.0029

> <Gold.Chemscore.DEInternal.Weighted>
1.9300

> <Gold.Chemscore.Rot.Weighted>
4.2978

> <Gold.Chemscore.Internal.Correction.Weighted>
   9.000000E+99

> <Gold.Protein.RotatedTorsions>
[ 6907 6896 6895 6894 ] final   29.18 input  -60.11 | X-H torsion
[ 7974 7965 7964 7962 ] final -125.73 input  175.53 | X-H torsion
[ 8008 7997 7996 7995 ] final    4.22 input   59.86 | X-H torsion
[ 10167 10162 10161 10158 ] final -116.57 input  -65.29 | X-H torsion
[ 10718 10713 10712 10709 ] final  163.55 input   66.30 | X-H torsion
[ 10763 10752 10751 10750 ] final -173.89 input  -60.55 | X-H torsion
[ 11005 11000 10999 10996 ] final  134.76 input  -57.11 | X-H torsion

> <Gold.Protein.ActiveResidues>
 VAL166  LYS551  ARG553  GLY616  TRP617  ASP618  TYR619  PRO620  LYS621  CYS622 
 ASP623  PHE694  ASN695  SER759  ASP760  ASP761  ALA762  ILE779  LEU786  VAL792 
 PHE793  MET794  SER795  GLU796  ALA797  LYS798  CYS799  TRP800  GLU811  SER814 

> <Gold.Protein.RotatedAtoms>
  152.0277  134.9786  160.0571 H   0  0  0  0  0  0  0  0  0  0  0  0  # atno 6907 bound_to 6896
  152.1275  133.4383  159.4713 H   0  0  0  0  0  0  0  0  0  0  0  0  # atno 6908 bound_to 6896
  150.6853  134.2380  159.4504 H   0  0  0  0  0  0  0  0  0  0  0  0  # atno 6909 bound_to 6896
  144.9945  140.7763  143.4534 H   0  0  0  0  0  0  0  0  0  0  0  0  # atno 7974 bound_to 7965
  154.7133  140.2697  155.6609 H   0  0  0  0  0  0  0  0  0  0  0  0  # atno 8008 bound_to 7997
  156.2802  140.2749  156.1705 H   0  0  0  0  0  0  0  0  0  0  0  0  # atno 8009 bound_to 7997
  155.0606  140.0371  157.2565 H   0  0  0  0  0  0  0  0  0  0  0  0  # atno 8010 bound_to 7997
  140.0778  143.4816  152.1943 H   0  0  0  0  0  0  0  0  0  0  0  0  # atno 10167 bound_to 10162
  157.1069  131.0457  151.2474 H   0  0  0  0  0  0  0  0  0  0  0  0  # atno 10718 bound_to 10713
  154.6026  135.2856  155.0519 H   0  0  0  0  0  0  0  0  0  0  0  0  # atno 10763 bound_to 10752
  154.1778  135.6462  153.5030 H   0  0  0  0  0  0  0  0  0  0  0  0  # atno 10764 bound_to 10752
  153.0163  135.5416  154.6750 H   0  0  0  0  0  0  0  0  0  0  0  0  # atno 10765 bound_to 10752
  139.9936  134.9506  156.9912 H   0  0  0  0  0  0  0  0  0  0  0  0  # atno 11005 bound_to 11000
  145.2239  139.2146  143.5078 LP  0  0  0  0  0  0  0  0  0  0  0  0  # atno 17320 bound_to 7965
  146.3439  140.2102  142.8590 LP  0  0  0  0  0  0  0  0  0  0  0  0  # atno 17321 bound_to 7965
  139.5798  144.7505  151.3671 LP  0  0  0  0  0  0  0  0  0  0  0  0  # atno 17342 bound_to 10162
  140.7093  143.7432  150.7538 LP  0  0  0  0  0  0  0  0  0  0  0  0  # atno 17343 bound_to 10162
  157.4593  130.7643  149.7221 LP  0  0  0  0  0  0  0  0  0  0  0  0  # atno 17370 bound_to 10713
  155.9860  130.3978  150.3235 LP  0  0  0  0  0  0  0  0  0  0  0  0  # atno 17371 bound_to 10713
  140.4861  134.1240  155.7225 LP  0  0  0  0  0  0  0  0  0  0  0  0  # atno 17394 bound_to 11000
  141.1586  133.8836  157.1910 LP  0  0  0  0  0  0  0  0  0  0  0  0  # atno 17395 bound_to 11000

$$$$
