#       Name:                AV-unprocessed.smi:2591
#       Creating user name   scv26
#       Creation time:       Fri Mar 27 14:16:48 2020


#       File generated by GOLD software.
#

@<TRIPOS>MOLECULE
AV-unprocessed.smi:2591
    40    41     1
SMALL
NO_CHARGES


@<TRIPOS>ATOM
      1 ****        -2.9128  -1.7379   3.4864 C.3            1 S1                 0.0000
      2 ****        -2.3047  -0.9203   2.4156 N.4            1 S1                 1.0000
      3 ****        -2.7119   0.5014   2.4790 C.3            1 S1                 0.0000
      4 ****        -1.9903   1.3124   1.3907 C.3            1 S1                 0.0000
      5 ****        -2.2508   0.7394   0.1091 O.3            1 S1                 0.0000
      6 ****        -1.8497  -0.6277  -0.0278 C.3            1 S1                 0.0000
      7 ****        -0.3133  -0.7443  -0.0561 C.2            1 S1                 0.0000
      8 ****         0.2717  -1.4375   0.7774 O.2            1 S1                 0.0000
      9 ****         0.2975  -0.0478  -1.0334 N.am           1 S1                 0.0000
     10 ****         1.6874   0.0524  -1.3065 C.ar           1 S1                 0.0000
     11 ****         2.0224   0.8589  -2.4168 C.ar           1 S1                 0.0000
     12 ****         3.3769   1.0308  -2.7741 C.ar           1 S1                 0.0000
     13 ****         3.7532   1.8897  -3.9715 C.3            1 S1                 0.0000
     14 ****         5.0415   2.2321  -3.9412 F              1 S1                 0.0000
     15 ****         3.5169   1.2087  -5.0922 F              1 S1                 0.0000
     16 ****         3.0227   3.0049  -3.9838 F              1 S1                 0.0000
     17 ****         4.3592   0.3755  -2.0033 C.ar           1 S1                 0.0000
     18 ****         3.9396  -0.4095  -0.9140 C.ar           1 S1                 0.0000
     19 ****         2.6439  -0.5666  -0.5719 N.ar           1 S1                 0.0000
     20 ****        -2.5459  -1.4772   1.0632 C.3            1 S1                 0.0000
     21 ****        -3.9994  -1.7605   3.3942 H              1 S1                 0.0000
     22 ****        -2.6602  -1.3346   4.4676 H              1 S1                 0.0000
     23 ****        -2.5436  -2.7632   3.4427 H              1 S1                 0.0000
     24 ****        -3.7925   0.5798   2.3488 H              1 S1                 0.0000
     25 ****        -2.4763   0.9105   3.4622 H              1 S1                 0.0000
     26 ****        -2.3519   2.3407   1.3916 H              1 S1                 0.0000
     27 ****        -0.9189   1.3614   1.5890 H              1 S1                 0.0000
     28 ****        -2.2042  -0.9711  -1.0005 H              1 S1                 0.0000
     29 ****        -0.3048   0.4763  -1.6516 H              1 S1                 0.0000
     30 ****         1.2489   1.3433  -2.9952 H              1 S1                 0.0000
     31 ****         5.4100   0.4655  -2.2359 H              1 S1                 0.0000
     32 ****         4.6632  -0.9264  -0.3013 H              1 S1                 0.0000
     33 ****        -2.1993  -2.5109   1.0210 H              1 S1                 0.0000
     34 ****        -3.6200  -1.5040   0.8731 H              1 S1                 0.0000
     35 ****        -1.3054  -0.9458   2.5646 H              1 S1                 0.0000
     36 ****        -1.7623   1.2776  -0.5777 LP             1 S1                 0.0000
     37 ****        -3.2344   0.7941  -0.0623 LP             1 S1                 0.0000
     38 ****        -0.2505  -1.9270   1.4757 LP             1 S1                 0.0000
     39 ****         1.2688  -1.5106   0.7558 LP             1 S1                 0.0000
     40 ****         2.3925  -1.1323   0.2134 LP             1 S1                 0.0000
@<TRIPOS>BOND
    1    1    2 1     
    2    1   21 1     
    3    1   22 1     
    4    1   23 1     
    5    2   20 1     
    6    2    3 1     
    7    2   35 1     
    8    3    4 1     
    9    3   24 1     
   10    3   25 1     
   11    4    5 1     
   12    4   26 1     
   13    4   27 1     
   14    5    6 1     
   15    6    7 1     
   16    6   20 1     
   17    6   28 1     
   18    7    8 2     
   19    7    9 am    
   20    9   10 1     
   21    9   29 1     
   22   10   19 ar    
   23   10   11 ar    
   24   11   12 ar    
   25   11   30 1     
   26   12   13 1     
   27   12   17 ar    
   28   13   14 1     
   29   13   15 1     
   30   13   16 1     
   31   17   18 ar    
   32   17   31 1     
   33   18   19 ar    
   34   18   32 1     
   35   20   33 1     
   36   20   34 1     
   37    5   36 1     
   38    5   37 1     
   39    8   38 1     
   40    8   39 1     
   41   19   40 1     
@<TRIPOS>SUBSTRUCTURE
      1 S1             1
@<TRIPOS>SET
LONE_PAIRS      STATIC     ATOMS    <user>   **** ""
5 36 37 38 39 40
DONOR_HYDROGENS      STATIC     ATOMS    <user>   **** ""
2 35 29
ATOM$BLUE        STATIC     ATOMS    COLORGROUP SYSTEM
5 36 37 38 39 40
ATOM$RED        STATIC     ATOMS    COLORGROUP SYSTEM
2 35 29
