AV-unprocessed.smi:3204|AV-procd|sdf|12252|dock7
  -GOLD-   2272018 83D 1   1.00000     0.00000
 Structure written by MMmdl.
 30 31  0  0  0  0  0  0  0  0  1 V2000
  152.2379  143.6151  161.5796 C   0  0  0  0  0  0  0  0  0  0  0  0
  152.3591  143.8040  160.0633 C   0  0  0  0  0  0  0  0  0  0  0  0
  152.4871  142.4827  159.3284 C   0  0  0  0  0  0  0  0  0  0  0  0
  153.4955  141.6686  159.7130 N   0  0  0  0  0  0  0  0  0  0  0  0
  153.6192  140.5127  159.0564 C   0  0  0  0  0  0  0  0  0  0  0  0
  152.8505  140.0767  158.0548 N   0  0  0  0  0  0  0  0  0  0  0  0
  151.8374  140.8820  157.6556 C   0  0  0  0  0  0  0  0  0  0  0  0
  151.0046  140.4770  156.6027 N   0  0  0  0  0  0  0  0  0  0  0  0
  151.1260  139.1536  155.9983 C   0  0  2  0  0  0  0  0  0  0  0  0
  152.5074  138.8657  155.4255 C   0  0  0  0  0  0  0  0  0  0  0  0
  152.2835  137.7271  154.6056 O   0  0  0  0  0  0  0  0  0  0  0  0
  150.9677  137.7837  154.0544 C   0  0  0  0  0  0  0  0  0  0  0  0
  150.2296  138.9122  154.7884 C   0  0  2  0  0  0  0  0  0  0  0  0
  150.1604  140.0432  153.9375 O   0  0  0  0  0  0  0  0  0  0  0  0
  151.6103  142.1276  158.2797 C   0  0  0  0  0  0  0  0  0  0  0  0
  150.6032  142.9448  157.8856 F   0  0  0  0  0  0  0  0  0  0  0  0
  152.1456  144.5765  162.0849 H   0  0  0  0  0  0  0  0  0  0  0  0
  153.1161  143.1099  161.9829 H   0  0  0  0  0  0  0  0  0  0  0  0
  151.3614  143.0188  161.8342 H   0  0  0  0  0  0  0  0  0  0  0  0
  151.4845  144.3373  159.6881 H   0  0  0  0  0  0  0  0  0  0  0  0
  153.2195  144.4339  159.8364 H   0  0  0  0  0  0  0  0  0  0  0  0
  154.4243  139.8635  159.3668 H   0  0  0  0  0  0  0  0  0  0  0  0
  150.2520  141.0807  156.3043 H   0  0  0  0  0  0  0  0  0  0  0  0
  150.9156  138.3948  156.7536 H   0  0  0  0  0  0  0  0  0  0  0  0
  152.8620  139.6918  154.8069 H   0  0  0  0  0  0  0  0  0  0  0  0
  153.2532  138.6664  156.1954 H   0  0  0  0  0  0  0  0  0  0  0  0
  151.0051  137.9371  152.9749 H   0  0  0  0  0  0  0  0  0  0  0  0
  150.4821  136.8238  154.2331 H   0  0  0  0  0  0  0  0  0  0  0  0
  149.2178  138.6236  155.0744 H   0  0  0  0  0  0  0  0  0  0  0  0
  149.8080  139.7674  153.1052 H   0  0  0  0  0  0  0  0  0  0  0  0
  1  2  1  0  0  0  0
  1 17  1  0  0  0  0
  1 18  1  0  0  0  0
  1 19  1  0  0  0  0
  2  3  1  0  0  0  0
  2 20  1  0  0  0  0
  2 21  1  0  0  0  0
  3 15  1  0  0  0  0
  3  4  2  0  0  0  0
  4  5  1  0  0  0  0
  5  6  2  0  0  0  0
  5 22  1  0  0  0  0
  6  7  1  0  0  0  0
  7  8  1  0  0  0  0
  7 15  2  0  0  0  0
  8  9  1  0  0  0  0
  8 23  1  0  0  0  0
  9 13  1  0  0  0  0
  9 10  1  0  0  0  0
  9 24  1  0  0  0  0
 10 11  1  0  0  0  0
 10 25  1  0  0  0  0
 10 26  1  0  0  0  0
 11 12  1  0  0  0  0
 12 13  1  0  0  0  0
 12 27  1  0  0  0  0
 12 28  1  0  0  0  0
 13 14  1  0  0  0  0
 13 29  1  0  0  0  0
 14 30  1  0  0  0  0
 15 16  1  0  0  0  0
M  END
> <s_m_source_file>
AV-unprocessed.smi

> <i_m_source_file_index>
3204

> <i_lp_mmshare_version>
43012

> <i_f3d_flags>
0

> <s_epik_input>
W0NIM11bQ0gyXWMxbltjSF1uYyhjMUYpW05IXVtDQEBIXTJbQ0gyXU9bQ0gyXVtDQEhdMltPSF0=

> <s_epik_cmdline>
J2VwaWtfcHl0aG9uJywgJy1waCcsICc3LjAnLCAnLXRuJywgJzgnLCAnLW1hJywgJzIwMCcsICctbWV0YWxfYmluZGluZycsICctaW1hZScsICc8aW5maWxlLm1hZT4nLCAnLW9tYWUnLCAnPG91dGZpbGUubWFlPic=

> <r_lp_tautomer_probability>
1

> <r_epik_Ionization_Penalty>
0.000484964

> <r_epik_Ionization_Penalty_Charging>
0

> <r_epik_Ionization_Penalty_Neutral>
0.000484964

> <r_epik_State_Penalty>
-0

> <r_epik_Charging_Adjusted_Penalty>
0

> <i_epik_Tot_Q>
0

> <i_epik_Tot_abs_Q>
0

> <r_epik_Metal_State_Penalty>
-0

> <b_epik_Metal_Only>
0

> <s_lp_Force_Field>
OPLS_2005

> <r_lp_Energy>
19.3266

> <b_lp_Chiralities_Consistent>
1

> <s_lp_Variant>
AV-unprocessed.smi:3204-3

> <Gold.Version>
5.8.1

> <Gold.Id.Protein>
6NUR|6NUR_protein|mol2

> <Gold.PLP.Fitness>
42.9248

> <Gold.PLP.PLP>
-32.9937

> <Gold.PLP.part.hbond>
-3.9733

> <Gold.PLP.part.metal>
0.0000

> <Gold.PLP.part.buried>
-2.2981

> <Gold.PLP.part.nonpolar>
-26.6944

> <Gold.PLP.part.repulsive>
0.1696

> <Gold.PLP.ligand.clash>
0.0000

> <Gold.PLP.ligand.torsion>
0.0452

> <Gold.PLP.Chemscore.Hbond>
3.3376

> <Gold.PLP.Chemscore.CHOScore>
0.0000

> <Gold.PLP.Chemscore.Metal>
0.0000

> <Gold.Chemscore.Hbonds>
donor molecule, donor type, donor heavy atom, donor atom, acceptor molecule, acceptor atom, score
      L1  H    14    30       P1  7957  0.99
      P1  H  7989  7998       L1    14  0.91
      P1  H  7997  8009       L1     6  0.50
      P1  H 10752 10765       L1    11  0.44

> <Gold.PLP.Chemscore.Internal.Correction>
0.0087

> <Gold.Rescore>
     Score         DG    S(hbond)    S(metal)    S(lipo)     H(rot)  DE(clash)    DE(int)     intcor
     16.11     -17.32       2.40        0.00      72.67       1.83       0.03       1.17       ----

> <Gold.Chemscore.Fitness>
16.1107

> <Gold.Chemscore.DG>
-17.3176

> <Gold.Chemscore.ZeroCoef>
-5.4800

> <Gold.Chemscore.Hbond>
2.4041

> <Gold.Chemscore.Metal>
0.0000

> <Gold.Chemscore.Lipo>
72.6679

> <Gold.Chemscore.Internal_Hbond>
0.0000

> <Gold.Chemscore.DEClash>
0.0323

> <Gold.Chemscore.DEInternal>
1.1746

> <Gold.Chemscore.Rot>
1.8337

> <Gold.Chemscore.Internal.Correction>
   9.000000E+99

> <Gold.Chemscore.Hbonds>
donor molecule, donor type, donor heavy atom, donor atom, acceptor molecule, acceptor atom, score
      L1  H    14    30       P1  7957  0.93
      P1  H  7989  7998       L1    14  0.30
      P1  H  7997  8009       L1     6  0.02
      P1  H 10752 10765       L1    11  0.24

> <Gold.Chemscore.Hbond.Weighted>
-8.0297

> <Gold.Chemscore.Metal.Weighted>
-0.0000

> <Gold.Chemscore.Lipo.Weighted>
-8.5021

> <Gold.Chemscore.Internal_Hbond.Weighted>
0.0000

> <Gold.Chemscore.DEClash.Weighted>
0.0323

> <Gold.Chemscore.DEInternal.Weighted>
1.1746

> <Gold.Chemscore.Rot.Weighted>
4.6942

> <Gold.Chemscore.Internal.Correction.Weighted>
   9.000000E+99

> <Gold.Protein.RotatedTorsions>
[ 6907 6896 6895 6894 ] final  111.59 input  -60.11 | X-H torsion
[ 7974 7965 7964 7962 ] final -145.05 input  175.53 | X-H torsion
[ 8008 7997 7996 7995 ] final  170.08 input   59.86 | X-H torsion
[ 10167 10162 10161 10158 ] final  150.32 input  -65.29 | X-H torsion
[ 10718 10713 10712 10709 ] final -129.51 input   66.30 | X-H torsion
[ 10763 10752 10751 10750 ] final  165.17 input  -60.55 | X-H torsion
[ 11005 11000 10999 10996 ] final  111.52 input  -57.11 | X-H torsion

> <Gold.Protein.ActiveResidues>
 VAL166  LYS551  ARG553  GLY616  TRP617  ASP618  TYR619  PRO620  LYS621  CYS622 
 ASP623  PHE694  ASN695  SER759  ASP760  ASP761  ALA762  ILE779  LEU786  VAL792 
 PHE793  MET794  SER795  GLU796  ALA797  LYS798  CYS799  TRP800  GLU811  SER814 

> <Gold.Protein.RotatedAtoms>
  152.4961  133.8635  159.7262 H   0  0  0  0  0  0  0  0  0  0  0  0  # atno 6907 bound_to 6896
  150.9141  133.6952  159.2854 H   0  0  0  0  0  0  0  0  0  0  0  0  # atno 6908 bound_to 6896
  151.4352  135.1018  159.9706 H   0  0  0  0  0  0  0  0  0  0  0  0  # atno 6909 bound_to 6896
  144.8254  140.5632  143.5550 H   0  0  0  0  0  0  0  0  0  0  0  0  # atno 7974 bound_to 7965
  156.1398  140.1547  156.8938 H   0  0  0  0  0  0  0  0  0  0  0  0  # atno 8008 bound_to 7997
  154.4978  140.0833  156.7772 H   0  0  0  0  0  0  0  0  0  0  0  0  # atno 8009 bound_to 7997
  155.4100  140.3418  155.4265 H   0  0  0  0  0  0  0  0  0  0  0  0  # atno 8010 bound_to 7997
  139.4851  144.5531  151.7365 H   0  0  0  0  0  0  0  0  0  0  0  0  # atno 10167 bound_to 10162
  156.2054  130.6884  151.0588 H   0  0  0  0  0  0  0  0  0  0  0  0  # atno 10718 bound_to 10713
  154.3200  135.2756  155.2524 H   0  0  0  0  0  0  0  0  0  0  0  0  # atno 10763 bound_to 10752
  154.4882  135.5840  153.6443 H   0  0  0  0  0  0  0  0  0  0  0  0  # atno 10764 bound_to 10752
  152.9878  135.6128  154.3384 H   0  0  0  0  0  0  0  0  0  0  0  0  # atno 10765 bound_to 10752
  139.8905  134.9509  156.6444 H   0  0  0  0  0  0  0  0  0  0  0  0  # atno 11005 bound_to 11000
  145.5011  139.1483  143.3656 LP  0  0  0  0  0  0  0  0  0  0  0  0  # atno 17320 bound_to 7965
  146.2559  140.5151  142.8873 LP  0  0  0  0  0  0  0  0  0  0  0  0  # atno 17321 bound_to 7965
  140.5088  144.1056  150.5990 LP  0  0  0  0  0  0  0  0  0  0  0  0  # atno 17342 bound_to 10162
  140.3975  143.2721  151.9987 LP  0  0  0  0  0  0  0  0  0  0  0  0  # atno 17343 bound_to 10162
  157.7009  131.0776  150.6823 LP  0  0  0  0  0  0  0  0  0  0  0  0  # atno 17370 bound_to 10713
  156.6881  130.4587  149.5608 LP  0  0  0  0  0  0  0  0  0  0  0  0  # atno 17371 bound_to 10713
  140.7568  133.8851  155.8388 LP  0  0  0  0  0  0  0  0  0  0  0  0  # atno 17394 bound_to 11000
  140.9955  134.1221  157.4368 LP  0  0  0  0  0  0  0  0  0  0  0  0  # atno 17395 bound_to 11000

$$$$
