AV-unprocessed.smi:2864|AV-procd|sdf|11013|dock3
  -GOLD-   2272015473D 1   1.00000     0.00000
 Structure written by MMmdl.
 37 38  0  0  0  0  0  0  0  0  1 V2000
  151.7366  145.8414  160.2329 C   0  0  0  0  0  0  0  0  0  0  0  0
  151.8903  144.3928  159.8177 C   0  0  0  0  0  0  0  0  0  0  0  0
  152.5443  143.4801  160.6661 C   0  0  0  0  0  0  0  0  0  0  0  0
  152.6752  142.1332  160.2825 C   0  0  0  0  0  0  0  0  0  0  0  0
  152.1581  141.6837  159.0486 C   0  0  0  0  0  0  0  0  0  0  0  0
  152.3087  140.2148  158.6889 C   0  0  0  0  0  0  0  0  0  0  0  0
  151.5082  142.6014  158.1812 C   0  0  0  0  0  0  0  0  0  0  0  0
  150.9263  142.1524  156.8404 C   0  0  2  0  0  0  0  0  0  0  0  0
  150.4838  143.2506  156.0649 O   0  0  0  0  0  0  0  0  0  0  0  0
  149.7400  141.1864  157.0521 C   0  0  0  0  0  0  0  0  0  0  0  0
  148.7587  141.2765  155.9640 N   0  0  0  0  0  0  0  0  0  0  0  0
  147.5165  141.7416  156.3617 N   0  0  0  0  0  0  0  0  0  0  0  0
  146.5413  141.8616  155.5200 C   0  0  0  0  0  0  0  0  0  0  0  0
  145.2242  142.3708  156.0518 C   0  0  0  0  0  0  0  0  0  0  0  0
  144.8473  143.4572  155.3768 F   0  0  0  0  0  0  0  0  0  0  0  0
  144.2698  141.4470  155.9355 F   0  0  0  0  0  0  0  0  0  0  0  0
  145.3453  142.6947  157.3398 F   0  0  0  0  0  0  0  0  0  0  0  0
  146.7623  141.5032  154.1288 C   0  0  0  0  0  0  0  0  0  0  0  0
  147.9732  141.0457  153.7444 C   0  0  0  0  0  0  0  0  0  0  0  0
  149.0759  140.8998  154.6916 C   0  0  0  0  0  0  0  0  0  0  0  0
  150.1849  140.4713  154.3747 O   0  0  0  0  0  0  0  0  0  0  0  0
  151.3728  143.9507  158.5843 C   0  0  0  0  0  0  0  0  0  0  0  0
  152.5724  146.1575  160.8578 H   0  0  0  0  0  0  0  0  0  0  0  0
  150.8145  145.9739  160.7991 H   0  0  0  0  0  0  0  0  0  0  0  0
  151.7015  146.4946  159.3605 H   0  0  0  0  0  0  0  0  0  0  0  0
  152.9427  143.8080  161.6151 H   0  0  0  0  0  0  0  0  0  0  0  0
  153.1738  141.4424  160.9467 H   0  0  0  0  0  0  0  0  0  0  0  0
  151.3458  139.7818  158.4180 H   0  0  0  0  0  0  0  0  0  0  0  0
  152.7040  139.6393  159.5263 H   0  0  0  0  0  0  0  0  0  0  0  0
  152.9938  140.0962  157.8492 H   0  0  0  0  0  0  0  0  0  0  0  0
  151.7067  141.6655  156.2566 H   0  0  0  0  0  0  0  0  0  0  0  0
  149.6758  143.5731  156.4343 H   0  0  0  0  0  0  0  0  0  0  0  0
  150.1151  140.1608  157.0599 H   0  0  0  0  0  0  0  0  0  0  0  0
  149.2880  141.3202  158.0370 H   0  0  0  0  0  0  0  0  0  0  0  0
  145.9617  141.6023  153.4110 H   0  0  0  0  0  0  0  0  0  0  0  0
  148.1332  140.7795  152.7097 H   0  0  0  0  0  0  0  0  0  0  0  0
  150.8640  144.6577  157.9453 H   0  0  0  0  0  0  0  0  0  0  0  0
  1  2  1  0  0  0  0
  1 23  1  0  0  0  0
  1 24  1  0  0  0  0
  1 25  1  0  0  0  0
  2 22  1  0  0  0  0
  2  3  2  0  0  0  0
  3  4  1  0  0  0  0
  3 26  1  0  0  0  0
  4  5  2  0  0  0  0
  4 27  1  0  0  0  0
  5  6  1  0  0  0  0
  5  7  1  0  0  0  0
  6 28  1  0  0  0  0
  6 29  1  0  0  0  0
  6 30  1  0  0  0  0
  7  8  1  0  0  0  0
  7 22  2  0  0  0  0
  8  9  1  0  0  0  0
  8 10  1  0  0  0  0
  8 31  1  0  0  0  0
  9 32  1  0  0  0  0
 10 11  1  0  0  0  0
 10 33  1  0  0  0  0
 10 34  1  0  0  0  0
 11 20  1  0  0  0  0
 11 12  1  0  0  0  0
 12 13  2  0  0  0  0
 13 14  1  0  0  0  0
 13 18  1  0  0  0  0
 14 15  1  0  0  0  0
 14 16  1  0  0  0  0
 14 17  1  0  0  0  0
 18 19  2  0  0  0  0
 18 35  1  0  0  0  0
 19 20  1  0  0  0  0
 19 36  1  0  0  0  0
 20 21  2  0  0  0  0
 22 37  1  0  0  0  0
M  END
> <s_m_source_file>
AV-unprocessed.smi

> <i_m_source_file_index>
2864

> <i_lp_mmshare_version>
43012

> <i_f3d_flags>
0

> <s_epik_input>
W0NIM11jMVtjSF1bY0hdYyhbQ0gzXSljKFtjSF0xKVtDQEhdKFtPSF0pW0NIMl1uMm5jKEMoRikoRilGKVtjSF1bY0hdYzI9Tw==

> <s_epik_cmdline>
J2VwaWtfcHl0aG9uJywgJy1waCcsICc3LjAnLCAnLXRuJywgJzgnLCAnLW1hJywgJzIwMCcsICctbWV0YWxfYmluZGluZycsICctaW1hZScsICc8aW5maWxlLm1hZT4nLCAnLW9tYWUnLCAnPG91dGZpbGUubWFlPic=

> <r_lp_tautomer_probability>
1

> <r_epik_Ionization_Penalty>
5.25156e-08

> <r_epik_Ionization_Penalty_Charging>
3.92872e-09

> <r_epik_Ionization_Penalty_Neutral>
4.85868e-08

> <r_epik_State_Penalty>
-0

> <r_epik_Charging_Adjusted_Penalty>
3.92872e-09

> <i_epik_Tot_Q>
0

> <i_epik_Tot_abs_Q>
0

> <r_epik_Metal_State_Penalty>
-0

> <b_epik_Metal_Only>
0

> <s_lp_Force_Field>
OPLS_2005

> <r_lp_Energy>
30.6225

> <b_lp_Chiralities_Consistent>
1

> <s_lp_Variant>
AV-unprocessed.smi:2864-1

> <Gold.Version>
5.8.1

> <Gold.Id.Protein>
6NUR|6NUR_protein|mol2

> <Gold.PLP.Fitness>
52.0832

> <Gold.PLP.PLP>
-48.2473

> <Gold.PLP.part.hbond>
-1.4762

> <Gold.PLP.part.metal>
0.0000

> <Gold.PLP.part.buried>
-4.9361

> <Gold.PLP.part.nonpolar>
-41.9113

> <Gold.PLP.part.repulsive>
0.5033

> <Gold.PLP.ligand.clash>
0.0000

> <Gold.PLP.ligand.torsion>
0.5851

> <Gold.PLP.Chemscore.Hbond>
1.6640

> <Gold.PLP.Chemscore.CHOScore>
0.0000

> <Gold.PLP.Chemscore.Metal>
0.0000

> <Gold.Chemscore.Hbonds>
donor molecule, donor type, donor heavy atom, donor atom, acceptor molecule, acceptor atom, score
      L1  H     9    32       P1  8028  0.37
      P1  H  7989  7998       L1    21  0.90

> <Gold.PLP.Chemscore.Internal.Correction>
0.0143

> <Gold.Rescore>
     Score         DG    S(hbond)    S(metal)    S(lipo)     H(rot)  DE(clash)    DE(int)     intcor
     17.68     -18.60       1.55        0.00     112.80       2.05       0.35       0.58       ----

> <Gold.Chemscore.Fitness>
17.6794

> <Gold.Chemscore.DG>
-18.6040

> <Gold.Chemscore.ZeroCoef>
-5.4800

> <Gold.Chemscore.Hbond>
1.5506

> <Gold.Chemscore.Metal>
0.0000

> <Gold.Chemscore.Lipo>
112.7971

> <Gold.Chemscore.Internal_Hbond>
0.0000

> <Gold.Chemscore.DEClash>
0.3450

> <Gold.Chemscore.DEInternal>
0.5796

> <Gold.Chemscore.Rot>
2.0517

> <Gold.Chemscore.Internal.Correction>
   9.000000E+99

> <Gold.Chemscore.Hbonds>
donor molecule, donor type, donor heavy atom, donor atom, acceptor molecule, acceptor atom, score
      L1  H     9    32       P1  8028  0.37
      P1  H  7989  7998       L1    21  0.88

> <Gold.Chemscore.Hbond.Weighted>
-5.1791

> <Gold.Chemscore.Metal.Weighted>
-0.0000

> <Gold.Chemscore.Lipo.Weighted>
-13.1973

> <Gold.Chemscore.Internal_Hbond.Weighted>
0.0000

> <Gold.Chemscore.DEClash.Weighted>
0.3450

> <Gold.Chemscore.DEInternal.Weighted>
0.5796

> <Gold.Chemscore.Rot.Weighted>
5.2524

> <Gold.Chemscore.Internal.Correction.Weighted>
   9.000000E+99

> <Gold.Protein.RotatedTorsions>
[ 6907 6896 6895 6894 ] final -112.46 input  -60.11 | X-H torsion
[ 7974 7965 7964 7962 ] final -153.36 input  175.53 | X-H torsion
[ 8008 7997 7996 7995 ] final -152.20 input   59.86 | X-H torsion
[ 10167 10162 10161 10158 ] final   56.58 input  -65.29 | X-H torsion
[ 10718 10713 10712 10709 ] final   63.98 input   66.30 | X-H torsion
[ 10763 10752 10751 10750 ] final   86.80 input  -60.55 | X-H torsion
[ 11005 11000 10999 10996 ] final  166.72 input  -57.11 | X-H torsion

> <Gold.Protein.ActiveResidues>
 VAL166  LYS551  ARG553  GLY616  TRP617  ASP618  TYR619  PRO620  LYS621  CYS622 
 ASP623  PHE694  ASN695  SER759  ASP760  ASP761  ALA762  ILE779  LEU786  VAL792 
 PHE793  MET794  SER795  GLU796  ALA797  LYS798  CYS799  TRP800  GLU811  SER814 

> <Gold.Protein.RotatedAtoms>
  150.7760  133.9086  159.3362 H   0  0  0  0  0  0  0  0  0  0  0  0  # atno 6907 bound_to 6896
  151.6961  135.0936  160.0252 H   0  0  0  0  0  0  0  0  0  0  0  0  # atno 6908 bound_to 6896
  152.3796  133.6490  159.6186 H   0  0  0  0  0  0  0  0  0  0  0  0  # atno 6909 bound_to 6896
  144.7745  140.4536  143.5883 H   0  0  0  0  0  0  0  0  0  0  0  0  # atno 7974 bound_to 7965
  155.6514  140.0712  157.2585 H   0  0  0  0  0  0  0  0  0  0  0  0  # atno 8008 bound_to 7997
  154.4162  140.1732  156.1728 H   0  0  0  0  0  0  0  0  0  0  0  0  # atno 8009 bound_to 7997
  155.9774  140.3357  155.6634 H   0  0  0  0  0  0  0  0  0  0  0  0  # atno 8010 bound_to 7997
  140.2072  144.3927  150.6504 H   0  0  0  0  0  0  0  0  0  0  0  0  # atno 10167 bound_to 10162
  157.6008  130.9135  149.9786 H   0  0  0  0  0  0  0  0  0  0  0  0  # atno 10718 bound_to 10713
  153.1606  135.4567  154.9766 H   0  0  0  0  0  0  0  0  0  0  0  0  # atno 10763 bound_to 10752
  154.7894  135.3215  154.7813 H   0  0  0  0  0  0  0  0  0  0  0  0  # atno 10764 bound_to 10752
  153.8304  135.6939  153.4870 H   0  0  0  0  0  0  0  0  0  0  0  0  # atno 10765 bound_to 10752
  140.2693  134.7839  157.3661 H   0  0  0  0  0  0  0  0  0  0  0  0  # atno 11005 bound_to 11000
  145.6227  139.1526  143.3013 LP  0  0  0  0  0  0  0  0  0  0  0  0  # atno 17320 bound_to 7965
  146.1914  140.6336  142.9143 LP  0  0  0  0  0  0  0  0  0  0  0  0  # atno 17321 bound_to 7965
  140.6349  143.2193  151.6416 LP  0  0  0  0  0  0  0  0  0  0  0  0  # atno 17342 bound_to 10162
  139.5194  144.3255  152.0873 LP  0  0  0  0  0  0  0  0  0  0  0  0  # atno 17343 bound_to 10162
  156.1081  130.3651  150.0097 LP  0  0  0  0  0  0  0  0  0  0  0  0  # atno 17370 bound_to 10713
  156.8200  130.9355  151.3641 LP  0  0  0  0  0  0  0  0  0  0  0  0  # atno 17371 bound_to 10713
  140.1388  134.4998  155.8047 LP  0  0  0  0  0  0  0  0  0  0  0  0  # atno 17394 bound_to 11000
  141.2179  133.6817  156.7173 LP  0  0  0  0  0  0  0  0  0  0  0  0  # atno 17395 bound_to 11000

$$$$
