AV-unprocessed.smi:1812|AV-procd|sdf|7337|dock7
  -GOLD-   22720 8593D 1   1.00000     0.00000
 Structure written by MMmdl.
 34 36  0  0  0  0  0  0  0  0  1 V2000
  145.5382  138.4281  153.6857 O   0  0  0  0  0  0  0  0  0  0  0  0
  146.4934  137.8750  153.1397 C   0  0  0  0  0  0  0  0  0  0  0  0
  146.3635  136.8399  152.2977 N   0  0  0  0  0  0  0  0  0  0  0  0
  145.0955  136.2310  151.9121 C   0  0  0  0  0  0  0  0  0  0  0  0
  145.2932  135.1374  150.8504 C   0  0  1  0  0  0  0  0  0  0  0  0
  146.1973  133.9960  151.3030 C   0  0  0  0  0  0  0  0  0  0  0  0
  145.8048  132.8743  150.3606 C   0  0  0  0  0  0  0  0  0  0  0  0
  144.3635  133.2159  149.9681 C   0  0  0  0  0  0  0  0  0  0  0  0
  144.0712  134.4655  150.5849 O   0  0  0  0  0  0  0  0  0  0  0  0
  147.7847  138.2138  153.3006 N   0  0  0  0  0  0  0  0  0  0  0  0
  148.3261  139.2736  154.0756 C   0  0  0  0  0  0  0  0  0  0  0  0
  147.5899  140.2605  154.6046 N   0  0  0  0  0  0  0  0  0  0  0  0
  148.3695  141.1687  155.3071 N   0  0  0  0  0  0  0  0  0  0  0  0
  149.6680  140.8451  155.2891 C   0  0  0  0  0  0  0  0  0  0  0  0
  150.7037  141.6748  155.9725 C   0  0  0  0  0  0  0  0  0  0  0  0
  151.5848  141.0790  157.0464 C   0  0  0  0  0  0  0  0  0  0  0  0
  150.5492  142.1108  157.4131 C   0  0  0  0  0  0  0  0  0  0  0  0
  150.0483  139.3736  154.3999 S   0  0  0  0  0  0  0  0  0  0  0  0
  147.1993  136.4400  151.8973 H   0  0  0  0  0  0  0  0  0  0  0  0
  144.6018  135.8165  152.7925 H   0  0  0  0  0  0  0  0  0  0  0  0
  144.4388  137.0126  151.5295 H   0  0  0  0  0  0  0  0  0  0  0  0
  145.6776  135.5608  149.9203 H   0  0  0  0  0  0  0  0  0  0  0  0
  147.2572  134.2464  151.2497 H   0  0  0  0  0  0  0  0  0  0  0  0
  145.9651  133.7135  152.3310 H   0  0  0  0  0  0  0  0  0  0  0  0
  146.4436  132.8809  149.4767 H   0  0  0  0  0  0  0  0  0  0  0  0
  145.8904  131.8939  150.8301 H   0  0  0  0  0  0  0  0  0  0  0  0
  144.2684  133.3064  148.8855 H   0  0  0  0  0  0  0  0  0  0  0  0
  143.6560  132.4592  150.3083 H   0  0  0  0  0  0  0  0  0  0  0  0
  148.4596  137.6582  152.7961 H   0  0  0  0  0  0  0  0  0  0  0  0
  151.1552  142.3768  155.2745 H   0  0  0  0  0  0  0  0  0  0  0  0
  151.3940  140.0497  157.3439 H   0  0  0  0  0  0  0  0  0  0  0  0
  152.6288  141.3850  157.0670 H   0  0  0  0  0  0  0  0  0  0  0  0
  150.9024  143.1058  157.6755 H   0  0  0  0  0  0  0  0  0  0  0  0
  149.6788  141.7653  157.9667 H   0  0  0  0  0  0  0  0  0  0  0  0
  1  2  2  0  0  0  0
  2  3  1  0  0  0  0
  2 10  1  0  0  0  0
  3  4  1  0  0  0  0
  3 19  1  0  0  0  0
  4  5  1  0  0  0  0
  4 20  1  0  0  0  0
  4 21  1  0  0  0  0
  5  9  1  0  0  0  0
  5  6  1  0  0  0  0
  5 22  1  0  0  0  0
  6  7  1  0  0  0  0
  6 23  1  0  0  0  0
  6 24  1  0  0  0  0
  7  8  1  0  0  0  0
  7 25  1  0  0  0  0
  7 26  1  0  0  0  0
  8  9  1  0  0  0  0
  8 27  1  0  0  0  0
  8 28  1  0  0  0  0
 10 11  1  0  0  0  0
 10 29  1  0  0  0  0
 11 18  1  0  0  0  0
 11 12  2  0  0  0  0
 12 13  1  0  0  0  0
 13 14  2  0  0  0  0
 14 15  1  0  0  0  0
 14 18  1  0  0  0  0
 15 17  1  0  0  0  0
 15 16  1  0  0  0  0
 15 30  1  0  0  0  0
 16 17  1  0  0  0  0
 16 31  1  0  0  0  0
 16 32  1  0  0  0  0
 17 33  1  0  0  0  0
 17 34  1  0  0  0  0
M  END
> <s_m_source_file>
AV-unprocessed.smi

> <i_m_source_file_index>
1812

> <i_lp_mmshare_version>
43012

> <i_f3d_flags>
0

> <s_epik_input>
TzFbQ0gyXVtDSDJdW0NIMl1bQ0BIXTFbQ0gyXVtOSF1DKD1PKVtOSF1jMm5uYyhzMilbQ0hdM1tDSDJdW0NIMl0z

> <s_epik_cmdline>
J2VwaWtfcHl0aG9uJywgJy1waCcsICc3LjAnLCAnLXRuJywgJzgnLCAnLW1hJywgJzIwMCcsICctbWV0YWxfYmluZGluZycsICctaW1hZScsICc8aW5maWxlLm1hZT4nLCAnLW9tYWUnLCAnPG91dGZpbGUubWFlPic=

> <r_lp_tautomer_probability>
1

> <r_epik_Ionization_Penalty>
0.000281817

> <r_epik_Ionization_Penalty_Charging>
0

> <r_epik_Ionization_Penalty_Neutral>
0.000281817

> <r_epik_State_Penalty>
-0

> <r_epik_Charging_Adjusted_Penalty>
0

> <i_epik_Tot_Q>
0

> <i_epik_Tot_abs_Q>
0

> <r_epik_Metal_State_Penalty>
0.157535

> <b_epik_Metal_Only>
0

> <s_lp_Force_Field>
OPLS_2005

> <r_lp_Energy>
14.4176

> <b_lp_Chiralities_Consistent>
1

> <s_lp_Variant>
AV-unprocessed.smi:1812-2

> <Gold.Version>
5.8.1

> <Gold.Id.Protein>
6NUR|6NUR_protein|mol2

> <Gold.PLP.Fitness>
35.9809

> <Gold.PLP.PLP>
-30.1302

> <Gold.PLP.part.hbond>
-2.0535

> <Gold.PLP.part.metal>
0.0000

> <Gold.PLP.part.buried>
-4.5084

> <Gold.PLP.part.nonpolar>
-23.9510

> <Gold.PLP.part.repulsive>
1.2298

> <Gold.PLP.ligand.clash>
0.0000

> <Gold.PLP.ligand.torsion>
0.1435

> <Gold.PLP.Chemscore.Hbond>
2.0000

> <Gold.PLP.Chemscore.CHOScore>
0.0000

> <Gold.PLP.Chemscore.Metal>
0.0000

> <Gold.Chemscore.Hbonds>
donor molecule, donor type, donor heavy atom, donor atom, acceptor molecule, acceptor atom, score
      L1  H     3    19       P1  7948  1.00
      L1  H    10    29       P1  7948  1.00

> <Gold.PLP.Chemscore.Internal.Correction>
0.1378

> <Gold.Rescore>
     Score         DG    S(hbond)    S(metal)    S(lipo)     H(rot)  DE(clash)    DE(int)     intcor
     14.82     -16.30       1.96        0.00      68.82       1.47       0.10       1.38       ----

> <Gold.Chemscore.Fitness>
14.8167

> <Gold.Chemscore.DG>
-16.3009

> <Gold.Chemscore.ZeroCoef>
-5.4800

> <Gold.Chemscore.Hbond>
1.9578

> <Gold.Chemscore.Metal>
0.0000

> <Gold.Chemscore.Lipo>
68.8159

> <Gold.Chemscore.Internal_Hbond>
0.0000

> <Gold.Chemscore.DEClash>
0.1002

> <Gold.Chemscore.DEInternal>
1.3840

> <Gold.Chemscore.Rot>
1.4725

> <Gold.Chemscore.Internal.Correction>
   9.000000E+99

> <Gold.Chemscore.Hbonds>
donor molecule, donor type, donor heavy atom, donor atom, acceptor molecule, acceptor atom, score
      L1  H     3    19       P1  7948  0.97
      L1  H    10    29       P1  7948  0.98

> <Gold.Chemscore.Hbond.Weighted>
-6.5390

> <Gold.Chemscore.Metal.Weighted>
-0.0000

> <Gold.Chemscore.Lipo.Weighted>
-8.0515

> <Gold.Chemscore.Internal_Hbond.Weighted>
0.0000

> <Gold.Chemscore.DEClash.Weighted>
0.1002

> <Gold.Chemscore.DEInternal.Weighted>
1.3840

> <Gold.Chemscore.Rot.Weighted>
3.7695

> <Gold.Chemscore.Internal.Correction.Weighted>
   9.000000E+99

> <Gold.Protein.RotatedTorsions>
[ 6907 6896 6895 6894 ] final -138.48 input  -60.11 | X-H torsion
[ 7974 7965 7964 7962 ] final  141.95 input  175.53 | X-H torsion
[ 8008 7997 7996 7995 ] final -110.54 input   59.86 | X-H torsion
[ 10167 10162 10161 10158 ] final   -1.00 input  -65.29 | X-H torsion
[ 10718 10713 10712 10709 ] final -100.40 input   66.30 | X-H torsion
[ 10763 10752 10751 10750 ] final  156.60 input  -60.55 | X-H torsion
[ 11005 11000 10999 10996 ] final -151.82 input  -57.11 | X-H torsion

> <Gold.Protein.ActiveResidues>
 VAL166  LYS551  ARG553  GLY616  TRP617  ASP618  TYR619  PRO620  LYS621  CYS622 
 ASP623  PHE694  ASN695  SER759  ASP760  ASP761  ALA762  ILE779  LEU786  VAL792 
 PHE793  MET794  SER795  GLU796  ALA797  LYS798  CYS799  TRP800  GLU811  SER814 

> <Gold.Protein.RotatedAtoms>
  151.0356  133.5751  159.2656 H   0  0  0  0  0  0  0  0  0  0  0  0  # atno 6907 bound_to 6896
  151.2817  135.0715  159.9181 H   0  0  0  0  0  0  0  0  0  0  0  0  # atno 6908 bound_to 6896
  152.5354  134.0069  159.7974 H   0  0  0  0  0  0  0  0  0  0  0  0  # atno 6909 bound_to 6896
  144.9051  139.5370  143.5735 H   0  0  0  0  0  0  0  0  0  0  0  0  # atno 7974 bound_to 7965
  154.9761  140.0397  157.2256 H   0  0  0  0  0  0  0  0  0  0  0  0  # atno 8008 bound_to 7997
  154.7757  140.2810  155.6080 H   0  0  0  0  0  0  0  0  0  0  0  0  # atno 8009 bound_to 7997
  156.2928  140.2601  156.2570 H   0  0  0  0  0  0  0  0  0  0  0  0  # atno 8010 bound_to 7997
  140.6791  143.6827  150.8092 H   0  0  0  0  0  0  0  0  0  0  0  0  # atno 10167 bound_to 10162
  156.0162  130.5326  150.6811 H   0  0  0  0  0  0  0  0  0  0  0  0  # atno 10718 bound_to 10713
  154.1869  135.2797  155.3034 H   0  0  0  0  0  0  0  0  0  0  0  0  # atno 10763 bound_to 10752
  154.5959  135.5545  153.7328 H   0  0  0  0  0  0  0  0  0  0  0  0  # atno 10764 bound_to 10752
  153.0123  135.6380  154.2008 H   0  0  0  0  0  0  0  0  0  0  0  0  # atno 10765 bound_to 10752
  140.7255  134.3679  157.5176 H   0  0  0  0  0  0  0  0  0  0  0  0  # atno 11005 bound_to 11000
  146.3129  139.7812  142.9006 LP  0  0  0  0  0  0  0  0  0  0  0  0  # atno 17320 bound_to 7965
  145.3550  141.0315  143.3317 LP  0  0  0  0  0  0  0  0  0  0  0  0  # atno 17321 bound_to 7965
  140.0525  143.5235  152.2667 LP  0  0  0  0  0  0  0  0  0  0  0  0  # atno 17342 bound_to 10162
  139.6102  144.7607  151.2968 LP  0  0  0  0  0  0  0  0  0  0  0  0  # atno 17343 bound_to 10162
  157.4513  131.0873  151.0843 LP  0  0  0  0  0  0  0  0  0  0  0  0  # atno 17370 bound_to 10713
  157.1358  130.6122  149.5541 LP  0  0  0  0  0  0  0  0  0  0  0  0  # atno 17371 bound_to 10713
  139.8838  134.8983  156.2743 LP  0  0  0  0  0  0  0  0  0  0  0  0  # atno 17394 bound_to 11000
  140.9966  133.7176  156.0896 LP  0  0  0  0  0  0  0  0  0  0  0  0  # atno 17395 bound_to 11000

$$$$
