AV-unprocessed.smi:1259|AV-procd|sdf|5292|dock5
  -GOLD-   22720 4413D 1   1.00000     0.00000
 Structure written by MMmdl.
 34 35  0  0  0  0  0  0  0  0  1 V2000
  147.5635  140.9766  153.5899 C   0  0  0  0  0  0  0  0  0  0  0  0
  148.7991  140.7007  154.3948 C   0  0  0  0  0  0  0  0  0  0  0  0
  149.2866  141.4157  155.5273 C   0  0  0  0  0  0  0  0  0  0  0  0
  150.4269  140.7308  155.8479 C   0  0  0  0  0  0  0  0  0  0  0  0
  151.3090  140.9630  156.8560 N   0  0  0  0  0  0  0  0  0  0  0  0
  151.2349  141.8691  157.8464 C   0  0  0  0  0  0  0  0  0  0  0  0
  150.3127  142.6667  158.0167 O   0  0  0  0  0  0  0  0  0  0  0  0
  152.3105  141.7996  158.6444 N   0  0  0  0  0  0  0  0  0  0  0  0
  152.5591  142.6476  159.8059 C   0  0  1  0  0  0  0  0  0  0  0  0
  153.7392  142.0648  160.5956 C   0  0  0  0  0  0  0  0  0  0  0  0
  152.8133  144.1026  159.4481 C   0  0  0  0  0  0  0  0  0  0  0  0
  152.0001  145.2104  160.0747 C   0  0  0  0  0  0  0  0  0  0  0  0
  151.8356  144.8894  158.6071 C   0  0  0  0  0  0  0  0  0  0  0  0
  150.5861  139.6910  154.9587 N   0  0  0  0  0  0  0  0  0  0  0  0
  151.6301  138.6872  154.8888 C   0  0  0  0  0  0  0  0  0  0  0  0
  149.5758  139.6756  154.0626 N   0  0  0  0  0  0  0  0  0  0  0  0
  147.0549  141.8737  153.9436 H   0  0  0  0  0  0  0  0  0  0  0  0
  146.8587  140.1476  153.6571 H   0  0  0  0  0  0  0  0  0  0  0  0
  147.8052  141.1259  152.5373 H   0  0  0  0  0  0  0  0  0  0  0  0
  148.8549  142.2809  156.0075 H   0  0  0  0  0  0  0  0  0  0  0  0
  152.1326  140.3796  156.8487 H   0  0  0  0  0  0  0  0  0  0  0  0
  153.0171  141.1119  158.4282 H   0  0  0  0  0  0  0  0  0  0  0  0
  151.6840  142.6078  160.4575 H   0  0  0  0  0  0  0  0  0  0  0  0
  153.9257  142.6390  161.5036 H   0  0  0  0  0  0  0  0  0  0  0  0
  154.6556  142.0719  160.0044 H   0  0  0  0  0  0  0  0  0  0  0  0
  153.5426  141.0348  160.8950 H   0  0  0  0  0  0  0  0  0  0  0  0
  153.8658  144.3317  159.2899 H   0  0  0  0  0  0  0  0  0  0  0  0
  151.1886  144.9293  160.7426 H   0  0  0  0  0  0  0  0  0  0  0  0
  152.5206  146.1301  160.3338 H   0  0  0  0  0  0  0  0  0  0  0  0
  152.2476  145.5934  157.8870 H   0  0  0  0  0  0  0  0  0  0  0  0
  150.9133  144.3982  158.3033 H   0  0  0  0  0  0  0  0  0  0  0  0
  151.4603  137.9306  155.6550 H   0  0  0  0  0  0  0  0  0  0  0  0
  152.6025  139.1516  155.0537 H   0  0  0  0  0  0  0  0  0  0  0  0
  151.6338  138.2078  153.9090 H   0  0  0  0  0  0  0  0  0  0  0  0
  1  2  1  0  0  0  0
  1 17  1  0  0  0  0
  1 18  1  0  0  0  0
  1 19  1  0  0  0  0
  2 16  2  0  0  0  0
  2  3  1  0  0  0  0
  3  4  2  0  0  0  0
  3 20  1  0  0  0  0
  4  5  1  0  0  0  0
  4 14  1  0  0  0  0
  5  6  1  0  0  0  0
  5 21  1  0  0  0  0
  6  7  2  0  0  0  0
  6  8  1  0  0  0  0
  8  9  1  0  0  0  0
  8 22  1  0  0  0  0
  9 10  1  0  0  0  0
  9 11  1  0  0  0  0
  9 23  1  0  0  0  0
 10 24  1  0  0  0  0
 10 25  1  0  0  0  0
 10 26  1  0  0  0  0
 11 13  1  0  0  0  0
 11 12  1  0  0  0  0
 11 27  1  0  0  0  0
 12 13  1  0  0  0  0
 12 28  1  0  0  0  0
 12 29  1  0  0  0  0
 13 30  1  0  0  0  0
 13 31  1  0  0  0  0
 14 15  1  0  0  0  0
 14 16  1  0  0  0  0
 15 32  1  0  0  0  0
 15 33  1  0  0  0  0
 15 34  1  0  0  0  0
M  END
> <s_m_source_file>
AV-unprocessed.smi

> <i_m_source_file_index>
1259

> <i_lp_mmshare_version>
43012

> <i_f3d_flags>
0

> <s_epik_input>
W0NIM11jMVtjSF1jKG4objEpW0NIM10pW05IXUMoPU8pW05IXVtDQEhdKFtDSDNdKVtDSF0yW0NIMl1bQ0gyXTI=

> <s_epik_cmdline>
J2VwaWtfcHl0aG9uJywgJy1waCcsICc3LjAnLCAnLXRuJywgJzgnLCAnLW1hJywgJzIwMCcsICctbWV0YWxfYmluZGluZycsICctaW1hZScsICc8aW5maWxlLm1hZT4nLCAnLW9tYWUnLCAnPG91dGZpbGUubWFlPic=

> <r_lp_tautomer_probability>
1

> <r_epik_Ionization_Penalty>
0.000100032

> <r_epik_Ionization_Penalty_Charging>
0

> <r_epik_Ionization_Penalty_Neutral>
0.000100032

> <r_epik_State_Penalty>
-0

> <r_epik_Charging_Adjusted_Penalty>
0

> <i_epik_Tot_Q>
0

> <i_epik_Tot_abs_Q>
0

> <r_epik_Metal_State_Penalty>
-0

> <b_epik_Metal_Only>
0

> <s_lp_Force_Field>
OPLS_2005

> <r_lp_Energy>
14.2964

> <b_lp_Chiralities_Consistent>
1

> <s_lp_Variant>
AV-unprocessed.smi:1259-2

> <Gold.Version>
5.8.1

> <Gold.Id.Protein>
6NUR|6NUR_protein|mol2

> <Gold.PLP.Fitness>
39.1357

> <Gold.PLP.PLP>
-39.7295

> <Gold.PLP.part.hbond>
-0.1393

> <Gold.PLP.part.metal>
0.0000

> <Gold.PLP.part.buried>
-5.4310

> <Gold.PLP.part.nonpolar>
-36.2237

> <Gold.PLP.part.repulsive>
1.8855

> <Gold.PLP.ligand.clash>
0.0000

> <Gold.PLP.ligand.torsion>
0.8272

> <Gold.PLP.Chemscore.Hbond>
0.0000

> <Gold.PLP.Chemscore.CHOScore>
0.0000

> <Gold.PLP.Chemscore.Metal>
0.0000

> <Gold.PLP.Chemscore.Internal.Correction>
1.0607

> <Gold.Rescore>
     Score         DG    S(hbond)    S(metal)    S(lipo)     H(rot)  DE(clash)    DE(int)     intcor
      9.64     -13.11       0.00        0.00      91.46       1.20       0.20       3.27       ----

> <Gold.Chemscore.Fitness>
9.6396

> <Gold.Chemscore.DG>
-13.1113

> <Gold.Chemscore.ZeroCoef>
-5.4800

> <Gold.Chemscore.Hbond>
0.0000

> <Gold.Chemscore.Metal>
0.0000

> <Gold.Chemscore.Lipo>
91.4600

> <Gold.Chemscore.Internal_Hbond>
0.0000

> <Gold.Chemscore.DEClash>
0.2012

> <Gold.Chemscore.DEInternal>
3.2704

> <Gold.Chemscore.Rot>
1.1990

> <Gold.Chemscore.Internal.Correction>
   9.000000E+99

> <Gold.Chemscore.Hbond.Weighted>
-0.0000

> <Gold.Chemscore.Metal.Weighted>
-0.0000

> <Gold.Chemscore.Lipo.Weighted>
-10.7008

> <Gold.Chemscore.Internal_Hbond.Weighted>
0.0000

> <Gold.Chemscore.DEClash.Weighted>
0.2012

> <Gold.Chemscore.DEInternal.Weighted>
3.2704

> <Gold.Chemscore.Rot.Weighted>
3.0695

> <Gold.Chemscore.Internal.Correction.Weighted>
   9.000000E+99

> <Gold.Protein.RotatedTorsions>
[ 6907 6896 6895 6894 ] final  111.62 input  -60.11 | X-H torsion
[ 7974 7965 7964 7962 ] final  -28.94 input  175.53 | X-H torsion
[ 8008 7997 7996 7995 ] final -104.43 input   59.86 | X-H torsion
[ 10167 10162 10161 10158 ] final   29.13 input  -65.29 | X-H torsion
[ 10718 10713 10712 10709 ] final  101.22 input   66.30 | X-H torsion
[ 10763 10752 10751 10750 ] final   71.45 input  -60.55 | X-H torsion
[ 11005 11000 10999 10996 ] final  -72.34 input  -57.11 | X-H torsion

> <Gold.Protein.ActiveResidues>
 VAL166  LYS551  ARG553  GLY616  TRP617  ASP618  TYR619  PRO620  LYS621  CYS622 
 ASP623  PHE694  ASN695  SER759  ASP760  ASP761  ALA762  ILE779  LEU786  VAL792 
 PHE793  MET794  SER795  GLU796  ALA797  LYS798  CYS799  TRP800  GLU811  SER814 

> <Gold.Protein.RotatedAtoms>
  152.4960  133.8632  159.7260 H   0  0  0  0  0  0  0  0  0  0  0  0  # atno 6907 bound_to 6896
  150.9138  133.6956  159.2855 H   0  0  0  0  0  0  0  0  0  0  0  0  # atno 6908 bound_to 6896
  151.4356  135.1019  159.9707 H   0  0  0  0  0  0  0  0  0  0  0  0  # atno 6909 bound_to 6896
  146.1252  140.5348  142.8717 H   0  0  0  0  0  0  0  0  0  0  0  0  # atno 7974 bound_to 7965
  154.8852  140.0418  157.1806 H   0  0  0  0  0  0  0  0  0  0  0  0  # atno 8008 bound_to 7997
  154.8597  140.2942  155.5525 H   0  0  0  0  0  0  0  0  0  0  0  0  # atno 8009 bound_to 7997
  156.2998  140.2449  156.3570 H   0  0  0  0  0  0  0  0  0  0  0  0  # atno 8010 bound_to 7997
  140.4792  144.0642  150.6260 H   0  0  0  0  0  0  0  0  0  0  0  0  # atno 10167 bound_to 10162
  157.6835  131.0720  150.5219 H   0  0  0  0  0  0  0  0  0  0  0  0  # atno 10718 bound_to 10713
  153.0400  135.5136  154.7595 H   0  0  0  0  0  0  0  0  0  0  0  0  # atno 10763 bound_to 10752
  154.6540  135.2929  154.9953 H   0  0  0  0  0  0  0  0  0  0  0  0  # atno 10764 bound_to 10752
  154.0827  135.6661  153.4893 H   0  0  0  0  0  0  0  0  0  0  0  0  # atno 10765 bound_to 10752
  141.1607  133.6844  156.7044 H   0  0  0  0  0  0  0  0  0  0  0  0  # atno 11005 bound_to 11000
  144.7636  140.5478  143.6719 LP  0  0  0  0  0  0  0  0  0  0  0  0  # atno 17320 bound_to 7965
  145.5380  139.1475  143.3463 LP  0  0  0  0  0  0  0  0  0  0  0  0  # atno 17321 bound_to 7965
  140.3879  143.2768  152.0094 LP  0  0  0  0  0  0  0  0  0  0  0  0  # atno 17342 bound_to 10162
  139.4830  144.6101  151.7449 LP  0  0  0  0  0  0  0  0  0  0  0  0  # atno 17343 bound_to 10162
  156.5532  130.4237  149.6098 LP  0  0  0  0  0  0  0  0  0  0  0  0  # atno 17370 bound_to 10713
  156.2885  130.7110  151.1953 LP  0  0  0  0  0  0  0  0  0  0  0  0  # atno 17371 bound_to 10713
  140.2934  134.8222  157.4036 LP  0  0  0  0  0  0  0  0  0  0  0  0  # atno 17394 bound_to 11000
  140.1326  134.5075  155.8093 LP  0  0  0  0  0  0  0  0  0  0  0  0  # atno 17395 bound_to 11000

$$$$
