AV-unprocessed.smi:500|AV-procd|sdf|2737|dock2
  -GOLD-   2262023193D 1   1.00000     0.00000
 Structure written by MMmdl.
 46 48  0  0  0  0  0  0  0  0  2 V2000
  144.7812  144.4019  154.0078 C   0  0  0  0  0  0  0  0  0  0  0  0
  145.7256  143.2137  153.8114 C   0  0  0  0  0  0  0  0  0  0  0  0
  145.5852  142.3257  154.9076 O   0  0  0  0  0  0  0  0  0  0  0  0
  146.2276  141.0815  154.6895 C   0  0  0  0  0  0  0  0  0  0  0  0
  147.6908  141.3429  154.3132 C   0  0  0  0  0  0  0  0  0  0  0  0
  148.4338  140.0937  154.1017 N   0  0  0  0  0  0  0  0  0  0  0  0
  148.0910  138.9653  153.4143 C   0  0  0  0  0  0  0  0  0  0  0  0
  146.7917  138.7170  152.6994 C   0  0  1  0  0  0  0  0  0  0  0  0
  146.5516  139.7011  151.5384 C   0  0  0  0  0  0  0  0  0  0  0  0
  146.6446  137.3274  152.2649 N   0  0  0  0  0  0  0  0  0  0  0  0
  145.4983  136.6357  152.1433 C   0  0  0  0  0  0  0  0  0  0  0  0
  144.3899  137.1005  152.4090 O   0  0  0  0  0  0  0  0  0  0  0  0
  145.6355  135.2521  151.6511 C   0  0  0  0  0  0  0  0  0  0  0  0
  144.7901  134.4633  150.9155 C   0  0  0  0  0  0  0  0  0  0  0  0
  145.4498  133.2163  150.7357 C   0  0  0  0  0  0  0  0  0  0  0  0
  146.6511  133.3313  151.3737 C   0  0  0  0  0  0  0  0  0  0  0  0
  146.7798  134.5643  151.9350 O   0  0  0  0  0  0  0  0  0  0  0  0
  149.1300  138.0897  153.5431 N   0  3  0  0  0  0  0  0  0  0  0  0
  150.1489  138.6684  154.3000 C   0  0  0  0  0  0  0  0  0  0  0  0
  151.3900  138.1741  154.6888 C   0  0  0  0  0  0  0  0  0  0  0  0
  152.1973  139.0311  155.4657 C   0  0  0  0  0  0  0  0  0  0  0  0
  151.7612  140.3225  155.8274 C   0  0  0  0  0  0  0  0  0  0  0  0
  150.5000  140.8118  155.4280 C   0  0  0  0  0  0  0  0  0  0  0  0
  149.7086  139.9576  154.6607 C   0  0  0  0  0  0  0  0  0  0  0  0
  144.8656  145.1065  153.1802 H   0  0  0  0  0  0  0  0  0  0  0  0
  145.0130  144.9383  154.9284 H   0  0  0  0  0  0  0  0  0  0  0  0
  143.7430  144.0735  154.0631 H   0  0  0  0  0  0  0  0  0  0  0  0
  145.4880  142.7002  152.8786 H   0  0  0  0  0  0  0  0  0  0  0  0
  146.7555  143.5665  153.7416 H   0  0  0  0  0  0  0  0  0  0  0  0
  146.1768  140.4701  155.5919 H   0  0  0  0  0  0  0  0  0  0  0  0
  145.7221  140.5359  153.8912 H   0  0  0  0  0  0  0  0  0  0  0  0
  147.7644  141.9549  153.4137 H   0  0  0  0  0  0  0  0  0  0  0  0
  148.1884  141.9008  155.1065 H   0  0  0  0  0  0  0  0  0  0  0  0
  145.9961  138.8837  153.4261 H   0  0  0  0  0  0  0  0  0  0  0  0
  146.5606  140.7325  151.8921 H   0  0  0  0  0  0  0  0  0  0  0  0
  145.5816  139.5251  151.0725 H   0  0  0  0  0  0  0  0  0  0  0  0
  147.3107  139.6117  150.7608 H   0  0  0  0  0  0  0  0  0  0  0  0
  147.4979  136.8468  152.0188 H   0  0  0  0  0  0  0  0  0  0  0  0
  143.8138  134.7463  150.5500 H   0  0  0  0  0  0  0  0  0  0  0  0
  145.0910  132.3453  150.2074 H   0  0  0  0  0  0  0  0  0  0  0  0
  147.4907  132.6675  151.5190 H   0  0  0  0  0  0  0  0  0  0  0  0
  151.7257  137.1849  154.4137 H   0  0  0  0  0  0  0  0  0  0  0  0
  153.1699  138.6914  155.7910 H   0  0  0  0  0  0  0  0  0  0  0  0
  152.4068  140.9508  156.4238 H   0  0  0  0  0  0  0  0  0  0  0  0
  150.1751  141.8027  155.7094 H   0  0  0  0  0  0  0  0  0  0  0  0
  149.1331  137.1592  153.1454 H   0  0  0  0  0  0  0  0  0  0  0  0
  1  2  1  0  0  0  0
  1 25  1  0  0  0  0
  1 26  1  0  0  0  0
  1 27  1  0  0  0  0
  2  3  1  0  0  0  0
  2 28  1  0  0  0  0
  2 29  1  0  0  0  0
  3  4  1  0  0  0  0
  4  5  1  0  0  0  0
  4 30  1  0  0  0  0
  4 31  1  0  0  0  0
  5  6  1  0  0  0  0
  5 32  1  0  0  0  0
  5 33  1  0  0  0  0
  6 24  1  0  0  0  0
  6  7  1  0  0  0  0
  7  8  1  0  0  0  0
  7 18  2  0  0  0  0
  8  9  1  0  0  0  0
  8 10  1  0  0  0  0
  8 34  1  0  0  0  0
  9 35  1  0  0  0  0
  9 36  1  0  0  0  0
  9 37  1  0  0  0  0
 10 11  1  0  0  0  0
 10 38  1  0  0  0  0
 11 12  2  0  0  0  0
 11 13  1  0  0  0  0
 13 17  1  0  0  0  0
 13 14  2  0  0  0  0
 14 15  1  0  0  0  0
 14 39  1  0  0  0  0
 15 16  2  0  0  0  0
 15 40  1  0  0  0  0
 16 17  1  0  0  0  0
 16 41  1  0  0  0  0
 18 19  1  0  0  0  0
 18 46  1  0  0  0  0
 19 24  2  0  0  0  0
 19 20  1  0  0  0  0
 20 21  2  0  0  0  0
 20 42  1  0  0  0  0
 21 22  1  0  0  0  0
 21 43  1  0  0  0  0
 22 23  2  0  0  0  0
 22 44  1  0  0  0  0
 23 24  1  0  0  0  0
 23 45  1  0  0  0  0
M  CHG  1  18   1
M  END
> <s_m_source_file>
AV-unprocessed.smi

> <i_m_source_file_index>
500

> <i_lp_mmshare_version>
43012

> <i_f3d_flags>
0

> <s_epik_input>
W0NIM11bQ0gyXU9bQ0gyXVtDSDJdbihjKGMxMilbY0hdW2NIXVtjSF1bY0hdMiljKG4xKVtDQEhdKFtDSDNdKVtOSF1DKD1PKWMzW2NIXVtjSF1bY0hdbzM=

> <s_epik_cmdline>
J2VwaWtfcHl0aG9uJywgJy1waCcsICc3LjAnLCAnLXRuJywgJzgnLCAnLW1hJywgJzIwMCcsICctbWV0YWxfYmluZGluZycsICctaW1hZScsICc8aW5maWxlLm1hZT4nLCAnLW9tYWUnLCAnPG91dGZpbGUubWFlPic=

> <r_epik_Ionization_Penalty>
1.05286

> <r_epik_Ionization_Penalty_Charging>
1.05283

> <r_epik_Ionization_Penalty_Neutral>
2.09263e-05

> <r_epik_State_Penalty>
1.10586

> <r_epik_Charging_Adjusted_Penalty>
2.15869

> <i_epik_Tot_Q>
1

> <i_epik_Tot_abs_Q>
1

> <r_epik_Metal_State_Penalty>
1.22833

> <b_epik_Metal_Only>
0

> <s_lp_Force_Field>
OPLS_2005

> <r_lp_Energy>
11.8725

> <b_lp_Chiralities_Consistent>
1

> <s_lp_Variant>
AV-unprocessed.smi:500-4

> <Gold.Version>
5.8.1

> <Gold.Id.Protein>
6NUR|6NUR_protein|mol2

> <Gold.PLP.Fitness>
55.4952

> <Gold.PLP.PLP>
-45.6026

> <Gold.PLP.part.hbond>
-2.6671

> <Gold.PLP.part.metal>
0.0000

> <Gold.PLP.part.buried>
-1.9787

> <Gold.PLP.part.nonpolar>
-46.4874

> <Gold.PLP.part.repulsive>
4.7560

> <Gold.PLP.ligand.clash>
0.0000

> <Gold.PLP.ligand.torsion>
1.0282

> <Gold.PLP.Chemscore.Hbond>
3.0000

> <Gold.PLP.Chemscore.CHOScore>
0.8865

> <Gold.PLP.Chemscore.Metal>
0.0000

> <Gold.Chemscore.Hbonds>
donor molecule, donor type, donor heavy atom, donor atom, acceptor molecule, acceptor atom, score
      L1  H    10    38       P1  7948  1.00
      L1  H    18    46       P1  7948  1.92
      L1  C    16    41       P1 10747  0.71

> <Gold.PLP.Chemscore.Internal.Correction>
0.2895

> <Gold.Rescore>
     Score         DG    S(hbond)    S(metal)    S(lipo)     H(rot)  DE(clash)    DE(int)     intcor
     16.27     -19.21       1.91        0.00     105.98       1.97       2.21       0.73       ----

> <Gold.Chemscore.Fitness>
16.2665

> <Gold.Chemscore.DG>
-19.2109

> <Gold.Chemscore.ZeroCoef>
-5.4800

> <Gold.Chemscore.Hbond>
1.9121

> <Gold.Chemscore.Metal>
0.0000

> <Gold.Chemscore.Lipo>
105.9776

> <Gold.Chemscore.Internal_Hbond>
0.0000

> <Gold.Chemscore.DEClash>
2.2128

> <Gold.Chemscore.DEInternal>
0.7316

> <Gold.Chemscore.Rot>
1.9746

> <Gold.Chemscore.Internal.Correction>
   9.000000E+99

> <Gold.Chemscore.Hbonds>
donor molecule, donor type, donor heavy atom, donor atom, acceptor molecule, acceptor atom, score
      L1  H    10    38       P1  7948  0.97
      L1  H    18    46       P1  7948  0.89

> <Gold.Chemscore.Hbond.Weighted>
-6.3865

> <Gold.Chemscore.Metal.Weighted>
-0.0000

> <Gold.Chemscore.Lipo.Weighted>
-12.3994

> <Gold.Chemscore.Internal_Hbond.Weighted>
0.0000

> <Gold.Chemscore.DEClash.Weighted>
2.2128

> <Gold.Chemscore.DEInternal.Weighted>
0.7316

> <Gold.Chemscore.Rot.Weighted>
5.0550

> <Gold.Chemscore.Internal.Correction.Weighted>
   9.000000E+99

> <Gold.Protein.RotatedTorsions>
[ 6907 6896 6895 6894 ] final   28.39 input  -60.11 | X-H torsion
[ 7974 7965 7964 7962 ] final -149.34 input  175.53 | X-H torsion
[ 8008 7997 7996 7995 ] final   80.57 input   59.86 | X-H torsion
[ 10167 10162 10161 10158 ] final  -69.81 input  -65.29 | X-H torsion
[ 10718 10713 10712 10709 ] final -107.74 input   66.30 | X-H torsion
[ 10763 10752 10751 10750 ] final -169.54 input  -60.55 | X-H torsion
[ 11005 11000 10999 10996 ] final   70.02 input  -57.11 | X-H torsion

> <Gold.Protein.ActiveResidues>
 VAL166  LYS551  ARG553  GLY616  TRP617  ASP618  TYR619  PRO620  LYS621  CYS622 
 ASP623  PHE694  ASN695  SER759  ASP760  ASP761  ALA762  ILE779  LEU786  VAL792 
 PHE793  MET794  SER795  GLU796  ALA797  LYS798  CYS799  TRP800  GLU811  SER814 

> <Gold.Protein.RotatedAtoms>
  152.0163  134.9848  160.0569 H   0  0  0  0  0  0  0  0  0  0  0  0  # atno 6907 bound_to 6896
  152.1381  133.4442  159.4761 H   0  0  0  0  0  0  0  0  0  0  0  0  # atno 6908 bound_to 6896
  150.6862  134.2257  159.4458 H   0  0  0  0  0  0  0  0  0  0  0  0  # atno 6909 bound_to 6896
  144.7973  140.5077  143.5731 H   0  0  0  0  0  0  0  0  0  0  0  0  # atno 7974 bound_to 7965
  155.8853  140.3442  155.5917 H   0  0  0  0  0  0  0  0  0  0  0  0  # atno 8008 bound_to 7997
  155.7673  140.0840  157.2145 H   0  0  0  0  0  0  0  0  0  0  0  0  # atno 8009 bound_to 7997
  154.4028  140.1525  156.2888 H   0  0  0  0  0  0  0  0  0  0  0  0  # atno 8010 bound_to 7997
  140.5402  143.2315  151.7104 H   0  0  0  0  0  0  0  0  0  0  0  0  # atno 10167 bound_to 10162
  156.0451  130.5677  150.7863 H   0  0  0  0  0  0  0  0  0  0  0  0  # atno 10718 bound_to 10713
  154.6512  135.2911  154.9984 H   0  0  0  0  0  0  0  0  0  0  0  0  # atno 10763 bound_to 10752
  154.1077  135.6567  153.4883 H   0  0  0  0  0  0  0  0  0  0  0  0  # atno 10764 bound_to 10752
  153.0377  135.5257  154.7421 H   0  0  0  0  0  0  0  0  0  0  0  0  # atno 10765 bound_to 10752
  139.9621  134.7043  156.0624 H   0  0  0  0  0  0  0  0  0  0  0  0  # atno 11005 bound_to 11000
  145.5640  139.1480  143.3325 LP  0  0  0  0  0  0  0  0  0  0  0  0  # atno 17320 bound_to 7965
  146.2245  140.5776  142.9002 LP  0  0  0  0  0  0  0  0  0  0  0  0  # atno 17321 bound_to 7965
  139.4986  144.3981  152.0210 LP  0  0  0  0  0  0  0  0  0  0  0  0  # atno 17342 bound_to 10162
  140.3089  144.3560  150.6039 LP  0  0  0  0  0  0  0  0  0  0  0  0  # atno 17343 bound_to 10162
  157.5317  131.0937  150.9947 LP  0  0  0  0  0  0  0  0  0  0  0  0  # atno 17370 bound_to 10713
  157.0251  130.5689  149.5336 LP  0  0  0  0  0  0  0  0  0  0  0  0  # atno 17371 bound_to 10713
  141.1299  133.6589  156.3436 LP  0  0  0  0  0  0  0  0  0  0  0  0  # atno 17394 bound_to 11000
  140.5477  134.6058  157.5398 LP  0  0  0  0  0  0  0  0  0  0  0  0  # atno 17395 bound_to 11000

$$$$
