AV-unprocessed.smi:344|AV-procd|sdf|2389|dock8
  -GOLD-   2262022313D 1   1.00000     0.00000
 Structure written by MMmdl.
 38 39  0  0  0  0  0  0  0  0  1 V2000
  147.6739  138.3084  154.4525 N   0  0  0  0  0  0  0  0  0  0  0  0
  148.1680  138.9952  155.4860 C   0  0  0  0  0  0  0  0  0  0  0  0
  148.5958  140.1414  155.3650 O   0  0  0  0  0  0  0  0  0  0  0  0
  148.1860  138.2942  156.8474 C   0  0  0  0  0  0  0  0  0  0  0  0
  149.5827  138.2429  157.3974 C   0  0  0  0  0  0  0  0  0  0  0  0
  150.5600  137.3277  157.0866 C   0  0  0  0  0  0  0  0  0  0  0  0
  152.0425  137.6325  157.9514 S   0  0  0  0  0  0  0  0  0  0  0  0
  151.2708  139.0173  158.7078 C   0  0  0  0  0  0  0  0  0  0  0  0
  151.9563  139.8448  159.6353 N   0  0  0  0  0  0  0  0  0  0  0  0
  153.2837  139.9753  159.8172 C   0  0  0  0  0  0  0  0  0  0  0  0
  154.1393  139.3743  159.1659 O   0  0  0  0  0  0  0  0  0  0  0  0
  153.6934  140.9523  160.9253 C   0  0  0  0  0  0  0  0  0  0  0  0
  152.6307  142.0245  161.2381 C   0  0  0  0  0  0  0  0  0  0  0  0
  152.7300  143.2577  160.3226 C   0  0  0  0  0  0  0  0  0  0  0  0
  151.8713  144.4490  160.7615 C   0  0  0  0  0  0  0  0  0  0  0  0
  151.6664  145.2958  159.4988 C   0  0  0  0  0  0  0  0  0  0  0  0
  151.9992  144.3864  158.3067 C   0  0  0  0  0  0  0  0  0  0  0  0
  152.2517  142.9951  158.8933 C   0  0  0  0  0  0  0  0  0  0  0  0
  150.0044  139.2056  158.3205 N   0  0  0  0  0  0  0  0  0  0  0  0
  147.6477  138.7337  153.5368 H   0  0  0  0  0  0  0  0  0  0  0  0
  147.3323  137.3680  154.5869 H   0  0  0  0  0  0  0  0  0  0  0  0
  147.5235  138.8094  157.5445 H   0  0  0  0  0  0  0  0  0  0  0  0
  147.7795  137.2895  156.7246 H   0  0  0  0  0  0  0  0  0  0  0  0
  150.4954  136.4924  156.4055 H   0  0  0  0  0  0  0  0  0  0  0  0
  151.3673  140.4032  160.2355 H   0  0  0  0  0  0  0  0  0  0  0  0
  153.9121  140.3764  161.8254 H   0  0  0  0  0  0  0  0  0  0  0  0
  154.6250  141.4347  160.6271 H   0  0  0  0  0  0  0  0  0  0  0  0
  151.6363  141.5900  161.1252 H   0  0  0  0  0  0  0  0  0  0  0  0
  152.7119  142.3343  162.2811 H   0  0  0  0  0  0  0  0  0  0  0  0
  153.7708  143.5823  160.2743 H   0  0  0  0  0  0  0  0  0  0  0  0
  150.9032  144.0967  161.1204 H   0  0  0  0  0  0  0  0  0  0  0  0
  152.3319  145.0195  161.5686 H   0  0  0  0  0  0  0  0  0  0  0  0
  150.6443  145.6713  159.4437 H   0  0  0  0  0  0  0  0  0  0  0  0
  152.3308  146.1604  159.5043 H   0  0  0  0  0  0  0  0  0  0  0  0
  151.2024  144.3739  157.5625 H   0  0  0  0  0  0  0  0  0  0  0  0
  152.9020  144.7476  157.8125 H   0  0  0  0  0  0  0  0  0  0  0  0
  152.9721  142.4217  158.3089 H   0  0  0  0  0  0  0  0  0  0  0  0
  151.3169  142.4327  158.9104 H   0  0  0  0  0  0  0  0  0  0  0  0
  1  2  1  0  0  0  0
  1 20  1  0  0  0  0
  1 21  1  0  0  0  0
  2  3  2  0  0  0  0
  2  4  1  0  0  0  0
  4  5  1  0  0  0  0
  4 22  1  0  0  0  0
  4 23  1  0  0  0  0
  5 19  1  0  0  0  0
  5  6  2  0  0  0  0
  6  7  1  0  0  0  0
  6 24  1  0  0  0  0
  7  8  1  0  0  0  0
  8  9  1  0  0  0  0
  8 19  2  0  0  0  0
  9 10  1  0  0  0  0
  9 25  1  0  0  0  0
 10 11  2  0  0  0  0
 10 12  1  0  0  0  0
 12 13  1  0  0  0  0
 12 26  1  0  0  0  0
 12 27  1  0  0  0  0
 13 14  1  0  0  0  0
 13 28  1  0  0  0  0
 13 29  1  0  0  0  0
 14 18  1  0  0  0  0
 14 15  1  0  0  0  0
 14 30  1  0  0  0  0
 15 16  1  0  0  0  0
 15 31  1  0  0  0  0
 15 32  1  0  0  0  0
 16 17  1  0  0  0  0
 16 33  1  0  0  0  0
 16 34  1  0  0  0  0
 17 18  1  0  0  0  0
 17 35  1  0  0  0  0
 17 36  1  0  0  0  0
 18 37  1  0  0  0  0
 18 38  1  0  0  0  0
M  END
> <s_m_source_file>
AV-unprocessed.smi

> <i_m_source_file_index>
344

> <i_lp_mmshare_version>
43012

> <i_f3d_flags>
0

> <s_epik_input>
W05IMl1DKD1PKVtDSDJdYzFbY0hdc2MobjEpW05IXUMoPU8pW0NIMl1bQ0gyXVtDSF0yW0NIMl1bQ0gyXVtDSDJdW0NIMl0y

> <s_epik_cmdline>
J2VwaWtfcHl0aG9uJywgJy1waCcsICc3LjAnLCAnLXRuJywgJzgnLCAnLW1hJywgJzIwMCcsICctbWV0YWxfYmluZGluZycsICctaW1hZScsICc8aW5maWxlLm1hZT4nLCAnLW9tYWUnLCAnPG91dGZpbGUubWFlPic=

> <r_lp_tautomer_probability>
1

> <r_epik_Ionization_Penalty>
0.000156249

> <r_epik_Ionization_Penalty_Charging>
0

> <r_epik_Ionization_Penalty_Neutral>
0.000156249

> <r_epik_State_Penalty>
-0

> <r_epik_Charging_Adjusted_Penalty>
0

> <i_epik_Tot_Q>
0

> <i_epik_Tot_abs_Q>
0

> <r_epik_Metal_State_Penalty>
0.0972404

> <b_epik_Metal_Only>
0

> <s_lp_Force_Field>
OPLS_2005

> <r_lp_Energy>
21.4861

> <b_lp_Chiralities_Consistent>
1

> <s_lp_Variant>
AV-unprocessed.smi:344-1

> <Gold.Version>
5.8.1

> <Gold.Id.Protein>
6NUR|6NUR_protein|mol2

> <Gold.PLP.Fitness>
51.5073

> <Gold.PLP.PLP>
-42.3535

> <Gold.PLP.part.hbond>
-3.9516

> <Gold.PLP.part.metal>
0.0000

> <Gold.PLP.part.buried>
-5.0687

> <Gold.PLP.part.nonpolar>
-33.3162

> <Gold.PLP.part.repulsive>
0.3322

> <Gold.PLP.ligand.clash>
0.0000

> <Gold.PLP.ligand.torsion>
0.9703

> <Gold.PLP.Chemscore.Hbond>
3.6873

> <Gold.PLP.Chemscore.CHOScore>
0.0000

> <Gold.PLP.Chemscore.Metal>
0.0000

> <Gold.Chemscore.Hbonds>
donor molecule, donor type, donor heavy atom, donor atom, acceptor molecule, acceptor atom, score
      P1  H  7997  8009       L1    11  0.70

> <Gold.PLP.Chemscore.Internal.Correction>
0.0328

> <Gold.Rescore>
     Score         DG    S(hbond)    S(metal)    S(lipo)     H(rot)  DE(clash)    DE(int)     intcor
     20.17     -22.09       3.28        0.00     101.84       2.44       0.00       1.92       ----

> <Gold.Chemscore.Fitness>
20.1700

> <Gold.Chemscore.DG>
-22.0922

> <Gold.Chemscore.ZeroCoef>
-5.4800

> <Gold.Chemscore.Hbond>
3.2766

> <Gold.Chemscore.Metal>
0.0000

> <Gold.Chemscore.Lipo>
101.8356

> <Gold.Chemscore.Internal_Hbond>
0.0000

> <Gold.Chemscore.DEClash>
0.0047

> <Gold.Chemscore.DEInternal>
1.9175

> <Gold.Chemscore.Rot>
2.4400

> <Gold.Chemscore.Internal.Correction>
   9.000000E+99

> <Gold.Chemscore.Hbonds>
donor molecule, donor type, donor heavy atom, donor atom, acceptor molecule, acceptor atom, score
      P1  H  7997  8009       L1    11  0.71

> <Gold.Chemscore.Hbond.Weighted>
-10.9439

> <Gold.Chemscore.Metal.Weighted>
-0.0000

> <Gold.Chemscore.Lipo.Weighted>
-11.9148

> <Gold.Chemscore.Internal_Hbond.Weighted>
0.0000

> <Gold.Chemscore.DEClash.Weighted>
0.0047

> <Gold.Chemscore.DEInternal.Weighted>
1.9175

> <Gold.Chemscore.Rot.Weighted>
6.2465

> <Gold.Chemscore.Internal.Correction.Weighted>
   9.000000E+99

> <Gold.Protein.RotatedTorsions>
[ 6907 6896 6895 6894 ] final  145.46 input  -60.11 | X-H torsion
[ 7974 7965 7964 7962 ] final   85.83 input  175.53 | X-H torsion
[ 8008 7997 7996 7995 ] final  124.37 input   59.86 | X-H torsion
[ 10167 10162 10161 10158 ] final   31.03 input  -65.29 | X-H torsion
[ 10718 10713 10712 10709 ] final -124.65 input   66.30 | X-H torsion
[ 10763 10752 10751 10750 ] final  154.00 input  -60.55 | X-H torsion
[ 11005 11000 10999 10996 ] final  145.25 input  -57.11 | X-H torsion

> <Gold.Protein.ActiveResidues>
 VAL166  LYS551  ARG553  GLY616  TRP617  ASP618  TYR619  PRO620  LYS621  CYS622 
 ASP623  PHE694  ASN695  SER759  ASP760  ASP761  ALA762  ILE779  LEU786  VAL792 
 PHE793  MET794  SER795  GLU796  ALA797  LYS798  CYS799  TRP800  GLU811  SER814 

> <Gold.Protein.RotatedAtoms>
  152.1806  133.4705  159.4955 H   0  0  0  0  0  0  0  0  0  0  0  0  # atno 6907 bound_to 6896
  150.6934  134.1838  159.4268 H   0  0  0  0  0  0  0  0  0  0  0  0  # atno 6908 bound_to 6896
  151.9749  135.0058  160.0605 H   0  0  0  0  0  0  0  0  0  0  0  0  # atno 6909 bound_to 6896
  145.5803  139.2324  143.2357 H   0  0  0  0  0  0  0  0  0  0  0  0  # atno 7974 bound_to 7965
  156.2799  140.2741  156.1777 H   0  0  0  0  0  0  0  0  0  0  0  0  # atno 8008 bound_to 7997
  155.0589  140.0386  157.2588 H   0  0  0  0  0  0  0  0  0  0  0  0  # atno 8009 bound_to 7997
  154.7133  140.2673  155.6614 H   0  0  0  0  0  0  0  0  0  0  0  0  # atno 8010 bound_to 7997
  140.4625  144.0885  150.6216 H   0  0  0  0  0  0  0  0  0  0  0  0  # atno 10167 bound_to 10162
  156.1607  130.6599  151.0045 H   0  0  0  0  0  0  0  0  0  0  0  0  # atno 10718 bound_to 10713
  154.1453  135.2818  155.3150 H   0  0  0  0  0  0  0  0  0  0  0  0  # atno 10763 bound_to 10752
  154.6257  135.5452  153.7627 H   0  0  0  0  0  0  0  0  0  0  0  0  # atno 10764 bound_to 10752
  153.0238  135.6450  154.1599 H   0  0  0  0  0  0  0  0  0  0  0  0  # atno 10765 bound_to 10752
  140.0697  134.9159  157.1324 H   0  0  0  0  0  0  0  0  0  0  0  0  # atno 11005 bound_to 11000
  146.1721  140.6629  142.9228 LP  0  0  0  0  0  0  0  0  0  0  0  0  # atno 17320 bound_to 7965
  144.7397  140.4908  143.6878 LP  0  0  0  0  0  0  0  0  0  0  0  0  # atno 17321 bound_to 7965
  140.4076  143.2672  151.9872 LP  0  0  0  0  0  0  0  0  0  0  0  0  # atno 17342 bound_to 10162
  139.4808  144.5943  151.7717 LP  0  0  0  0  0  0  0  0  0  0  0  0  # atno 17343 bound_to 10162
  157.6730  131.0857  150.7566 LP  0  0  0  0  0  0  0  0  0  0  0  0  # atno 17370 bound_to 10713
  156.7629  130.4804  149.5433 LP  0  0  0  0  0  0  0  0  0  0  0  0  # atno 17371 bound_to 10713
  140.3646  134.2457  155.7183 LP  0  0  0  0  0  0  0  0  0  0  0  0  # atno 17394 bound_to 11000
  141.2007  133.7981  157.0477 LP  0  0  0  0  0  0  0  0  0  0  0  0  # atno 17395 bound_to 11000

$$$$
