AV-unprocessed.smi:72|AV-procd|sdf|679|dock1
  -GOLD-   2262016583D 1   1.00000     0.00000
 Structure written by MMmdl.
 29 30  0  0  0  0  0  0  0  0  1 V2000
  152.9187  140.2792  158.0443 N   0  0  0  0  0  0  0  0  0  0  0  0
  152.0445  140.4038  157.1113 C   0  0  0  0  0  0  0  0  0  0  0  0
  151.2145  141.5187  156.9200 N   0  0  0  0  0  0  0  0  0  0  0  0
  150.3840  141.5108  155.9230 C   0  0  0  0  0  0  0  0  0  0  0  0
  150.2953  140.3924  154.9967 N   0  0  0  0  0  0  0  0  0  0  0  0
  149.3141  140.4005  153.8465 C   0  0  2  0  0  0  0  0  0  0  0  0
  148.6465  141.6300  153.8210 O   0  0  0  0  0  0  0  0  0  0  0  0
  147.2445  141.4061  153.7404 C   0  0  2  0  0  0  0  0  0  0  0  0
  146.4613  142.6131  154.2878 C   0  0  0  0  0  0  0  0  0  0  0  0
  146.6349  142.7758  155.6806 O   0  0  0  0  0  0  0  0  0  0  0  0
  147.0256  140.0593  154.4327 C   0  0  1  0  0  0  0  0  0  0  0  0
  145.8159  139.4313  154.0517 O   0  0  0  0  0  0  0  0  0  0  0  0
  148.2712  139.2800  154.0193 C   0  0  1  0  0  0  0  0  0  0  0  0
  148.0970  138.5657  152.8093 O   0  0  0  0  0  0  0  0  0  0  0  0
  151.1012  139.2453  155.1968 C   0  0  0  0  0  0  0  0  0  0  0  0
  151.0315  138.2528  154.4723 O   0  0  0  0  0  0  0  0  0  0  0  0
  151.9511  139.3070  156.2447 N   0  0  0  0  0  0  0  0  0  0  0  0
  149.9083  140.3123  152.9353 H   0  0  0  0  0  0  0  0  0  0  0  0
  147.0166  141.2987  152.6781 H   0  0  0  0  0  0  0  0  0  0  0  0
  147.0357  140.1787  155.5164 H   0  0  0  0  0  0  0  0  0  0  0  0
  148.5773  138.5721  154.7910 H   0  0  0  0  0  0  0  0  0  0  0  0
  152.9262  141.1062  158.6244 H   0  0  0  0  0  0  0  0  0  0  0  0
  149.7012  142.3362  155.7195 H   0  0  0  0  0  0  0  0  0  0  0  0
  146.7575  143.5273  153.7731 H   0  0  0  0  0  0  0  0  0  0  0  0
  145.3965  142.4723  154.1006 H   0  0  0  0  0  0  0  0  0  0  0  0
  147.4855  143.1579  155.8341 H   0  0  0  0  0  0  0  0  0  0  0  0
  145.4093  139.9505  153.3752 H   0  0  0  0  0  0  0  0  0  0  0  0
  148.6459  138.9584  152.1476 H   0  0  0  0  0  0  0  0  0  0  0  0
  152.5467  138.5093  156.4131 H   0  0  0  0  0  0  0  0  0  0  0  0
  1  2  2  0  0  0  0
  1 22  1  0  0  0  0
  2 17  1  0  0  0  0
  2  3  1  0  0  0  0
  3  4  2  0  0  0  0
  4  5  1  0  0  0  0
  4 23  1  0  0  0  0
  5  6  1  0  0  0  0
  5 15  1  0  0  0  0
  6 18  1  0  0  0  0
  6 13  1  0  0  0  0
  6  7  1  0  0  0  0
  7  8  1  0  0  0  0
  8 19  1  0  0  0  0
  8  9  1  0  0  0  0
  8 11  1  0  0  0  0
  9 10  1  0  0  0  0
  9 24  1  0  0  0  0
  9 25  1  0  0  0  0
 10 26  1  0  0  0  0
 11 20  1  0  0  0  0
 11 12  1  0  0  0  0
 11 13  1  0  0  0  0
 12 27  1  0  0  0  0
 13 21  1  0  0  0  0
 13 14  1  0  0  0  0
 14 28  1  0  0  0  0
 15 16  2  0  0  0  0
 15 17  1  0  0  0  0
 17 29  1  0  0  0  0
M  END
> <s_m_source_file>
AV-unprocessed.smi

> <i_m_source_file_index>
72

> <i_lp_mmshare_version>
43012

> <i_f3d_flags>
0

> <s_epik_input>
W05IMl1jMW5bY0hdbihjKD1PKW4xKVtDQEBIXTJPW0NASF0oW0NIMl1bT0hdKVtDQEBIXShbT0hdKVtDQEhdMltPSF0=

> <s_epik_cmdline>
J2VwaWtfcHl0aG9uJywgJy1waCcsICc3LjAnLCAnLXRuJywgJzgnLCAnLW1hJywgJzIwMCcsICctbWV0YWxfYmluZGluZycsICctaW1hZScsICc8aW5maWxlLm1hZT4nLCAnLW9tYWUnLCAnPG91dGZpbGUubWFlPic=

> <r_lp_tautomer_probability>
7.17554e-07

> <r_epik_Ionization_Penalty>
0.0066451

> <r_epik_Ionization_Penalty_Charging>
0.00663793

> <r_epik_Ionization_Penalty_Neutral>
7.17052e-06

> <r_epik_State_Penalty>
0.419231

> <r_epik_Charging_Adjusted_Penalty>
0.425868

> <i_epik_Tot_Q>
0

> <i_epik_Tot_abs_Q>
0

> <r_epik_Metal_State_Penalty>
1.44144

> <b_epik_Metal_Only>
0

> <s_epik_Chemistry_Notes>
This compound contains an acetal/aminal-like group ( X-CH(R)-Y where X, Y are N, S, or O) that may be acid/base labile, releasing an aldehyde.

> <s_lp_Force_Field>
OPLS_2005

> <r_lp_Energy>
43.5106

> <b_lp_Chiralities_Consistent>
1

> <s_lp_Variant>
AV-unprocessed.smi:72-17

> <Gold.Version>
5.8.1

> <Gold.Id.Protein>
6NUR|6NUR_protein|mol2

> <Gold.PLP.Fitness>
41.6211

> <Gold.PLP.PLP>
-26.0162

> <Gold.PLP.part.hbond>
-6.0000

> <Gold.PLP.part.metal>
0.0000

> <Gold.PLP.part.buried>
1.9085

> <Gold.PLP.part.nonpolar>
-20.9837

> <Gold.PLP.part.repulsive>
0.5255

> <Gold.PLP.ligand.clash>
0.0000

> <Gold.PLP.ligand.torsion>
0.0469

> <Gold.PLP.Chemscore.Hbond>
4.2304

> <Gold.PLP.Chemscore.CHOScore>
1.0000

> <Gold.PLP.Chemscore.Metal>
0.0000

> <Gold.Chemscore.Hbonds>
donor molecule, donor type, donor heavy atom, donor atom, acceptor molecule, acceptor atom, score
      L1  H    10    26       P1  8028  0.67
      L1  H    12    27       P1 10175  0.93
      L1  H    14    28       P1  7957  1.00
      P1  H  7997  8010       L1     1  0.93
      P1  H  8011  8017       L1     7  0.48
      L1  C     4    23       P1  8028  1.00

> <Gold.PLP.Chemscore.Internal.Correction>
0.0075

> <Gold.Rescore>
     Score         DG    S(hbond)    S(metal)    S(lipo)     H(rot)  DE(clash)    DE(int)     intcor
      3.56      -6.08       2.48        0.00      23.21       4.06       1.65       0.87       ----

> <Gold.Chemscore.Fitness>
3.5573

> <Gold.Chemscore.DG>
-6.0758

> <Gold.Chemscore.ZeroCoef>
-5.4800

> <Gold.Chemscore.Hbond>
2.4772

> <Gold.Chemscore.Metal>
0.0000

> <Gold.Chemscore.Lipo>
23.2111

> <Gold.Chemscore.Internal_Hbond>
0.0000

> <Gold.Chemscore.DEClash>
1.6510

> <Gold.Chemscore.DEInternal>
0.8675

> <Gold.Chemscore.Rot>
4.0600

> <Gold.Chemscore.Internal.Correction>
   9.000000E+99

> <Gold.Chemscore.Hbonds>
donor molecule, donor type, donor heavy atom, donor atom, acceptor molecule, acceptor atom, score
      L1  H    10    26       P1  8028  0.08
      L1  H    12    27       P1 10175  0.85
      L1  H    14    28       P1  7957  0.97
      P1  H  7997  8010       L1     1  0.19
      P1  H  8011  8017       L1     7  0.06

> <Gold.Chemscore.Hbond.Weighted>
-8.2737

> <Gold.Chemscore.Metal.Weighted>
-0.0000

> <Gold.Chemscore.Lipo.Weighted>
-2.7157

> <Gold.Chemscore.Internal_Hbond.Weighted>
0.0000

> <Gold.Chemscore.DEClash.Weighted>
1.6510

> <Gold.Chemscore.DEInternal.Weighted>
0.8675

> <Gold.Chemscore.Rot.Weighted>
10.3936

> <Gold.Chemscore.Internal.Correction.Weighted>
   9.000000E+99

> <Gold.Protein.RotatedTorsions>
[ 6907 6896 6895 6894 ] final   -1.78 input  -60.11 | X-H torsion
[ 7974 7965 7964 7962 ] final    5.39 input  175.53 | X-H torsion
[ 8008 7997 7996 7995 ] final   38.24 input   59.86 | X-H torsion
[ 10167 10162 10161 10158 ] final -170.51 input  -65.29 | X-H torsion
[ 10718 10713 10712 10709 ] final   59.02 input   66.30 | X-H torsion
[ 10763 10752 10751 10750 ] final   67.92 input  -60.55 | X-H torsion
[ 11005 11000 10999 10996 ] final -101.55 input  -57.11 | X-H torsion

> <Gold.Protein.ActiveResidues>
 VAL166  LYS551  ARG553  GLY616  TRP617  ASP618  TYR619  PRO620  LYS621  CYS622 
 ASP623  PHE694  ASN695  SER759  ASP760  ASP761  ALA762  ILE779  LEU786  VAL792 
 PHE793  MET794  SER795  GLU796  ALA797  LYS798  CYS799  TRP800  GLU811  SER814 

> <Gold.Protein.RotatedAtoms>
  151.5406  135.1068  159.9925 H   0  0  0  0  0  0  0  0  0  0  0  0  # atno 6907 bound_to 6896
  152.4537  133.7676  159.6792 H   0  0  0  0  0  0  0  0  0  0  0  0  # atno 6908 bound_to 6896
  150.8474  133.7774  159.3062 H   0  0  0  0  0  0  0  0  0  0  0  0  # atno 6909 bound_to 6896
  146.2440  140.0391  142.8383 H   0  0  0  0  0  0  0  0  0  0  0  0  # atno 7974 bound_to 7965
  155.2169  140.3328  155.4321 H   0  0  0  0  0  0  0  0  0  0  0  0  # atno 8008 bound_to 7997
  156.2348  140.1867  156.7195 H   0  0  0  0  0  0  0  0  0  0  0  0  # atno 8009 bound_to 7997
  154.6041  140.0618  156.9393 H   0  0  0  0  0  0  0  0  0  0  0  0  # atno 8010 bound_to 7997
  139.5857  144.1323  152.1572 H   0  0  0  0  0  0  0  0  0  0  0  0  # atno 10167 bound_to 10162
  157.5643  130.8859  149.9161 H   0  0  0  0  0  0  0  0  0  0  0  0  # atno 10718 bound_to 10713
  153.0210  135.5266  154.7054 H   0  0  0  0  0  0  0  0  0  0  0  0  # atno 10763 bound_to 10752
  154.6151  135.2882  155.0391 H   0  0  0  0  0  0  0  0  0  0  0  0  # atno 10764 bound_to 10752
  154.1398  135.6580  153.4992 H   0  0  0  0  0  0  0  0  0  0  0  0  # atno 10765 bound_to 10752
  141.1226  133.8487  157.1246 H   0  0  0  0  0  0  0  0  0  0  0  0  # atno 11005 bound_to 11000
  145.1085  140.9390  143.4670 LP  0  0  0  0  0  0  0  0  0  0  0  0  # atno 17320 bound_to 7965
  145.0600  139.3113  143.5885 LP  0  0  0  0  0  0  0  0  0  0  0  0  # atno 17321 bound_to 7965
  140.0886  144.5640  150.7071 LP  0  0  0  0  0  0  0  0  0  0  0  0  # atno 17342 bound_to 10162
  140.7129  143.2520  151.4524 LP  0  0  0  0  0  0  0  0  0  0  0  0  # atno 17343 bound_to 10162
  156.0692  130.3687  150.0812 LP  0  0  0  0  0  0  0  0  0  0  0  0  # atno 17370 bound_to 10713
  156.8972  130.9608  151.3581 LP  0  0  0  0  0  0  0  0  0  0  0  0  # atno 17371 bound_to 10713
  140.0196  134.9952  157.0565 LP  0  0  0  0  0  0  0  0  0  0  0  0  # atno 17394 bound_to 11000
  140.4461  134.1630  155.7177 LP  0  0  0  0  0  0  0  0  0  0  0  0  # atno 17395 bound_to 11000

$$$$
