#       Name:                AV-unprocessed.smi:2195
#       Creating user name   scv26
#       Creation time:       Fri Mar 27 12:11:58 2020


#       File generated by GOLD software.
#

@<TRIPOS>MOLECULE
AV-unprocessed.smi:2195
    44    46     1
SMALL
NO_CHARGES


@<TRIPOS>ATOM
      1 ****        -6.9433   0.6673   0.2603 C.3            1 S1                 0.0000
      2 ****        -5.4487   0.4225   0.2401 C.ar           1 S1                 0.0000
      3 ****        -4.5473   1.5030   0.1672 C.ar           1 S1                 0.0000
      4 ****        -3.1598   1.2644   0.1508 C.ar           1 S1                 0.0000
      5 ****        -2.6513  -0.0492   0.2079 C.ar           1 S1                 0.0000
      6 ****        -1.2806  -0.1883   0.1890 O.3            1 S1                 0.0000
      7 ****        -0.7323  -1.4962   0.2969 C.3            1 S1                 0.0000
      8 ****         0.8033  -1.4238   0.2700 C.3            1 S1                 0.0000
      9 ****         1.2725  -0.9772   1.5270 O.3            1 S1                 0.0000
     10 ****         1.3622  -0.5620  -0.8790 C.3            1 S1                 0.0000
     11 ****         2.8124  -0.5951  -0.9380 N.pl3          1 S1                 0.0000
     12 ****         3.5768  -1.5443  -1.5114 C.2            1 S1                 0.0000
     13 ****         4.8956  -1.3826  -1.4534 N.2            1 S1                 0.0000
     14 ****         5.0000  -0.1873  -0.7630 C.ar           1 S1                 0.0000
     15 ****         6.1413   0.5465  -0.3679 C.ar           1 S1                 0.0000
     16 ****         6.0015   1.7580   0.3408 C.ar           1 S1                 0.0000
     17 ****         4.7217   2.2534   0.6652 C.ar           1 S1                 0.0000
     18 ****         3.5698   1.5398   0.2822 C.ar           1 S1                 0.0000
     19 ****         3.7135   0.3319  -0.4254 C.ar           1 S1                 0.0000
     20 ****        -3.5635  -1.1322   0.2790 C.ar           1 S1                 0.0000
     21 ****        -4.9518  -0.8944   0.2945 C.ar           1 S1                 0.0000
     22 ****        -7.1724   1.7334   0.2680 H              1 S1                 0.0000
     23 ****        -7.3874   0.2177   1.1487 H              1 S1                 0.0000
     24 ****        -7.4101   0.2241  -0.6196 H              1 S1                 0.0000
     25 ****        -4.9138   2.5182   0.1242 H              1 S1                 0.0000
     26 ****        -2.4770   2.0996   0.0962 H              1 S1                 0.0000
     27 ****        -1.0722  -1.9927   1.2075 H              1 S1                 0.0000
     28 ****        -1.0700  -2.0931  -0.5520 H              1 S1                 0.0000
     29 ****         1.1775  -2.4416   0.1529 H              1 S1                 0.0000
     30 ****         2.2174  -0.9766   1.5120 H              1 S1                 0.0000
     31 ****         0.9740  -0.9150  -1.8353 H              1 S1                 0.0000
     32 ****         1.0423   0.4756  -0.7772 H              1 S1                 0.0000
     33 ****         3.1392  -2.4041  -1.9975 H              1 S1                 0.0000
     34 ****         7.1264   0.1762  -0.6102 H              1 S1                 0.0000
     35 ****         6.8812   2.3098   0.6377 H              1 S1                 0.0000
     36 ****         4.6252   3.1818   1.2090 H              1 S1                 0.0000
     37 ****         2.5883   1.9156   0.5307 H              1 S1                 0.0000
     38 ****        -3.2239  -2.1557   0.3219 H              1 S1                 0.0000
     39 ****        -5.6362  -1.7284   0.3491 H              1 S1                 0.0000
     40 ****        -0.9184   0.3481   0.9514 LP             1 S1                 0.0000
     41 ****        -0.9560   0.1982  -0.6743 LP             1 S1                 0.0000
     42 ****         0.9471  -1.5913   2.2460 LP             1 S1                 0.0000
     43 ****         0.9375  -0.0515   1.7025 LP             1 S1                 0.0000
     44 ****         5.6206  -1.9696  -1.8135 LP             1 S1                 0.0000
@<TRIPOS>BOND
    1    1    2 1     
    2    1   22 1     
    3    1   23 1     
    4    1   24 1     
    5    2   21 ar    
    6    2    3 ar    
    7    3    4 ar    
    8    3   25 1     
    9    4    5 ar    
   10    4   26 1     
   11    5    6 1     
   12    5   20 ar    
   13    6    7 1     
   14    7    8 1     
   15    7   27 1     
   16    7   28 1     
   17    8    9 1     
   18    8   10 1     
   19    8   29 1     
   20    9   30 1     
   21   10   11 1     
   22   10   31 1     
   23   10   32 1     
   24   11   19 1     
   25   11   12 1     
   26   12   13 2     
   27   12   33 1     
   28   13   14 1     
   29   14   19 ar    
   30   14   15 ar    
   31   15   16 ar    
   32   15   34 1     
   33   16   17 ar    
   34   16   35 1     
   35   17   18 ar    
   36   17   36 1     
   37   18   19 ar    
   38   18   37 1     
   39   20   21 ar    
   40   20   38 1     
   41   21   39 1     
   42    6   40 1     
   43    6   41 1     
   44    9   42 1     
   45    9   43 1     
   46   13   44 1     
@<TRIPOS>SUBSTRUCTURE
      1 S1             1
@<TRIPOS>SET
LONE_PAIRS      STATIC     ATOMS    <user>   **** ""
5 40 41 42 43 44
DONOR_HYDROGENS      STATIC     ATOMS    <user>   **** ""
1 30
ATOM$BLUE        STATIC     ATOMS    COLORGROUP SYSTEM
5 40 41 42 43 44
ATOM$RED        STATIC     ATOMS    COLORGROUP SYSTEM
1 30
