AV-unprocessed.smi:2772|AV-procd|sdf|10671|dock5
  -GOLD-   2272015123D 1   1.00000     0.00000
 Structure written by MMmdl.
 54 56  0  0  0  0  0  0  0  0  2 V2000
  153.6173  142.1357  162.1753 C   0  0  0  0  0  0  0  0  0  0  0  0
  153.0201  141.8001  160.8249 C   0  0  0  0  0  0  0  0  0  0  0  0
  152.1491  142.6984  160.1749 C   0  0  0  0  0  0  0  0  0  0  0  0
  151.6268  142.3390  158.9177 C   0  0  0  0  0  0  0  0  0  0  0  0
  151.9985  141.0952  158.3526 C   0  0  0  0  0  0  0  0  0  0  0  0
  151.5212  140.6109  157.1048 N   0  0  0  0  0  0  0  0  0  0  0  0
  150.2849  140.7138  156.5874 C   0  0  0  0  0  0  0  0  0  0  0  0
  149.3422  141.3056  157.1121 O   0  0  0  0  0  0  0  0  0  0  0  0
  150.2066  140.1004  155.3975 N   0  0  0  0  0  0  0  0  0  0  0  0
  149.0165  140.0234  154.5537 C   0  0  2  0  0  0  0  0  0  0  0  0
  148.5828  141.4390  154.1309 C   0  0  0  0  0  0  0  0  0  0  0  0
  147.2348  141.4075  153.3855 C   0  0  0  0  0  0  0  0  0  0  0  0
  146.1645  140.7708  154.2051 N   0  3  2  0  0  0  0  0  0  0  0  0
  145.6847  141.5791  155.3775 C   0  0  0  0  0  0  0  0  0  0  0  0
  144.3296  141.0671  155.9223 C   0  0  0  0  0  0  0  0  0  0  0  0
  143.7715  141.9660  157.0383 C   0  0  0  0  0  0  0  0  0  0  0  0
  143.5994  143.3295  156.5459 N   0  0  0  0  0  0  0  0  0  0  0  0
  143.0038  144.1477  157.5930 C   0  0  0  0  0  0  0  0  0  0  0  0
  144.9013  143.8822  156.1842 C   0  0  0  0  0  0  0  0  0  0  0  0
  145.5143  143.0768  155.0263 C   0  0  0  0  0  0  0  0  0  0  0  0
  146.5600  139.3677  154.5185 C   0  0  0  0  0  0  0  0  0  0  0  0
  147.8814  139.3070  155.3091 C   0  0  0  0  0  0  0  0  0  0  0  0
  152.8641  140.2670  159.0981 C   0  0  0  0  0  0  0  0  0  0  0  0
  153.3715  140.6053  160.3027 N   0  0  0  0  0  0  0  0  0  0  0  0
  153.2902  143.1175  162.5193 H   0  0  0  0  0  0  0  0  0  0  0  0
  154.7062  142.1418  162.1171 H   0  0  0  0  0  0  0  0  0  0  0  0
  153.3155  141.3972  162.9184 H   0  0  0  0  0  0  0  0  0  0  0  0
  151.8817  143.6420  160.6275 H   0  0  0  0  0  0  0  0  0  0  0  0
  150.9451  143.0139  158.4237 H   0  0  0  0  0  0  0  0  0  0  0  0
  152.2165  140.1753  156.5165 H   0  0  0  0  0  0  0  0  0  0  0  0
  151.0387  139.6480  155.0479 H   0  0  0  0  0  0  0  0  0  0  0  0
  149.2266  139.4550  153.6457 H   0  0  0  0  0  0  0  0  0  0  0  0
  148.5100  142.0895  155.0030 H   0  0  0  0  0  0  0  0  0  0  0  0
  149.3454  141.8801  153.4878 H   0  0  0  0  0  0  0  0  0  0  0  0
  146.9543  142.4010  153.0422 H   0  0  0  0  0  0  0  0  0  0  0  0
  147.3521  140.8249  152.4704 H   0  0  0  0  0  0  0  0  0  0  0  0
  146.4167  141.5078  156.1821 H   0  0  0  0  0  0  0  0  0  0  0  0
  143.6028  140.9986  155.1113 H   0  0  0  0  0  0  0  0  0  0  0  0
  144.4305  140.0667  156.3402 H   0  0  0  0  0  0  0  0  0  0  0  0
  142.8084  141.5753  157.3699 H   0  0  0  0  0  0  0  0  0  0  0  0
  144.4364  141.9555  157.9036 H   0  0  0  0  0  0  0  0  0  0  0  0
  142.8602  145.1708  157.2440 H   0  0  0  0  0  0  0  0  0  0  0  0
  143.6324  144.1756  158.4844 H   0  0  0  0  0  0  0  0  0  0  0  0
  142.0265  143.7554  157.8760 H   0  0  0  0  0  0  0  0  0  0  0  0
  144.7822  144.9225  155.8783 H   0  0  0  0  0  0  0  0  0  0  0  0
  145.5695  143.8765  157.0471 H   0  0  0  0  0  0  0  0  0  0  0  0
  146.4752  143.5341  154.7951 H   0  0  0  0  0  0  0  0  0  0  0  0
  144.8909  143.1840  154.1373 H   0  0  0  0  0  0  0  0  0  0  0  0
  145.7718  138.8235  155.0344 H   0  0  0  0  0  0  0  0  0  0  0  0
  146.6894  138.8343  153.5755 H   0  0  0  0  0  0  0  0  0  0  0  0
  148.1555  138.2656  155.4823 H   0  0  0  0  0  0  0  0  0  0  0  0
  147.7445  139.7504  156.2959 H   0  0  0  0  0  0  0  0  0  0  0  0
  153.1644  139.3025  158.7151 H   0  0  0  0  0  0  0  0  0  0  0  0
  145.3617  140.6988  153.5958 H   0  0  0  0  0  0  0  0  0  0  0  0
  1  2  1  0  0  0  0
  1 25  1  0  0  0  0
  1 26  1  0  0  0  0
  1 27  1  0  0  0  0
  2 24  1  0  0  0  0
  2  3  2  0  0  0  0
  3  4  1  0  0  0  0
  3 28  1  0  0  0  0
  4  5  2  0  0  0  0
  4 29  1  0  0  0  0
  5  6  1  0  0  0  0
  5 23  1  0  0  0  0
  6  7  1  0  0  0  0
  6 30  1  0  0  0  0
  7  8  2  0  0  0  0
  7  9  1  0  0  0  0
  9 10  1  0  0  0  0
  9 31  1  0  0  0  0
 10 22  1  0  0  0  0
 10 11  1  0  0  0  0
 10 32  1  0  0  0  0
 11 12  1  0  0  0  0
 11 33  1  0  0  0  0
 11 34  1  0  0  0  0
 12 13  1  0  0  0  0
 12 35  1  0  0  0  0
 12 36  1  0  0  0  0
 13 14  1  0  0  0  0
 13 21  1  0  0  0  0
 13 54  1  0  0  0  0
 14 20  1  0  0  0  0
 14 15  1  0  0  0  0
 14 37  1  0  0  0  0
 15 16  1  0  0  0  0
 15 38  1  0  0  0  0
 15 39  1  0  0  0  0
 16 17  1  0  0  0  0
 16 40  1  0  0  0  0
 16 41  1  0  0  0  0
 17 18  1  0  0  0  0
 17 19  1  0  0  0  0
 18 42  1  0  0  0  0
 18 43  1  0  0  0  0
 18 44  1  0  0  0  0
 19 20  1  0  0  0  0
 19 45  1  0  0  0  0
 19 46  1  0  0  0  0
 20 47  1  0  0  0  0
 20 48  1  0  0  0  0
 21 22  1  0  0  0  0
 21 49  1  0  0  0  0
 21 50  1  0  0  0  0
 22 51  1  0  0  0  0
 22 52  1  0  0  0  0
 23 24  2  0  0  0  0
 23 53  1  0  0  0  0
M  CHG  1  13   1
M  END
> <s_m_source_file>
AV-unprocessed.smi

> <i_m_source_file_index>
2772

> <i_lp_mmshare_version>
43012

> <i_f3d_flags>
0

> <s_epik_input>
W0NIM11jMVtjSF1bY0hdYyhbY0hdbjEpW05IXUMoPU8pW05IXVtDSF0yW0NIMl1bQ0gyXU4oW0NIMl1bQ0gyXTIpW0NIXTNbQ0gyXVtDSDJdTihbQ0gzXSlbQ0gyXVtDSDJdMw==

> <s_epik_cmdline>
J2VwaWtfcHl0aG9uJywgJy1waCcsICc3LjAnLCAnLXRuJywgJzgnLCAnLW1hJywgJzIwMCcsICctbWV0YWxfYmluZGluZycsICctaW1hZScsICc8aW5maWxlLm1hZT4nLCAnLW9tYWUnLCAnPG91dGZpbGUubWFlPic=

> <r_epik_Ionization_Penalty>
1.38854

> <r_epik_Ionization_Penalty_Charging>
0.00081195

> <r_epik_Ionization_Penalty_Neutral>
1.38772

> <r_epik_State_Penalty>
1.56122

> <r_epik_Charging_Adjusted_Penalty>
1.56203

> <i_epik_Tot_Q>
1

> <i_epik_Tot_abs_Q>
1

> <r_epik_Metal_State_Penalty>
1.5614

> <b_epik_Metal_Only>
0

> <s_lp_Force_Field>
OPLS_2005

> <r_lp_Energy>
35.2305

> <b_lp_Chiralities_Consistent>
1

> <s_lp_Variant>
AV-unprocessed.smi:2772-8

> <Gold.Version>
5.8.1

> <Gold.Id.Protein>
6NUR|6NUR_protein|mol2

> <Gold.PLP.Fitness>
40.3905

> <Gold.PLP.PLP>
-35.3382

> <Gold.PLP.part.hbond>
-0.9814

> <Gold.PLP.part.metal>
0.0000

> <Gold.PLP.part.buried>
-6.0012

> <Gold.PLP.part.nonpolar>
-27.4277

> <Gold.PLP.part.repulsive>
0.2944

> <Gold.PLP.ligand.clash>
0.0000

> <Gold.PLP.ligand.torsion>
0.4953

> <Gold.PLP.Chemscore.Hbond>
2.0000

> <Gold.PLP.Chemscore.CHOScore>
0.0000

> <Gold.PLP.Chemscore.Metal>
0.0000

> <Gold.Chemscore.Hbonds>
donor molecule, donor type, donor heavy atom, donor atom, acceptor molecule, acceptor atom, score
      L1  H    13    54       P1 10175  2.00

> <Gold.PLP.Chemscore.Internal.Correction>
0.0430

> <Gold.Rescore>
     Score         DG    S(hbond)    S(metal)    S(lipo)     H(rot)  DE(clash)    DE(int)     intcor
     14.69     -16.53       0.99        0.00      92.37       1.19       0.07       1.77       ----

> <Gold.Chemscore.Fitness>
14.6907

> <Gold.Chemscore.DG>
-16.5312

> <Gold.Chemscore.ZeroCoef>
-5.4800

> <Gold.Chemscore.Hbond>
0.9857

> <Gold.Chemscore.Metal>
0.0000

> <Gold.Chemscore.Lipo>
92.3744

> <Gold.Chemscore.Internal_Hbond>
0.0000

> <Gold.Chemscore.DEClash>
0.0737

> <Gold.Chemscore.DEInternal>
1.7668

> <Gold.Chemscore.Rot>
1.1910

> <Gold.Chemscore.Internal.Correction>
   9.000000E+99

> <Gold.Chemscore.Hbonds>
donor molecule, donor type, donor heavy atom, donor atom, acceptor molecule, acceptor atom, score
      L1  H    13    54       P1 10175  0.87

> <Gold.Chemscore.Hbond.Weighted>
-3.2923

> <Gold.Chemscore.Metal.Weighted>
-0.0000

> <Gold.Chemscore.Lipo.Weighted>
-10.8078

> <Gold.Chemscore.Internal_Hbond.Weighted>
0.0000

> <Gold.Chemscore.DEClash.Weighted>
0.0737

> <Gold.Chemscore.DEInternal.Weighted>
1.7668

> <Gold.Chemscore.Rot.Weighted>
3.0489

> <Gold.Chemscore.Internal.Correction.Weighted>
   9.000000E+99

> <Gold.Protein.RotatedTorsions>
[ 6907 6896 6895 6894 ] final  -19.60 input  -60.11 | X-H torsion
[ 7974 7965 7964 7962 ] final   58.31 input  175.53 | X-H torsion
[ 8008 7997 7996 7995 ] final  104.31 input   59.86 | X-H torsion
[ 10167 10162 10161 10158 ] final  -85.47 input  -65.29 | X-H torsion
[ 10718 10713 10712 10709 ] final  -67.03 input   66.30 | X-H torsion
[ 10763 10752 10751 10750 ] final  125.16 input  -60.55 | X-H torsion
[ 11005 11000 10999 10996 ] final -107.42 input  -57.11 | X-H torsion

> <Gold.Protein.ActiveResidues>
 VAL166  LYS551  ARG553  GLY616  TRP617  ASP618  TYR619  PRO620  LYS621  CYS622 
 ASP623  PHE694  ASN695  SER759  ASP760  ASP761  ALA762  ILE779  LEU786  VAL792 
 PHE793  MET794  SER795  GLU796  ALA797  LYS798  CYS799  TRP800  GLU811  SER814 

> <Gold.Protein.RotatedAtoms>
  151.2607  135.0653  159.9096 H   0  0  0  0  0  0  0  0  0  0  0  0  # atno 6907 bound_to 6896
  152.5366  134.0234  159.8002 H   0  0  0  0  0  0  0  0  0  0  0  0  # atno 6908 bound_to 6896
  151.0457  133.5618  159.2678 H   0  0  0  0  0  0  0  0  0  0  0  0  # atno 6909 bound_to 6896
  145.9196  139.3719  143.0486 H   0  0  0  0  0  0  0  0  0  0  0  0  # atno 7974 bound_to 7965
  156.1561  140.3150  155.8729 H   0  0  0  0  0  0  0  0  0  0  0  0  # atno 8008 bound_to 7997
  155.3875  140.0491  157.3059 H   0  0  0  0  0  0  0  0  0  0  0  0  # atno 8009 bound_to 7997
  154.5103  140.2162  155.9181 H   0  0  0  0  0  0  0  0  0  0  0  0  # atno 8010 bound_to 7997
  140.4035  143.2653  151.9112 H   0  0  0  0  0  0  0  0  0  0  0  0  # atno 10167 bound_to 10162
  156.0580  130.4271  150.1795 H   0  0  0  0  0  0  0  0  0  0  0  0  # atno 10718 bound_to 10713
  153.6729  135.3327  155.3158 H   0  0  0  0  0  0  0  0  0  0  0  0  # atno 10763 bound_to 10752
  154.8486  135.4390  154.1686 H   0  0  0  0  0  0  0  0  0  0  0  0  # atno 10764 bound_to 10752
  153.2682  135.6998  153.7584 H   0  0  0  0  0  0  0  0  0  0  0  0  # atno 10765 bound_to 10752
  141.0955  133.8979  157.1974 H   0  0  0  0  0  0  0  0  0  0  0  0  # atno 11005 bound_to 11000
  145.8567  140.9498  143.0721 LP  0  0  0  0  0  0  0  0  0  0  0  0  # atno 17320 bound_to 7965
  144.6751  140.0477  143.7479 LP  0  0  0  0  0  0  0  0  0  0  0  0  # atno 17321 bound_to 7965
  139.4784  144.5610  151.8239 LP  0  0  0  0  0  0  0  0  0  0  0  0  # atno 17342 bound_to 10162
  140.4715  144.1580  150.5918 LP  0  0  0  0  0  0  0  0  0  0  0  0  # atno 17343 bound_to 10162
  156.9868  130.9881  151.3424 LP  0  0  0  0  0  0  0  0  0  0  0  0  # atno 17370 bound_to 10713
  157.5565  130.8217  149.8211 LP  0  0  0  0  0  0  0  0  0  0  0  0  # atno 17371 bound_to 10713
  139.9790  135.0104  156.9704 LP  0  0  0  0  0  0  0  0  0  0  0  0  # atno 17394 bound_to 11000
  140.5151  134.0963  155.7279 LP  0  0  0  0  0  0  0  0  0  0  0  0  # atno 17395 bound_to 11000

$$$$
