AV-unprocessed.smi:1644|AV-procd|sdf|6585|dock10
  -GOLD-   22720 7273D 1   1.00000     0.00000
 Structure written by MMmdl.
 49 51  0  0  0  0  0  0  0  0  1 V2000
  146.9748  141.2838  154.2733 C   0  0  0  0  0  0  0  0  0  0  0  0
  147.7270  140.7166  153.0644 C   0  0  0  0  0  0  0  0  0  0  0  0
  148.0186  139.2128  153.2069 C   0  0  0  0  0  0  0  0  0  0  0  0
  148.8059  138.8355  154.4802 C   0  0  1  0  0  0  0  0  0  0  0  0
  149.1219  137.4212  154.5032 N   0  0  0  0  0  0  0  0  0  0  0  0
  150.4391  137.1837  154.5373 C   0  0  0  0  0  0  0  0  0  0  0  0
  150.9581  136.0686  154.5399 O   0  0  0  0  0  0  0  0  0  0  0  0
  151.0810  138.3645  154.5611 N   0  0  0  0  0  0  0  0  0  0  0  0
  152.5394  138.5135  154.5661 C   0  0  0  0  0  0  0  0  0  0  0  0
  153.1026  138.5159  156.0024 C   0  0  2  0  0  0  0  0  0  0  0  0
  153.6160  137.2300  156.2927 O   0  0  0  0  0  0  0  0  0  0  0  0
  152.0200  138.8499  157.0456 C   0  0  0  0  0  0  0  0  0  0  0  0
  152.5773  139.4768  158.2300 N   0  0  0  0  0  0  0  0  0  0  0  0
  153.4458  138.9398  159.1083 C   0  0  0  0  0  0  0  0  0  0  0  0
  153.8284  139.7026  160.1289 N   0  0  0  0  0  0  0  0  0  0  0  0
  153.1265  140.8706  159.8825 C   0  0  0  0  0  0  0  0  0  0  0  0
  153.0898  142.0875  160.5980 C   0  0  0  0  0  0  0  0  0  0  0  0
  152.2894  143.1648  160.1551 C   0  0  0  0  0  0  0  0  0  0  0  0
  152.2802  144.4554  160.9551 C   0  0  0  0  0  0  0  0  0  0  0  0
  151.5082  143.0338  158.9787 C   0  0  0  0  0  0  0  0  0  0  0  0
  150.6411  144.1776  158.4833 C   0  0  0  0  0  0  0  0  0  0  0  0
  151.5329  141.8249  158.2524 C   0  0  0  0  0  0  0  0  0  0  0  0
  152.3336  140.7607  158.7033 C   0  0  0  0  0  0  0  0  0  0  0  0
  150.2206  139.3907  154.5255 C   0  0  0  0  0  0  0  0  0  0  0  0
  150.4981  140.5899  154.5247 O   0  0  0  0  0  0  0  0  0  0  0  0
  146.7889  142.3509  154.1488 H   0  0  0  0  0  0  0  0  0  0  0  0
  147.5463  141.1506  155.1922 H   0  0  0  0  0  0  0  0  0  0  0  0
  146.0103  140.7916  154.4029 H   0  0  0  0  0  0  0  0  0  0  0  0
  147.1373  140.9061  152.1680 H   0  0  0  0  0  0  0  0  0  0  0  0
  148.6645  141.2593  152.9377 H   0  0  0  0  0  0  0  0  0  0  0  0
  147.0708  138.6724  153.2085 H   0  0  0  0  0  0  0  0  0  0  0  0
  148.5574  138.8664  152.3232 H   0  0  0  0  0  0  0  0  0  0  0  0
  148.2605  139.1051  155.3855 H   0  0  0  0  0  0  0  0  0  0  0  0
  148.4140  136.7015  154.4792 H   0  0  0  0  0  0  0  0  0  0  0  0
  152.9621  137.6762  154.0080 H   0  0  0  0  0  0  0  0  0  0  0  0
  152.8528  139.4048  154.0187 H   0  0  0  0  0  0  0  0  0  0  0  0
  153.9108  139.2434  156.0898 H   0  0  0  0  0  0  0  0  0  0  0  0
  153.1409  136.8749  157.0285 H   0  0  0  0  0  0  0  0  0  0  0  0
  151.2863  139.5359  156.6204 H   0  0  0  0  0  0  0  0  0  0  0  0
  151.4750  137.9517  157.3405 H   0  0  0  0  0  0  0  0  0  0  0  0
  153.8207  137.9337  158.9897 H   0  0  0  0  0  0  0  0  0  0  0  0
  153.6849  142.1871  161.4939 H   0  0  0  0  0  0  0  0  0  0  0  0
  151.2792  144.6615  161.3345 H   0  0  0  0  0  0  0  0  0  0  0  0
  152.5946  145.2938  160.3331 H   0  0  0  0  0  0  0  0  0  0  0  0
  152.9568  144.4006  161.8082 H   0  0  0  0  0  0  0  0  0  0  0  0
  150.0974  143.9019  157.5793 H   0  0  0  0  0  0  0  0  0  0  0  0
  151.2539  145.0491  158.2525 H   0  0  0  0  0  0  0  0  0  0  0  0
  149.9098  144.4590  159.2411 H   0  0  0  0  0  0  0  0  0  0  0  0
  150.9445  141.7106  157.3537 H   0  0  0  0  0  0  0  0  0  0  0  0
  1  2  1  0  0  0  0
  1 26  1  0  0  0  0
  1 27  1  0  0  0  0
  1 28  1  0  0  0  0
  2  3  1  0  0  0  0
  2 29  1  0  0  0  0
  2 30  1  0  0  0  0
  3  4  1  0  0  0  0
  3 31  1  0  0  0  0
  3 32  1  0  0  0  0
  4 24  1  0  0  0  0
  4  5  1  0  0  0  0
  4 33  1  0  0  0  0
  5  6  1  0  0  0  0
  5 34  1  0  0  0  0
  6  7  2  0  0  0  0
  6  8  1  0  0  0  0
  8  9  1  0  0  0  0
  8 24  1  0  0  0  0
  9 10  1  0  0  0  0
  9 35  1  0  0  0  0
  9 36  1  0  0  0  0
 10 11  1  0  0  0  0
 10 12  1  0  0  0  0
 10 37  1  0  0  0  0
 11 38  1  0  0  0  0
 12 13  1  0  0  0  0
 12 39  1  0  0  0  0
 12 40  1  0  0  0  0
 13 23  1  0  0  0  0
 13 14  1  0  0  0  0
 14 15  2  0  0  0  0
 14 41  1  0  0  0  0
 15 16  1  0  0  0  0
 16 23  2  0  0  0  0
 16 17  1  0  0  0  0
 17 18  2  0  0  0  0
 17 42  1  0  0  0  0
 18 19  1  0  0  0  0
 18 20  1  0  0  0  0
 19 43  1  0  0  0  0
 19 44  1  0  0  0  0
 19 45  1  0  0  0  0
 20 21  1  0  0  0  0
 20 22  2  0  0  0  0
 21 46  1  0  0  0  0
 21 47  1  0  0  0  0
 21 48  1  0  0  0  0
 22 23  1  0  0  0  0
 22 49  1  0  0  0  0
 24 25  2  0  0  0  0
M  END
> <s_m_source_file>
AV-unprocessed.smi

> <i_m_source_file_index>
1644

> <i_lp_mmshare_version>
43012

> <i_f3d_flags>
0

> <s_epik_input>
W0NIM11bQ0gyXVtDSDJdW0NAQEhdMVtOSF1DKD1PKU4oQzE9TylbQ0gyXVtDQEhdKFtPSF0pW0NIMl1uKFtjSF1uMiljKGMyMylbY0hdYyhbQ0gzXSljKFtjSF0zKVtDSDNd

> <s_epik_cmdline>
J2VwaWtfcHl0aG9uJywgJy1waCcsICc3LjAnLCAnLXRuJywgJzgnLCAnLW1hJywgJzIwMCcsICctbWV0YWxfYmluZGluZycsICctaW1hZScsICc8aW5maWxlLm1hZT4nLCAnLW9tYWUnLCAnPG91dGZpbGUubWFlPic=

> <r_lp_tautomer_probability>
1

> <r_epik_Ionization_Penalty>
0.10693

> <r_epik_Ionization_Penalty_Charging>
0

> <r_epik_Ionization_Penalty_Neutral>
0.10693

> <r_epik_State_Penalty>
0.096713

> <r_epik_Charging_Adjusted_Penalty>
0.096713

> <i_epik_Tot_Q>
0

> <i_epik_Tot_abs_Q>
0

> <r_epik_Metal_State_Penalty>
0.102757

> <b_epik_Metal_Only>
0

> <s_lp_Force_Field>
OPLS_2005

> <r_lp_Energy>
21.5813

> <b_lp_Chiralities_Consistent>
1

> <s_lp_Variant>
AV-unprocessed.smi:1644-2

> <Gold.Version>
5.8.1

> <Gold.Id.Protein>
6NUR|6NUR_protein|mol2

> <Gold.PLP.Fitness>
51.5671

> <Gold.PLP.PLP>
-47.6776

> <Gold.PLP.part.hbond>
-4.0000

> <Gold.PLP.part.metal>
0.0000

> <Gold.PLP.part.buried>
-3.4873

> <Gold.PLP.part.nonpolar>
-40.9776

> <Gold.PLP.part.repulsive>
0.2744

> <Gold.PLP.ligand.clash>
0.0000

> <Gold.PLP.ligand.torsion>
1.2919

> <Gold.PLP.Chemscore.Hbond>
2.1312

> <Gold.PLP.Chemscore.CHOScore>
0.0000

> <Gold.PLP.Chemscore.Metal>
0.0000

> <Gold.Chemscore.Hbonds>
donor molecule, donor type, donor heavy atom, donor atom, acceptor molecule, acceptor atom, score
      P1  H  7989  7998       L1    25  0.94
      P1  H 10752 10763       L1     7  0.98
      P1  H 10752 10764       L1    11  0.16

> <Gold.PLP.Chemscore.Internal.Correction>
0.0796

> <Gold.Rescore>
     Score         DG    S(hbond)    S(metal)    S(lipo)     H(rot)  DE(clash)    DE(int)     intcor
     17.26     -18.86       1.94        0.00     118.43       2.72       0.26       1.34       ----

> <Gold.Chemscore.Fitness>
17.2579

> <Gold.Chemscore.DG>
-18.8568

> <Gold.Chemscore.ZeroCoef>
-5.4800

> <Gold.Chemscore.Hbond>
1.9420

> <Gold.Chemscore.Metal>
0.0000

> <Gold.Chemscore.Lipo>
118.4332

> <Gold.Chemscore.Internal_Hbond>
0.0000

> <Gold.Chemscore.DEClash>
0.2557

> <Gold.Chemscore.DEInternal>
1.3431

> <Gold.Chemscore.Rot>
2.7212

> <Gold.Chemscore.Internal.Correction>
   9.000000E+99

> <Gold.Chemscore.Hbonds>
donor molecule, donor type, donor heavy atom, donor atom, acceptor molecule, acceptor atom, score
      P1  H  7989  7998       L1    25  0.68
      P1  H 10752 10763       L1     7  0.92
      P1  H 10752 10764       L1    11  0.04

> <Gold.Chemscore.Hbond.Weighted>
-6.4863

> <Gold.Chemscore.Metal.Weighted>
-0.0000

> <Gold.Chemscore.Lipo.Weighted>
-13.8567

> <Gold.Chemscore.Internal_Hbond.Weighted>
0.0000

> <Gold.Chemscore.DEClash.Weighted>
0.2557

> <Gold.Chemscore.DEInternal.Weighted>
1.3431

> <Gold.Chemscore.Rot.Weighted>
6.9663

> <Gold.Chemscore.Internal.Correction.Weighted>
   9.000000E+99

> <Gold.Protein.RotatedTorsions>
[ 6907 6896 6895 6894 ] final    9.90 input  -60.11 | X-H torsion
[ 7974 7965 7964 7962 ] final  -40.98 input  175.53 | X-H torsion
[ 8008 7997 7996 7995 ] final   -5.19 input   59.86 | X-H torsion
[ 10167 10162 10161 10158 ] final   72.36 input  -65.29 | X-H torsion
[ 10718 10713 10712 10709 ] final   99.72 input   66.30 | X-H torsion
[ 10763 10752 10751 10750 ] final   39.13 input  -60.55 | X-H torsion
[ 11005 11000 10999 10996 ] final -141.71 input  -57.11 | X-H torsion

> <Gold.Protein.ActiveResidues>
 VAL166  LYS551  ARG553  GLY616  TRP617  ASP618  TYR619  PRO620  LYS621  CYS622 
 ASP623  PHE694  ASN695  SER759  ASP760  ASP761  ALA762  ILE779  LEU786  VAL792 
 PHE793  MET794  SER795  GLU796  ALA797  LYS798  CYS799  TRP800  GLU811  SER814 

> <Gold.Protein.RotatedAtoms>
  151.7296  135.0877  160.0297 H   0  0  0  0  0  0  0  0  0  0  0  0  # atno 6907 bound_to 6896
  152.3549  133.6221  159.5981 H   0  0  0  0  0  0  0  0  0  0  0  0  # atno 6908 bound_to 6896
  150.7565  133.9431  159.3504 H   0  0  0  0  0  0  0  0  0  0  0  0  # atno 6909 bound_to 6896
  146.0254  140.6798  142.9158 H   0  0  0  0  0  0  0  0  0  0  0  0  # atno 7974 bound_to 7965
  154.6064  140.2465  155.7725 H   0  0  0  0  0  0  0  0  0  0  0  0  # atno 8008 bound_to 7997
  156.2344  140.2955  156.0224 H   0  0  0  0  0  0  0  0  0  0  0  0  # atno 8009 bound_to 7997
  155.2124  140.0397  157.2926 H   0  0  0  0  0  0  0  0  0  0  0  0  # atno 8010 bound_to 7997
  140.0362  144.5426  150.7469 H   0  0  0  0  0  0  0  0  0  0  0  0  # atno 10167 bound_to 10162
  157.6870  131.0678  150.4991 H   0  0  0  0  0  0  0  0  0  0  0  0  # atno 10718 bound_to 10713
  152.9977  135.6229  154.2416 H   0  0  0  0  0  0  0  0  0  0  0  0  # atno 10763 bound_to 10752
  154.2157  135.2798  155.2944 H   0  0  0  0  0  0  0  0  0  0  0  0  # atno 10764 bound_to 10752
  154.5570  135.5716  153.7032 H   0  0  0  0  0  0  0  0  0  0  0  0  # atno 10765 bound_to 10752
  140.8297  134.2532  157.4862 H   0  0  0  0  0  0  0  0  0  0  0  0  # atno 11005 bound_to 11000
  144.7007  140.3641  143.7158 LP  0  0  0  0  0  0  0  0  0  0  0  0  # atno 17320 bound_to 7965
  145.7126  139.1688  143.2530 LP  0  0  0  0  0  0  0  0  0  0  0  0  # atno 17321 bound_to 7965
  140.7280  143.2658  151.4051 LP  0  0  0  0  0  0  0  0  0  0  0  0  # atno 17342 bound_to 10162
  139.6044  144.1229  152.2233 LP  0  0  0  0  0  0  0  0  0  0  0  0  # atno 17343 bound_to 10162
  156.5314  130.4185  149.6200 LP  0  0  0  0  0  0  0  0  0  0  0  0  # atno 17370 bound_to 10713
  156.3066  130.7206  151.2090 LP  0  0  0  0  0  0  0  0  0  0  0  0  # atno 17371 bound_to 10713
  139.8705  134.9579  156.4285 LP  0  0  0  0  0  0  0  0  0  0  0  0  # atno 17394 bound_to 11000
  140.9011  133.7779  155.9681 LP  0  0  0  0  0  0  0  0  0  0  0  0  # atno 17395 bound_to 11000

$$$$
