#       Name:                AV-unprocessed.smi:3071
#       Creating user name   scv26
#       Creation time:       Fri Mar 27 17:11:51 2020


#       File generated by GOLD software.
#

@<TRIPOS>MOLECULE
AV-unprocessed.smi:3071
    29    30     1
SMALL
NO_CHARGES


@<TRIPOS>ATOM
      1 ****        -1.4116   2.5625   0.9124 C.3            1 S1                 0.0000
      2 ****        -1.8752   1.1456   1.0232 C.2            1 S1                 0.0000
      3 ****        -3.1520   0.7467   1.0569 N.pl3          1 S1                 1.0000
      4 ****        -3.2237  -0.6148   1.1710 C.2            1 S1                 0.0000
      5 ****        -1.9313  -1.0684   1.2080 C.2            1 S1                 0.0000
      6 ****        -1.1219   0.0357   1.1117 N.pl3          1 S1                 0.0000
      7 ****         0.3482   0.0416   1.1087 C.3            1 S1                 0.0000
      8 ****         0.9452   0.0315  -0.3116 C.3            1 S1                 0.0000
      9 ****         0.4892  -1.1304  -1.1998 C.3            1 S1                 0.0000
     10 ****         1.6084  -1.2259  -2.2295 C.3            1 S1                 0.0000
     11 ****         2.8638  -0.8868  -1.4220 C.3            1 S1                 0.0000
     12 ****         2.4202  -0.0456  -0.2913 N.4            1 S1                 1.0000
     13 ****        -2.2803   3.2134   0.8072 H              1 S1                 0.0000
     14 ****        -0.7705   2.6579   0.0367 H              1 S1                 0.0000
     15 ****        -0.8605   2.8228   1.8163 H              1 S1                 0.0000
     16 ****        -4.1643  -1.1444   1.2171 H              1 S1                 0.0000
     17 ****        -1.5389  -2.0718   1.2917 H              1 S1                 0.0000
     18 ****         0.6936   0.9104   1.6702 H              1 S1                 0.0000
     19 ****         0.6788  -0.8377   1.6637 H              1 S1                 0.0000
     20 ****         0.6903   0.9628  -0.8190 H              1 S1                 0.0000
     21 ****         0.4402  -2.0557  -0.6236 H              1 S1                 0.0000
     22 ****        -0.4885  -0.9618  -1.6524 H              1 S1                 0.0000
     23 ****         1.6640  -2.2040  -2.7084 H              1 S1                 0.0000
     24 ****         1.4557  -0.4786  -3.0097 H              1 S1                 0.0000
     25 ****         3.3129  -1.7952  -1.0188 H              1 S1                 0.0000
     26 ****         3.6168  -0.3782  -2.0247 H              1 S1                 0.0000
     27 ****         2.8165   0.8812  -0.3607 H              1 S1                 0.0000
     28 ****         2.7254  -0.4799   0.5684 H              1 S1                 0.0000
     29 ****        -3.9506   1.3672   1.0077 H              1 S1                 0.0000
@<TRIPOS>BOND
    1    1    2 1     
    2    1   13 1     
    3    1   14 1     
    4    1   15 1     
    5    2    6 1     
    6    2    3 2     
    7    3    4 1     
    8    3   29 1     
    9    4    5 2     
   10    4   16 1     
   11    5    6 1     
   12    5   17 1     
   13    6    7 1     
   14    7    8 1     
   15    7   18 1     
   16    7   19 1     
   17    8   12 1     
   18    8    9 1     
   19    8   20 1     
   20    9   10 1     
   21    9   21 1     
   22    9   22 1     
   23   10   11 1     
   24   10   23 1     
   25   10   24 1     
   26   11   12 1     
   27   11   25 1     
   28   11   26 1     
   29   12   27 1     
   30   12   28 1     
@<TRIPOS>SUBSTRUCTURE
      1 S1             1
@<TRIPOS>SET
DONOR_HYDROGENS      STATIC     ATOMS    <user>   **** ""
3 29 27 28
ATOM$RED        STATIC     ATOMS    COLORGROUP SYSTEM
3 29 27 28
