AV-unprocessed.smi:2934|AV-procd|sdf|11254|dock8
  -GOLD-   2272016143D 1   1.00000     0.00000
 Structure written by MMmdl.
 43 44  0  0  0  0  0  0  0  0  1 V2000
  153.5136  142.7383  162.7206 C   0  0  0  0  0  0  0  0  0  0  0  0
  153.3175  142.2729  161.3432 N   0  0  0  0  0  0  0  0  0  0  0  0
  153.7679  141.0319  161.0134 C   0  0  0  0  0  0  0  0  0  0  0  0
  154.4359  140.3350  161.7801 O   0  0  0  0  0  0  0  0  0  0  0  0
  153.4013  140.5941  159.7943 N   0  0  0  0  0  0  0  0  0  0  0  0
  153.7243  139.2888  159.2305 C   0  0  0  0  0  0  0  0  0  0  0  0
  152.8032  138.1880  159.7920 C   0  0  0  0  0  0  0  0  0  0  0  0
  153.5570  137.1286  160.6015 C   0  0  0  0  0  0  0  0  0  0  0  0
  153.8922  136.0626  160.0843 O   0  0  0  0  0  0  0  0  0  0  0  0
  153.8156  137.4384  161.8813 N   0  0  0  0  0  0  0  0  0  0  0  0
  154.5021  136.5718  162.8361 C   0  0  0  0  0  0  0  0  0  0  0  0
  154.2698  137.0380  164.2873 C   0  0  0  0  0  0  0  0  0  0  0  0
  155.5895  137.6593  164.7438 C   0  0  0  0  0  0  0  0  0  0  0  0
  156.6519  136.8698  163.9860 C   0  0  0  0  0  0  0  0  0  0  0  0
  156.0268  136.6111  162.6135 C   0  0  0  0  0  0  0  0  0  0  0  0
  152.6914  143.1741  160.4263 C   0  0  0  0  0  0  0  0  0  0  0  0
  152.2258  144.4068  160.9448 C   0  0  0  0  0  0  0  0  0  0  0  0
  151.6182  145.3368  160.0795 C   0  0  0  0  0  0  0  0  0  0  0  0
  151.4954  145.0145  158.7164 C   0  0  0  0  0  0  0  0  0  0  0  0
  151.9905  143.7716  158.2808 C   0  0  0  0  0  0  0  0  0  0  0  0
  152.5736  142.8777  159.1072 N   0  0  0  0  0  0  0  0  0  0  0  0
  153.2274  143.7833  162.8460 H   0  0  0  0  0  0  0  0  0  0  0  0
  154.5612  142.6614  163.0166 H   0  0  0  0  0  0  0  0  0  0  0  0
  152.9167  142.1441  163.4139 H   0  0  0  0  0  0  0  0  0  0  0  0
  152.8572  141.2174  159.2152 H   0  0  0  0  0  0  0  0  0  0  0  0
  153.6092  139.3614  158.1482 H   0  0  0  0  0  0  0  0  0  0  0  0
  154.7731  139.0505  159.4172 H   0  0  0  0  0  0  0  0  0  0  0  0
  152.0333  138.6271  160.4274 H   0  0  0  0  0  0  0  0  0  0  0  0
  152.2852  137.6941  158.9683 H   0  0  0  0  0  0  0  0  0  0  0  0
  153.5077  138.3375  162.2225 H   0  0  0  0  0  0  0  0  0  0  0  0
  154.1446  135.5467  162.7203 H   0  0  0  0  0  0  0  0  0  0  0  0
  153.4332  137.7296  164.3957 H   0  0  0  0  0  0  0  0  0  0  0  0
  154.0481  136.1704  164.9101 H   0  0  0  0  0  0  0  0  0  0  0  0
  155.6263  138.7074  164.4436 H   0  0  0  0  0  0  0  0  0  0  0  0
  155.7233  137.6159  165.8251 H   0  0  0  0  0  0  0  0  0  0  0  0
  157.6031  137.3989  163.9216 H   0  0  0  0  0  0  0  0  0  0  0  0
  156.8325  135.9205  164.4923 H   0  0  0  0  0  0  0  0  0  0  0  0
  156.4003  135.6893  162.1664 H   0  0  0  0  0  0  0  0  0  0  0  0
  156.2986  137.4262  161.9404 H   0  0  0  0  0  0  0  0  0  0  0  0
  152.3256  144.6385  161.9954 H   0  0  0  0  0  0  0  0  0  0  0  0
  151.2531  146.2808  160.4562 H   0  0  0  0  0  0  0  0  0  0  0  0
  151.0354  145.7022  158.0223 H   0  0  0  0  0  0  0  0  0  0  0  0
  151.9173  143.4868  157.2417 H   0  0  0  0  0  0  0  0  0  0  0  0
  1  2  1  0  0  0  0
  1 22  1  0  0  0  0
  1 23  1  0  0  0  0
  1 24  1  0  0  0  0
  2  3  1  0  0  0  0
  2 16  1  0  0  0  0
  3  4  2  0  0  0  0
  3  5  1  0  0  0  0
  5  6  1  0  0  0  0
  5 25  1  0  0  0  0
  6  7  1  0  0  0  0
  6 26  1  0  0  0  0
  6 27  1  0  0  0  0
  7  8  1  0  0  0  0
  7 28  1  0  0  0  0
  7 29  1  0  0  0  0
  8  9  2  0  0  0  0
  8 10  1  0  0  0  0
 10 11  1  0  0  0  0
 10 30  1  0  0  0  0
 11 15  1  0  0  0  0
 11 12  1  0  0  0  0
 11 31  1  0  0  0  0
 12 13  1  0  0  0  0
 12 32  1  0  0  0  0
 12 33  1  0  0  0  0
 13 14  1  0  0  0  0
 13 34  1  0  0  0  0
 13 35  1  0  0  0  0
 14 15  1  0  0  0  0
 14 36  1  0  0  0  0
 14 37  1  0  0  0  0
 15 38  1  0  0  0  0
 15 39  1  0  0  0  0
 16 21  1  0  0  0  0
 16 17  2  0  0  0  0
 17 18  1  0  0  0  0
 17 40  1  0  0  0  0
 18 19  2  0  0  0  0
 18 41  1  0  0  0  0
 19 20  1  0  0  0  0
 19 42  1  0  0  0  0
 20 21  2  0  0  0  0
 20 43  1  0  0  0  0
M  END
> <s_m_source_file>
AV-unprocessed.smi

> <i_m_source_file_index>
2934

> <i_lp_mmshare_version>
43012

> <i_f3d_flags>
0

> <s_epik_input>
bjFbY0hdW2NIXVtjSF1bY0hdYzFOKFtDSDNdKUMoPU8pW05IXVtDSDJdW0NIMl1DKD1PKVtOSF1bQ0hdMltDSDJdW0NIMl1bQ0gyXVtDSDJdMg==

> <s_epik_cmdline>
J2VwaWtfcHl0aG9uJywgJy1waCcsICc3LjAnLCAnLXRuJywgJzgnLCAnLW1hJywgJzIwMCcsICctbWV0YWxfYmluZGluZycsICctaW1hZScsICc8aW5maWxlLm1hZT4nLCAnLW9tYWUnLCAnPG91dGZpbGUubWFlPic=

> <r_epik_Ionization_Penalty>
0.404648

> <r_epik_Ionization_Penalty_Charging>
0

> <r_epik_Ionization_Penalty_Neutral>
0.404648

> <r_epik_State_Penalty>
0.40421

> <r_epik_Charging_Adjusted_Penalty>
0.40421

> <i_epik_Tot_Q>
0

> <i_epik_Tot_abs_Q>
0

> <r_epik_Metal_State_Penalty>
0.238116

> <b_epik_Metal_Only>
0

> <s_lp_Force_Field>
OPLS_2005

> <r_lp_Energy>
32.7735

> <b_lp_Chiralities_Consistent>
1

> <s_lp_Variant>
AV-unprocessed.smi:2934-1

> <Gold.Version>
5.8.1

> <Gold.Id.Protein>
6NUR|6NUR_protein|mol2

> <Gold.PLP.Fitness>
52.7062

> <Gold.PLP.PLP>
-51.8337

> <Gold.PLP.part.hbond>
-0.9752

> <Gold.PLP.part.metal>
0.0000

> <Gold.PLP.part.buried>
-8.1270

> <Gold.PLP.part.nonpolar>
-42.7764

> <Gold.PLP.part.repulsive>
0.1356

> <Gold.PLP.ligand.clash>
0.0193

> <Gold.PLP.ligand.torsion>
1.1076

> <Gold.PLP.Chemscore.Hbond>
0.9913

> <Gold.PLP.Chemscore.CHOScore>
0.0000

> <Gold.PLP.Chemscore.Metal>
0.0000

> <Gold.Chemscore.Hbonds>
donor molecule, donor type, donor heavy atom, donor atom, acceptor molecule, acceptor atom, score
      P1  H  6896  6908       L1     9  1.00

> <Gold.PLP.Chemscore.Internal.Correction>
0.1332

> <Gold.Rescore>
     Score         DG    S(hbond)    S(metal)    S(lipo)     H(rot)  DE(clash)    DE(int)     intcor
     14.19     -16.91       0.99        0.00     107.07       1.72       0.17       2.55       ----

> <Gold.Chemscore.Fitness>
14.1877

> <Gold.Chemscore.DG>
-16.9102

> <Gold.Chemscore.ZeroCoef>
-5.4800

> <Gold.Chemscore.Hbond>
0.9912

> <Gold.Chemscore.Metal>
0.0000

> <Gold.Chemscore.Lipo>
107.0747

> <Gold.Chemscore.Internal_Hbond>
0.0000

> <Gold.Chemscore.DEClash>
0.1721

> <Gold.Chemscore.DEInternal>
2.5505

> <Gold.Chemscore.Rot>
1.7220

> <Gold.Chemscore.Internal.Correction>
   9.000000E+99

> <Gold.Chemscore.Hbonds>
donor molecule, donor type, donor heavy atom, donor atom, acceptor molecule, acceptor atom, score
      P1  H  6896  6908       L1     9  0.85

> <Gold.Chemscore.Hbond.Weighted>
-3.3107

> <Gold.Chemscore.Metal.Weighted>
-0.0000

> <Gold.Chemscore.Lipo.Weighted>
-12.5277

> <Gold.Chemscore.Internal_Hbond.Weighted>
0.0000

> <Gold.Chemscore.DEClash.Weighted>
0.1721

> <Gold.Chemscore.DEInternal.Weighted>
2.5505

> <Gold.Chemscore.Rot.Weighted>
4.4083

> <Gold.Chemscore.Internal.Correction.Weighted>
   9.000000E+99

> <Gold.Protein.RotatedTorsions>
[ 6907 6896 6895 6894 ] final  -61.44 input  -60.11 | X-H torsion
[ 7974 7965 7964 7962 ] final -173.10 input  175.53 | X-H torsion
[ 8008 7997 7996 7995 ] final -165.05 input   59.86 | X-H torsion
[ 10167 10162 10161 10158 ] final -102.74 input  -65.29 | X-H torsion
[ 10718 10713 10712 10709 ] final   47.96 input   66.30 | X-H torsion
[ 10763 10752 10751 10750 ] final -106.89 input  -60.55 | X-H torsion
[ 11005 11000 10999 10996 ] final -107.19 input  -57.11 | X-H torsion

> <Gold.Protein.ActiveResidues>
 VAL166  LYS551  ARG553  GLY616  TRP617  ASP618  TYR619  PRO620  LYS621  CYS622 
 ASP623  PHE694  ASN695  SER759  ASP760  ASP761  ALA762  ILE779  LEU786  VAL792 
 PHE793  MET794  SER795  GLU796  ALA797  LYS798  CYS799  TRP800  GLU811  SER814 

> <Gold.Protein.RotatedAtoms>
  150.7784  134.6704  159.6387 H   0  0  0  0  0  0  0  0  0  0  0  0  # atno 6907 bound_to 6896
  152.3861  134.6511  160.0134 H   0  0  0  0  0  0  0  0  0  0  0  0  # atno 6908 bound_to 6896
  151.6826  133.3275  159.3259 H   0  0  0  0  0  0  0  0  0  0  0  0  # atno 6909 bound_to 6896
  144.7140  140.1673  143.6370 H   0  0  0  0  0  0  0  0  0  0  0  0  # atno 7974 bound_to 7965
  155.8443  140.0953  157.1715 H   0  0  0  0  0  0  0  0  0  0  0  0  # atno 8008 bound_to 7997
  154.3983  140.1395  156.3828 H   0  0  0  0  0  0  0  0  0  0  0  0  # atno 8009 bound_to 7997
  155.8030  140.3452  155.5416 H   0  0  0  0  0  0  0  0  0  0  0  0  # atno 8010 bound_to 7997
  140.2274  143.3631  152.0917 H   0  0  0  0  0  0  0  0  0  0  0  0  # atno 10167 bound_to 10162
  157.4638  130.8213  149.7915 H   0  0  0  0  0  0  0  0  0  0  0  0  # atno 10718 bound_to 10713
  154.8041  135.4695  154.0348 H   0  0  0  0  0  0  0  0  0  0  0  0  # atno 10763 bound_to 10752
  153.1831  135.6843  153.8458 H   0  0  0  0  0  0  0  0  0  0  0  0  # atno 10764 bound_to 10752
  153.8002  135.3231  155.3366 H   0  0  0  0  0  0  0  0  0  0  0  0  # atno 10765 bound_to 10752
  141.0967  133.8959  157.1946 H   0  0  0  0  0  0  0  0  0  0  0  0  # atno 11005 bound_to 11000
  145.8976  139.2411  143.1513 LP  0  0  0  0  0  0  0  0  0  0  0  0  # atno 17320 bound_to 7965
  145.9842  140.8657  143.0099 LP  0  0  0  0  0  0  0  0  0  0  0  0  # atno 17321 bound_to 7965
  139.5122  144.6913  151.5751 LP  0  0  0  0  0  0  0  0  0  0  0  0  # atno 17342 bound_to 10162
  140.6210  143.9257  150.6526 LP  0  0  0  0  0  0  0  0  0  0  0  0  # atno 17343 bound_to 10162
  156.0041  130.3864  150.2496 LP  0  0  0  0  0  0  0  0  0  0  0  0  # atno 17370 bound_to 10713
  157.0675  131.0107  151.3202 LP  0  0  0  0  0  0  0  0  0  0  0  0  # atno 17371 bound_to 10713
  139.9805  135.0100  156.9738 LP  0  0  0  0  0  0  0  0  0  0  0  0  # atno 17394 bound_to 11000
  140.5124  134.0989  155.7273 LP  0  0  0  0  0  0  0  0  0  0  0  0  # atno 17395 bound_to 11000

$$$$
