AV-unprocessed.smi:114|AV-procd|sdf|1112|dock9
  -GOLD-   2262018233D 1   1.00000     0.00000
 Structure written by MMmdl.
 32 34  0  0  0  0  0  0  0  0  1 V2000
  154.6350  139.7601  160.6908 N   0  0  0  0  0  0  0  0  0  0  0  0
  153.7107  140.6156  160.2321 C   0  0  0  0  0  0  0  0  0  0  0  0
  153.3813  141.6822  160.9981 N   0  0  0  0  0  0  0  0  0  0  0  0
  152.4648  142.5623  160.5751 C   0  0  0  0  0  0  0  0  0  0  0  0
  152.1979  143.5980  161.4050 F   0  0  0  0  0  0  0  0  0  0  0  0
  151.7822  142.5337  159.4248 N   0  0  0  0  0  0  0  0  0  0  0  0
  152.1115  141.4579  158.6528 C   0  0  0  0  0  0  0  0  0  0  0  0
  153.0632  140.4574  158.9826 C   0  0  0  0  0  0  0  0  0  0  0  0
  153.1399  139.5230  157.9588 N   0  0  0  0  0  0  0  0  0  0  0  0
  152.2812  139.9551  157.0734 C   0  0  0  0  0  0  0  0  0  0  0  0
  151.6085  141.1101  157.4183 N   0  0  0  0  0  0  0  0  0  0  0  0
  150.5822  141.8841  156.6488 C   0  0  1  0  0  0  0  0  0  0  0  0
  150.4182  141.2733  155.4042 O   0  0  0  0  0  0  0  0  0  0  0  0
  149.3095  140.3819  155.4576 C   0  0  2  0  0  0  0  0  0  0  0  0
  148.8310  139.9966  154.0471 C   0  0  0  0  0  0  0  0  0  0  0  0
  148.7474  141.1490  153.2359 O   0  0  0  0  0  0  0  0  0  0  0  0
  148.3122  141.1789  156.3064 C   0  0  2  0  0  0  0  0  0  0  0  0
  147.6450  142.1454  155.5106 O   0  0  0  0  0  0  0  0  0  0  0  0
  149.2188  141.8088  157.3638 C   0  0  2  0  0  0  0  0  0  0  0  0
  148.7476  143.0666  157.8104 O   0  0  0  0  0  0  0  0  0  0  0  0
  151.0003  142.8869  156.5521 H   0  0  0  0  0  0  0  0  0  0  0  0
  149.5916  139.4857  156.0138 H   0  0  0  0  0  0  0  0  0  0  0  0
  147.5589  140.5334  156.7587 H   0  0  0  0  0  0  0  0  0  0  0  0
  149.2927  141.1361  158.2201 H   0  0  0  0  0  0  0  0  0  0  0  0
  154.8968  138.9582  160.1350 H   0  0  0  0  0  0  0  0  0  0  0  0
  155.0687  139.9183  161.5889 H   0  0  0  0  0  0  0  0  0  0  0  0
  152.1198  139.4351  156.1400 H   0  0  0  0  0  0  0  0  0  0  0  0
  149.5466  139.3193  153.5800 H   0  0  0  0  0  0  0  0  0  0  0  0
  147.8682  139.4854  154.0772 H   0  0  0  0  0  0  0  0  0  0  0  0
  147.8739  141.2021  152.8793 H   0  0  0  0  0  0  0  0  0  0  0  0
  148.1256  142.9574  155.5659 H   0  0  0  0  0  0  0  0  0  0  0  0
  148.9382  143.7098  157.1443 H   0  0  0  0  0  0  0  0  0  0  0  0
  1  2  1  0  0  0  0
  1 25  1  0  0  0  0
  1 26  1  0  0  0  0
  2  8  1  0  0  0  0
  2  3  2  0  0  0  0
  3  4  1  0  0  0  0
  4  5  1  0  0  0  0
  4  6  2  0  0  0  0
  6  7  1  0  0  0  0
  7 11  1  0  0  0  0
  7  8  2  0  0  0  0
  8  9  1  0  0  0  0
  9 10  2  0  0  0  0
 10 11  1  0  0  0  0
 10 27  1  0  0  0  0
 11 12  1  0  0  0  0
 12 21  1  0  0  0  0
 12 19  1  0  0  0  0
 12 13  1  0  0  0  0
 13 14  1  0  0  0  0
 14 22  1  0  0  0  0
 14 15  1  0  0  0  0
 14 17  1  0  0  0  0
 15 16  1  0  0  0  0
 15 28  1  0  0  0  0
 15 29  1  0  0  0  0
 16 30  1  0  0  0  0
 17 23  1  0  0  0  0
 17 18  1  0  0  0  0
 17 19  1  0  0  0  0
 18 31  1  0  0  0  0
 19 24  1  0  0  0  0
 19 20  1  0  0  0  0
 20 32  1  0  0  0  0
M  END
> <s_m_source_file>
AV-unprocessed.smi

> <i_m_source_file_index>
114

> <i_lp_mmshare_version>
43012

> <i_f3d_flags>
0

> <s_epik_input>
RmMobjEpbmMoW05IMl0pYyhjMTIpbltjSF1uMltDQEBIXTNPW0NASF0oW0NIMl1bT0hdKVtDQEBIXShbT0hdKVtDQEBIXTNbT0hd

> <s_epik_cmdline>
J2VwaWtfcHl0aG9uJywgJy1waCcsICc3LjAnLCAnLXRuJywgJzgnLCAnLW1hJywgJzIwMCcsICctbWV0YWxfYmluZGluZycsICctaW1hZScsICc8aW5maWxlLm1hZT4nLCAnLW9tYWUnLCAnPG91dGZpbGUubWFlPic=

> <r_lp_tautomer_probability>
1

> <r_epik_Ionization_Penalty>
1.13199e-05

> <r_epik_Ionization_Penalty_Charging>
0

> <r_epik_Ionization_Penalty_Neutral>
1.13199e-05

> <r_epik_State_Penalty>
-0

> <r_epik_Charging_Adjusted_Penalty>
0

> <i_epik_Tot_Q>
0

> <i_epik_Tot_abs_Q>
0

> <r_epik_Metal_State_Penalty>
-0

> <b_epik_Metal_Only>
0

> <s_epik_Chemistry_Notes>
This compound contains an acetal/aminal-like group ( X-CH(R)-Y where X, Y are N, S, or O) that may be acid/base labile, releasing an aldehyde.

> <s_lp_Force_Field>
OPLS_2005

> <r_lp_Energy>
39.4962

> <b_lp_Chiralities_Consistent>
1

> <s_lp_Variant>
AV-unprocessed.smi:114-6

> <Gold.Version>
5.8.1

> <Gold.Id.Protein>
6NUR|6NUR_protein|mol2

> <Gold.PLP.Fitness>
45.8807

> <Gold.PLP.PLP>
-33.3462

> <Gold.PLP.part.hbond>
-6.7819

> <Gold.PLP.part.metal>
0.0000

> <Gold.PLP.part.buried>
-1.6409

> <Gold.PLP.part.nonpolar>
-23.6325

> <Gold.PLP.part.repulsive>
0.1213

> <Gold.PLP.ligand.clash>
0.0000

> <Gold.PLP.ligand.torsion>
0.1447

> <Gold.PLP.Chemscore.Hbond>
4.2668

> <Gold.PLP.Chemscore.CHOScore>
0.0000

> <Gold.PLP.Chemscore.Metal>
0.0000

> <Gold.Chemscore.Hbonds>
donor molecule, donor type, donor heavy atom, donor atom, acceptor molecule, acceptor atom, score
      L1  H    18    31       P1  8028  1.00
      L1  H    20    32       P1  8028  1.00
      P1  H  7989  7998       L1    13  0.22
      P1  H  7997  8010       L1     9  1.00
      P1  H  8011  8017       L1    16  1.00

> <Gold.PLP.Chemscore.Internal.Correction>
0.0236

> <Gold.Rescore>
     Score         DG    S(hbond)    S(metal)    S(lipo)     H(rot)  DE(clash)    DE(int)     intcor
      6.62      -7.97       2.86        0.00      27.69       4.03       1.27       0.08       ----

> <Gold.Chemscore.Fitness>
6.6237

> <Gold.Chemscore.DG>
-7.9747

> <Gold.Chemscore.ZeroCoef>
-5.4800

> <Gold.Chemscore.Hbond>
2.8642

> <Gold.Chemscore.Metal>
0.0000

> <Gold.Chemscore.Lipo>
27.6862

> <Gold.Chemscore.Internal_Hbond>
0.0000

> <Gold.Chemscore.DEClash>
1.2710

> <Gold.Chemscore.DEInternal>
0.0800

> <Gold.Chemscore.Rot>
4.0277

> <Gold.Chemscore.Internal.Correction>
   9.000000E+99

> <Gold.Chemscore.Hbonds>
donor molecule, donor type, donor heavy atom, donor atom, acceptor molecule, acceptor atom, score
      L1  H    18    31       P1  8028  0.90
      L1  H    20    32       P1  8028  0.26
      P1  H  7989  7998       L1    13  0.17
      P1  H  7997  8010       L1     9  0.07
      P1  H  8011  8017       L1    16  0.58

> <Gold.Chemscore.Hbond.Weighted>
-9.5664

> <Gold.Chemscore.Metal.Weighted>
-0.0000

> <Gold.Chemscore.Lipo.Weighted>
-3.2393

> <Gold.Chemscore.Internal_Hbond.Weighted>
0.0000

> <Gold.Chemscore.DEClash.Weighted>
1.2710

> <Gold.Chemscore.DEInternal.Weighted>
0.0800

> <Gold.Chemscore.Rot.Weighted>
10.3110

> <Gold.Chemscore.Internal.Correction.Weighted>
   9.000000E+99

> <Gold.Protein.RotatedTorsions>
[ 6907 6896 6895 6894 ] final  101.90 input  -60.11 | X-H torsion
[ 7974 7965 7964 7962 ] final   -3.00 input  175.53 | X-H torsion
[ 8008 7997 7996 7995 ] final   22.98 input   59.86 | X-H torsion
[ 10167 10162 10161 10158 ] final   84.17 input  -65.29 | X-H torsion
[ 10718 10713 10712 10709 ] final   74.96 input   66.30 | X-H torsion
[ 10763 10752 10751 10750 ] final  166.99 input  -60.55 | X-H torsion
[ 11005 11000 10999 10996 ] final  134.70 input  -57.11 | X-H torsion

> <Gold.Protein.ActiveResidues>
 VAL166  LYS551  ARG553  GLY616  TRP617  ASP618  TYR619  PRO620  LYS621  CYS622 
 ASP623  PHE694  ASN695  SER759  ASP760  ASP761  ALA762  ILE779  LEU786  VAL792 
 PHE793  MET794  SER795  GLU796  ALA797  LYS798  CYS799  TRP800  GLU811  SER814 

> <Gold.Protein.RotatedAtoms>
  152.5338  134.0057  159.7914 H   0  0  0  0  0  0  0  0  0  0  0  0  # atno 6907 bound_to 6896
  151.0268  133.5819  159.2672 H   0  0  0  0  0  0  0  0  0  0  0  0  # atno 6908 bound_to 6896
  151.2838  135.0729  159.9232 H   0  0  0  0  0  0  0  0  0  0  0  0  # atno 6909 bound_to 6896
  146.2396  140.1655  142.8332 H   0  0  0  0  0  0  0  0  0  0  0  0  # atno 7974 bound_to 7965
  154.9740  140.3093  155.4975 H   0  0  0  0  0  0  0  0  0  0  0  0  # atno 8008 bound_to 7997
  156.2962  140.2279  156.4773 H   0  0  0  0  0  0  0  0  0  0  0  0  # atno 8009 bound_to 7997
  154.7850  140.0443  157.1145 H   0  0  0  0  0  0  0  0  0  0  0  0  # atno 8010 bound_to 7997
  139.9108  144.6273  150.8539 H   0  0  0  0  0  0  0  0  0  0  0  0  # atno 10167 bound_to 10162
  157.6614  130.9703  150.1285 H   0  0  0  0  0  0  0  0  0  0  0  0  # atno 10718 bound_to 10713
  154.3472  135.2753  155.2391 H   0  0  0  0  0  0  0  0  0  0  0  0  # atno 10763 bound_to 10752
  154.4636  135.5901  153.6276 H   0  0  0  0  0  0  0  0  0  0  0  0  # atno 10764 bound_to 10752
  152.9853  135.6071  154.3679 H   0  0  0  0  0  0  0  0  0  0  0  0  # atno 10765 bound_to 10752
  139.9932  134.9507  156.9904 H   0  0  0  0  0  0  0  0  0  0  0  0  # atno 11005 bound_to 11000
  145.0054  140.8668  143.5256 LP  0  0  0  0  0  0  0  0  0  0  0  0  # atno 17320 bound_to 7965
  145.1681  139.2420  143.5356 LP  0  0  0  0  0  0  0  0  0  0  0  0  # atno 17321 bound_to 7965
  140.7685  143.3367  151.2294 LP  0  0  0  0  0  0  0  0  0  0  0  0  # atno 17342 bound_to 10162
  139.6944  143.9638  152.2875 LP  0  0  0  0  0  0  0  0  0  0  0  0  # atno 17343 bound_to 10162
  156.2138  130.3668  149.8638 LP  0  0  0  0  0  0  0  0  0  0  0  0  # atno 17370 bound_to 10713
  156.6509  130.8743  151.3531 LP  0  0  0  0  0  0  0  0  0  0  0  0  # atno 17371 bound_to 10713
  140.4869  134.1233  155.7226 LP  0  0  0  0  0  0  0  0  0  0  0  0  # atno 17394 bound_to 11000
  141.1583  133.8841  157.1918 LP  0  0  0  0  0  0  0  0  0  0  0  0  # atno 17395 bound_to 11000

$$$$
