#       Name:                AV-unprocessed.smi:2539
#       Creating user name   scv26
#       Creation time:       Fri Mar 27 14:03:31 2020


#       File generated by GOLD software.
#

@<TRIPOS>MOLECULE
AV-unprocessed.smi:2539
    45    46     1
SMALL
NO_CHARGES


@<TRIPOS>ATOM
      1 ****        -2.1160   1.0501   1.1015 O.2            1 S1                 0.0000
      2 ****        -1.3605   0.1185   1.3823 C.2            1 S1                 0.0000
      3 ****        -1.7043  -1.1673   1.1893 N.am           1 S1                 0.0000
      4 ****        -2.9282  -1.6354   0.5435 C.3            1 S1                 0.0000
      5 ****        -2.7131  -1.9353  -0.9535 C.3            1 S1                 0.0000
      6 ****        -2.1869  -0.7485  -1.7427 C.ar           1 S1                 0.0000
      7 ****        -0.8279  -0.6644  -2.1120 C.ar           1 S1                 0.0000
      8 ****        -0.3851   0.4733  -2.8133 C.ar           1 S1                 0.0000
      9 ****        -1.3226   1.4799  -3.1186 C.ar           1 S1                 0.0000
     10 ****        -2.6266   1.4078  -2.7756 N.ar           1 S1                 0.0000
     11 ****        -3.0431   0.3142  -2.1019 C.ar           1 S1                 0.0000
     12 ****        -0.0979   0.3019   1.8432 N.am           1 S1                 0.0000
     13 ****         0.8635  -0.7521   2.2001 C.3            1 S1                 0.0000
     14 ****         1.9162  -0.8553   1.0799 C.3            1 S1                 0.0000
     15 ****         2.6160   0.5018   0.8038 C.3            1 S1                 0.0000
     16 ****         3.4580   0.7834   1.9081 O.3            1 S1                 0.0000
     17 ****         3.5197   0.4297  -0.4505 C.3            1 S1                 0.0000
     18 ****         2.7857   0.1610  -1.5305 F              1 S1                 0.0000
     19 ****         4.1405   1.5934  -0.6492 F              1 S1                 0.0000
     20 ****         4.4319  -0.5346  -0.3195 F              1 S1                 0.0000
     21 ****         1.5802   1.6529   0.6989 C.3            1 S1                 0.0000
     22 ****         0.5460   1.6190   1.8421 C.3            1 S1                 0.0000
     23 ****        -1.0294  -1.8737   1.4431 H              1 S1                 0.0000
     24 ****        -3.2572  -2.5410   1.0532 H              1 S1                 0.0000
     25 ****        -3.7324  -0.9084   0.6693 H              1 S1                 0.0000
     26 ****        -2.0198  -2.7702  -1.0640 H              1 S1                 0.0000
     27 ****        -3.6527  -2.2623  -1.4001 H              1 S1                 0.0000
     28 ****        -0.1332  -1.4498  -1.8533 H              1 S1                 0.0000
     29 ****         0.6487   0.5741  -3.1082 H              1 S1                 0.0000
     30 ****        -1.0171   2.3666  -3.6541 H              1 S1                 0.0000
     31 ****        -4.0886   0.2916  -1.8314 H              1 S1                 0.0000
     32 ****         1.3451  -0.4940   3.1443 H              1 S1                 0.0000
     33 ****         0.4021  -1.7240   2.3755 H              1 S1                 0.0000
     34 ****         2.6531  -1.6186   1.3324 H              1 S1                 0.0000
     35 ****         1.4216  -1.2018   0.1717 H              1 S1                 0.0000
     36 ****         3.9142   1.5932   1.7364 H              1 S1                 0.0000
     37 ****         2.0840   2.6200   0.6829 H              1 S1                 0.0000
     38 ****         1.0474   1.5760  -0.2500 H              1 S1                 0.0000
     39 ****        -0.1653   2.4374   1.7220 H              1 S1                 0.0000
     40 ****         1.0322   1.7918   2.8032 H              1 S1                 0.0000
     41 ****        -3.0194   0.8624   0.7161 LP             1 S1                 0.0000
     42 ****        -1.8258   1.9940   1.2590 LP             1 S1                 0.0000
     43 ****        -3.2637   2.1411  -3.0130 LP             1 S1                 0.0000
     44 ****         4.1187   0.0421   2.0268 LP             1 S1                 0.0000
     45 ****         2.9075   0.8752   2.7379 LP             1 S1                 0.0000
@<TRIPOS>BOND
    1    1    2 2     
    2    2    3 am    
    3    2   12 am    
    4    3    4 1     
    5    3   23 1     
    6    4    5 1     
    7    4   24 1     
    8    4   25 1     
    9    5    6 1     
   10    5   26 1     
   11    5   27 1     
   12    6   11 ar    
   13    6    7 ar    
   14    7    8 ar    
   15    7   28 1     
   16    8    9 ar    
   17    8   29 1     
   18    9   10 ar    
   19    9   30 1     
   20   10   11 ar    
   21   11   31 1     
   22   12   22 1     
   23   12   13 1     
   24   13   14 1     
   25   13   32 1     
   26   13   33 1     
   27   14   15 1     
   28   14   34 1     
   29   14   35 1     
   30   15   16 1     
   31   15   17 1     
   32   15   21 1     
   33   16   36 1     
   34   17   18 1     
   35   17   19 1     
   36   17   20 1     
   37   21   22 1     
   38   21   37 1     
   39   21   38 1     
   40   22   39 1     
   41   22   40 1     
   42    1   41 1     
   43    1   42 1     
   44   10   43 1     
   45   16   44 1     
   46   16   45 1     
@<TRIPOS>SUBSTRUCTURE
      1 S1             1
@<TRIPOS>SET
LONE_PAIRS      STATIC     ATOMS    <user>   **** ""
5 41 42 43 44 45
DONOR_HYDROGENS      STATIC     ATOMS    <user>   **** ""
2 23 36
ATOM$BLUE        STATIC     ATOMS    COLORGROUP SYSTEM
5 41 42 43 44 45
ATOM$RED        STATIC     ATOMS    COLORGROUP SYSTEM
2 23 36
