AV-unprocessed.smi:2168|AV-procd|sdf|8821|dock1
  -GOLD-   2272012 13D 1   1.00000     0.00000
 Structure written by MMmdl.
 46 47  0  0  0  0  0  0  0  0  3 V2000
  148.0800  132.8918  154.4148 C   0  0  0  0  0  0  0  0  0  0  0  0
  148.7083  133.7155  155.5508 C   0  0  0  0  0  0  0  0  0  0  0  0
  148.2827  135.1300  155.5441 N   0  0  0  0  0  0  0  0  0  0  0  0
  146.8308  135.3905  155.4726 C   0  0  0  0  0  0  0  0  0  0  0  0
  146.0345  134.6643  156.5674 C   0  0  0  0  0  0  0  0  0  0  0  0
  149.3805  136.3925  156.0291 S   0  0  0  0  0  0  0  0  0  0  0  0
  149.4923  136.3036  157.4945 O   0  0  0  0  0  0  0  0  0  0  0  0
  150.6048  136.2048  155.2335 O   0  0  0  0  0  0  0  0  0  0  0  0
  148.4869  137.6475  155.5273 N   0  5  0  0  0  0  0  0  0  0  0  0
  149.1124  138.6917  154.7421 C   0  0  0  0  0  0  0  0  0  0  0  0
  149.7326  139.7474  155.6429 C   0  0  0  0  0  0  0  0  0  0  0  0
  150.6192  139.3856  156.6818 C   0  0  0  0  0  0  0  0  0  0  0  0
  151.1934  140.3903  157.4885 C   0  0  0  0  0  0  0  0  0  0  0  0
  150.8791  141.7534  157.2548 C   0  0  0  0  0  0  0  0  0  0  0  0
  151.4169  142.8254  158.0027 N   0  0  0  0  0  0  0  0  0  0  0  0
  152.3581  142.5153  159.0757 C   0  0  0  0  0  0  0  0  0  0  0  0
  153.0726  143.7895  159.5567 C   0  0  0  0  0  0  0  0  0  0  0  0
  152.1106  144.7725  159.9196 O   0  0  0  0  0  0  0  0  0  0  0  0
  151.3082  145.1557  158.8093 C   0  0  0  0  0  0  0  0  0  0  0  0
  150.5172  143.9408  158.2969 C   0  0  0  0  0  0  0  0  0  0  0  0
  150.0221  142.0447  156.2456 N   0  3  0  0  0  0  0  0  0  0  0  0
  149.4504  141.1163  155.4475 C   0  0  0  0  0  0  0  0  0  0  0  0
  148.4781  131.8773  154.4133 H   0  0  0  0  0  0  0  0  0  0  0  0
  148.2807  133.3257  153.4361 H   0  0  0  0  0  0  0  0  0  0  0  0
  146.9990  132.8136  154.5288 H   0  0  0  0  0  0  0  0  0  0  0  0
  148.4377  133.2747  156.5104 H   0  0  0  0  0  0  0  0  0  0  0  0
  149.7954  133.6602  155.4898 H   0  0  0  0  0  0  0  0  0  0  0  0
  146.6497  136.4624  155.5446 H   0  0  0  0  0  0  0  0  0  0  0  0
  146.4662  135.0874  154.4907 H   0  0  0  0  0  0  0  0  0  0  0  0
  144.9802  134.9353  156.5135 H   0  0  0  0  0  0  0  0  0  0  0  0
  146.3887  134.9263  157.5640 H   0  0  0  0  0  0  0  0  0  0  0  0
  146.0949  133.5818  156.4587 H   0  0  0  0  0  0  0  0  0  0  0  0
  149.8941  138.2978  154.0916 H   0  0  0  0  0  0  0  0  0  0  0  0
  148.3986  139.1845  154.0814 H   0  0  0  0  0  0  0  0  0  0  0  0
  150.8728  138.3507  156.8681 H   0  0  0  0  0  0  0  0  0  0  0  0
  151.8646  140.0875  158.2772 H   0  0  0  0  0  0  0  0  0  0  0  0
  151.8203  142.0495  159.9025 H   0  0  0  0  0  0  0  0  0  0  0  0
  153.1118  141.8076  158.7300 H   0  0  0  0  0  0  0  0  0  0  0  0
  153.6958  143.5654  160.4224 H   0  0  0  0  0  0  0  0  0  0  0  0
  153.7342  144.1808  158.7820 H   0  0  0  0  0  0  0  0  0  0  0  0
  150.6234  145.9441  159.1214 H   0  0  0  0  0  0  0  0  0  0  0  0
  151.9347  145.5738  158.0196 H   0  0  0  0  0  0  0  0  0  0  0  0
  149.9505  144.2435  157.4165 H   0  0  0  0  0  0  0  0  0  0  0  0
  149.7948  143.6209  159.0488 H   0  0  0  0  0  0  0  0  0  0  0  0
  148.7968  141.5052  154.6786 H   0  0  0  0  0  0  0  0  0  0  0  0
  149.8006  143.0245  156.0702 H   0  0  0  0  0  0  0  0  0  0  0  0
  1  2  1  0  0  0  0
  1 23  1  0  0  0  0
  1 24  1  0  0  0  0
  1 25  1  0  0  0  0
  2  3  1  0  0  0  0
  2 26  1  0  0  0  0
  2 27  1  0  0  0  0
  3  4  1  0  0  0  0
  3  6  1  0  0  0  0
  4  5  1  0  0  0  0
  4 28  1  0  0  0  0
  4 29  1  0  0  0  0
  5 30  1  0  0  0  0
  5 31  1  0  0  0  0
  5 32  1  0  0  0  0
  6  7  2  0  0  0  0
  6  8  2  0  0  0  0
  6  9  1  0  0  0  0
  9 10  1  0  0  0  0
 10 11  1  0  0  0  0
 10 33  1  0  0  0  0
 10 34  1  0  0  0  0
 11 22  1  0  0  0  0
 11 12  2  0  0  0  0
 12 13  1  0  0  0  0
 12 35  1  0  0  0  0
 13 14  2  0  0  0  0
 13 36  1  0  0  0  0
 14 15  1  0  0  0  0
 14 21  1  0  0  0  0
 15 20  1  0  0  0  0
 15 16  1  0  0  0  0
 16 17  1  0  0  0  0
 16 37  1  0  0  0  0
 16 38  1  0  0  0  0
 17 18  1  0  0  0  0
 17 39  1  0  0  0  0
 17 40  1  0  0  0  0
 18 19  1  0  0  0  0
 19 20  1  0  0  0  0
 19 41  1  0  0  0  0
 19 42  1  0  0  0  0
 20 43  1  0  0  0  0
 20 44  1  0  0  0  0
 21 22  2  0  0  0  0
 21 46  1  0  0  0  0
 22 45  1  0  0  0  0
M  CHG  1   9  -1
M  CHG  1  21   1
M  END
> <s_m_source_file>
AV-unprocessed.smi

> <i_m_source_file_index>
2168

> <i_lp_mmshare_version>
43012

> <i_f3d_flags>
0

> <s_epik_input>
W0NIM11bQ0gyXU4oW0NIMl1bQ0gzXSlTKD1PKSg9TylbTkhdW0NIMl1jMVtjSF1bY0hdYyhuW2NIXTEpTjJbQ0gyXVtDSDJdT1tDSDJdW0NIMl0y

> <s_epik_cmdline>
J2VwaWtfcHl0aG9uJywgJy1waCcsICc3LjAnLCAnLXRuJywgJzgnLCAnLW1hJywgJzIwMCcsICctbWV0YWxfYmluZGluZycsICctaW1hZScsICc8aW5maWxlLm1hZT4nLCAnLW9tYWUnLCAnPG91dGZpbGUubWFlPic=

> <r_lp_tautomer_probability>
0.999994

> <r_epik_Ionization_Penalty>
2.67026

> <r_epik_Ionization_Penalty_Charging>
2.67026

> <r_epik_Ionization_Penalty_Neutral>
4.07977e-08

> <r_epik_State_Penalty>
4.05768

> <r_epik_Charging_Adjusted_Penalty>
6.72795

> <i_epik_Tot_Q>
0

> <i_epik_Tot_abs_Q>
2

> <r_epik_Metal_State_Penalty>
2.91237

> <b_epik_Metal_Only>
1

> <s_lp_Force_Field>
OPLS_2005

> <r_lp_Energy>
13.0843

> <b_lp_Chiralities_Consistent>
1

> <s_lp_Variant>
AV-unprocessed.smi:2168-4

> <Gold.Version>
5.8.1

> <Gold.Id.Protein>
6NUR|6NUR_protein|mol2

> <Gold.PLP.Fitness>
44.3891

> <Gold.PLP.PLP>
-36.6915

> <Gold.PLP.part.hbond>
-2.0000

> <Gold.PLP.part.metal>
0.0000

> <Gold.PLP.part.buried>
-5.0035

> <Gold.PLP.part.nonpolar>
-30.4718

> <Gold.PLP.part.repulsive>
0.5335

> <Gold.PLP.ligand.clash>
0.0000

> <Gold.PLP.ligand.torsion>
2.5784

> <Gold.PLP.Chemscore.Hbond>
3.0000

> <Gold.PLP.Chemscore.CHOScore>
0.0000

> <Gold.PLP.Chemscore.Metal>
0.0000

> <Gold.Chemscore.Hbonds>
donor molecule, donor type, donor heavy atom, donor atom, acceptor molecule, acceptor atom, score
      L1  H    21    46       P1  8028  2.00

> <Gold.PLP.Chemscore.Internal.Correction>
3.8545

> <Gold.Rescore>
     Score         DG    S(hbond)    S(metal)    S(lipo)     H(rot)  DE(clash)    DE(int)     intcor
     15.53     -18.59       1.96        0.00      93.61       1.72       0.25       2.80       ----

> <Gold.Chemscore.Fitness>
15.5336

> <Gold.Chemscore.DG>
-18.5860

> <Gold.Chemscore.ZeroCoef>
-5.4800

> <Gold.Chemscore.Hbond>
1.9601

> <Gold.Chemscore.Metal>
0.0000

> <Gold.Chemscore.Lipo>
93.6064

> <Gold.Chemscore.Internal_Hbond>
0.0000

> <Gold.Chemscore.DEClash>
0.2505

> <Gold.Chemscore.DEInternal>
2.8019

> <Gold.Chemscore.Rot>
1.7159

> <Gold.Chemscore.Internal.Correction>
   9.000000E+99

> <Gold.Chemscore.Hbonds>
donor molecule, donor type, donor heavy atom, donor atom, acceptor molecule, acceptor atom, score
      L1  H    21    46       P1  8028  0.98
      P1  H 10752 10763       L1     8  0.01

> <Gold.Chemscore.Hbond.Weighted>
-6.5466

> <Gold.Chemscore.Metal.Weighted>
-0.0000

> <Gold.Chemscore.Lipo.Weighted>
-10.9520

> <Gold.Chemscore.Internal_Hbond.Weighted>
0.0000

> <Gold.Chemscore.DEClash.Weighted>
0.2505

> <Gold.Chemscore.DEInternal.Weighted>
2.8019

> <Gold.Chemscore.Rot.Weighted>
4.3926

> <Gold.Chemscore.Internal.Correction.Weighted>
   9.000000E+99

> <Gold.Protein.RotatedTorsions>
[ 6907 6896 6895 6894 ] final -146.91 input  -60.11 | X-H torsion
[ 7974 7965 7964 7962 ] final   82.75 input  175.53 | X-H torsion
[ 8008 7997 7996 7995 ] final -121.95 input   59.86 | X-H torsion
[ 10167 10162 10161 10158 ] final  -78.52 input  -65.29 | X-H torsion
[ 10718 10713 10712 10709 ] final   41.86 input   66.30 | X-H torsion
[ 10763 10752 10751 10750 ] final   53.44 input  -60.55 | X-H torsion
[ 11005 11000 10999 10996 ] final   33.48 input  -57.11 | X-H torsion

> <Gold.Protein.ActiveResidues>
 VAL166  LYS551  ARG553  GLY616  TRP617  ASP618  TYR619  PRO620  LYS621  CYS622 
 ASP623  PHE694  ASN695  SER759  ASP760  ASP761  ALA762  ILE779  LEU786  VAL792 
 PHE793  MET794  SER795  GLU796  ALA797  LYS798  CYS799  TRP800  GLU811  SER814 

> <Gold.Protein.RotatedAtoms>
  151.1482  133.4925  159.2595 H   0  0  0  0  0  0  0  0  0  0  0  0  # atno 6907 bound_to 6896
  151.1582  135.0260  159.8708 H   0  0  0  0  0  0  0  0  0  0  0  0  # atno 6908 bound_to 6896
  152.5463  134.1359  159.8512 H   0  0  0  0  0  0  0  0  0  0  0  0  # atno 6909 bound_to 6896
  145.6209  139.2386  143.2139 H   0  0  0  0  0  0  0  0  0  0  0  0  # atno 7974 bound_to 7965
  155.1562  140.0405  157.2832 H   0  0  0  0  0  0  0  0  0  0  0  0  # atno 8008 bound_to 7997
  154.6368  140.2537  155.7341 H   0  0  0  0  0  0  0  0  0  0  0  0  # atno 8009 bound_to 7997
  156.2513  140.2864  156.0745 H   0  0  0  0  0  0  0  0  0  0  0  0  # atno 8010 bound_to 7997
  140.4675  143.2436  151.8256 H   0  0  0  0  0  0  0  0  0  0  0  0  # atno 10167 bound_to 10162
  157.3983  130.7845  149.7327 H   0  0  0  0  0  0  0  0  0  0  0  0  # atno 10718 bound_to 10713
  152.9795  135.5779  154.4741 H   0  0  0  0  0  0  0  0  0  0  0  0  # atno 10763 bound_to 10752
  154.4299  135.2773  155.1921 H   0  0  0  0  0  0  0  0  0  0  0  0  # atno 10764 bound_to 10752
  154.3634  135.6184  153.5756 H   0  0  0  0  0  0  0  0  0  0  0  0  # atno 10765 bound_to 10752
  140.2626  134.3174  155.7853 H   0  0  0  0  0  0  0  0  0  0  0  0  # atno 11005 bound_to 11000
  146.1432  140.7029  142.9357 LP  0  0  0  0  0  0  0  0  0  0  0  0  # atno 17320 bound_to 7965
  144.7231  140.4439  143.6993 LP  0  0  0  0  0  0  0  0  0  0  0  0  # atno 17321 bound_to 7965
  139.4814  144.4933  151.9157 LP  0  0  0  0  0  0  0  0  0  0  0  0  # atno 17342 bound_to 10162
  140.4018  144.2483  150.5892 LP  0  0  0  0  0  0  0  0  0  0  0  0  # atno 17343 bound_to 10162
  155.9816  130.4017  150.3461 LP  0  0  0  0  0  0  0  0  0  0  0  0  # atno 17370 bound_to 10713
  157.1585  131.0339  151.2852 LP  0  0  0  0  0  0  0  0  0  0  0  0  # atno 17371 bound_to 10713
  141.2188  133.7419  156.9211 LP  0  0  0  0  0  0  0  0  0  0  0  0  # atno 17394 bound_to 11000
  140.1450  134.9268  157.2517 LP  0  0  0  0  0  0  0  0  0  0  0  0  # atno 17395 bound_to 11000

$$$$
