#       Name:                AV-unprocessed.smi:1131
#       Creating user name   scv26
#       Creation time:       Fri Mar 27 03:42:08 2020


#       File generated by GOLD software.
#

@<TRIPOS>MOLECULE
AV-unprocessed.smi:1131
    41    42     1
SMALL
NO_CHARGES


@<TRIPOS>ATOM
      1 ****        -0.4127   1.2669   1.1974 O.2            1 S1                 0.0000
      2 ****         0.2607   0.4407   0.5796 C.2            1 S1                 0.0000
      3 ****         1.7900   0.5597   0.5057 C.3            1 S1                 0.0000
      4 ****         2.2971   1.8631   0.9596 N.am           1 S1                 0.0000
      5 ****         2.7599   2.0193   2.2584 C.2            1 S1                 0.0000
      6 ****         3.2351   3.1902   2.7451 C.2            1 S1                 0.0000
      7 ****         3.2828   4.3770   1.8979 C.2            1 S1                 0.0000
      8 ****         3.6987   5.4800   2.2454 O.2            1 S1                 0.0000
      9 ****         2.8048   4.1808   0.5996 N.am           1 S1                 0.0000
     10 ****         2.3113   2.9776   0.0926 C.2            1 S1                 0.0000
     11 ****         1.9087   2.9146  -1.0684 O.2            1 S1                 0.0000
     12 ****        -0.2742  -0.6148  -0.0500 N.am           1 S1                 0.0000
     13 ****        -1.6989  -0.9148  -0.0973 C.3            1 S1                 0.0000
     14 ****        -1.9507  -2.2816  -0.7549 C.3            1 S1                 0.0000
     15 ****        -3.4145  -2.6544  -0.8643 C.3            1 S1                 0.0000
     16 ****        -3.3760  -3.7557  -1.9188 C.3            1 S1                 0.0000
     17 ****        -2.3083  -3.4113  -2.7966 O.3            1 S1                 0.0000
     18 ****        -1.5099  -2.3830  -2.2169 C.3            1 S1                 0.0000
     19 ****         2.8148   4.9757  -0.0226 H              1 S1                 0.0000
     20 ****         2.2228  -0.2409   1.1074 H              1 S1                 0.0000
     21 ****         2.1207   0.3611  -0.5158 H              1 S1                 0.0000
     22 ****         2.7404   1.1671   2.9228 H              1 S1                 0.0000
     23 ****         3.5814   3.2489   3.7668 H              1 S1                 0.0000
     24 ****         0.3464  -1.2486  -0.5325 H              1 S1                 0.0000
     25 ****        -2.1052  -0.9143   0.9155 H              1 S1                 0.0000
     26 ****        -2.2130  -0.1256  -0.6484 H              1 S1                 0.0000
     27 ****        -1.4414  -3.0583  -0.1815 H              1 S1                 0.0000
     28 ****        -3.8452  -2.9867   0.0806 H              1 S1                 0.0000
     29 ****        -3.9991  -1.8081  -1.2286 H              1 S1                 0.0000
     30 ****        -3.1474  -4.7163  -1.4554 H              1 S1                 0.0000
     31 ****        -4.3198  -3.8544  -2.4558 H              1 S1                 0.0000
     32 ****        -1.7127  -1.4524  -2.7483 H              1 S1                 0.0000
     33 ****        -0.4469  -2.6031  -2.3171 H              1 S1                 0.0000
     34 ****         0.0356   2.0309   1.6614 LP             1 S1                 0.0000
     35 ****        -1.4076   1.1736   1.2348 LP             1 S1                 0.0000
     36 ****         4.0403   5.6153   3.1754 LP             1 S1                 0.0000
     37 ****         3.6956   6.2423   1.5981 LP             1 S1                 0.0000
     38 ****         1.5551   2.0515  -1.4289 LP             1 S1                 0.0000
     39 ****         1.9352   3.7266  -1.6516 LP             1 S1                 0.0000
     40 ****        -2.6850  -3.0878  -3.6646 LP             1 S1                 0.0000
     41 ****        -1.7408  -4.2183  -2.9597 LP             1 S1                 0.0000
@<TRIPOS>BOND
    1    1    2 2     
    2    2    3 1     
    3    2   12 am    
    4    3    4 1     
    5    3   20 1     
    6    3   21 1     
    7    4   10 1     
    8    4    5 1     
    9    5    6 2     
   10    5   22 1     
   11    6    7 1     
   12    6   23 1     
   13    7    8 2     
   14    7    9 1     
   15    9   19 1     
   16    9   10 1     
   17   10   11 2     
   18   12   13 1     
   19   12   24 1     
   20   13   14 1     
   21   13   25 1     
   22   13   26 1     
   23   14   18 1     
   24   14   15 1     
   25   14   27 1     
   26   15   16 1     
   27   15   28 1     
   28   15   29 1     
   29   16   17 1     
   30   16   30 1     
   31   16   31 1     
   32   17   18 1     
   33   18   32 1     
   34   18   33 1     
   35    1   34 1     
   36    1   35 1     
   37    8   36 1     
   38    8   37 1     
   39   11   38 1     
   40   11   39 1     
   41   17   40 1     
   42   17   41 1     
@<TRIPOS>SUBSTRUCTURE
      1 S1             1
@<TRIPOS>SET
LONE_PAIRS      STATIC     ATOMS    <user>   **** ""
8 34 35 36 37 38 39 40 41
DONOR_HYDROGENS      STATIC     ATOMS    <user>   **** ""
2 19 24
ATOM$BLUE        STATIC     ATOMS    COLORGROUP SYSTEM
8 34 35 36 37 38 39 40 41
ATOM$RED        STATIC     ATOMS    COLORGROUP SYSTEM
2 19 24
