AV-unprocessed.smi:48|AV-procd|sdf|459|dock2
  -GOLD-   2262016323D 1   1.00000     0.00000
 Structure written by MMmdl.
 30 32  0  0  0  0  0  0  0  0  1 V2000
  148.1083  140.0615  153.1108 O   0  0  0  0  0  0  0  0  0  0  0  0
  148.6395  140.3700  154.3814 C   0  0  0  0  0  0  0  0  0  0  0  0
  150.0969  139.8841  154.4758 C   0  0  1  0  0  0  0  0  0  0  0  0
  150.5677  139.9395  155.8221 O   0  0  0  0  0  0  0  0  0  0  0  0
  151.4930  138.9234  156.0728 C   0  0  1  0  0  0  0  0  0  0  0  0
  150.9629  138.1044  157.2094 N   0  0  0  0  0  0  0  0  0  0  0  0
  151.6238  137.2622  158.0323 C   0  0  0  0  0  0  0  0  0  0  0  0
  150.9148  136.6460  158.9776 N   0  0  0  0  0  0  0  0  0  0  0  0
  149.6436  137.1402  158.7351 C   0  0  0  0  0  0  0  0  0  0  0  0
  148.3905  136.9165  159.3550 C   0  0  0  0  0  0  0  0  0  0  0  0
  148.2420  135.8413  160.6966 Cl  0  0  0  0  0  0  0  0  0  0  0  0
  147.3065  137.5687  158.8709 N   0  0  0  0  0  0  0  0  0  0  0  0
  147.4499  138.3979  157.8294 C   0  0  0  0  0  0  0  0  0  0  0  0
  148.5586  138.7061  157.1462 N   0  0  0  0  0  0  0  0  0  0  0  0
  149.6489  138.0466  157.6377 C   0  0  0  0  0  0  0  0  0  0  0  0
  151.6263  138.0973  154.7799 C   0  0  1  0  0  0  0  0  0  0  0  0
  151.8187  136.7046  154.9581 O   0  0  0  0  0  0  0  0  0  0  0  0
  150.3441  138.4351  154.0313 C   0  0  1  0  0  0  0  0  0  0  0  0
  149.2641  137.5881  154.3882 O   0  0  0  0  0  0  0  0  0  0  0  0
  150.7428  140.5265  153.8742 H   0  0  0  0  0  0  0  0  0  0  0  0
  152.4392  139.3252  156.4374 H   0  0  0  0  0  0  0  0  0  0  0  0
  152.4756  138.5004  154.2266 H   0  0  0  0  0  0  0  0  0  0  0  0
  150.4799  138.3668  152.9516 H   0  0  0  0  0  0  0  0  0  0  0  0
  148.6864  140.4123  152.4508 H   0  0  0  0  0  0  0  0  0  0  0  0
  148.5631  141.4407  154.5731 H   0  0  0  0  0  0  0  0  0  0  0  0
  148.0238  139.8605  155.1232 H   0  0  0  0  0  0  0  0  0  0  0  0
  152.6857  137.0906  157.9343 H   0  0  0  0  0  0  0  0  0  0  0  0
  146.5463  138.8863  157.4953 H   0  0  0  0  0  0  0  0  0  0  0  0
  151.1775  136.3940  155.5790 H   0  0  0  0  0  0  0  0  0  0  0  0
  149.0493  137.0497  153.6415 H   0  0  0  0  0  0  0  0  0  0  0  0
  1  2  1  0  0  0  0
  1 24  1  0  0  0  0
  2  3  1  0  0  0  0
  2 25  1  0  0  0  0
  2 26  1  0  0  0  0
  3 20  1  0  0  0  0
  3 18  1  0  0  0  0
  3  4  1  0  0  0  0
  4  5  1  0  0  0  0
  5 21  1  0  0  0  0
  5  6  1  0  0  0  0
  5 16  1  0  0  0  0
  6 15  1  0  0  0  0
  6  7  1  0  0  0  0
  7  8  2  0  0  0  0
  7 27  1  0  0  0  0
  8  9  1  0  0  0  0
  9 15  2  0  0  0  0
  9 10  1  0  0  0  0
 10 11  1  0  0  0  0
 10 12  2  0  0  0  0
 12 13  1  0  0  0  0
 13 14  2  0  0  0  0
 13 28  1  0  0  0  0
 14 15  1  0  0  0  0
 16 22  1  0  0  0  0
 16 17  1  0  0  0  0
 16 18  1  0  0  0  0
 17 29  1  0  0  0  0
 18 23  1  0  0  0  0
 18 19  1  0  0  0  0
 19 30  1  0  0  0  0
M  END
> <s_m_source_file>
AV-unprocessed.smi

> <i_m_source_file_index>
48

> <i_lp_mmshare_version>
43012

> <i_f3d_flags>
0

> <s_epik_input>
W09IXVtDSDJdW0NASF0xT1tDQEhdKFtDQEhdKFtPSF0pW0NAQEhdMVtPSF0pbihbY0hdbjIpYyhjMjMpbltjSF1uYzNDbA==

> <s_epik_cmdline>
J2VwaWtfcHl0aG9uJywgJy1waCcsICc3LjAnLCAnLXRuJywgJzgnLCAnLW1hJywgJzIwMCcsICctbWV0YWxfYmluZGluZycsICctaW1hZScsICc8aW5maWxlLm1hZT4nLCAnLW9tYWUnLCAnPG91dGZpbGUubWFlPic=

> <r_lp_tautomer_probability>
1

> <r_epik_Ionization_Penalty>
3.45505e-06

> <r_epik_Ionization_Penalty_Charging>
0

> <r_epik_Ionization_Penalty_Neutral>
3.45505e-06

> <r_epik_State_Penalty>
-0

> <r_epik_Charging_Adjusted_Penalty>
0

> <i_epik_Tot_Q>
0

> <i_epik_Tot_abs_Q>
0

> <r_epik_Metal_State_Penalty>
-0

> <b_epik_Metal_Only>
0

> <s_epik_Chemistry_Notes>
This compound contains an acetal/aminal-like group ( X-CH(R)-Y where X, Y are N, S, or O) that may be acid/base labile, releasing an aldehyde.

> <s_lp_Force_Field>
OPLS_2005

> <r_lp_Energy>
40.6027

> <b_lp_Chiralities_Consistent>
1

> <s_lp_Variant>
AV-unprocessed.smi:48-13

> <Gold.Version>
5.8.1

> <Gold.Id.Protein>
6NUR|6NUR_protein|mol2

> <Gold.PLP.Fitness>
37.8911

> <Gold.PLP.PLP>
-26.8555

> <Gold.PLP.part.hbond>
-4.4883

> <Gold.PLP.part.metal>
0.0000

> <Gold.PLP.part.buried>
-4.4394

> <Gold.PLP.part.nonpolar>
-19.0633

> <Gold.PLP.part.repulsive>
0.0100

> <Gold.PLP.ligand.clash>
0.0000

> <Gold.PLP.ligand.torsion>
0.6550

> <Gold.PLP.Chemscore.Hbond>
4.0595

> <Gold.PLP.Chemscore.CHOScore>
0.0000

> <Gold.PLP.Chemscore.Metal>
0.0000

> <Gold.Chemscore.Hbonds>
donor molecule, donor type, donor heavy atom, donor atom, acceptor molecule, acceptor atom, score
      L1  H     1    24       P1  7957  0.90
      L1  H    19    30       P1  7948  1.00
      P1  H  6896  6907       L1     8  1.00
      P1  H 10752 10764       L1    17  1.00

> <Gold.PLP.Chemscore.Internal.Correction>
0.1670

> <Gold.Rescore>
     Score         DG    S(hbond)    S(metal)    S(lipo)     H(rot)  DE(clash)    DE(int)     intcor
     11.62     -13.93       3.87        0.00      44.97       3.80       0.10       2.22       ----

> <Gold.Chemscore.Fitness>
11.6165

> <Gold.Chemscore.DG>
-13.9306

> <Gold.Chemscore.ZeroCoef>
-5.4800

> <Gold.Chemscore.Hbond>
3.8686

> <Gold.Chemscore.Metal>
0.0000

> <Gold.Chemscore.Lipo>
44.9731

> <Gold.Chemscore.Internal_Hbond>
0.0000

> <Gold.Chemscore.DEClash>
0.0977

> <Gold.Chemscore.DEInternal>
2.2164

> <Gold.Chemscore.Rot>
3.8017

> <Gold.Chemscore.Internal.Correction>
   9.000000E+99

> <Gold.Chemscore.Hbonds>
donor molecule, donor type, donor heavy atom, donor atom, acceptor molecule, acceptor atom, score
      L1  H     1    24       P1  7957  0.87
      L1  H    19    30       P1  7948  0.99
      P1  H  6896  6907       L1     8  0.91
      P1  H 10752 10764       L1    17  0.72

> <Gold.Chemscore.Hbond.Weighted>
-12.9212

> <Gold.Chemscore.Metal.Weighted>
-0.0000

> <Gold.Chemscore.Lipo.Weighted>
-5.2619

> <Gold.Chemscore.Internal_Hbond.Weighted>
0.0000

> <Gold.Chemscore.DEClash.Weighted>
0.0977

> <Gold.Chemscore.DEInternal.Weighted>
2.2164

> <Gold.Chemscore.Rot.Weighted>
9.7324

> <Gold.Chemscore.Internal.Correction.Weighted>
   9.000000E+99

> <Gold.Protein.RotatedTorsions>
[ 6907 6896 6895 6894 ] final  -33.95 input  -60.11 | X-H torsion
[ 7974 7965 7964 7962 ] final  -35.35 input  175.53 | X-H torsion
[ 8008 7997 7996 7995 ] final  100.08 input   59.86 | X-H torsion
[ 10167 10162 10161 10158 ] final   10.19 input  -65.29 | X-H torsion
[ 10718 10713 10712 10709 ] final   73.48 input   66.30 | X-H torsion
[ 10763 10752 10751 10750 ] final  -49.77 input  -60.55 | X-H torsion
[ 11005 11000 10999 10996 ] final   88.76 input  -57.11 | X-H torsion

> <Gold.Protein.ActiveResidues>
 VAL166  LYS551  ARG553  GLY616  TRP617  ASP618  TYR619  PRO620  LYS621  CYS622 
 ASP623  PHE694  ASN695  SER759  ASP760  ASP761  ALA762  ILE779  LEU786  VAL792 
 PHE793  MET794  SER795  GLU796  ALA797  LYS798  CYS799  TRP800  GLU811  SER814 

> <Gold.Protein.RotatedAtoms>
  151.0590  134.9724  159.8250 H   0  0  0  0  0  0  0  0  0  0  0  0  # atno 6907 bound_to 6896
  152.5392  134.2442  159.8884 H   0  0  0  0  0  0  0  0  0  0  0  0  # atno 6908 bound_to 6896
  151.2461  133.4331  159.2643 H   0  0  0  0  0  0  0  0  0  0  0  0  # atno 6909 bound_to 6896
  146.0753  140.6149  142.8933 H   0  0  0  0  0  0  0  0  0  0  0  0  # atno 7974 bound_to 7965
  156.1168  140.3219  155.8150 H   0  0  0  0  0  0  0  0  0  0  0  0  # atno 8008 bound_to 7997
  155.4576  140.0537  157.3011 H   0  0  0  0  0  0  0  0  0  0  0  0  # atno 8009 bound_to 7997
  154.4798  140.2048  155.9804 H   0  0  0  0  0  0  0  0  0  0  0  0  # atno 8010 bound_to 7997
  140.6209  143.8206  150.7174 H   0  0  0  0  0  0  0  0  0  0  0  0  # atno 10167 bound_to 10162
  157.6549  130.9630  150.1075 H   0  0  0  0  0  0  0  0  0  0  0  0  # atno 10718 bound_to 10713
  154.0995  135.6565  153.4866 H   0  0  0  0  0  0  0  0  0  0  0  0  # atno 10763 bound_to 10752
  153.0293  135.5221  154.7301 H   0  0  0  0  0  0  0  0  0  0  0  0  # atno 10764 bound_to 10752
  154.6448  135.2993  155.0028 H   0  0  0  0  0  0  0  0  0  0  0  0  # atno 10765 bound_to 10752
  139.8889  134.8508  156.3046 H   0  0  0  0  0  0  0  0  0  0  0  0  # atno 11005 bound_to 11000
  144.7258  140.4519  143.6974 LP  0  0  0  0  0  0  0  0  0  0  0  0  # atno 17320 bound_to 7965
  145.6316  139.1537  143.2965 LP  0  0  0  0  0  0  0  0  0  0  0  0  # atno 17321 bound_to 7965
  140.1796  143.4126  152.1943 LP  0  0  0  0  0  0  0  0  0  0  0  0  # atno 17342 bound_to 10162
  139.5438  144.7280  151.4648 LP  0  0  0  0  0  0  0  0  0  0  0  0  # atno 17343 bound_to 10162
  156.1981  130.3658  149.8824 LP  0  0  0  0  0  0  0  0  0  0  0  0  # atno 17370 bound_to 10713
  156.6735  130.8829  151.3565 LP  0  0  0  0  0  0  0  0  0  0  0  0  # atno 17371 bound_to 10713
  140.9890  133.7220  156.0786 LP  0  0  0  0  0  0  0  0  0  0  0  0  # atno 17394 bound_to 11000
  140.7649  134.3897  157.5519 LP  0  0  0  0  0  0  0  0  0  0  0  0  # atno 17395 bound_to 11000

$$$$
