AV-unprocessed.smi:1126|AV-procd|sdf|4837|dock7
  -GOLD-   22720 3403D 1   1.00000     0.00000
 Structure written by MMmdl.
 48 49  0  0  0  0  0  0  0  0  2 V2000
  144.3170  134.2887  150.5126 C   0  0  0  0  0  0  0  0  0  0  0  0
  145.2578  134.5837  151.5307 O   0  0  0  0  0  0  0  0  0  0  0  0
  145.7583  135.9074  151.4418 C   0  0  0  0  0  0  0  0  0  0  0  0
  144.7425  136.8696  152.0776 C   0  0  0  0  0  0  0  0  0  0  0  0
  145.3700  138.1226  152.5701 N   0  3  2  0  0  0  0  0  0  0  0  0
  146.4912  138.5654  151.7024 C   0  0  0  0  0  0  0  0  0  0  0  0
  147.0305  139.9366  152.1426 C   0  0  0  0  0  0  0  0  0  0  0  0
  147.4727  139.9208  153.6190 C   0  0  1  0  0  0  0  0  0  0  0  0
  147.9736  141.2945  154.1026 C   0  0  0  0  0  0  0  0  0  0  0  0
  149.3247  141.2115  154.6408 N   0  0  0  0  0  0  0  0  0  0  0  0
  149.6532  141.4854  155.9116 C   0  0  0  0  0  0  0  0  0  0  0  0
  148.8384  141.8498  156.7588 O   0  0  0  0  0  0  0  0  0  0  0  0
  151.1268  141.3224  156.2853 C   0  0  0  0  0  0  0  0  0  0  0  0
  151.5048  142.2517  157.3348 N   0  0  0  0  0  0  0  0  0  0  0  0
  151.4571  143.6299  157.3157 C   0  0  0  0  0  0  0  0  0  0  0  0
  151.9053  144.0738  158.5275 C   0  0  0  0  0  0  0  0  0  0  0  0
  152.0491  145.4873  159.0135 C   0  0  0  0  0  0  0  0  0  0  0  0
  152.2065  142.8720  159.2293 C   0  0  0  0  0  0  0  0  0  0  0  0
  151.9654  141.7843  158.5152 N   0  0  0  0  0  0  0  0  0  0  0  0
  146.3027  139.4212  154.4837 C   0  0  0  0  0  0  0  0  0  0  0  0
  145.7830  138.0584  153.9968 C   0  0  0  0  0  0  0  0  0  0  0  0
  143.9723  133.2601  150.6189 H   0  0  0  0  0  0  0  0  0  0  0  0
  144.7610  134.3933  149.5218 H   0  0  0  0  0  0  0  0  0  0  0  0
  143.4469  134.9434  150.5778 H   0  0  0  0  0  0  0  0  0  0  0  0
  146.7362  135.9833  151.9173 H   0  0  0  0  0  0  0  0  0  0  0  0
  145.8952  136.1729  150.3923 H   0  0  0  0  0  0  0  0  0  0  0  0
  143.9499  137.1111  151.3679 H   0  0  0  0  0  0  0  0  0  0  0  0
  144.2629  136.3491  152.9078 H   0  0  0  0  0  0  0  0  0  0  0  0
  147.2884  137.8206  151.7274 H   0  0  0  0  0  0  0  0  0  0  0  0
  146.1525  138.6327  150.6679 H   0  0  0  0  0  0  0  0  0  0  0  0
  147.8637  140.2169  151.4973 H   0  0  0  0  0  0  0  0  0  0  0  0
  146.2596  140.6949  151.9959 H   0  0  0  0  0  0  0  0  0  0  0  0
  148.2932  139.2085  153.7220 H   0  0  0  0  0  0  0  0  0  0  0  0
  147.9509  142.0127  153.2812 H   0  0  0  0  0  0  0  0  0  0  0  0
  147.3125  141.6796  154.8806 H   0  0  0  0  0  0  0  0  0  0  0  0
  150.0566  140.9109  154.0132 H   0  0  0  0  0  0  0  0  0  0  0  0
  151.3202  140.2994  156.6128 H   0  0  0  0  0  0  0  0  0  0  0  0
  151.7558  141.5048  155.4130 H   0  0  0  0  0  0  0  0  0  0  0  0
  151.1093  144.1741  156.4497 H   0  0  0  0  0  0  0  0  0  0  0  0
  152.6195  145.5415  159.9410 H   0  0  0  0  0  0  0  0  0  0  0  0
  151.0792  145.9463  159.2057 H   0  0  0  0  0  0  0  0  0  0  0  0
  152.5629  146.1135  158.2840 H   0  0  0  0  0  0  0  0  0  0  0  0
  152.5908  142.7589  160.2323 H   0  0  0  0  0  0  0  0  0  0  0  0
  146.6173  139.3398  155.5248 H   0  0  0  0  0  0  0  0  0  0  0  0
  145.4897  140.1487  154.4640 H   0  0  0  0  0  0  0  0  0  0  0  0
  144.9440  137.7611  154.6244 H   0  0  0  0  0  0  0  0  0  0  0  0
  146.5545  137.2965  154.1207 H   0  0  0  0  0  0  0  0  0  0  0  0
  144.6612  138.8391  152.4998 H   0  0  0  0  0  0  0  0  0  0  0  0
  1  2  1  0  0  0  0
  1 22  1  0  0  0  0
  1 23  1  0  0  0  0
  1 24  1  0  0  0  0
  2  3  1  0  0  0  0
  3  4  1  0  0  0  0
  3 25  1  0  0  0  0
  3 26  1  0  0  0  0
  4  5  1  0  0  0  0
  4 27  1  0  0  0  0
  4 28  1  0  0  0  0
  5 21  1  0  0  0  0
  5  6  1  0  0  0  0
  5 48  1  0  0  0  0
  6  7  1  0  0  0  0
  6 29  1  0  0  0  0
  6 30  1  0  0  0  0
  7  8  1  0  0  0  0
  7 31  1  0  0  0  0
  7 32  1  0  0  0  0
  8  9  1  0  0  0  0
  8 20  1  0  0  0  0
  8 33  1  0  0  0  0
  9 10  1  0  0  0  0
  9 34  1  0  0  0  0
  9 35  1  0  0  0  0
 10 11  1  0  0  0  0
 10 36  1  0  0  0  0
 11 12  2  0  0  0  0
 11 13  1  0  0  0  0
 13 14  1  0  0  0  0
 13 37  1  0  0  0  0
 13 38  1  0  0  0  0
 14 19  1  0  0  0  0
 14 15  1  0  0  0  0
 15 16  2  0  0  0  0
 15 39  1  0  0  0  0
 16 17  1  0  0  0  0
 16 18  1  0  0  0  0
 17 40  1  0  0  0  0
 17 41  1  0  0  0  0
 17 42  1  0  0  0  0
 18 19  2  0  0  0  0
 18 43  1  0  0  0  0
 20 21  1  0  0  0  0
 20 44  1  0  0  0  0
 20 45  1  0  0  0  0
 21 46  1  0  0  0  0
 21 47  1  0  0  0  0
M  CHG  1   5   1
M  END
> <s_m_source_file>
AV-unprocessed.smi

> <i_m_source_file_index>
1126

> <i_lp_mmshare_version>
43012

> <i_f3d_flags>
0

> <s_epik_input>
W0NIM11PW0NIMl1bQ0gyXU4xW0NIMl1bQ0gyXVtDSF0oW0NIMl1bQ0gyXTEpW0NIMl1bTkhdQyg9TylbQ0gyXW4yW2NIXWMoW0NIM10pW2NIXW4y

> <s_epik_cmdline>
J2VwaWtfcHl0aG9uJywgJy1waCcsICc3LjAnLCAnLXRuJywgJzgnLCAnLW1hJywgJzIwMCcsICctbWV0YWxfYmluZGluZycsICctaW1hZScsICc8aW5maWxlLm1hZT4nLCAnLW9tYWUnLCAnPG91dGZpbGUubWFlPic=

> <r_lp_tautomer_probability>
1

> <r_epik_Ionization_Penalty>
0.00992859

> <r_epik_Ionization_Penalty_Charging>
0.00990284

> <r_epik_Ionization_Penalty_Neutral>
2.57527e-05

> <r_epik_State_Penalty>
0.00754525

> <r_epik_Charging_Adjusted_Penalty>
0.0174481

> <i_epik_Tot_Q>
1

> <i_epik_Tot_abs_Q>
1

> <r_epik_Metal_State_Penalty>
0.00754529

> <b_epik_Metal_Only>
0

> <s_lp_Force_Field>
OPLS_2005

> <r_lp_Energy>
19.6202

> <b_lp_Chiralities_Consistent>
1

> <s_lp_Variant>
AV-unprocessed.smi:1126-1

> <Gold.Version>
5.8.1

> <Gold.Id.Protein>
6NUR|6NUR_protein|mol2

> <Gold.PLP.Fitness>
45.2865

> <Gold.PLP.PLP>
-39.6544

> <Gold.PLP.part.hbond>
-1.6800

> <Gold.PLP.part.metal>
0.0000

> <Gold.PLP.part.buried>
0.8079

> <Gold.PLP.part.nonpolar>
-40.3080

> <Gold.PLP.part.repulsive>
0.4756

> <Gold.PLP.ligand.clash>
0.0000

> <Gold.PLP.ligand.torsion>
1.7021

> <Gold.PLP.Chemscore.Hbond>
2.0000

> <Gold.PLP.Chemscore.CHOScore>
1.0000

> <Gold.PLP.Chemscore.Metal>
0.0000

> <Gold.Chemscore.Hbonds>
donor molecule, donor type, donor heavy atom, donor atom, acceptor molecule, acceptor atom, score
      L1  H     5    48       P1 10175  2.00
      L1  C    15    39       P1  8028  1.00

> <Gold.PLP.Chemscore.Internal.Correction>
0.0362

> <Gold.Rescore>
     Score         DG    S(hbond)    S(metal)    S(lipo)     H(rot)  DE(clash)    DE(int)     intcor
     13.66     -16.15       1.00        0.00     108.73       2.10       0.75       1.74       ----

> <Gold.Chemscore.Fitness>
13.6618

> <Gold.Chemscore.DG>
-16.1523

> <Gold.Chemscore.ZeroCoef>
-5.4800

> <Gold.Chemscore.Hbond>
0.9965

> <Gold.Chemscore.Metal>
0.0000

> <Gold.Chemscore.Lipo>
108.7299

> <Gold.Chemscore.Internal_Hbond>
0.0000

> <Gold.Chemscore.DEClash>
0.7525

> <Gold.Chemscore.DEInternal>
1.7380

> <Gold.Chemscore.Rot>
2.1006

> <Gold.Chemscore.Internal.Correction>
   9.000000E+99

> <Gold.Chemscore.Hbonds>
donor molecule, donor type, donor heavy atom, donor atom, acceptor molecule, acceptor atom, score
      L1  H     5    48       P1 10175  1.00

> <Gold.Chemscore.Hbond.Weighted>
-3.3284

> <Gold.Chemscore.Metal.Weighted>
-0.0000

> <Gold.Chemscore.Lipo.Weighted>
-12.7214

> <Gold.Chemscore.Internal_Hbond.Weighted>
0.0000

> <Gold.Chemscore.DEClash.Weighted>
0.7525

> <Gold.Chemscore.DEInternal.Weighted>
1.7380

> <Gold.Chemscore.Rot.Weighted>
5.3775

> <Gold.Chemscore.Internal.Correction.Weighted>
   9.000000E+99

> <Gold.Protein.RotatedTorsions>
[ 6907 6896 6895 6894 ] final  101.77 input  -60.11 | X-H torsion
[ 7974 7965 7964 7962 ] final   87.91 input  175.53 | X-H torsion
[ 8008 7997 7996 7995 ] final  -47.96 input   59.86 | X-H torsion
[ 10167 10162 10161 10158 ] final  -44.49 input  -65.29 | X-H torsion
[ 10718 10713 10712 10709 ] final  -86.55 input   66.30 | X-H torsion
[ 10763 10752 10751 10750 ] final  135.77 input  -60.55 | X-H torsion
[ 11005 11000 10999 10996 ] final  142.90 input  -57.11 | X-H torsion

> <Gold.Protein.ActiveResidues>
 VAL166  LYS551  ARG553  GLY616  TRP617  ASP618  TYR619  PRO620  LYS621  CYS622 
 ASP623  PHE694  ASN695  SER759  ASP760  ASP761  ALA762  ILE779  LEU786  VAL792 
 PHE793  MET794  SER795  GLU796  ALA797  LYS798  CYS799  TRP800  GLU811  SER814 

> <Gold.Protein.RotatedAtoms>
  152.5341  134.0076  159.7923 H   0  0  0  0  0  0  0  0  0  0  0  0  # atno 6907 bound_to 6896
  151.0284  133.5805  159.2670 H   0  0  0  0  0  0  0  0  0  0  0  0  # atno 6908 bound_to 6896
  151.2818  135.0723  159.9226 H   0  0  0  0  0  0  0  0  0  0  0  0  # atno 6909 bound_to 6896
  145.5527  139.2297  143.2503 H   0  0  0  0  0  0  0  0  0  0  0  0  # atno 7974 bound_to 7965
  154.4023  140.1333  156.4262 H   0  0  0  0  0  0  0  0  0  0  0  0  # atno 8008 bound_to 7997
  155.7595  140.3486  155.5171 H   0  0  0  0  0  0  0  0  0  0  0  0  # atno 8009 bound_to 7997
  155.8872  140.0997  157.1434 H   0  0  0  0  0  0  0  0  0  0  0  0  # atno 8010 bound_to 7997
  140.6895  143.2927  151.3503 H   0  0  0  0  0  0  0  0  0  0  0  0  # atno 10167 bound_to 10162
  155.9989  130.4769  150.4731 H   0  0  0  0  0  0  0  0  0  0  0  0  # atno 10718 bound_to 10713
  153.8456  135.3086  155.3429 H   0  0  0  0  0  0  0  0  0  0  0  0  # atno 10763 bound_to 10752
  154.7914  135.4780  154.0064 H   0  0  0  0  0  0  0  0  0  0  0  0  # atno 10764 bound_to 10752
  153.1549  135.6850  153.8919 H   0  0  0  0  0  0  0  0  0  0  0  0  # atno 10765 bound_to 10752
  140.0512  134.9254  157.1020 H   0  0  0  0  0  0  0  0  0  0  0  0  # atno 11005 bound_to 11000
  146.1905  140.6350  142.9147 LP  0  0  0  0  0  0  0  0  0  0  0  0  # atno 17320 bound_to 7965
  144.7521  140.5217  143.6794 LP  0  0  0  0  0  0  0  0  0  0  0  0  # atno 17321 bound_to 7965
  139.6283  144.0770  152.2454 LP  0  0  0  0  0  0  0  0  0  0  0  0  # atno 17342 bound_to 10162
  140.0237  144.6134  150.7545 LP  0  0  0  0  0  0  0  0  0  0  0  0  # atno 17343 bound_to 10162
  157.2744  131.0594  151.2239 LP  0  0  0  0  0  0  0  0  0  0  0  0  # atno 17370 bound_to 10713
  157.3307  130.6984  149.6323 LP  0  0  0  0  0  0  0  0  0  0  0  0  # atno 17371 bound_to 10713
  140.3914  134.2180  155.7166 LP  0  0  0  0  0  0  0  0  0  0  0  0  # atno 17394 bound_to 11000
  141.1931  133.8158  157.0812 LP  0  0  0  0  0  0  0  0  0  0  0  0  # atno 17395 bound_to 11000

$$$$
