#       Name:                AV-unprocessed.smi:2120
#       Creating user name   scv26
#       Creation time:       Fri Mar 27 11:38:48 2020


#       File generated by GOLD software.
#

@<TRIPOS>MOLECULE
AV-unprocessed.smi:2120
    48    51     1
SMALL
NO_CHARGES


@<TRIPOS>ATOM
      1 ****         0.3049   1.3780   1.0529 O.2            1 S1                 0.0000
      2 ****        -0.0795   0.6576   0.1305 C.2            1 S1                 0.0000
      3 ****         0.7806   0.0139  -0.6769 N.am           1 S1                 0.0000
      4 ****         2.2337   0.0836  -0.5811 C.3            1 S1                 0.0000
      5 ****         2.7710  -0.7759   0.5764 C.3            1 S1                 0.0000
      6 ****         4.2813  -0.7050   0.6924 C.ar           1 S1                 0.0000
      7 ****         4.9026   0.4391   1.2405 C.ar           1 S1                 0.0000
      8 ****         6.3089   0.4828   1.3387 C.ar           1 S1                 0.0000
      9 ****         7.0626  -0.6205   0.8890 C.ar           1 S1                 0.0000
     10 ****         6.4334  -1.6987   0.3717 N.pl3          1 S1                 1.0000
     11 ****         5.0892  -1.7785   0.2585 C.ar           1 S1                 0.0000
     12 ****        -1.5959   0.4730  -0.1148 C.3            1 S1                 0.0000
     13 ****        -2.2254  -0.2462   1.1094 C.3            1 S1                 0.0000
     14 ****        -3.7501  -0.3986   0.9178 C.3            1 S1                 0.0000
     15 ****        -4.3941   0.9965   0.7771 C.3            1 S1                 0.0000
     16 ****        -3.7925   1.7123  -0.4504 C.3            1 S1                 0.0000
     17 ****        -4.0764   0.8872  -1.7223 C.3            1 S1                 0.0000
     18 ****        -3.4352  -0.5082  -1.5760 C.3            1 S1                 0.0000
     19 ****        -4.0336  -1.2300  -0.3506 C.3            1 S1                 0.0000
     20 ****        -1.9096  -0.3606  -1.3935 C.3            1 S1                 0.0000
     21 ****        -2.2680   1.8668  -0.2620 C.3            1 S1                 0.0000
     22 ****         0.3966  -0.5596  -1.4142 H              1 S1                 0.0000
     23 ****         2.6530  -0.2622  -1.5264 H              1 S1                 0.0000
     24 ****         2.5432   1.1237  -0.4656 H              1 S1                 0.0000
     25 ****         2.3410  -0.4506   1.5245 H              1 S1                 0.0000
     26 ****         2.4654  -1.8146   0.4422 H              1 S1                 0.0000
     27 ****         4.3085   1.2753   1.5803 H              1 S1                 0.0000
     28 ****         6.8017   1.3502   1.7534 H              1 S1                 0.0000
     29 ****         8.1410  -0.6725   0.9273 H              1 S1                 0.0000
     30 ****         4.7054  -2.6922  -0.1718 H              1 S1                 0.0000
     31 ****        -1.7721  -1.2295   1.2459 H              1 S1                 0.0000
     32 ****        -2.0285   0.3093   2.0280 H              1 S1                 0.0000
     33 ****        -4.1740  -0.9063   1.7848 H              1 S1                 0.0000
     34 ****        -5.4756   0.9051   0.6696 H              1 S1                 0.0000
     35 ****        -4.2226   1.5848   1.6793 H              1 S1                 0.0000
     36 ****        -4.2453   2.6992  -0.5510 H              1 S1                 0.0000
     37 ****        -5.1517   0.7948  -1.8805 H              1 S1                 0.0000
     38 ****        -3.6777   1.3970  -2.6003 H              1 S1                 0.0000
     39 ****        -3.6368  -1.0934  -2.4737 H              1 S1                 0.0000
     40 ****        -3.6055  -2.2284  -0.2525 H              1 S1                 0.0000
     41 ****        -5.1079  -1.3675  -0.4800 H              1 S1                 0.0000
     42 ****        -1.4830   0.1164  -2.2775 H              1 S1                 0.0000
     43 ****        -1.4602  -1.3529  -1.3284 H              1 S1                 0.0000
     44 ****        -2.0757   2.4860   0.6158 H              1 S1                 0.0000
     45 ****        -1.8442   2.4042  -1.1118 H              1 S1                 0.0000
     46 ****         6.9978  -2.4871   0.0534 H              1 S1                 0.0000
     47 ****         1.2837   1.4979   1.2192 LP             1 S1                 0.0000
     48 ****        -0.3618   1.8430   1.6355 LP             1 S1                 0.0000
@<TRIPOS>BOND
    1    1    2 2     
    2    2    3 am    
    3    2   12 1     
    4    3    4 1     
    5    3   22 1     
    6    4    5 1     
    7    4   23 1     
    8    4   24 1     
    9    5    6 1     
   10    5   25 1     
   11    5   26 1     
   12    6   11 ar    
   13    6    7 ar    
   14    7    8 ar    
   15    7   27 1     
   16    8    9 ar    
   17    8   28 1     
   18    9   10 ar    
   19    9   29 1     
   20   10   11 ar    
   21   10   46 1     
   22   11   30 1     
   23   12   20 1     
   24   12   21 1     
   25   12   13 1     
   26   13   14 1     
   27   13   31 1     
   28   13   32 1     
   29   14   19 1     
   30   14   15 1     
   31   14   33 1     
   32   15   16 1     
   33   15   34 1     
   34   15   35 1     
   35   16   17 1     
   36   16   21 1     
   37   16   36 1     
   38   17   18 1     
   39   17   37 1     
   40   17   38 1     
   41   18   19 1     
   42   18   20 1     
   43   18   39 1     
   44   19   40 1     
   45   19   41 1     
   46   20   42 1     
   47   20   43 1     
   48   21   44 1     
   49   21   45 1     
   50    1   47 1     
   51    1   48 1     
@<TRIPOS>SUBSTRUCTURE
      1 S1             1
@<TRIPOS>SET
LONE_PAIRS      STATIC     ATOMS    <user>   **** ""
2 47 48
DONOR_HYDROGENS      STATIC     ATOMS    <user>   **** ""
2 22 46
ATOM$BLUE        STATIC     ATOMS    COLORGROUP SYSTEM
2 47 48
ATOM$RED        STATIC     ATOMS    COLORGROUP SYSTEM
2 22 46
