AV-unprocessed.smi:160|AV-procd|sdf|1355|dock2
  -GOLD-   2262019 63D 1   1.00000     0.00000
 Structure written by MMmdl.
 29 30  0  0  0  0  0  0  0  0  1 V2000
  147.9121  135.6033  158.9689 N   0  0  0  0  0  0  0  0  0  0  0  0
  148.4978  136.6748  159.5140 C   0  0  0  0  0  0  0  0  0  0  0  0
  148.1033  137.1782  160.5648 O   0  0  0  0  0  0  0  0  0  0  0  0
  149.6745  137.2398  158.7677 C   0  0  0  0  0  0  0  0  0  0  0  0
  150.9544  136.9027  159.1058 N   0  0  0  0  0  0  0  0  0  0  0  0
  151.6052  137.6232  158.2012 C   0  0  0  0  0  0  0  0  0  0  0  0
  150.8112  138.3239  157.3852 N   0  0  0  0  0  0  0  0  0  0  0  0
  151.1619  139.2480  156.2618 C   0  0  2  0  0  0  0  0  0  0  0  0
  150.0382  140.0342  155.9999 O   0  0  0  0  0  0  0  0  0  0  0  0
  149.7609  140.0550  154.6017 C   0  0  2  0  0  0  0  0  0  0  0  0
  148.2707  140.3327  154.3367 C   0  0  0  0  0  0  0  0  0  0  0  0
  148.0428  140.4807  152.9513 O   0  0  0  0  0  0  0  0  0  0  0  0
  150.2832  138.7027  154.0966 C   0  0  2  0  0  0  0  0  0  0  0  0
  149.3201  137.6783  154.2780 O   0  0  0  0  0  0  0  0  0  0  0  0
  151.5239  138.5049  154.9594 C   0  0  2  0  0  0  0  0  0  0  0  0
  151.9037  137.1459  155.1025 O   0  0  0  0  0  0  0  0  0  0  0  0
  149.5266  138.0895  157.7504 N   0  0  0  0  0  0  0  0  0  0  0  0
  151.9821  139.8523  156.6513 H   0  0  0  0  0  0  0  0  0  0  0  0
  150.3729  140.8379  154.1490 H   0  0  0  0  0  0  0  0  0  0  0  0
  150.5363  138.7399  153.0365 H   0  0  0  0  0  0  0  0  0  0  0  0
  152.3542  139.0474  154.5055 H   0  0  0  0  0  0  0  0  0  0  0  0
  147.1160  135.1788  159.4214 H   0  0  0  0  0  0  0  0  0  0  0  0
  148.2717  135.2265  158.1036 H   0  0  0  0  0  0  0  0  0  0  0  0
  152.6827  137.6384  158.1302 H   0  0  0  0  0  0  0  0  0  0  0  0
  147.6651  139.4922  154.6769 H   0  0  0  0  0  0  0  0  0  0  0  0
  147.9297  141.2186  154.8733 H   0  0  0  0  0  0  0  0  0  0  0  0
  148.8477  140.2911  152.4936 H   0  0  0  0  0  0  0  0  0  0  0  0
  149.4400  137.0361  153.5947 H   0  0  0  0  0  0  0  0  0  0  0  0
  151.2879  136.7196  155.6787 H   0  0  0  0  0  0  0  0  0  0  0  0
  1  2  1  0  0  0  0
  1 22  1  0  0  0  0
  1 23  1  0  0  0  0
  2  3  2  0  0  0  0
  2  4  1  0  0  0  0
  4 17  2  0  0  0  0
  4  5  1  0  0  0  0
  5  6  2  0  0  0  0
  6  7  1  0  0  0  0
  6 24  1  0  0  0  0
  7  8  1  0  0  0  0
  7 17  1  0  0  0  0
  8 18  1  0  0  0  0
  8 15  1  0  0  0  0
  8  9  1  0  0  0  0
  9 10  1  0  0  0  0
 10 19  1  0  0  0  0
 10 11  1  0  0  0  0
 10 13  1  0  0  0  0
 11 12  1  0  0  0  0
 11 25  1  0  0  0  0
 11 26  1  0  0  0  0
 12 27  1  0  0  0  0
 13 20  1  0  0  0  0
 13 14  1  0  0  0  0
 13 15  1  0  0  0  0
 14 28  1  0  0  0  0
 15 21  1  0  0  0  0
 15 16  1  0  0  0  0
 16 29  1  0  0  0  0
M  END
> <s_m_source_file>
AV-unprocessed.smi

> <i_m_source_file_index>
160

> <i_lp_mmshare_version>
43012

> <i_f3d_flags>
0

> <s_epik_input>
W05IMl1DKD1PKWMxbltjSF1uKG4xKVtDQEBIXTJPW0NASF0oW0NIMl1bT0hdKVtDQEBIXShbT0hdKVtDQEhdMltPSF0=

> <s_epik_cmdline>
J2VwaWtfcHl0aG9uJywgJy1waCcsICc3LjAnLCAnLXRuJywgJzgnLCAnLW1hJywgJzIwMCcsICctbWV0YWxfYmluZGluZycsICctaW1hZScsICc8aW5maWxlLm1hZT4nLCAnLW9tYWUnLCAnPG91dGZpbGUubWFlPic=

> <r_lp_tautomer_probability>
1

> <r_epik_Ionization_Penalty>
1.06932e-05

> <r_epik_Ionization_Penalty_Charging>
0

> <r_epik_Ionization_Penalty_Neutral>
1.06932e-05

> <r_epik_State_Penalty>
-0

> <r_epik_Charging_Adjusted_Penalty>
0

> <i_epik_Tot_Q>
0

> <i_epik_Tot_abs_Q>
0

> <r_epik_Metal_State_Penalty>
0.0142097

> <b_epik_Metal_Only>
0

> <s_epik_Chemistry_Notes>
This compound contains an acetal/aminal-like group ( X-CH(R)-Y where X, Y are N, S, or O) that may be acid/base labile, releasing an aldehyde.

> <s_lp_Force_Field>
OPLS_2005

> <r_lp_Energy>
47.6598

> <b_lp_Chiralities_Consistent>
1

> <s_lp_Variant>
AV-unprocessed.smi:160-13

> <Gold.Version>
5.8.1

> <Gold.Id.Protein>
6NUR|6NUR_protein|mol2

> <Gold.PLP.Fitness>
37.6253

> <Gold.PLP.PLP>
-25.4004

> <Gold.PLP.part.hbond>
-5.6198

> <Gold.PLP.part.metal>
0.0000

> <Gold.PLP.part.buried>
-4.7947

> <Gold.PLP.part.nonpolar>
-15.0074

> <Gold.PLP.part.repulsive>
0.0706

> <Gold.PLP.ligand.clash>
0.0000

> <Gold.PLP.ligand.torsion>
2.0040

> <Gold.PLP.Chemscore.Hbond>
5.4086

> <Gold.PLP.Chemscore.CHOScore>
0.0000

> <Gold.PLP.Chemscore.Metal>
0.0000

> <Gold.Chemscore.Hbonds>
donor molecule, donor type, donor heavy atom, donor atom, acceptor molecule, acceptor atom, score
      L1  H    12    27       P1  7957  0.98
      L1  H    14    28       P1  7948  1.00
      P1  H  6896  6908       L1     5  1.00
      P1  H  6931  6943       L1     3  0.78
      P1  H  6934  6947       L1     3  0.62
      P1  H 10752 10765       L1    16  0.98

> <Gold.PLP.Chemscore.Internal.Correction>
0.0071

> <Gold.Rescore>
     Score         DG    S(hbond)    S(metal)    S(lipo)     H(rot)  DE(clash)    DE(int)     intcor
     14.22     -16.25       5.31        0.00      29.34       4.06       0.00       2.03       ----

> <Gold.Chemscore.Fitness>
14.2178

> <Gold.Chemscore.DG>
-16.2542

> <Gold.Chemscore.ZeroCoef>
-5.4800

> <Gold.Chemscore.Hbond>
5.3098

> <Gold.Chemscore.Metal>
0.0000

> <Gold.Chemscore.Lipo>
29.3419

> <Gold.Chemscore.Internal_Hbond>
0.0000

> <Gold.Chemscore.DEClash>
0.0037

> <Gold.Chemscore.DEInternal>
2.0327

> <Gold.Chemscore.Rot>
4.0600

> <Gold.Chemscore.Internal.Correction>
   9.000000E+99

> <Gold.Chemscore.Hbonds>
donor molecule, donor type, donor heavy atom, donor atom, acceptor molecule, acceptor atom, score
      L1  H    12    27       P1  7957  0.89
      L1  H    14    28       P1  7948  0.89
      P1  H  6896  6908       L1     5  0.95
      P1  H  6931  6943       L1     3  0.77
      P1  H  6934  6947       L1     3  0.60
      P1  H 10752 10765       L1    16  0.24

> <Gold.Chemscore.Hbond.Weighted>
-17.7348

> <Gold.Chemscore.Metal.Weighted>
-0.0000

> <Gold.Chemscore.Lipo.Weighted>
-3.4330

> <Gold.Chemscore.Internal_Hbond.Weighted>
0.0000

> <Gold.Chemscore.DEClash.Weighted>
0.0037

> <Gold.Chemscore.DEInternal.Weighted>
2.0327

> <Gold.Chemscore.Rot.Weighted>
10.3936

> <Gold.Chemscore.Internal.Correction.Weighted>
   9.000000E+99

> <Gold.Protein.RotatedTorsions>
[ 6907 6896 6895 6894 ] final -136.83 input  -60.11 | X-H torsion
[ 7974 7965 7964 7962 ] final  103.35 input  175.53 | X-H torsion
[ 8008 7997 7996 7995 ] final  167.83 input   59.86 | X-H torsion
[ 10167 10162 10161 10158 ] final   85.63 input  -65.29 | X-H torsion
[ 10718 10713 10712 10709 ] final  153.56 input   66.30 | X-H torsion
[ 10763 10752 10751 10750 ] final  175.84 input  -60.55 | X-H torsion
[ 11005 11000 10999 10996 ] final -179.25 input  -57.11 | X-H torsion

> <Gold.Protein.ActiveResidues>
 VAL166  LYS551  ARG553  GLY616  TRP617  ASP618  TYR619  PRO620  LYS621  CYS622 
 ASP623  PHE694  ASN695  SER759  ASP760  ASP761  ALA762  ILE779  LEU786  VAL792 
 PHE793  MET794  SER795  GLU796  ALA797  LYS798  CYS799  TRP800  GLU811  SER814 

> <Gold.Protein.RotatedAtoms>
  151.0150  133.5930  159.2677 H   0  0  0  0  0  0  0  0  0  0  0  0  # atno 6907 bound_to 6896
  151.3068  135.0782  159.9268 H   0  0  0  0  0  0  0  0  0  0  0  0  # atno 6908 bound_to 6896
  152.5309  133.9821  159.7866 H   0  0  0  0  0  0  0  0  0  0  0  0  # atno 6909 bound_to 6896
  145.3471  139.2448  143.3578 H   0  0  0  0  0  0  0  0  0  0  0  0  # atno 7974 bound_to 7965
  156.1600  140.1606  156.8628 H   0  0  0  0  0  0  0  0  0  0  0  0  # atno 8008 bound_to 7997
  154.5152  140.0791  156.8102 H   0  0  0  0  0  0  0  0  0  0  0  0  # atno 8009 bound_to 7997
  155.3726  140.3401  155.4246 H   0  0  0  0  0  0  0  0  0  0  0  0  # atno 8010 bound_to 7997
  139.8958  144.6359  150.8690 H   0  0  0  0  0  0  0  0  0  0  0  0  # atno 10167 bound_to 10162
  157.2431  131.0763  151.1779 H   0  0  0  0  0  0  0  0  0  0  0  0  # atno 10718 bound_to 10713
  154.4731  135.2772  155.1628 H   0  0  0  0  0  0  0  0  0  0  0  0  # atno 10763 bound_to 10752
  154.3368  135.6178  153.5581 H   0  0  0  0  0  0  0  0  0  0  0  0  # atno 10764 bound_to 10752
  152.9866  135.5779  154.5116 H   0  0  0  0  0  0  0  0  0  0  0  0  # atno 10765 bound_to 10752
  140.4208  134.6608  157.4663 H   0  0  0  0  0  0  0  0  0  0  0  0  # atno 11005 bound_to 11000
  146.2983  140.4080  142.8713 LP  0  0  0  0  0  0  0  0  0  0  0  0  # atno 17320 bound_to 7965
  144.8746  140.7319  143.6025 LP  0  0  0  0  0  0  0  0  0  0  0  0  # atno 17321 bound_to 7965
  140.7717  143.3475  151.2082 LP  0  0  0  0  0  0  0  0  0  0  0  0  # atno 17342 bound_to 10162
  139.7069  143.9440  152.2931 LP  0  0  0  0  0  0  0  0  0  0  0  0  # atno 17343 bound_to 10162
  157.3358  130.7008  149.6351 LP  0  0  0  0  0  0  0  0  0  0  0  0  # atno 17370 bound_to 10713
  155.9669  130.4294  150.4832 LP  0  0  0  0  0  0  0  0  0  0  0  0  # atno 17371 bound_to 10713
  140.0202  134.6559  155.9251 LP  0  0  0  0  0  0  0  0  0  0  0  0  # atno 17394 bound_to 11000
  141.1785  133.6543  156.4923 LP  0  0  0  0  0  0  0  0  0  0  0  0  # atno 17395 bound_to 11000

$$$$
