AV-unprocessed.smi:2|AV-procd|sdf|25|dock10
  -GOLD-   2262015133D 1   1.00000     0.00000
 Structure written by MMmdl.
 52 54  0  0  0  0  0  0  0  0  3 V2000
  151.9211  145.0045  160.1610 C   0  0  0  0  0  0  0  0  0  0  0  0
  152.6896  144.2557  159.0632 C   0  0  0  0  0  0  0  0  0  0  0  0
  152.7515  142.7471  159.3247 C   0  0  0  0  0  0  0  0  0  0  0  0
  153.2860  142.3578  160.3626 O   0  0  0  0  0  0  0  0  0  0  0  0
  152.1595  141.8191  158.3154 C   0  0  0  0  0  0  0  0  0  0  0  0
  151.2006  142.2448  157.3667 C   0  0  0  0  0  0  0  0  0  0  0  0
  150.6640  141.3359  156.4346 C   0  0  0  0  0  0  0  0  0  0  0  0
  151.0656  139.9859  156.4241 C   0  0  0  0  0  0  0  0  0  0  0  0
  150.4843  139.1656  155.4812 O   0  0  0  0  0  0  0  0  0  0  0  0
  151.2136  138.0293  155.0368 C   0  0  0  0  0  0  0  0  0  0  0  0
  151.0011  136.8792  156.0337 C   0  0  2  0  0  0  0  0  0  0  0  0
  152.0324  135.9322  155.8430 O   0  0  0  0  0  0  0  0  0  0  0  0
  149.6246  136.2001  155.8405 C   0  0  0  0  0  0  0  0  0  0  0  0
  149.4240  135.0374  156.7131 N   0  0  0  0  0  0  0  0  0  0  0  0
  149.3909  133.7229  156.3366 C   0  0  0  0  0  0  0  0  0  0  0  0
  149.5289  133.1901  154.9879 N   0  3  0  0  0  0  0  0  0  0  0  0
  149.4312  131.9834  154.8035 O   0  0  0  0  0  0  0  0  0  0  0  0
  149.7754  133.9904  154.0908 O   0  5  0  0  0  0  0  0  0  0  0  0
  149.1907  132.8726  157.3427 N   0  0  0  0  0  0  0  0  0  0  0  0
  149.0716  133.6913  158.4471 C   0  0  0  0  0  0  0  0  0  0  0  0
  148.7939  133.3223  159.8485 C   0  0  0  0  0  0  0  0  0  0  0  0
  148.7015  132.1419  160.1885 O   0  0  0  0  0  0  0  0  0  0  0  0
  148.6316  134.3928  160.6860 N   0  0  0  0  0  0  0  0  0  0  0  0
  148.2760  134.1279  162.0935 C   0  0  0  0  0  0  0  0  0  0  0  0
  148.7806  135.7188  160.3237 C   0  0  0  0  0  0  0  0  0  0  0  0
  148.5790  136.6169  161.1468 O   0  0  0  0  0  0  0  0  0  0  0  0
  149.1652  136.0136  159.0344 N   0  0  0  0  0  0  0  0  0  0  0  0
  149.4952  137.4091  158.7101 C   0  0  0  0  0  0  0  0  0  0  0  0
  149.2303  134.9994  158.1142 C   0  0  0  0  0  0  0  0  0  0  0  0
  152.0294  139.5579  157.3692 C   0  0  0  0  0  0  0  0  0  0  0  0
  152.5679  140.4661  158.3010 C   0  0  0  0  0  0  0  0  0  0  0  0
  151.8652  146.0686  159.9314 H   0  0  0  0  0  0  0  0  0  0  0  0
  152.4019  144.9024  161.1340 H   0  0  0  0  0  0  0  0  0  0  0  0
  150.8997  144.6331  160.2516 H   0  0  0  0  0  0  0  0  0  0  0  0
  152.1939  144.4160  158.1053 H   0  0  0  0  0  0  0  0  0  0  0  0
  153.6958  144.6584  158.9504 H   0  0  0  0  0  0  0  0  0  0  0  0
  150.8581  143.2675  157.3301 H   0  0  0  0  0  0  0  0  0  0  0  0
  149.9315  141.6805  155.7193 H   0  0  0  0  0  0  0  0  0  0  0  0
  150.8257  137.7372  154.0596 H   0  0  0  0  0  0  0  0  0  0  0  0
  152.2767  138.2490  154.9222 H   0  0  0  0  0  0  0  0  0  0  0  0
  151.0846  137.2592  157.0512 H   0  0  0  0  0  0  0  0  0  0  0  0
  151.6816  135.0687  156.0005 H   0  0  0  0  0  0  0  0  0  0  0  0
  148.8165  136.9073  155.9903 H   0  0  0  0  0  0  0  0  0  0  0  0
  149.4807  135.9193  154.8009 H   0  0  0  0  0  0  0  0  0  0  0  0
  149.0566  134.5024  162.7578 H   0  0  0  0  0  0  0  0  0  0  0  0
  148.1330  133.0757  162.3422 H   0  0  0  0  0  0  0  0  0  0  0  0
  147.3439  134.6317  162.3541 H   0  0  0  0  0  0  0  0  0  0  0  0
  148.6486  137.9010  158.2310 H   0  0  0  0  0  0  0  0  0  0  0  0
  150.3683  137.4768  158.0691 H   0  0  0  0  0  0  0  0  0  0  0  0
  149.7601  138.0112  159.5802 H   0  0  0  0  0  0  0  0  0  0  0  0
  152.3748  138.5358  157.4014 H   0  0  0  0  0  0  0  0  0  0  0  0
  153.3004  140.1055  159.0088 H   0  0  0  0  0  0  0  0  0  0  0  0
  1  2  1  0  0  0  0
  1 32  1  0  0  0  0
  1 33  1  0  0  0  0
  1 34  1  0  0  0  0
  2  3  1  0  0  0  0
  2 35  1  0  0  0  0
  2 36  1  0  0  0  0
  3  4  2  0  0  0  0
  3  5  1  0  0  0  0
  5 31  1  0  0  0  0
  5  6  2  0  0  0  0
  6  7  1  0  0  0  0
  6 37  1  0  0  0  0
  7  8  2  0  0  0  0
  7 38  1  0  0  0  0
  8  9  1  0  0  0  0
  8 30  1  0  0  0  0
  9 10  1  0  0  0  0
 10 11  1  0  0  0  0
 10 39  1  0  0  0  0
 10 40  1  0  0  0  0
 11 12  1  0  0  0  0
 11 13  1  0  0  0  0
 11 41  1  0  0  0  0
 12 42  1  0  0  0  0
 13 14  1  0  0  0  0
 13 43  1  0  0  0  0
 13 44  1  0  0  0  0
 14 29  1  0  0  0  0
 14 15  1  0  0  0  0
 15 16  1  0  0  0  0
 15 19  2  0  0  0  0
 16 17  2  0  0  0  0
 16 18  1  0  0  0  0
 19 20  1  0  0  0  0
 20 29  2  0  0  0  0
 20 21  1  0  0  0  0
 21 22  2  0  0  0  0
 21 23  1  0  0  0  0
 23 24  1  0  0  0  0
 23 25  1  0  0  0  0
 24 45  1  0  0  0  0
 24 46  1  0  0  0  0
 24 47  1  0  0  0  0
 25 26  2  0  0  0  0
 25 27  1  0  0  0  0
 27 28  1  0  0  0  0
 27 29  1  0  0  0  0
 28 48  1  0  0  0  0
 28 49  1  0  0  0  0
 28 50  1  0  0  0  0
 30 31  2  0  0  0  0
 30 51  1  0  0  0  0
 31 52  1  0  0  0  0
M  CHG  1  16   1
M  CHG  1  18  -1
M  END
> <s_m_source_file>
AV-unprocessed.smi

> <i_m_source_file_index>
2

> <i_lp_mmshare_version>
43012

> <i_f3d_flags>
0

> <s_epik_input>
W0NIM11bQ0gyXUMoPU8pYzFbY0hdW2NIXWMoW2NIXVtjSF0xKU9bQ0gyXVtDQEhdKFtPSF0pW0NIMl1uKGMobjIpW04rXSg9TylbTy1dKWMoYzIzKW4oW0NIM10pYyg9TyluKGMzPU8pW0NIM10=

> <s_epik_cmdline>
J2VwaWtfcHl0aG9uJywgJy1waCcsICc3LjAnLCAnLXRuJywgJzgnLCAnLW1hJywgJzIwMCcsICctbWV0YWxfYmluZGluZycsICctaW1hZScsICc8aW5maWxlLm1hZT4nLCAnLW9tYWUnLCAnPG91dGZpbGUubWFlPic=

> <r_lp_tautomer_probability>
1

> <r_epik_Ionization_Penalty>
1.02275e-06

> <r_epik_Ionization_Penalty_Charging>
4.46226e-11

> <r_epik_Ionization_Penalty_Neutral>
1.02271e-06

> <r_epik_State_Penalty>
-0

> <r_epik_Charging_Adjusted_Penalty>
4.46226e-11

> <i_epik_Tot_Q>
0

> <i_epik_Tot_abs_Q>
2

> <r_epik_Metal_State_Penalty>
-0

> <b_epik_Metal_Only>
0

> <s_lp_Force_Field>
OPLS_2005

> <r_lp_Energy>
60.0216

> <b_lp_Chiralities_Consistent>
1

> <s_lp_Variant>
AV-unprocessed.smi:2-1

> <Gold.Version>
5.8.1

> <Gold.Id.Protein>
6NUR|6NUR_protein|mol2

> <Gold.PLP.Fitness>
56.6967

> <Gold.PLP.PLP>
-49.9090

> <Gold.PLP.part.hbond>
-3.0000

> <Gold.PLP.part.metal>
0.0000

> <Gold.PLP.part.buried>
-8.5852

> <Gold.PLP.part.nonpolar>
-39.1138

> <Gold.PLP.part.repulsive>
0.1946

> <Gold.PLP.ligand.clash>
0.0000

> <Gold.PLP.ligand.torsion>
0.9485

> <Gold.PLP.Chemscore.Hbond>
2.7440

> <Gold.PLP.Chemscore.CHOScore>
0.0000

> <Gold.PLP.Chemscore.Metal>
0.0000

> <Gold.Chemscore.Hbonds>
donor molecule, donor type, donor heavy atom, donor atom, acceptor molecule, acceptor atom, score
      P1  H  6931  6943       L1    26  1.00
      P1  H 10752 10765       L1    12  0.57

> <Gold.PLP.Chemscore.Internal.Correction>
0.4526

> <Gold.Rescore>
     Score         DG    S(hbond)    S(metal)    S(lipo)     H(rot)  DE(clash)    DE(int)     intcor
     15.07     -17.38       2.74        0.00      92.55       3.16       0.00       2.30       ----

> <Gold.Chemscore.Fitness>
15.0744

> <Gold.Chemscore.DG>
-17.3796

> <Gold.Chemscore.ZeroCoef>
-5.4800

> <Gold.Chemscore.Hbond>
2.7427

> <Gold.Chemscore.Metal>
0.0000

> <Gold.Chemscore.Lipo>
92.5455

> <Gold.Chemscore.Internal_Hbond>
0.0000

> <Gold.Chemscore.DEClash>
0.0038

> <Gold.Chemscore.DEInternal>
2.3014

> <Gold.Chemscore.Rot>
3.1597

> <Gold.Chemscore.Internal.Correction>
   9.000000E+99

> <Gold.Chemscore.Hbonds>
donor molecule, donor type, donor heavy atom, donor atom, acceptor molecule, acceptor atom, score
      P1  H  6931  6943       L1    26  1.00
      P1  H 10752 10765       L1    12  0.07

> <Gold.Chemscore.Hbond.Weighted>
-9.1606

> <Gold.Chemscore.Metal.Weighted>
-0.0000

> <Gold.Chemscore.Lipo.Weighted>
-10.8278

> <Gold.Chemscore.Internal_Hbond.Weighted>
0.0000

> <Gold.Chemscore.DEClash.Weighted>
0.0038

> <Gold.Chemscore.DEInternal.Weighted>
2.3014

> <Gold.Chemscore.Rot.Weighted>
8.0888

> <Gold.Chemscore.Internal.Correction.Weighted>
   9.000000E+99

> <Gold.Protein.RotatedTorsions>
[ 6907 6896 6895 6894 ] final -118.48 input  -60.11 | X-H torsion
[ 7974 7965 7964 7962 ] final   29.79 input  175.53 | X-H torsion
[ 8008 7997 7996 7995 ] final  -86.92 input   59.86 | X-H torsion
[ 10167 10162 10161 10158 ] final  -90.84 input  -65.29 | X-H torsion
[ 10718 10713 10712 10709 ] final -169.58 input   66.30 | X-H torsion
[ 10763 10752 10751 10750 ] final -151.65 input  -60.55 | X-H torsion
[ 11005 11000 10999 10996 ] final  139.14 input  -57.11 | X-H torsion

> <Gold.Protein.ActiveResidues>
 VAL166  LYS551  ARG553  GLY616  TRP617  ASP618  TYR619  PRO620  LYS621  CYS622 
 ASP623  PHE694  ASN695  SER759  ASP760  ASP761  ALA762  ILE779  LEU786  VAL792 
 PHE793  MET794  SER795  GLU796  ALA797  LYS798  CYS799  TRP800  GLU811  SER814 

> <Gold.Protein.RotatedAtoms>
  150.8223  133.8231  159.3133 H   0  0  0  0  0  0  0  0  0  0  0  0  # atno 6907 bound_to 6896
  151.5986  135.1047  160.0064 H   0  0  0  0  0  0  0  0  0  0  0  0  # atno 6908 bound_to 6896
  152.4311  133.7239  159.6605 H   0  0  0  0  0  0  0  0  0  0  0  0  # atno 6909 bound_to 6896
  146.1650  139.6875  142.9007 H   0  0  0  0  0  0  0  0  0  0  0  0  # atno 7974 bound_to 7965
  154.6573  140.0572  157.0023 H   0  0  0  0  0  0  0  0  0  0  0  0  # atno 8008 bound_to 7997
  155.1281  140.3254  155.4462 H   0  0  0  0  0  0  0  0  0  0  0  0  # atno 8009 bound_to 7997
  156.2603  140.1985  156.6401 H   0  0  0  0  0  0  0  0  0  0  0  0  # atno 8010 bound_to 7997
  140.3509  143.2892  151.9727 H   0  0  0  0  0  0  0  0  0  0  0  0  # atno 10167 bound_to 10162
  156.7137  130.9243  151.3091 H   0  0  0  0  0  0  0  0  0  0  0  0  # atno 10718 bound_to 10713
  154.8044  135.3255  154.7468 H   0  0  0  0  0  0  0  0  0  0  0  0  # atno 10763 bound_to 10752
  153.8129  135.6894  153.4842 H   0  0  0  0  0  0  0  0  0  0  0  0  # atno 10764 bound_to 10752
  153.1780  135.4597  154.9935 H   0  0  0  0  0  0  0  0  0  0  0  0  # atno 10765 bound_to 10752
  140.0233  134.9386  157.0519 H   0  0  0  0  0  0  0  0  0  0  0  0  # atno 11005 bound_to 11000
  145.4489  141.0427  143.2815 LP  0  0  0  0  0  0  0  0  0  0  0  0  # atno 17320 bound_to 7965
  144.8080  139.6014  143.7042 LP  0  0  0  0  0  0  0  0  0  0  0  0  # atno 17321 bound_to 7965
  139.4826  144.6077  151.7491 LP  0  0  0  0  0  0  0  0  0  0  0  0  # atno 17342 bound_to 10162
  140.5220  144.0864  150.6025 LP  0  0  0  0  0  0  0  0  0  0  0  0  # atno 17343 bound_to 10162
  157.6926  130.9249  150.0555 LP  0  0  0  0  0  0  0  0  0  0  0  0  # atno 17370 bound_to 10713
  156.1643  130.3644  149.9254 LP  0  0  0  0  0  0  0  0  0  0  0  0  # atno 17371 bound_to 10713
  140.4349  134.1742  155.7170 LP  0  0  0  0  0  0  0  0  0  0  0  0  # atno 17394 bound_to 11000
  141.1787  133.8459  157.1332 LP  0  0  0  0  0  0  0  0  0  0  0  0  # atno 17395 bound_to 11000

$$$$
