AV-unprocessed.smi:3193|AV-procd|sdf|12205|dock1
  -GOLD-   2272018 43D 1   1.00000     0.00000
 Structure written by MMmdl.
 41 42  0  0  0  0  0  0  0  0  3 V2000
  152.7846  141.4255  159.6114 C   0  0  0  0  0  0  0  0  0  0  0  0
  152.4978  142.9129  159.3370 C   0  0  2  0  0  0  0  0  0  0  0  0
  152.4940  143.6903  160.6705 C   0  0  0  0  0  0  0  0  0  0  0  0
  152.2676  145.1933  160.4614 C   0  0  0  0  0  0  0  0  0  0  0  0
  150.9667  145.4452  159.6920 C   0  0  0  0  0  0  0  0  0  0  0  0
  150.9652  144.6851  158.3583 C   0  0  0  0  0  0  0  0  0  0  0  0
  151.1782  143.1664  158.5484 C   0  0  1  0  0  0  0  0  0  0  0  0
  151.1352  142.4667  157.1705 C   0  0  0  0  0  0  0  0  0  0  0  0
  149.7628  142.3829  156.6307 N   0  3  0  0  0  0  0  0  0  0  0  0
  149.5647  141.2969  155.6512 C   0  0  0  0  0  0  0  0  0  0  0  0
  148.1916  141.4080  154.9734 C   0  0  0  0  0  0  0  0  0  0  0  0
  147.8618  140.2050  154.2051 N   0  0  0  0  0  0  0  0  0  0  0  0
  146.7608  139.9988  153.4134 C   0  0  0  0  0  0  0  0  0  0  0  0
  146.8811  138.7339  152.8978 C   0  0  0  0  0  0  0  0  0  0  0  0
  148.0483  138.2210  153.3973 N   0  3  0  0  0  0  0  0  0  0  0  0
  148.6436  139.1170  154.1918 C   0  0  0  0  0  0  0  0  0  0  0  0
  151.9489  140.9459  160.1220 H   0  0  0  0  0  0  0  0  0  0  0  0
  153.6667  141.3080  160.2417 H   0  0  0  0  0  0  0  0  0  0  0  0
  152.9854  140.8761  158.6925 H   0  0  0  0  0  0  0  0  0  0  0  0
  153.3271  143.2953  158.7395 H   0  0  0  0  0  0  0  0  0  0  0  0
  151.7168  143.2938  161.3257 H   0  0  0  0  0  0  0  0  0  0  0  0
  153.4399  143.5419  161.1930 H   0  0  0  0  0  0  0  0  0  0  0  0
  152.2357  145.7033  161.4247 H   0  0  0  0  0  0  0  0  0  0  0  0
  153.1084  145.6190  159.9123 H   0  0  0  0  0  0  0  0  0  0  0  0
  150.1146  145.1315  160.2964 H   0  0  0  0  0  0  0  0  0  0  0  0
  150.8425  146.5135  159.5122 H   0  0  0  0  0  0  0  0  0  0  0  0
  150.0189  144.8700  157.8482 H   0  0  0  0  0  0  0  0  0  0  0  0
  151.7457  145.0887  157.7116 H   0  0  0  0  0  0  0  0  0  0  0  0
  150.3410  142.7991  159.1448 H   0  0  0  0  0  0  0  0  0  0  0  0
  151.7304  143.0242  156.4458 H   0  0  0  0  0  0  0  0  0  0  0  0
  151.5771  141.4715  157.2379 H   0  0  0  0  0  0  0  0  0  0  0  0
  149.1308  142.2349  157.4048 H   0  0  0  0  0  0  0  0  0  0  0  0
  150.3575  141.3375  154.9028 H   0  0  0  0  0  0  0  0  0  0  0  0
  149.6508  140.3368  156.1619 H   0  0  0  0  0  0  0  0  0  0  0  0
  147.4047  141.5651  155.7130 H   0  0  0  0  0  0  0  0  0  0  0  0
  148.1655  142.2585  154.2906 H   0  0  0  0  0  0  0  0  0  0  0  0
  145.9919  140.7459  153.2788 H   0  0  0  0  0  0  0  0  0  0  0  0
  146.2401  138.1741  152.2321 H   0  0  0  0  0  0  0  0  0  0  0  0
  149.5725  138.9849  154.7179 H   0  0  0  0  0  0  0  0  0  0  0  0
  149.5357  143.2650  156.1936 H   0  0  0  0  0  0  0  0  0  0  0  0
  148.4096  137.2962  153.1975 H   0  0  0  0  0  0  0  0  0  0  0  0
  1  2  1  0  0  0  0
  1 17  1  0  0  0  0
  1 18  1  0  0  0  0
  1 19  1  0  0  0  0
  2  7  1  0  0  0  0
  2  3  1  0  0  0  0
  2 20  1  0  0  0  0
  3  4  1  0  0  0  0
  3 21  1  0  0  0  0
  3 22  1  0  0  0  0
  4  5  1  0  0  0  0
  4 23  1  0  0  0  0
  4 24  1  0  0  0  0
  5  6  1  0  0  0  0
  5 25  1  0  0  0  0
  5 26  1  0  0  0  0
  6  7  1  0  0  0  0
  6 27  1  0  0  0  0
  6 28  1  0  0  0  0
  7  8  1  0  0  0  0
  7 29  1  0  0  0  0
  8  9  1  0  0  0  0
  8 30  1  0  0  0  0
  8 31  1  0  0  0  0
  9 10  1  0  0  0  0
  9 32  1  0  0  0  0
  9 40  1  0  0  0  0
 10 11  1  0  0  0  0
 10 33  1  0  0  0  0
 10 34  1  0  0  0  0
 11 12  1  0  0  0  0
 11 35  1  0  0  0  0
 11 36  1  0  0  0  0
 12 16  1  0  0  0  0
 12 13  1  0  0  0  0
 13 14  2  0  0  0  0
 13 37  1  0  0  0  0
 14 15  1  0  0  0  0
 14 38  1  0  0  0  0
 15 16  2  0  0  0  0
 15 41  1  0  0  0  0
 16 39  1  0  0  0  0
M  CHG  1   9   1
M  CHG  1  15   1
M  END
> <s_m_source_file>
AV-unprocessed.smi

> <i_m_source_file_index>
3193

> <i_lp_mmshare_version>
43012

> <i_f3d_flags>
0

> <s_epik_input>
W0NIM11bQ0BASF0xW0NIMl1bQ0gyXVtDSDJdW0NIMl1bQ0BIXTFbQ0gyXVtOSF1bQ0gyXVtDSDJdbjJbY0hdW2NIXW5bY0hdMg==

> <s_epik_cmdline>
J2VwaWtfcHl0aG9uJywgJy1waCcsICc3LjAnLCAnLXRuJywgJzgnLCAnLW1hJywgJzIwMCcsICctbWV0YWxfYmluZGluZycsICctaW1hZScsICc8aW5maWxlLm1hZT4nLCAnLW9tYWUnLCAnPG91dGZpbGUubWFlPic=

> <r_lp_tautomer_probability>
1

> <r_epik_Ionization_Penalty>
1.50262

> <r_epik_Ionization_Penalty_Charging>
0.00193432

> <r_epik_Ionization_Penalty_Neutral>
1.50068

> <r_epik_State_Penalty>
1.11854

> <r_epik_Charging_Adjusted_Penalty>
1.12048

> <i_epik_Tot_Q>
2

> <i_epik_Tot_abs_Q>
2

> <r_epik_Metal_State_Penalty>
5.11322

> <b_epik_Metal_Only>
0

> <s_lp_Force_Field>
OPLS_2005

> <r_lp_Energy>
26.3387

> <b_lp_Chiralities_Consistent>
1

> <s_lp_Variant>
AV-unprocessed.smi:3193-5

> <Gold.Version>
5.8.1

> <Gold.Id.Protein>
6NUR|6NUR_protein|mol2

> <Gold.PLP.Fitness>
54.6550

> <Gold.PLP.PLP>
-40.3026

> <Gold.PLP.part.hbond>
-3.0000

> <Gold.PLP.part.metal>
0.0000

> <Gold.PLP.part.buried>
-3.2573

> <Gold.PLP.part.nonpolar>
-35.4938

> <Gold.PLP.part.repulsive>
0.1007

> <Gold.PLP.ligand.clash>
0.0000

> <Gold.PLP.ligand.torsion>
0.3135

> <Gold.PLP.Chemscore.Hbond>
4.0000

> <Gold.PLP.Chemscore.CHOScore>
0.9570

> <Gold.PLP.Chemscore.Metal>
0.0000

> <Gold.Chemscore.Hbonds>
donor molecule, donor type, donor heavy atom, donor atom, acceptor molecule, acceptor atom, score
      L1  H     9    40       P1  8028  2.00
      L1  H    15    41       P1  7948  1.70
      L1  C    13    37       P1 10175  1.00

> <Gold.PLP.Chemscore.Internal.Correction>
0.1084

> <Gold.Rescore>
     Score         DG    S(hbond)    S(metal)    S(lipo)     H(rot)  DE(clash)    DE(int)     intcor
     19.44     -19.82       2.00        0.00     108.83       1.98       0.08       0.30       ----

> <Gold.Chemscore.Fitness>
19.4384

> <Gold.Chemscore.DG>
-19.8232

> <Gold.Chemscore.ZeroCoef>
-5.4800

> <Gold.Chemscore.Hbond>
1.9977

> <Gold.Chemscore.Metal>
0.0000

> <Gold.Chemscore.Lipo>
108.8310

> <Gold.Chemscore.Internal_Hbond>
0.0000

> <Gold.Chemscore.DEClash>
0.0840

> <Gold.Chemscore.DEInternal>
0.3009

> <Gold.Chemscore.Rot>
1.9774

> <Gold.Chemscore.Internal.Correction>
   9.000000E+99

> <Gold.Chemscore.Hbonds>
donor molecule, donor type, donor heavy atom, donor atom, acceptor molecule, acceptor atom, score
      L1  H     9    40       P1  8028  1.00
      L1  H    15    41       P1  7948  0.83

> <Gold.Chemscore.Hbond.Weighted>
-6.6722

> <Gold.Chemscore.Metal.Weighted>
-0.0000

> <Gold.Chemscore.Lipo.Weighted>
-12.7332

> <Gold.Chemscore.Internal_Hbond.Weighted>
0.0000

> <Gold.Chemscore.DEClash.Weighted>
0.0840

> <Gold.Chemscore.DEInternal.Weighted>
0.3009

> <Gold.Chemscore.Rot.Weighted>
5.0622

> <Gold.Chemscore.Internal.Correction.Weighted>
   9.000000E+99

> <Gold.Protein.RotatedTorsions>
[ 6907 6896 6895 6894 ] final -149.97 input  -60.11 | X-H torsion
[ 7974 7965 7964 7962 ] final  -23.31 input  175.53 | X-H torsion
[ 8008 7997 7996 7995 ] final   69.99 input   59.86 | X-H torsion
[ 10167 10162 10161 10158 ] final -163.27 input  -65.29 | X-H torsion
[ 10718 10713 10712 10709 ] final   68.22 input   66.30 | X-H torsion
[ 10763 10752 10751 10750 ] final   21.22 input  -60.55 | X-H torsion
[ 11005 11000 10999 10996 ] final  -60.03 input  -57.11 | X-H torsion

> <Gold.Protein.ActiveResidues>
 VAL166  LYS551  ARG553  GLY616  TRP617  ASP618  TYR619  PRO620  LYS621  CYS622 
 ASP623  PHE694  ASN695  SER759  ASP760  ASP761  ALA762  ILE779  LEU786  VAL792 
 PHE793  MET794  SER795  GLU796  ALA797  LYS798  CYS799  TRP800  GLU811  SER814 

> <Gold.Protein.RotatedAtoms>
  151.1919  133.4662  159.2594 H   0  0  0  0  0  0  0  0  0  0  0  0  # atno 6907 bound_to 6896
  151.1155  135.0050  159.8524 H   0  0  0  0  0  0  0  0  0  0  0  0  # atno 6908 bound_to 6896
  152.5453  134.1834  159.8698 H   0  0  0  0  0  0  0  0  0  0  0  0  # atno 6909 bound_to 6896
  146.1624  140.4599  142.8566 H   0  0  0  0  0  0  0  0  0  0  0  0  # atno 7974 bound_to 7965
  155.7321  140.3492  155.5064 H   0  0  0  0  0  0  0  0  0  0  0  0  # atno 8008 bound_to 7997
  155.9173  140.1061  157.1255 H   0  0  0  0  0  0  0  0  0  0  0  0  # atno 8009 bound_to 7997
  154.4064  140.1256  156.4621 H   0  0  0  0  0  0  0  0  0  0  0  0  # atno 8010 bound_to 7997
  139.6332  144.0399  152.2033 H   0  0  0  0  0  0  0  0  0  0  0  0  # atno 10167 bound_to 10162
  157.6276  130.9362  150.0348 H   0  0  0  0  0  0  0  0  0  0  0  0  # atno 10718 bound_to 10713
  153.1013  135.6673  153.9667 H   0  0  0  0  0  0  0  0  0  0  0  0  # atno 10763 bound_to 10752
  153.9237  135.3011  155.3448 H   0  0  0  0  0  0  0  0  0  0  0  0  # atno 10764 bound_to 10752
  154.7434  135.5069  153.9237 H   0  0  0  0  0  0  0  0  0  0  0  0  # atno 10765 bound_to 10752
  141.1271  133.6619  156.5161 H   0  0  0  0  0  0  0  0  0  0  0  0  # atno 11005 bound_to 11000
  144.8045  140.6273  143.6456 LP  0  0  0  0  0  0  0  0  0  0  0  0  # atno 17320 bound_to 7965
  145.4555  139.1518  143.3895 LP  0  0  0  0  0  0  0  0  0  0  0  0  # atno 17321 bound_to 7965
  140.0070  144.6252  150.7680 LP  0  0  0  0  0  0  0  0  0  0  0  0  # atno 17342 bound_to 10162
  140.7451  143.2870  151.3435 LP  0  0  0  0  0  0  0  0  0  0  0  0  # atno 17343 bound_to 10162
  156.1458  130.3642  149.9512 LP  0  0  0  0  0  0  0  0  0  0  0  0  # atno 17370 bound_to 10713
  156.7543  130.9127  151.3639 LP  0  0  0  0  0  0  0  0  0  0  0  0  # atno 17371 bound_to 10713
  140.4329  134.7085  157.4951 LP  0  0  0  0  0  0  0  0  0  0  0  0  # atno 17394 bound_to 11000
  140.0281  134.6447  155.9144 LP  0  0  0  0  0  0  0  0  0  0  0  0  # atno 17395 bound_to 11000

$$$$
