#       Name:                AV-unprocessed.smi:2032
#       Creating user name   scv26
#       Creation time:       Fri Mar 27 10:51:33 2020


#       File generated by GOLD software.
#

@<TRIPOS>MOLECULE
AV-unprocessed.smi:2032
    48    49     1
SMALL
NO_CHARGES


@<TRIPOS>ATOM
      1 ****        -3.9752   1.5201  -2.2104 C.3            1 S1                 0.0000
      2 ****        -3.3245   1.9034  -0.8701 C.3            1 S1                 0.0000
      3 ****        -1.7931   1.7259  -0.8617 C.3            1 S1                 0.0000
      4 ****        -1.3604   0.3252  -0.7952 N.3            1 S1                 0.0000
      5 ****         0.1160   0.1915  -0.7627 C.3            1 S1                 0.0000
      6 ****         0.8034   0.8658  -1.9779 C.3            1 S1                 0.0000
      7 ****         0.6011  -1.2853  -0.6646 C.3            1 S1                 0.0000
      8 ****         2.0553  -1.4231  -0.6237 N.am           1 S1                 0.0000
      9 ****         2.8435  -1.1484   0.4256 C.2            1 S1                 0.0000
     10 ****         2.3456  -0.7538   1.4827 O.2            1 S1                 0.0000
     11 ****         4.1596  -1.3431   0.1822 N.pl3          1 S1                -1.0000
     12 ****         5.0664  -1.0876   1.1392 C.2            1 S1                 0.0000
     13 ****         5.6176  -2.0433   1.8963 N.2            1 S1                 0.0000
     14 ****         6.5435  -1.5548   2.8199 C.2            1 S1                 0.0000
     15 ****         6.7081  -0.1965   2.7589 C.2            1 S1                 0.0000
     16 ****         5.6974   0.5142   1.5329 S.3            1 S1                 0.0000
     17 ****        -2.0134  -0.2921   0.3628 C.3            1 S1                 0.0000
     18 ****        -3.5472  -0.1655   0.3231 C.3            1 S1                 0.0000
     19 ****        -4.2049  -0.7419   1.5815 C.3            1 S1                 0.0000
     20 ****        -3.9121   1.2069   0.2260 O.3            1 S1                 0.0000
     21 ****        -3.5995   2.1503  -3.0167 H              1 S1                 0.0000
     22 ****        -5.0568   1.6478  -2.1684 H              1 S1                 0.0000
     23 ****        -3.7699   0.4858  -2.4855 H              1 S1                 0.0000
     24 ****        -3.5378   2.9601  -0.7066 H              1 S1                 0.0000
     25 ****        -1.4079   2.2101  -1.7570 H              1 S1                 0.0000
     26 ****        -1.3800   2.2703  -0.0110 H              1 S1                 0.0000
     27 ****         0.4765   0.7058   0.1293 H              1 S1                 0.0000
     28 ****         1.8836   0.7239  -1.9777 H              1 S1                 0.0000
     29 ****         0.6640   1.9456  -1.9865 H              1 S1                 0.0000
     30 ****         0.4213   0.4669  -2.9178 H              1 S1                 0.0000
     31 ****         0.2182  -1.7843   0.2246 H              1 S1                 0.0000
     32 ****         0.2332  -1.8531  -1.5196 H              1 S1                 0.0000
     33 ****         2.5056  -1.7444  -1.4680 H              1 S1                 0.0000
     34 ****         7.0411  -2.2475   3.4820 H              1 S1                 0.0000
     35 ****         7.3587   0.4257   3.3545 H              1 S1                 0.0000
     36 ****        -1.7909  -1.3559   0.4078 H              1 S1                 0.0000
     37 ****        -1.6297   0.1516   1.2829 H              1 S1                 0.0000
     38 ****        -3.9338  -0.7063  -0.5411 H              1 S1                 0.0000
     39 ****        -3.9699  -1.8003   1.6973 H              1 S1                 0.0000
     40 ****        -5.2899  -0.6463   1.5330 H              1 S1                 0.0000
     41 ****        -3.8640  -0.2229   2.4778 H              1 S1                 0.0000
     42 ****        -1.6374  -0.1557  -1.6270 LP             1 S1                 0.0000
     43 ****         1.3550  -0.6390   1.5567 LP             1 S1                 0.0000
     44 ****         2.9326  -0.5486   2.2660 LP             1 S1                 0.0000
     45 ****         4.4579  -1.6778  -0.7116 LP             1 S1                 0.0000
     46 ****         5.3887  -3.0128   1.8091 LP             1 S1                 0.0000
     47 ****        -4.9062   1.2589   0.1312 LP             1 S1                 0.0000
     48 ****        -3.6335   1.6638   1.0708 LP             1 S1                 0.0000
@<TRIPOS>BOND
    1    1    2 1     
    2    1   21 1     
    3    1   22 1     
    4    1   23 1     
    5    2   20 1     
    6    2    3 1     
    7    2   24 1     
    8    3    4 1     
    9    3   25 1     
   10    3   26 1     
   11    4    5 1     
   12    4   17 1     
   13    5    6 1     
   14    5    7 1     
   15    5   27 1     
   16    6   28 1     
   17    6   29 1     
   18    6   30 1     
   19    7    8 1     
   20    7   31 1     
   21    7   32 1     
   22    8    9 am    
   23    8   33 1     
   24    9   10 2     
   25    9   11 1     
   26   11   12 1     
   27   12   16 1     
   28   12   13 2     
   29   13   14 1     
   30   14   15 2     
   31   14   34 1     
   32   15   16 1     
   33   15   35 1     
   34   17   18 1     
   35   17   36 1     
   36   17   37 1     
   37   18   19 1     
   38   18   20 1     
   39   18   38 1     
   40   19   39 1     
   41   19   40 1     
   42   19   41 1     
   43    4   42 1     
   44   10   43 1     
   45   10   44 1     
   46   11   45 1     
   47   13   46 1     
   48   20   47 1     
   49   20   48 1     
@<TRIPOS>SUBSTRUCTURE
      1 S1             1
@<TRIPOS>SET
LONE_PAIRS      STATIC     ATOMS    <user>   **** ""
7 42 43 44 45 46 47 48
DONOR_HYDROGENS      STATIC     ATOMS    <user>   **** ""
1 33
ATOM$BLUE        STATIC     ATOMS    COLORGROUP SYSTEM
7 42 43 44 45 46 47 48
ATOM$RED        STATIC     ATOMS    COLORGROUP SYSTEM
1 33
