AV-unprocessed.smi:561|AV-procd|sdf|2937|dock2
  -GOLD-   2262023433D 1   1.00000     0.00000
 Structure written by MMmdl.
 37 38  0  0  0  0  0  0  0  0  2 V2000
  145.3693  132.3277  153.1622 C   0  0  0  0  0  0  0  0  0  0  0  0
  146.6774  132.0644  152.4044 C   0  0  1  0  0  0  0  0  0  0  0  0
  146.8776  133.0840  151.2630 C   0  0  0  0  0  0  0  0  0  0  0  0
  145.6609  133.8438  150.9575 N   0  0  0  0  0  0  0  0  0  0  0  0
  145.4435  135.1809  151.1694 C   0  0  0  0  0  0  0  0  0  0  0  0
  144.1665  135.4415  150.7442 C   0  0  0  0  0  0  0  0  0  0  0  0
  143.6605  134.2545  150.2861 N   0  3  0  0  0  0  0  0  0  0  0  0
  144.5724  133.2851  150.4123 C   0  0  0  0  0  0  0  0  0  0  0  0
  147.7892  132.1123  153.3528 N   0  0  0  0  0  0  0  0  0  0  0  0
  148.5601  131.0722  153.7219 C   0  0  0  0  0  0  0  0  0  0  0  0
  148.4101  129.9341  153.2762 O   0  0  0  0  0  0  0  0  0  0  0  0
  149.6345  131.3759  154.7039 C   0  0  0  0  0  0  0  0  0  0  0  0
  149.6884  132.5433  155.2646 N   0  0  0  0  0  0  0  0  0  0  0  0
  150.6759  132.8764  156.1689 N   0  0  0  0  0  0  0  0  0  0  0  0
  150.7534  134.2985  156.4967 C   0  0  0  0  0  0  0  0  0  0  0  0
  151.5118  131.9871  156.7604 C   0  0  0  0  0  0  0  0  0  0  0  0
  152.3964  132.3040  157.5554 O   0  0  0  0  0  0  0  0  0  0  0  0
  151.2910  130.5109  156.4175 C   0  0  0  0  0  0  0  0  0  0  0  0
  150.6797  130.3229  155.0147 C   0  0  0  0  0  0  0  0  0  0  0  0
  144.5099  132.2697  152.4935 H   0  0  0  0  0  0  0  0  0  0  0  0
  145.3671  133.3170  153.6210 H   0  0  0  0  0  0  0  0  0  0  0  0
  145.2187  131.5925  153.9533 H   0  0  0  0  0  0  0  0  0  0  0  0
  146.6031  131.0635  151.9749 H   0  0  0  0  0  0  0  0  0  0  0  0
  147.6443  133.8102  151.5358 H   0  0  0  0  0  0  0  0  0  0  0  0
  147.2217  132.5898  150.3529 H   0  0  0  0  0  0  0  0  0  0  0  0
  146.1920  135.8286  151.6023 H   0  0  0  0  0  0  0  0  0  0  0  0
  143.5950  136.3581  150.7344 H   0  0  0  0  0  0  0  0  0  0  0  0
  144.4487  132.2524  150.1386 H   0  0  0  0  0  0  0  0  0  0  0  0
  147.9858  133.0094  153.7739 H   0  0  0  0  0  0  0  0  0  0  0  0
  151.7411  134.6950  156.2572 H   0  0  0  0  0  0  0  0  0  0  0  0
  150.5701  134.4582  157.5603 H   0  0  0  0  0  0  0  0  0  0  0  0
  150.0198  134.8875  155.9437 H   0  0  0  0  0  0  0  0  0  0  0  0
  152.2295  129.9618  156.4997 H   0  0  0  0  0  0  0  0  0  0  0  0
  150.6179  130.0974  157.1696 H   0  0  0  0  0  0  0  0  0  0  0  0
  150.2477  129.3230  154.9579 H   0  0  0  0  0  0  0  0  0  0  0  0
  151.4649  130.3619  154.2588 H   0  0  0  0  0  0  0  0  0  0  0  0
  142.7305  134.1263  149.9077 H   0  0  0  0  0  0  0  0  0  0  0  0
  1  2  1  0  0  0  0
  1 20  1  0  0  0  0
  1 21  1  0  0  0  0
  1 22  1  0  0  0  0
  2  3  1  0  0  0  0
  2  9  1  0  0  0  0
  2 23  1  0  0  0  0
  3  4  1  0  0  0  0
  3 24  1  0  0  0  0
  3 25  1  0  0  0  0
  4  8  1  0  0  0  0
  4  5  1  0  0  0  0
  5  6  2  0  0  0  0
  5 26  1  0  0  0  0
  6  7  1  0  0  0  0
  6 27  1  0  0  0  0
  7  8  2  0  0  0  0
  7 37  1  0  0  0  0
  8 28  1  0  0  0  0
  9 10  1  0  0  0  0
  9 29  1  0  0  0  0
 10 11  2  0  0  0  0
 10 12  1  0  0  0  0
 12 19  1  0  0  0  0
 12 13  2  0  0  0  0
 13 14  1  0  0  0  0
 14 15  1  0  0  0  0
 14 16  1  0  0  0  0
 15 30  1  0  0  0  0
 15 31  1  0  0  0  0
 15 32  1  0  0  0  0
 16 17  2  0  0  0  0
 16 18  1  0  0  0  0
 18 19  1  0  0  0  0
 18 33  1  0  0  0  0
 18 34  1  0  0  0  0
 19 35  1  0  0  0  0
 19 36  1  0  0  0  0
M  CHG  1   7   1
M  END
> <s_m_source_file>
AV-unprocessed.smi

> <i_m_source_file_index>
561

> <i_lp_mmshare_version>
43012

> <i_f3d_flags>
0

> <s_epik_input>
W2NIXTFuW2NIXVtjSF1uMVtDSDJdW0NAQEhdKFtDSDNdKVtOSF1DKD1PKUMyPU5OKFtDSDNdKUMoPU8pW0NIMl1bQ0gyXTI=

> <s_epik_cmdline>
J2VwaWtfcHl0aG9uJywgJy1waCcsICc3LjAnLCAnLXRuJywgJzgnLCAnLW1hJywgJzIwMCcsICctbWV0YWxfYmluZGluZycsICctaW1hZScsICc8aW5maWxlLm1hZT4nLCAnLW9tYWUnLCAnPG91dGZpbGUubWFlPic=

> <r_lp_tautomer_probability>
1

> <r_epik_Ionization_Penalty>
0.358595

> <r_epik_Ionization_Penalty_Charging>
0

> <r_epik_Ionization_Penalty_Neutral>
0.358595

> <r_epik_State_Penalty>
0.355181

> <r_epik_Charging_Adjusted_Penalty>
0.355181

> <i_epik_Tot_Q>
1

> <i_epik_Tot_abs_Q>
1

> <r_epik_Metal_State_Penalty>
0.718565

> <b_epik_Metal_Only>
0

> <s_epik_Chemistry_Notes>
This compound has an imine and may undergo hydrolysis.

> <s_lp_Force_Field>
OPLS_2005

> <r_lp_Energy>
19.4288

> <b_lp_Chiralities_Consistent>
1

> <s_lp_Variant>
AV-unprocessed.smi:561-2

> <Gold.Version>
5.8.1

> <Gold.Id.Protein>
6NUR|6NUR_protein|mol2

> <Gold.PLP.Fitness>
40.9055

> <Gold.PLP.PLP>
-30.4544

> <Gold.PLP.part.hbond>
-2.0000

> <Gold.PLP.part.metal>
0.0000

> <Gold.PLP.part.buried>
-4.2326

> <Gold.PLP.part.nonpolar>
-25.3034

> <Gold.PLP.part.repulsive>
0.1360

> <Gold.PLP.ligand.clash>
0.0000

> <Gold.PLP.ligand.torsion>
0.7756

> <Gold.PLP.Chemscore.Hbond>
2.9920

> <Gold.PLP.Chemscore.CHOScore>
1.0000

> <Gold.PLP.Chemscore.Metal>
0.0000

> <Gold.Chemscore.Hbonds>
donor molecule, donor type, donor heavy atom, donor atom, acceptor molecule, acceptor atom, score
      L1  H     7    37       P1 10186  2.00
      P1  H  6896  6907       L1    17  0.76
      L1  C     5    26       P1  7948  0.40

> <Gold.PLP.Chemscore.Internal.Correction>
0.0263

> <Gold.Rescore>
     Score         DG    S(hbond)    S(metal)    S(lipo)     H(rot)  DE(clash)    DE(int)     intcor
     11.78     -12.67       1.91        0.00      45.48       1.76       0.00       0.89       ----

> <Gold.Chemscore.Fitness>
11.7789

> <Gold.Chemscore.DG>
-12.6660

> <Gold.Chemscore.ZeroCoef>
-5.4800

> <Gold.Chemscore.Hbond>
1.9064

> <Gold.Chemscore.Metal>
0.0000

> <Gold.Chemscore.Lipo>
45.4819

> <Gold.Chemscore.Internal_Hbond>
0.0000

> <Gold.Chemscore.DEClash>
0.0000

> <Gold.Chemscore.DEInternal>
0.8870

> <Gold.Chemscore.Rot>
1.7589

> <Gold.Chemscore.Internal.Correction>
   9.000000E+99

> <Gold.Chemscore.Hbonds>
donor molecule, donor type, donor heavy atom, donor atom, acceptor molecule, acceptor atom, score
      L1  H     7    37       P1 10186  0.99
      P1  H  6896  6907       L1    17  0.73

> <Gold.Chemscore.Hbond.Weighted>
-6.3674

> <Gold.Chemscore.Metal.Weighted>
-0.0000

> <Gold.Chemscore.Lipo.Weighted>
-5.3214

> <Gold.Chemscore.Internal_Hbond.Weighted>
0.0000

> <Gold.Chemscore.DEClash.Weighted>
0.0000

> <Gold.Chemscore.DEInternal.Weighted>
0.8870

> <Gold.Chemscore.Rot.Weighted>
4.5028

> <Gold.Chemscore.Internal.Correction.Weighted>
   9.000000E+99

> <Gold.Protein.RotatedTorsions>
[ 6907 6896 6895 6894 ] final  157.58 input  -60.11 | X-H torsion
[ 7974 7965 7964 7962 ] final   87.86 input  175.53 | X-H torsion
[ 8008 7997 7996 7995 ] final  116.97 input   59.86 | X-H torsion
[ 10167 10162 10161 10158 ] final  -28.71 input  -65.29 | X-H torsion
[ 10718 10713 10712 10709 ] final   44.92 input   66.30 | X-H torsion
[ 10763 10752 10751 10750 ] final -127.19 input  -60.55 | X-H torsion
[ 11005 11000 10999 10996 ] final -134.47 input  -57.11 | X-H torsion

> <Gold.Protein.ActiveResidues>
 VAL166  LYS551  ARG553  GLY616  TRP617  ASP618  TYR619  PRO620  LYS621  CYS622 
 ASP623  PHE694  ASN695  SER759  ASP760  ASP761  ALA762  ILE779  LEU786  VAL792 
 PHE793  MET794  SER795  GLU796  ALA797  LYS798  CYS799  TRP800  GLU811  SER814 

> <Gold.Protein.RotatedAtoms>
  152.0131  133.3869  159.4227 H   0  0  0  0  0  0  0  0  0  0  0  0  # atno 6907 bound_to 6896
  150.6897  134.3709  159.5001 H   0  0  0  0  0  0  0  0  0  0  0  0  # atno 6908 bound_to 6896
  152.1472  134.9016  160.0601 H   0  0  0  0  0  0  0  0  0  0  0  0  # atno 6909 bound_to 6896
  145.5534  139.2297  143.2500 H   0  0  0  0  0  0  0  0  0  0  0  0  # atno 7974 bound_to 7965
  156.2469  140.2906  156.0606 H   0  0  0  0  0  0  0  0  0  0  0  0  # atno 8008 bound_to 7997
  155.1779  140.0403  157.2893 H   0  0  0  0  0  0  0  0  0  0  0  0  # atno 8009 bound_to 7997
  154.6280  140.2492  155.7475 H   0  0  0  0  0  0  0  0  0  0  0  0  # atno 8010 bound_to 7997
  140.7267  143.3988  151.1301 H   0  0  0  0  0  0  0  0  0  0  0  0  # atno 10167 bound_to 10162
  157.4321  130.8031  149.7613 H   0  0  0  0  0  0  0  0  0  0  0  0  # atno 10718 bound_to 10713
  154.8751  135.3970  154.3554 H   0  0  0  0  0  0  0  0  0  0  0  0  # atno 10763 bound_to 10752
  153.4333  135.7025  153.6221 H   0  0  0  0  0  0  0  0  0  0  0  0  # atno 10764 bound_to 10752
  153.4833  135.3764  155.2423 H   0  0  0  0  0  0  0  0  0  0  0  0  # atno 10765 bound_to 10752
  140.8987  134.1718  157.4476 H   0  0  0  0  0  0  0  0  0  0  0  0  # atno 11005 bound_to 11000
  146.1901  140.6357  142.9149 LP  0  0  0  0  0  0  0  0  0  0  0  0  # atno 17320 bound_to 7965
  144.7518  140.5210  143.6796 LP  0  0  0  0  0  0  0  0  0  0  0  0  # atno 17321 bound_to 7965
  139.7605  143.8643  152.3099 LP  0  0  0  0  0  0  0  0  0  0  0  0  # atno 17342 bound_to 10162
  139.8527  144.7156  150.9194 LP  0  0  0  0  0  0  0  0  0  0  0  0  # atno 17343 bound_to 10162
  155.9917  130.3936  150.2974 LP  0  0  0  0  0  0  0  0  0  0  0  0  # atno 17370 bound_to 10713
  157.1132  131.0227  151.3040 LP  0  0  0  0  0  0  0  0  0  0  0  0  # atno 17371 bound_to 10713
  139.8739  134.9889  156.5433 LP  0  0  0  0  0  0  0  0  0  0  0  0  # atno 17394 bound_to 11000
  140.8256  133.8319  155.8936 LP  0  0  0  0  0  0  0  0  0  0  0  0  # atno 17395 bound_to 11000

$$$$
