AV-unprocessed.smi:1340|AV-procd|sdf|5504|dock5
  -GOLD-   22720 5 83D 1   1.00000     0.00000
 Structure written by MMmdl.
 40 41  0  0  0  0  0  0  0  0  1 V2000
  152.0530  144.7599  158.3200 C   0  0  0  0  0  0  0  0  0  0  0  0
  151.4167  144.3254  159.6448 C   0  0  0  0  0  0  0  0  0  0  0  0
  152.3623  143.4594  160.4957 C   0  0  0  0  0  0  0  0  0  0  0  0
  152.9900  142.2811  159.7266 C   0  0  1  0  0  0  0  0  0  0  0  0
  154.0916  141.5960  160.5523 C   0  0  0  0  0  0  0  0  0  0  0  0
  151.9605  141.3117  159.3574 N   0  0  0  0  0  0  0  0  0  0  0  0
  152.1333  140.2669  158.5325 C   0  0  0  0  0  0  0  0  0  0  0  0
  153.2101  140.0046  157.9945 O   0  0  0  0  0  0  0  0  0  0  0  0
  150.9012  139.3837  158.2999 C   0  0  0  0  0  0  0  0  0  0  0  0
  150.1180  139.8272  157.0964 C   0  0  0  0  0  0  0  0  0  0  0  0
  150.4998  139.7191  155.7813 C   0  0  0  0  0  0  0  0  0  0  0  0
  149.2962  140.3571  154.6961 S   0  0  0  0  0  0  0  0  0  0  0  0
  148.2917  140.7490  156.0950 C   0  0  0  0  0  0  0  0  0  0  0  0
  147.0047  141.3636  156.0668 N   0  0  0  0  0  0  0  0  0  0  0  0
  146.3985  141.8163  154.8187 C   0  0  0  0  0  0  0  0  0  0  0  0
  145.0527  142.3897  155.2519 C   0  0  0  0  0  0  0  0  0  0  0  0
  145.0827  142.1878  156.6813 N   0  0  0  0  0  0  0  0  0  0  0  0
  146.2005  141.6052  157.1212 C   0  0  0  0  0  0  0  0  0  0  0  0
  146.4222  141.3498  158.3034 O   0  0  0  0  0  0  0  0  0  0  0  0
  148.8563  140.4099  157.2592 N   0  0  0  0  0  0  0  0  0  0  0  0
  151.3606  145.3684  157.7379 H   0  0  0  0  0  0  0  0  0  0  0  0
  152.3275  143.8965  157.7133 H   0  0  0  0  0  0  0  0  0  0  0  0
  152.9533  145.3508  158.4902 H   0  0  0  0  0  0  0  0  0  0  0  0
  151.1198  145.2142  160.2022 H   0  0  0  0  0  0  0  0  0  0  0  0
  150.5009  143.7710  159.4372 H   0  0  0  0  0  0  0  0  0  0  0  0
  153.1613  144.0923  160.8845 H   0  0  0  0  0  0  0  0  0  0  0  0
  151.8244  143.0829  161.3669 H   0  0  0  0  0  0  0  0  0  0  0  0
  153.4431  142.6799  158.8169 H   0  0  0  0  0  0  0  0  0  0  0  0
  154.8722  142.3053  160.8281 H   0  0  0  0  0  0  0  0  0  0  0  0
  154.5671  140.7910  159.9911 H   0  0  0  0  0  0  0  0  0  0  0  0
  153.6910  141.1687  161.4721 H   0  0  0  0  0  0  0  0  0  0  0  0
  151.0440  141.4493  159.7581 H   0  0  0  0  0  0  0  0  0  0  0  0
  151.2365  138.3535  158.1778 H   0  0  0  0  0  0  0  0  0  0  0  0
  150.2684  139.3977  159.1889 H   0  0  0  0  0  0  0  0  0  0  0  0
  151.4178  139.3089  155.3873 H   0  0  0  0  0  0  0  0  0  0  0  0
  147.0198  142.5753  154.3412 H   0  0  0  0  0  0  0  0  0  0  0  0
  146.2725  140.9823  154.1267 H   0  0  0  0  0  0  0  0  0  0  0  0
  144.9626  143.4504  155.0150 H   0  0  0  0  0  0  0  0  0  0  0  0
  144.2151  141.8523  154.8065 H   0  0  0  0  0  0  0  0  0  0  0  0
  144.3213  142.4669  157.2830 H   0  0  0  0  0  0  0  0  0  0  0  0
  1  2  1  0  0  0  0
  1 21  1  0  0  0  0
  1 22  1  0  0  0  0
  1 23  1  0  0  0  0
  2  3  1  0  0  0  0
  2 24  1  0  0  0  0
  2 25  1  0  0  0  0
  3  4  1  0  0  0  0
  3 26  1  0  0  0  0
  3 27  1  0  0  0  0
  4  5  1  0  0  0  0
  4  6  1  0  0  0  0
  4 28  1  0  0  0  0
  5 29  1  0  0  0  0
  5 30  1  0  0  0  0
  5 31  1  0  0  0  0
  6  7  1  0  0  0  0
  6 32  1  0  0  0  0
  7  8  2  0  0  0  0
  7  9  1  0  0  0  0
  9 10  1  0  0  0  0
  9 33  1  0  0  0  0
  9 34  1  0  0  0  0
 10 20  1  0  0  0  0
 10 11  2  0  0  0  0
 11 12  1  0  0  0  0
 11 35  1  0  0  0  0
 12 13  1  0  0  0  0
 13 14  1  0  0  0  0
 13 20  2  0  0  0  0
 14 18  1  0  0  0  0
 14 15  1  0  0  0  0
 15 16  1  0  0  0  0
 15 36  1  0  0  0  0
 15 37  1  0  0  0  0
 16 17  1  0  0  0  0
 16 38  1  0  0  0  0
 16 39  1  0  0  0  0
 17 18  1  0  0  0  0
 17 40  1  0  0  0  0
 18 19  2  0  0  0  0
M  END
> <s_m_source_file>
AV-unprocessed.smi

> <i_m_source_file_index>
1340

> <i_lp_mmshare_version>
43012

> <i_f3d_flags>
0

> <s_epik_input>
W0NIM11bQ0gyXVtDSDJdW0NASF0oW0NIM10pW05IXUMoPU8pW0NIMl1jMVtjSF1zYyhuMSlOMltDSDJdW0NIMl1bTkhdQzI9Tw==

> <s_epik_cmdline>
J2VwaWtfcHl0aG9uJywgJy1waCcsICc3LjAnLCAnLXRuJywgJzgnLCAnLW1hJywgJzIwMCcsICctbWV0YWxfYmluZGluZycsICctaW1hZScsICc8aW5maWxlLm1hZT4nLCAnLW9tYWUnLCAnPG91dGZpbGUubWFlPic=

> <r_lp_tautomer_probability>
1

> <r_epik_Ionization_Penalty>
0.00012151

> <r_epik_Ionization_Penalty_Charging>
0

> <r_epik_Ionization_Penalty_Neutral>
0.00012151

> <r_epik_State_Penalty>
-0

> <r_epik_Charging_Adjusted_Penalty>
0

> <i_epik_Tot_Q>
0

> <i_epik_Tot_abs_Q>
0

> <r_epik_Metal_State_Penalty>
-0

> <b_epik_Metal_Only>
0

> <s_lp_Force_Field>
OPLS_2005

> <r_lp_Energy>
32.5305

> <b_lp_Chiralities_Consistent>
1

> <s_lp_Variant>
AV-unprocessed.smi:1340-2

> <Gold.Version>
5.8.1

> <Gold.Id.Protein>
6NUR|6NUR_protein|mol2

> <Gold.PLP.Fitness>
43.6320

> <Gold.PLP.PLP>
-41.7394

> <Gold.PLP.part.hbond>
-1.0000

> <Gold.PLP.part.metal>
0.0000

> <Gold.PLP.part.buried>
-4.0002

> <Gold.PLP.part.nonpolar>
-37.1880

> <Gold.PLP.part.repulsive>
0.2973

> <Gold.PLP.ligand.clash>
0.0000

> <Gold.PLP.ligand.torsion>
0.5810

> <Gold.PLP.Chemscore.Hbond>
1.0000

> <Gold.PLP.Chemscore.CHOScore>
0.0000

> <Gold.PLP.Chemscore.Metal>
0.0000

> <Gold.Chemscore.Hbonds>
donor molecule, donor type, donor heavy atom, donor atom, acceptor molecule, acceptor atom, score
      P1  H  7997  8008       L1     8  0.99

> <Gold.PLP.Chemscore.Internal.Correction>
0.0545

> <Gold.Rescore>
     Score         DG    S(hbond)    S(metal)    S(lipo)     H(rot)  DE(clash)    DE(int)     intcor
     13.01     -15.03       1.00        0.00      95.16       1.92       0.16       1.86       ----

> <Gold.Chemscore.Fitness>
13.0064

> <Gold.Chemscore.DG>
-15.0319

> <Gold.Chemscore.ZeroCoef>
-5.4800

> <Gold.Chemscore.Hbond>
0.9963

> <Gold.Chemscore.Metal>
0.0000

> <Gold.Chemscore.Lipo>
95.1557

> <Gold.Chemscore.Internal_Hbond>
0.0000

> <Gold.Chemscore.DEClash>
0.1634

> <Gold.Chemscore.DEInternal>
1.8621

> <Gold.Chemscore.Rot>
1.9176

> <Gold.Chemscore.Internal.Correction>
   9.000000E+99

> <Gold.Chemscore.Hbonds>
donor molecule, donor type, donor heavy atom, donor atom, acceptor molecule, acceptor atom, score
      P1  H  6934  6946       L1    19  0.01
      P1  H  7997  8008       L1     8  0.94

> <Gold.Chemscore.Hbond.Weighted>
-3.3278

> <Gold.Chemscore.Metal.Weighted>
-0.0000

> <Gold.Chemscore.Lipo.Weighted>
-11.1332

> <Gold.Chemscore.Internal_Hbond.Weighted>
0.0000

> <Gold.Chemscore.DEClash.Weighted>
0.1634

> <Gold.Chemscore.DEInternal.Weighted>
1.8621

> <Gold.Chemscore.Rot.Weighted>
4.9091

> <Gold.Chemscore.Internal.Correction.Weighted>
   9.000000E+99

> <Gold.Protein.RotatedTorsions>
[ 6907 6896 6895 6894 ] final  104.53 input  -60.11 | X-H torsion
[ 7974 7965 7964 7962 ] final   46.86 input  175.53 | X-H torsion
[ 8008 7997 7996 7995 ] final  -70.02 input   59.86 | X-H torsion
[ 10167 10162 10161 10158 ] final  113.97 input  -65.29 | X-H torsion
[ 10718 10713 10712 10709 ] final   54.08 input   66.30 | X-H torsion
[ 10763 10752 10751 10750 ] final   75.20 input  -60.55 | X-H torsion
[ 11005 11000 10999 10996 ] final  -73.36 input  -57.11 | X-H torsion

> <Gold.Protein.ActiveResidues>
 VAL166  LYS551  ARG553  GLY616  TRP617  ASP618  TYR619  PRO620  LYS621  CYS622 
 ASP623  PHE694  ASN695  SER759  ASP760  ASP761  ALA762  ILE779  LEU786  VAL792 
 PHE793  MET794  SER795  GLU796  ALA797  LYS798  CYS799  TRP800  GLU811  SER814 

> <Gold.Protein.RotatedAtoms>
  152.5261  133.9663  159.7740 H   0  0  0  0  0  0  0  0  0  0  0  0  # atno 6907 bound_to 6896
  150.9943  133.6110  159.2711 H   0  0  0  0  0  0  0  0  0  0  0  0  # atno 6908 bound_to 6896
  151.3242  135.0832  159.9369 H   0  0  0  0  0  0  0  0  0  0  0  0  # atno 6909 bound_to 6896
  146.0351  139.4811  142.9813 H   0  0  0  0  0  0  0  0  0  0  0  0  # atno 7974 bound_to 7965
  154.4981  140.0842  156.7739 H   0  0  0  0  0  0  0  0  0  0  0  0  # atno 8008 bound_to 7997
  155.4069  140.3439  155.4242 H   0  0  0  0  0  0  0  0  0  0  0  0  # atno 8009 bound_to 7997
  156.1420  140.1532  156.8893 H   0  0  0  0  0  0  0  0  0  0  0  0  # atno 8010 bound_to 7997
  139.6422  144.7124  151.2213 H   0  0  0  0  0  0  0  0  0  0  0  0  # atno 10167 bound_to 10162
  157.5224  130.8574  149.8577 H   0  0  0  0  0  0  0  0  0  0  0  0  # atno 10718 bound_to 10713
  153.0638  135.4997  154.8155 H   0  0  0  0  0  0  0  0  0  0  0  0  # atno 10763 bound_to 10752
  154.6923  135.2986  154.9463 H   0  0  0  0  0  0  0  0  0  0  0  0  # atno 10764 bound_to 10752
  154.0214  135.6741  153.4825 H   0  0  0  0  0  0  0  0  0  0  0  0  # atno 10765 bound_to 10752
  141.1622  133.6876  156.7200 H   0  0  0  0  0  0  0  0  0  0  0  0  # atno 11005 bound_to 11000
  145.6977  141.0145  143.1521 LP  0  0  0  0  0  0  0  0  0  0  0  0  # atno 17320 bound_to 7965
  144.7048  139.8607  143.7433 LP  0  0  0  0  0  0  0  0  0  0  0  0  # atno 17321 bound_to 7965
  140.7497  143.6291  150.8440 LP  0  0  0  0  0  0  0  0  0  0  0  0  # atno 17342 bound_to 10162
  139.9930  143.5826  152.2903 LP  0  0  0  0  0  0  0  0  0  0  0  0  # atno 17343 bound_to 10162
  156.0363  130.3750  150.1552 LP  0  0  0  0  0  0  0  0  0  0  0  0  # atno 17370 bound_to 10713
  156.9739  130.9843  151.3452 LP  0  0  0  0  0  0  0  0  0  0  0  0  # atno 17371 bound_to 10713
  140.2823  134.8307  157.3944 LP  0  0  0  0  0  0  0  0  0  0  0  0  # atno 17394 bound_to 11000
  140.1422  134.4957  155.8023 LP  0  0  0  0  0  0  0  0  0  0  0  0  # atno 17395 bound_to 11000

$$$$
