AV-unprocessed.smi:2067|AV-procd|sdf|8426|dock6
  -GOLD-   2272011123D 1   1.00000     0.00000
 Structure written by MMmdl.
 47 48  0  0  0  0  0  0  0  0  1 V2000
  151.0299  145.0352  159.5930 C   0  0  0  0  0  0  0  0  0  0  0  0
  152.1461  144.1642  160.1900 C   0  0  1  0  0  0  0  0  0  0  0  0
  152.0227  144.1020  161.7254 C   0  0  0  0  0  0  0  0  0  0  0  0
  153.1386  143.2526  162.3508 C   0  0  0  0  0  0  0  0  0  0  0  0
  153.1540  141.8393  161.7532 C   0  0  0  0  0  0  0  0  0  0  0  0
  153.2808  141.8865  160.2230 C   0  0  0  0  0  0  0  0  0  0  0  0
  152.1619  142.7408  159.5846 C   0  0  2  0  0  0  0  0  0  0  0  0
  152.3539  142.8709  158.1800 O   0  0  0  0  0  0  0  0  0  0  0  0
  151.1638  142.8935  157.4039 C   0  0  0  0  0  0  0  0  0  0  0  0
  151.0972  141.5992  156.5864 C   0  0  0  0  0  0  0  0  0  0  0  0
  149.8209  140.9259  156.7744 N   0  0  0  0  0  0  0  0  0  0  0  0
  149.6462  139.6842  157.3754 C   0  0  0  0  0  0  0  0  0  0  0  0
  150.7022  138.9752  157.8632 C   0  0  0  0  0  0  0  0  0  0  0  0
  152.0461  139.4608  157.8462 C   0  0  0  0  0  0  0  0  0  0  0  0
  153.1326  139.8603  157.8078 N   0  0  0  0  0  0  0  0  0  0  0  0
  150.5364  137.6641  158.4888 C   0  0  0  0  0  0  0  0  0  0  0  0
  151.4765  137.0002  158.9308 O   0  0  0  0  0  0  0  0  0  0  0  0
  149.2012  137.2086  158.5512 N   0  0  0  0  0  0  0  0  0  0  0  0
  148.9193  135.9159  159.1427 C   0  0  0  0  0  0  0  0  0  0  0  0
  148.0921  137.9298  158.0695 C   0  0  0  0  0  0  0  0  0  0  0  0
  146.9475  137.4741  158.1593 O   0  0  0  0  0  0  0  0  0  0  0  0
  148.3433  139.1878  157.4717 N   0  0  0  0  0  0  0  0  0  0  0  0
  147.1634  139.8586  156.9661 C   0  0  0  0  0  0  0  0  0  0  0  0
  150.0476  144.5929  159.7602 H   0  0  0  0  0  0  0  0  0  0  0  0
  151.1624  145.1629  158.5190 H   0  0  0  0  0  0  0  0  0  0  0  0
  151.0269  146.0307  160.0372 H   0  0  0  0  0  0  0  0  0  0  0  0
  153.0972  144.6430  159.9514 H   0  0  0  0  0  0  0  0  0  0  0  0
  152.0559  145.1086  162.1441 H   0  0  0  0  0  0  0  0  0  0  0  0
  151.0525  143.6858  162.0006 H   0  0  0  0  0  0  0  0  0  0  0  0
  154.1034  143.7330  162.1829 H   0  0  0  0  0  0  0  0  0  0  0  0
  153.0036  143.1983  163.4314 H   0  0  0  0  0  0  0  0  0  0  0  0
  153.9784  141.2651  162.1771 H   0  0  0  0  0  0  0  0  0  0  0  0
  152.2379  141.3152  162.0282 H   0  0  0  0  0  0  0  0  0  0  0  0
  154.2543  142.2966  159.9509 H   0  0  0  0  0  0  0  0  0  0  0  0
  153.2552  140.8670  159.8386 H   0  0  0  0  0  0  0  0  0  0  0  0
  151.1939  142.2715  159.7705 H   0  0  0  0  0  0  0  0  0  0  0  0
  150.3029  142.9478  158.0703 H   0  0  0  0  0  0  0  0  0  0  0  0
  151.1254  143.7622  156.7440 H   0  0  0  0  0  0  0  0  0  0  0  0
  151.3052  141.8083  155.5391 H   0  0  0  0  0  0  0  0  0  0  0  0
  151.8753  140.9167  156.9282 H   0  0  0  0  0  0  0  0  0  0  0  0
  149.1956  141.0926  155.9993 H   0  0  0  0  0  0  0  0  0  0  0  0
  148.4096  135.3168  158.3859 H   0  0  0  0  0  0  0  0  0  0  0  0
  148.2794  136.0911  160.0093 H   0  0  0  0  0  0  0  0  0  0  0  0
  149.8321  135.4086  159.4526 H   0  0  0  0  0  0  0  0  0  0  0  0
  146.7269  139.2172  156.1981 H   0  0  0  0  0  0  0  0  0  0  0  0
  147.4230  140.8223  156.5343 H   0  0  0  0  0  0  0  0  0  0  0  0
  146.4826  140.0055  157.8065 H   0  0  0  0  0  0  0  0  0  0  0  0
  1  2  1  0  0  0  0
  1 24  1  0  0  0  0
  1 25  1  0  0  0  0
  1 26  1  0  0  0  0
  2  7  1  0  0  0  0
  2  3  1  0  0  0  0
  2 27  1  0  0  0  0
  3  4  1  0  0  0  0
  3 28  1  0  0  0  0
  3 29  1  0  0  0  0
  4  5  1  0  0  0  0
  4 30  1  0  0  0  0
  4 31  1  0  0  0  0
  5  6  1  0  0  0  0
  5 32  1  0  0  0  0
  5 33  1  0  0  0  0
  6  7  1  0  0  0  0
  6 34  1  0  0  0  0
  6 35  1  0  0  0  0
  7  8  1  0  0  0  0
  7 36  1  0  0  0  0
  8  9  1  0  0  0  0
  9 10  1  0  0  0  0
  9 37  1  0  0  0  0
  9 38  1  0  0  0  0
 10 11  1  0  0  0  0
 10 39  1  0  0  0  0
 10 40  1  0  0  0  0
 11 12  1  0  0  0  0
 11 41  1  0  0  0  0
 12 22  1  0  0  0  0
 12 13  2  0  0  0  0
 13 14  1  0  0  0  0
 13 16  1  0  0  0  0
 14 15  3  0  0  0  0
 16 17  2  0  0  0  0
 16 18  1  0  0  0  0
 18 19  1  0  0  0  0
 18 20  1  0  0  0  0
 19 42  1  0  0  0  0
 19 43  1  0  0  0  0
 19 44  1  0  0  0  0
 20 21  2  0  0  0  0
 20 22  1  0  0  0  0
 22 23  1  0  0  0  0
 23 45  1  0  0  0  0
 23 46  1  0  0  0  0
 23 47  1  0  0  0  0
M  END
> <s_m_source_file>
AV-unprocessed.smi

> <i_m_source_file_index>
2067

> <i_lp_mmshare_version>
43012

> <i_f3d_flags>
0

> <s_epik_input>
W0NIM11bQ0BASF0xW0NIMl1bQ0gyXVtDSDJdW0NIMl1bQ0BIXTFPW0NIMl1bQ0gyXVtOSF1jMmMoQyNOKWMoPU8pbihbQ0gzXSljKD1PKW4yW0NIM10=

> <s_epik_cmdline>
J2VwaWtfcHl0aG9uJywgJy1waCcsICc3LjAnLCAnLXRuJywgJzgnLCAnLW1hJywgJzIwMCcsICctbWV0YWxfYmluZGluZycsICctaW1hZScsICc8aW5maWxlLm1hZT4nLCAnLW9tYWUnLCAnPG91dGZpbGUubWFlPic=

> <r_epik_Ionization_Penalty>
0.00056529

> <r_epik_Ionization_Penalty_Charging>
3.94678e-10

> <r_epik_Ionization_Penalty_Neutral>
0.000565289

> <r_epik_State_Penalty>
0.000354611

> <r_epik_Charging_Adjusted_Penalty>
0.000354611

> <i_epik_Tot_Q>
0

> <i_epik_Tot_abs_Q>
0

> <r_epik_Metal_State_Penalty>
-0

> <b_epik_Metal_Only>
0

> <s_lp_Force_Field>
OPLS_2005

> <r_lp_Energy>
31.2775

> <b_lp_Chiralities_Consistent>
1

> <s_lp_Variant>
AV-unprocessed.smi:2067-4

> <Gold.Version>
5.8.1

> <Gold.Id.Protein>
6NUR|6NUR_protein|mol2

> <Gold.PLP.Fitness>
45.3051

> <Gold.PLP.PLP>
-41.7039

> <Gold.PLP.part.hbond>
-2.0000

> <Gold.PLP.part.metal>
0.0000

> <Gold.PLP.part.buried>
-4.3617

> <Gold.PLP.part.nonpolar>
-35.1795

> <Gold.PLP.part.repulsive>
0.0390

> <Gold.PLP.ligand.clash>
10.7747

> <Gold.PLP.ligand.torsion>
1.1939

> <Gold.PLP.Chemscore.Hbond>
1.9913

> <Gold.PLP.Chemscore.CHOScore>
0.0000

> <Gold.PLP.Chemscore.Metal>
0.0000

> <Gold.Chemscore.Hbonds>
donor molecule, donor type, donor heavy atom, donor atom, acceptor molecule, acceptor atom, score
      P1  H  6896  6909       L1    17  0.82
      P1  H  7997  8008       L1    15  1.00

> <Gold.PLP.Chemscore.Internal.Correction>
10.7898

> <Gold.Rescore>
     Score         DG    S(hbond)    S(metal)    S(lipo)     H(rot)  DE(clash)    DE(int)     intcor
     15.42     -19.57       1.96        0.00     102.78       1.76       0.16       3.99       ----

> <Gold.Chemscore.Fitness>
15.4205

> <Gold.Chemscore.DG>
-19.5662

> <Gold.Chemscore.ZeroCoef>
-5.4800

> <Gold.Chemscore.Hbond>
1.9646

> <Gold.Chemscore.Metal>
0.0000

> <Gold.Chemscore.Lipo>
102.7831

> <Gold.Chemscore.Internal_Hbond>
0.0000

> <Gold.Chemscore.DEClash>
0.1581

> <Gold.Chemscore.DEInternal>
3.9876

> <Gold.Chemscore.Rot>
1.7583

> <Gold.Chemscore.Internal.Correction>
   9.000000E+99

> <Gold.Chemscore.Hbonds>
donor molecule, donor type, donor heavy atom, donor atom, acceptor molecule, acceptor atom, score
      P1  H  6896  6909       L1    17  0.75
      P1  H  7997  8008       L1    15  0.99

> <Gold.Chemscore.Hbond.Weighted>
-6.5618

> <Gold.Chemscore.Metal.Weighted>
-0.0000

> <Gold.Chemscore.Lipo.Weighted>
-12.0256

> <Gold.Chemscore.Internal_Hbond.Weighted>
0.0000

> <Gold.Chemscore.DEClash.Weighted>
0.1581

> <Gold.Chemscore.DEInternal.Weighted>
3.9876

> <Gold.Chemscore.Rot.Weighted>
4.5012

> <Gold.Chemscore.Internal.Correction.Weighted>
   9.000000E+99

> <Gold.Protein.RotatedTorsions>
[ 6907 6896 6895 6894 ] final  104.84 input  -60.11 | X-H torsion
[ 7974 7965 7964 7962 ] final   23.06 input  175.53 | X-H torsion
[ 8008 7997 7996 7995 ] final  -83.47 input   59.86 | X-H torsion
[ 10167 10162 10161 10158 ] final   18.39 input  -65.29 | X-H torsion
[ 10718 10713 10712 10709 ] final  -72.47 input   66.30 | X-H torsion
[ 10763 10752 10751 10750 ] final -134.18 input  -60.55 | X-H torsion
[ 11005 11000 10999 10996 ] final   24.84 input  -57.11 | X-H torsion

> <Gold.Protein.ActiveResidues>
 VAL166  LYS551  ARG553  GLY616  TRP617  ASP618  TYR619  PRO620  LYS621  CYS622 
 ASP623  PHE694  ASN695  SER759  ASP760  ASP761  ALA762  ILE779  LEU786  VAL792 
 PHE793  MET794  SER795  GLU796  ALA797  LYS798  CYS799  TRP800  GLU811  SER814 

> <Gold.Protein.RotatedAtoms>
  152.5251  133.9617  159.7720 H   0  0  0  0  0  0  0  0  0  0  0  0  # atno 6907 bound_to 6896
  150.9907  133.6145  159.2716 H   0  0  0  0  0  0  0  0  0  0  0  0  # atno 6908 bound_to 6896
  151.3289  135.0843  159.9385 H   0  0  0  0  0  0  0  0  0  0  0  0  # atno 6909 bound_to 6896
  146.2001  139.7797  142.8768 H   0  0  0  0  0  0  0  0  0  0  0  0  # atno 7974 bound_to 7965
  154.6194  140.0618  156.9596 H   0  0  0  0  0  0  0  0  0  0  0  0  # atno 8008 bound_to 7997
  155.1842  140.3301  155.4351 H   0  0  0  0  0  0  0  0  0  0  0  0  # atno 8009 bound_to 7997
  156.2423  140.1892  156.6937 H   0  0  0  0  0  0  0  0  0  0  0  0  # atno 8010 bound_to 7997
  140.5656  143.9256  150.6674 H   0  0  0  0  0  0  0  0  0  0  0  0  # atno 10167 bound_to 10162
  156.0319  130.4373  150.2597 H   0  0  0  0  0  0  0  0  0  0  0  0  # atno 10718 bound_to 10713
  154.8723  135.3743  154.4693 H   0  0  0  0  0  0  0  0  0  0  0  0  # atno 10763 bound_to 10752
  153.5355  135.7027  153.5667 H   0  0  0  0  0  0  0  0  0  0  0  0  # atno 10764 bound_to 10752
  153.3853  135.3986  155.1850 H   0  0  0  0  0  0  0  0  0  0  0  0  # atno 10765 bound_to 10752
  140.3543  134.2194  155.7677 H   0  0  0  0  0  0  0  0  0  0  0  0  # atno 11005 bound_to 11000
  145.3512  141.0308  143.3337 LP  0  0  0  0  0  0  0  0  0  0  0  0  # atno 17320 bound_to 7965
  144.8665  139.5100  143.6788 LP  0  0  0  0  0  0  0  0  0  0  0  0  # atno 17321 bound_to 7965
  140.2718  143.3450  152.1231 LP  0  0  0  0  0  0  0  0  0  0  0  0  # atno 17342 bound_to 10162
  139.5091  144.6862  151.5881 LP  0  0  0  0  0  0  0  0  0  0  0  0  # atno 17343 bound_to 10162
  157.0699  131.0113  151.3194 LP  0  0  0  0  0  0  0  0  0  0  0  0  # atno 17370 bound_to 10713
  157.5007  130.7878  149.7602 LP  0  0  0  0  0  0  0  0  0  0  0  0  # atno 17371 bound_to 10713
  141.2003  133.7991  157.0496 LP  0  0  0  0  0  0  0  0  0  0  0  0  # atno 17394 bound_to 11000
  140.0677  134.9719  157.1415 LP  0  0  0  0  0  0  0  0  0  0  0  0  # atno 17395 bound_to 11000

$$$$
