AV-unprocessed.smi:820|AV-procd|sdf|3836|dock6
  -GOLD-   22720 1283D 1   1.00000     0.00000
 Structure written by MMmdl.
 32 33  0  0  0  0  0  0  0  0  1 V2000
  155.3073  143.6833  165.8253 C   0  0  0  0  0  0  0  0  0  0  0  0
  154.6790  143.0278  164.5924 C   0  0  0  0  0  0  0  0  0  0  0  0
  154.0233  144.2691  163.4423 S   0  0  0  0  0  0  0  0  0  0  0  0
  153.5202  143.4357  161.9657 C   0  0  0  0  0  0  0  0  0  0  0  0
  153.7856  142.0693  161.7369 C   0  0  0  0  0  0  0  0  0  0  0  0
  153.3437  141.4991  160.5272 C   0  0  0  0  0  0  0  0  0  0  0  0
  152.6483  142.3118  159.5990 C   0  0  0  0  0  0  0  0  0  0  0  0
  152.1711  141.8621  158.3379 N   0  0  0  0  0  0  0  0  0  0  0  0
  152.4307  140.7071  157.6951 C   0  0  0  0  0  0  0  0  0  0  0  0
  153.1445  139.8122  158.1496 O   0  0  0  0  0  0  0  0  0  0  0  0
  151.7414  140.6467  156.4116 C   0  0  0  0  0  0  0  0  0  0  0  0
  152.0016  139.6249  155.5634 C   0  0  0  0  0  0  0  0  0  0  0  0
  151.3757  139.4601  154.3532 O   0  0  0  0  0  0  0  0  0  0  0  0
  150.2415  140.2953  154.1540 C   0  0  0  0  0  0  0  0  0  0  0  0
  150.5194  141.7088  154.6854 C   0  0  0  0  0  0  0  0  0  0  0  0
  150.8698  141.6561  156.0643 O   0  0  0  0  0  0  0  0  0  0  0  0
  152.4522  143.6693  159.9305 C   0  0  0  0  0  0  0  0  0  0  0  0
  152.8704  144.2262  161.0869 N   0  0  0  0  0  0  0  0  0  0  0  0
  155.7014  142.9301  166.5080 H   0  0  0  0  0  0  0  0  0  0  0  0
  154.5736  144.2771  166.3709 H   0  0  0  0  0  0  0  0  0  0  0  0
  156.1296  144.3419  165.5443 H   0  0  0  0  0  0  0  0  0  0  0  0
  155.4233  142.4224  164.0743 H   0  0  0  0  0  0  0  0  0  0  0  0
  153.8711  142.3625  164.8981 H   0  0  0  0  0  0  0  0  0  0  0  0
  154.3153  141.4615  162.4538 H   0  0  0  0  0  0  0  0  0  0  0  0
  153.5597  140.4603  160.3333 H   0  0  0  0  0  0  0  0  0  0  0  0
  151.5043  142.4708  157.8852 H   0  0  0  0  0  0  0  0  0  0  0  0
  152.6914  138.8174  155.7645 H   0  0  0  0  0  0  0  0  0  0  0  0
  150.0029  140.3267  153.0908 H   0  0  0  0  0  0  0  0  0  0  0  0
  149.3810  139.8598  154.6638 H   0  0  0  0  0  0  0  0  0  0  0  0
  151.3311  142.1754  154.1252 H   0  0  0  0  0  0  0  0  0  0  0  0
  149.6403  142.3418  154.5648 H   0  0  0  0  0  0  0  0  0  0  0  0
  151.9396  144.3313  159.2479 H   0  0  0  0  0  0  0  0  0  0  0  0
  1  2  1  0  0  0  0
  1 19  1  0  0  0  0
  1 20  1  0  0  0  0
  1 21  1  0  0  0  0
  2  3  1  0  0  0  0
  2 22  1  0  0  0  0
  2 23  1  0  0  0  0
  3  4  1  0  0  0  0
  4 18  1  0  0  0  0
  4  5  2  0  0  0  0
  5  6  1  0  0  0  0
  5 24  1  0  0  0  0
  6  7  2  0  0  0  0
  6 25  1  0  0  0  0
  7  8  1  0  0  0  0
  7 17  1  0  0  0  0
  8  9  1  0  0  0  0
  8 26  1  0  0  0  0
  9 10  2  0  0  0  0
  9 11  1  0  0  0  0
 11 16  1  0  0  0  0
 11 12  2  0  0  0  0
 12 13  1  0  0  0  0
 12 27  1  0  0  0  0
 13 14  1  0  0  0  0
 14 15  1  0  0  0  0
 14 28  1  0  0  0  0
 14 29  1  0  0  0  0
 15 16  1  0  0  0  0
 15 30  1  0  0  0  0
 15 31  1  0  0  0  0
 17 18  2  0  0  0  0
 17 32  1  0  0  0  0
M  END
> <s_m_source_file>
AV-unprocessed.smi

> <i_m_source_file_index>
820

> <i_lp_mmshare_version>
43012

> <i_f3d_flags>
0

> <s_epik_input>
W0NIM11bQ0gyXVNjMVtjSF1bY0hdYyhbY0hdbjEpW05IXUMoPU8pQzI9W0NIXU9bQ0gyXVtDSDJdTzI=

> <s_epik_cmdline>
J2VwaWtfcHl0aG9uJywgJy1waCcsICc3LjAnLCAnLXRuJywgJzgnLCAnLW1hJywgJzIwMCcsICctbWV0YWxfYmluZGluZycsICctaW1hZScsICc8aW5maWxlLm1hZT4nLCAnLW9tYWUnLCAnPG91dGZpbGUubWFlPic=

> <r_lp_tautomer_probability>
1

> <r_epik_Ionization_Penalty>
8.32294e-05

> <r_epik_Ionization_Penalty_Charging>
0

> <r_epik_Ionization_Penalty_Neutral>
8.32294e-05

> <r_epik_State_Penalty>
-0

> <r_epik_Charging_Adjusted_Penalty>
0

> <i_epik_Tot_Q>
0

> <i_epik_Tot_abs_Q>
0

> <r_epik_Metal_State_Penalty>
0.0397586

> <b_epik_Metal_Only>
0

> <s_lp_Force_Field>
OPLS_2005

> <r_lp_Energy>
6.19244

> <b_lp_Chiralities_Consistent>
1

> <s_lp_Variant>
AV-unprocessed.smi:820-1

> <Gold.Version>
5.8.1

> <Gold.Id.Protein>
6NUR|6NUR_protein|mol2

> <Gold.PLP.Fitness>
46.9635

> <Gold.PLP.PLP>
-42.0204

> <Gold.PLP.part.hbond>
-2.0000

> <Gold.PLP.part.metal>
0.0000

> <Gold.PLP.part.buried>
-4.0680

> <Gold.PLP.part.nonpolar>
-34.8833

> <Gold.PLP.part.repulsive>
0.4468

> <Gold.PLP.ligand.clash>
0.0000

> <Gold.PLP.ligand.torsion>
0.1196

> <Gold.PLP.Chemscore.Hbond>
1.7225

> <Gold.PLP.Chemscore.CHOScore>
0.0000

> <Gold.PLP.Chemscore.Metal>
0.0000

> <Gold.Chemscore.Hbonds>
donor molecule, donor type, donor heavy atom, donor atom, acceptor molecule, acceptor atom, score
      P1  H  7997  8010       L1    10  0.60

> <Gold.PLP.Chemscore.Internal.Correction>
0.0148

> <Gold.Rescore>
     Score         DG    S(hbond)    S(metal)    S(lipo)     H(rot)  DE(clash)    DE(int)     intcor
     16.85     -18.99       0.98        0.00     112.54       1.14       0.58       1.56       ----

> <Gold.Chemscore.Fitness>
16.8537

> <Gold.Chemscore.DG>
-18.9931

> <Gold.Chemscore.ZeroCoef>
-5.4800

> <Gold.Chemscore.Hbond>
0.9795

> <Gold.Chemscore.Metal>
0.0000

> <Gold.Chemscore.Lipo>
112.5428

> <Gold.Chemscore.Internal_Hbond>
0.0000

> <Gold.Chemscore.DEClash>
0.5769

> <Gold.Chemscore.DEInternal>
1.5625

> <Gold.Chemscore.Rot>
1.1429

> <Gold.Chemscore.Internal.Correction>
   9.000000E+99

> <Gold.Chemscore.Hbonds>
donor molecule, donor type, donor heavy atom, donor atom, acceptor molecule, acceptor atom, score
      P1  H  7997  8010       L1    10  0.04

> <Gold.Chemscore.Hbond.Weighted>
-3.2714

> <Gold.Chemscore.Metal.Weighted>
-0.0000

> <Gold.Chemscore.Lipo.Weighted>
-13.1675

> <Gold.Chemscore.Internal_Hbond.Weighted>
0.0000

> <Gold.Chemscore.DEClash.Weighted>
0.5769

> <Gold.Chemscore.DEInternal.Weighted>
1.5625

> <Gold.Chemscore.Rot.Weighted>
2.9259

> <Gold.Chemscore.Internal.Correction.Weighted>
   9.000000E+99

> <Gold.Protein.RotatedTorsions>
[ 6907 6896 6895 6894 ] final   22.10 input  -60.11 | X-H torsion
[ 7974 7965 7964 7962 ] final   34.09 input  175.53 | X-H torsion
[ 8008 7997 7996 7995 ] final   50.41 input   59.86 | X-H torsion
[ 10167 10162 10161 10158 ] final  145.12 input  -65.29 | X-H torsion
[ 10718 10713 10712 10709 ] final -176.41 input   66.30 | X-H torsion
[ 10763 10752 10751 10750 ] final  -13.77 input  -60.55 | X-H torsion
[ 11005 11000 10999 10996 ] final  -47.49 input  -57.11 | X-H torsion

> <Gold.Protein.ActiveResidues>
 VAL166  LYS551  ARG553  GLY616  TRP617  ASP618  TYR619  PRO620  LYS621  CYS622 
 ASP623  PHE694  ASN695  SER759  ASP760  ASP761  ALA762  ILE779  LEU786  VAL792 
 PHE793  MET794  SER795  GLU796  ALA797  LYS798  CYS799  TRP800  GLU811  SER814 

> <Gold.Protein.RotatedAtoms>
  151.9220  135.0294  160.0522 H   0  0  0  0  0  0  0  0  0  0  0  0  # atno 6907 bound_to 6896
  152.2191  133.4965  159.5161 H   0  0  0  0  0  0  0  0  0  0  0  0  # atno 6908 bound_to 6896
  150.6995  134.1283  159.4103 H   0  0  0  0  0  0  0  0  0  0  0  0  # atno 6909 bound_to 6896
  146.1377  139.6314  142.9184 H   0  0  0  0  0  0  0  0  0  0  0  0  # atno 7974 bound_to 7965
  155.4183  140.3445  155.4269 H   0  0  0  0  0  0  0  0  0  0  0  0  # atno 8008 bound_to 7997
  156.1408  140.1541  156.8954 H   0  0  0  0  0  0  0  0  0  0  0  0  # atno 8009 bound_to 7997
  154.4969  140.0825  156.7697 H   0  0  0  0  0  0  0  0  0  0  0  0  # atno 8010 bound_to 7997
  139.4932  144.5924  151.6653 H   0  0  0  0  0  0  0  0  0  0  0  0  # atno 10167 bound_to 10162
  156.8143  130.9597  151.3114 H   0  0  0  0  0  0  0  0  0  0  0  0  # atno 10718 bound_to 10713
  153.5183  135.7016  153.5744 H   0  0  0  0  0  0  0  0  0  0  0  0  # atno 10763 bound_to 10752
  153.3805  135.3921  155.1853 H   0  0  0  0  0  0  0  0  0  0  0  0  # atno 10764 bound_to 10752
  154.8697  135.3834  154.4670 H   0  0  0  0  0  0  0  0  0  0  0  0  # atno 10765 bound_to 10752
  141.0644  133.6698  156.3305 H   0  0  0  0  0  0  0  0  0  0  0  0  # atno 11005 bound_to 11000
  145.5119  141.0435  143.2483 LP  0  0  0  0  0  0  0  0  0  0  0  0  # atno 17320 bound_to 7965
  144.7757  139.6634  143.7175 LP  0  0  0  0  0  0  0  0  0  0  0  0  # atno 17321 bound_to 7965
  140.5554  144.0357  150.6145 LP  0  0  0  0  0  0  0  0  0  0  0  0  # atno 17342 bound_to 10162
  140.3425  143.3011  152.0573 LP  0  0  0  0  0  0  0  0  0  0  0  0  # atno 17343 bound_to 10162
  157.6490  130.8868  149.9594 LP  0  0  0  0  0  0  0  0  0  0  0  0  # atno 17370 bound_to 10713
  156.1026  130.3655  150.0191 LP  0  0  0  0  0  0  0  0  0  0  0  0  # atno 17371 bound_to 10713
  140.5803  134.5752  157.5478 LP  0  0  0  0  0  0  0  0  0  0  0  0  # atno 17394 bound_to 11000
  139.9462  134.7697  156.0556 LP  0  0  0  0  0  0  0  0  0  0  0  0  # atno 17395 bound_to 11000

$$$$
