AV-unprocessed.smi:3335|AV-procd|sdf|12845|dock7
  -GOLD-   2272019233D 1   1.00000     0.00000
 Structure written by MMmdl.
 46 47  0  0  0  0  0  0  0  0  1 V2000
  148.2186  141.4409  154.1031 C   0  0  0  0  0  0  0  0  0  0  0  0
  149.1940  140.6607  154.9362 C   0  0  0  0  0  0  0  0  0  0  0  0
  150.1257  139.6765  154.5003 C   0  0  0  0  0  0  0  0  0  0  0  0
  150.8410  139.1717  155.4913 N   0  0  0  0  0  0  0  0  0  0  0  0
  150.3974  139.8156  156.5942 N   0  0  0  0  0  0  0  0  0  0  0  0
  150.9574  139.5053  157.9036 C   0  0  2  0  0  0  0  0  0  0  0  0
  152.4391  139.9261  157.9610 C   0  0  0  0  0  0  0  0  0  0  0  0
  150.7383  138.0167  158.2874 C   0  0  2  0  0  0  0  0  0  0  0  0
  151.4595  137.0254  157.3552 C   0  0  0  0  0  0  0  0  0  0  0  0
  149.3116  137.7099  158.2159 N   0  0  0  0  0  0  0  0  0  0  0  0
  148.9809  136.3207  158.5777 C   0  0  2  0  0  0  0  0  0  0  0  0
  147.9290  135.7341  157.6166 C   0  0  0  0  0  0  0  0  0  0  0  0
  148.4560  136.2502  160.0258 C   0  0  0  0  0  0  0  0  0  0  0  0
  148.3245  137.2964  160.6646 O   0  0  0  0  0  0  0  0  0  0  0  0
  148.1459  135.0491  160.5619 N   0  0  0  0  0  0  0  0  0  0  0  0
  147.6514  134.8877  161.9290 C   0  0  0  0  0  0  0  0  0  0  0  0
  147.6459  133.3828  162.1972 C   0  0  0  0  0  0  0  0  0  0  0  0
  147.5141  132.7611  160.8148 C   0  0  0  0  0  0  0  0  0  0  0  0
  148.2244  133.7509  159.8916 C   0  0  0  0  0  0  0  0  0  0  0  0
  149.4024  140.7196  156.2850 C   0  0  0  0  0  0  0  0  0  0  0  0
  148.0408  140.9669  153.1376 H   0  0  0  0  0  0  0  0  0  0  0  0
  148.5781  142.4505  153.9048 H   0  0  0  0  0  0  0  0  0  0  0  0
  147.2510  141.5342  154.5967 H   0  0  0  0  0  0  0  0  0  0  0  0
  150.3007  139.3148  153.4979 H   0  0  0  0  0  0  0  0  0  0  0  0
  150.4156  140.1226  158.6225 H   0  0  0  0  0  0  0  0  0  0  0  0
  152.8375  139.8447  158.9723 H   0  0  0  0  0  0  0  0  0  0  0  0
  152.5635  140.9632  157.6484 H   0  0  0  0  0  0  0  0  0  0  0  0
  153.0575  139.3058  157.3117 H   0  0  0  0  0  0  0  0  0  0  0  0
  151.1251  137.8562  159.2950 H   0  0  0  0  0  0  0  0  0  0  0  0
  152.5426  137.1315  157.4162 H   0  0  0  0  0  0  0  0  0  0  0  0
  151.1694  137.1743  156.3144 H   0  0  0  0  0  0  0  0  0  0  0  0
  151.2265  135.9938  157.6221 H   0  0  0  0  0  0  0  0  0  0  0  0
  148.9505  137.9514  157.3041 H   0  0  0  0  0  0  0  0  0  0  0  0
  149.8956  135.7336  158.5043 H   0  0  0  0  0  0  0  0  0  0  0  0
  147.6585  134.7160  157.8986 H   0  0  0  0  0  0  0  0  0  0  0  0
  148.2970  135.6927  156.5915 H   0  0  0  0  0  0  0  0  0  0  0  0
  147.0150  136.3296  157.6139 H   0  0  0  0  0  0  0  0  0  0  0  0
  148.2703  135.4169  162.6552 H   0  0  0  0  0  0  0  0  0  0  0  0
  146.6391  135.2901  161.9896 H   0  0  0  0  0  0  0  0  0  0  0  0
  148.5970  133.0863  162.6416 H   0  0  0  0  0  0  0  0  0  0  0  0
  146.8500  133.0768  162.8767 H   0  0  0  0  0  0  0  0  0  0  0  0
  147.9325  131.7556  160.7603 H   0  0  0  0  0  0  0  0  0  0  0  0
  146.4595  132.6995  160.5427 H   0  0  0  0  0  0  0  0  0  0  0  0
  147.7603  133.7643  158.9045 H   0  0  0  0  0  0  0  0  0  0  0  0
  149.2732  133.4743  159.7742 H   0  0  0  0  0  0  0  0  0  0  0  0
  148.9260  141.3224  157.0440 H   0  0  0  0  0  0  0  0  0  0  0  0
  1  2  1  0  0  0  0
  1 21  1  0  0  0  0
  1 22  1  0  0  0  0
  1 23  1  0  0  0  0
  2 20  2  0  0  0  0
  2  3  1  0  0  0  0
  3  4  2  0  0  0  0
  3 24  1  0  0  0  0
  4  5  1  0  0  0  0
  5  6  1  0  0  0  0
  5 20  1  0  0  0  0
  6  7  1  0  0  0  0
  6  8  1  0  0  0  0
  6 25  1  0  0  0  0
  7 26  1  0  0  0  0
  7 27  1  0  0  0  0
  7 28  1  0  0  0  0
  8  9  1  0  0  0  0
  8 10  1  0  0  0  0
  8 29  1  0  0  0  0
  9 30  1  0  0  0  0
  9 31  1  0  0  0  0
  9 32  1  0  0  0  0
 10 11  1  0  0  0  0
 10 33  1  0  0  0  0
 11 12  1  0  0  0  0
 11 13  1  0  0  0  0
 11 34  1  0  0  0  0
 12 35  1  0  0  0  0
 12 36  1  0  0  0  0
 12 37  1  0  0  0  0
 13 14  2  0  0  0  0
 13 15  1  0  0  0  0
 15 19  1  0  0  0  0
 15 16  1  0  0  0  0
 16 17  1  0  0  0  0
 16 38  1  0  0  0  0
 16 39  1  0  0  0  0
 17 18  1  0  0  0  0
 17 40  1  0  0  0  0
 17 41  1  0  0  0  0
 18 19  1  0  0  0  0
 18 42  1  0  0  0  0
 18 43  1  0  0  0  0
 19 44  1  0  0  0  0
 19 45  1  0  0  0  0
 20 46  1  0  0  0  0
M  END
> <s_m_source_file>
AV-unprocessed.smi

> <i_m_source_file_index>
3335

> <i_lp_mmshare_version>
43012

> <i_f3d_flags>
0

> <s_epik_input>
W0NIM11jMVtjSF1ubihbY0hdMSlbQ0BIXShbQ0gzXSlbQ0BIXShbQ0gzXSlbTkhdW0NASF0oW0NIM10pQyg9TylOMltDSDJdW0NIMl1bQ0gyXVtDSDJdMg==

> <s_epik_cmdline>
J2VwaWtfcHl0aG9uJywgJy1waCcsICc3LjAnLCAnLXRuJywgJzgnLCAnLW1hJywgJzIwMCcsICctbWV0YWxfYmluZGluZycsICctaW1hZScsICc8aW5maWxlLm1hZT4nLCAnLW9tYWUnLCAnPG91dGZpbGUubWFlPic=

> <r_lp_tautomer_probability>
1

> <r_epik_Ionization_Penalty>
0.918803

> <r_epik_Ionization_Penalty_Charging>
0

> <r_epik_Ionization_Penalty_Neutral>
0.918803

> <r_epik_State_Penalty>
0.958258

> <r_epik_Charging_Adjusted_Penalty>
0.958258

> <i_epik_Tot_Q>
0

> <i_epik_Tot_abs_Q>
0

> <r_epik_Metal_State_Penalty>
0.956786

> <b_epik_Metal_Only>
0

> <s_lp_Force_Field>
OPLS_2005

> <r_lp_Energy>
39.0848

> <b_lp_Chiralities_Consistent>
1

> <s_lp_Variant>
AV-unprocessed.smi:3335-9

> <Gold.Version>
5.8.1

> <Gold.Id.Protein>
6NUR|6NUR_protein|mol2

> <Gold.PLP.Fitness>
36.9117

> <Gold.PLP.PLP>
-30.7778

> <Gold.PLP.part.hbond>
-2.0000

> <Gold.PLP.part.metal>
0.0000

> <Gold.PLP.part.buried>
-3.1043

> <Gold.PLP.part.nonpolar>
-25.4904

> <Gold.PLP.part.repulsive>
0.0206

> <Gold.PLP.ligand.clash>
0.0000

> <Gold.PLP.ligand.torsion>
0.6345

> <Gold.PLP.Chemscore.Hbond>
1.4400

> <Gold.PLP.Chemscore.CHOScore>
0.9899

> <Gold.PLP.Chemscore.Metal>
0.0000

> <Gold.Chemscore.Hbonds>
donor molecule, donor type, donor heavy atom, donor atom, acceptor molecule, acceptor atom, score
      P1  H  6931  6943       L1    14  0.77
      P1  H  6934  6947       L1    14  0.51
      L1  C     3    24       P1  7957  0.99

> <Gold.PLP.Chemscore.Internal.Correction>
0.1131

> <Gold.Rescore>
     Score         DG    S(hbond)    S(metal)    S(lipo)     H(rot)  DE(clash)    DE(int)     intcor
     13.91     -15.99       1.68        0.00      77.20       1.62       0.10       1.99       ----

> <Gold.Chemscore.Fitness>
13.9054

> <Gold.Chemscore.DG>
-15.9924

> <Gold.Chemscore.ZeroCoef>
-5.4800

> <Gold.Chemscore.Hbond>
1.6849

> <Gold.Chemscore.Metal>
0.0000

> <Gold.Chemscore.Lipo>
77.2043

> <Gold.Chemscore.Internal_Hbond>
0.0000

> <Gold.Chemscore.DEClash>
0.0966

> <Gold.Chemscore.DEInternal>
1.9904

> <Gold.Chemscore.Rot>
1.6204

> <Gold.Chemscore.Internal.Correction>
   9.000000E+99

> <Gold.Chemscore.Hbonds>
donor molecule, donor type, donor heavy atom, donor atom, acceptor molecule, acceptor atom, score
      P1  H  6931  6943       L1    14  0.76
      P1  H  6934  6947       L1    14  0.50

> <Gold.Chemscore.Hbond.Weighted>
-5.6277

> <Gold.Chemscore.Metal.Weighted>
-0.0000

> <Gold.Chemscore.Lipo.Weighted>
-9.0329

> <Gold.Chemscore.Internal_Hbond.Weighted>
0.0000

> <Gold.Chemscore.DEClash.Weighted>
0.0966

> <Gold.Chemscore.DEInternal.Weighted>
1.9904

> <Gold.Chemscore.Rot.Weighted>
4.1482

> <Gold.Chemscore.Internal.Correction.Weighted>
   9.000000E+99

> <Gold.Protein.RotatedTorsions>
[ 6907 6896 6895 6894 ] final  -50.01 input  -60.11 | X-H torsion
[ 7974 7965 7964 7962 ] final    1.01 input  175.53 | X-H torsion
[ 8008 7997 7996 7995 ] final   37.69 input   59.86 | X-H torsion
[ 10167 10162 10161 10158 ] final  -18.04 input  -65.29 | X-H torsion
[ 10718 10713 10712 10709 ] final  116.12 input   66.30 | X-H torsion
[ 10763 10752 10751 10750 ] final  149.58 input  -60.55 | X-H torsion
[ 11005 11000 10999 10996 ] final  139.90 input  -57.11 | X-H torsion

> <Gold.Protein.ActiveResidues>
 VAL166  LYS551  ARG553  GLY616  TRP617  ASP618  TYR619  PRO620  LYS621  CYS622 
 ASP623  PHE694  ASN695  SER759  ASP760  ASP761  ALA762  ILE779  LEU786  VAL792 
 PHE793  MET794  SER795  GLU796  ALA797  LYS798  CYS799  TRP800  GLU811  SER814 

> <Gold.Protein.RotatedAtoms>
  150.8749  134.8130  159.7182 H   0  0  0  0  0  0  0  0  0  0  0  0  # atno 6907 bound_to 6896
  152.4740  134.4887  159.9698 H   0  0  0  0  0  0  0  0  0  0  0  0  # atno 6908 bound_to 6896
  151.4970  133.3474  159.2898 H   0  0  0  0  0  0  0  0  0  0  0  0  # atno 6909 bound_to 6896
  146.2438  140.1051  142.8346 H   0  0  0  0  0  0  0  0  0  0  0  0  # atno 7974 bound_to 7965
  155.2079  140.3321  155.4333 H   0  0  0  0  0  0  0  0  0  0  0  0  # atno 8008 bound_to 7997
  156.2382  140.1882  156.7111 H   0  0  0  0  0  0  0  0  0  0  0  0  # atno 8009 bound_to 7997
  154.6097  140.0611  156.9463 H   0  0  0  0  0  0  0  0  0  0  0  0  # atno 8010 bound_to 7997
  140.7254  143.4955  150.9936 H   0  0  0  0  0  0  0  0  0  0  0  0  # atno 10167 bound_to 10162
  157.6180  131.1021  150.7427 H   0  0  0  0  0  0  0  0  0  0  0  0  # atno 10718 bound_to 10713
  154.0735  135.2865  155.3304 H   0  0  0  0  0  0  0  0  0  0  0  0  # atno 10763 bound_to 10752
  154.6731  135.5292  153.8167 H   0  0  0  0  0  0  0  0  0  0  0  0  # atno 10764 bound_to 10752
  153.0476  135.6562  154.0914 H   0  0  0  0  0  0  0  0  0  0  0  0  # atno 10765 bound_to 10752
  140.0288  134.9362  157.0621 H   0  0  0  0  0  0  0  0  0  0  0  0  # atno 11005 bound_to 11000
  145.0535  140.9035  143.4981 LP  0  0  0  0  0  0  0  0  0  0  0  0  # atno 17320 bound_to 7965
  145.1153  139.2730  143.5616 LP  0  0  0  0  0  0  0  0  0  0  0  0  # atno 17321 bound_to 7965
  139.8662  143.7251  152.3170 LP  0  0  0  0  0  0  0  0  0  0  0  0  # atno 17342 bound_to 10162
  139.7484  144.7541  151.0545 LP  0  0  0  0  0  0  0  0  0  0  0  0  # atno 17343 bound_to 10162
  156.7790  130.4853  149.5404 LP  0  0  0  0  0  0  0  0  0  0  0  0  # atno 17370 bound_to 10713
  156.1312  130.6179  151.0335 LP  0  0  0  0  0  0  0  0  0  0  0  0  # atno 17371 bound_to 10713
  140.4261  134.1830  155.7166 LP  0  0  0  0  0  0  0  0  0  0  0  0  # atno 17394 bound_to 11000
  141.1819  133.8396  157.1228 LP  0  0  0  0  0  0  0  0  0  0  0  0  # atno 17395 bound_to 11000

$$$$
