AV-unprocessed.smi:334|AV-procd|sdf|2365|dock6
  -GOLD-   2262022283D 1   1.00000     0.00000
 Structure written by MMmdl.
 44 46  0  0  0  0  0  0  0  0  3 V2000
  146.7963  134.6170  155.2615 C   0  0  0  0  0  0  0  0  0  0  0  0
  146.2276  135.0896  153.9128 C   0  0  1  0  0  0  0  0  0  0  0  0
  146.7737  136.3970  153.5682 N   0  0  0  0  0  0  0  0  0  0  0  0
  146.6897  137.5137  154.3108 C   0  0  0  0  0  0  0  0  0  0  0  0
  146.2251  137.5257  155.4499 O   0  0  0  0  0  0  0  0  0  0  0  0
  147.1600  138.8346  153.6771 C   0  0  0  0  0  0  0  0  0  0  0  0
  148.3411  139.4301  154.3287 N   0  0  0  0  0  0  0  0  0  0  0  0
  149.5765  138.7951  154.0912 C   0  0  0  0  0  0  0  0  0  0  0  0
  150.7190  139.2101  154.6712 C   0  0  0  0  0  0  0  0  0  0  0  0
  151.9679  138.5154  154.4517 N   0  3  0  0  0  0  0  0  0  0  0  0
  153.0126  139.0632  154.7883 O   0  0  0  0  0  0  0  0  0  0  0  0
  151.9459  137.3990  153.9422 O   0  5  0  0  0  0  0  0  0  0  0  0
  150.6492  140.3628  155.5477 C   0  0  0  0  0  0  0  0  0  0  0  0
  149.4702  140.9721  155.7827 C   0  0  0  0  0  0  0  0  0  0  0  0
  148.2231  140.5020  155.1706 C   0  0  0  0  0  0  0  0  0  0  0  0
  147.1392  141.0336  155.4092 O   0  0  0  0  0  0  0  0  0  0  0  0
  146.5366  134.0918  152.7711 C   0  0  1  0  0  0  0  0  0  0  0  0
  146.0417  132.6500  153.0229 C   0  0  0  0  0  0  0  0  0  0  0  0
  145.2750  132.3168  151.7288 C   0  0  1  0  0  0  0  0  0  0  0  0
  143.9419  133.0886  151.7178 C   0  0  0  0  0  0  0  0  0  0  0  0
  144.3909  134.5364  151.4491 C   0  0  0  0  0  0  0  0  0  0  0  0
  145.9259  134.4087  151.3809 C   0  0  2  0  0  0  0  0  0  0  0  0
  146.0807  133.0666  150.6742 C   0  0  0  0  0  0  0  0  0  0  0  0
  146.3917  133.6443  155.5418 H   0  0  0  0  0  0  0  0  0  0  0  0
  146.5480  135.3146  156.0617 H   0  0  0  0  0  0  0  0  0  0  0  0
  147.8825  134.5266  155.2250 H   0  0  0  0  0  0  0  0  0  0  0  0
  145.1448  135.1800  154.0137 H   0  0  0  0  0  0  0  0  0  0  0  0
  147.1828  136.4799  152.6491 H   0  0  0  0  0  0  0  0  0  0  0  0
  147.3888  138.6453  152.6273 H   0  0  0  0  0  0  0  0  0  0  0  0
  146.3181  139.5282  153.6601 H   0  0  0  0  0  0  0  0  0  0  0  0
  149.5175  137.9389  153.4341 H   0  0  0  0  0  0  0  0  0  0  0  0
  151.5412  140.7458  156.0214 H   0  0  0  0  0  0  0  0  0  0  0  0
  149.4409  141.8289  156.4397 H   0  0  0  0  0  0  0  0  0  0  0  0
  147.6203  134.0612  152.6423 H   0  0  0  0  0  0  0  0  0  0  0  0
  146.8876  131.9755  153.1619 H   0  0  0  0  0  0  0  0  0  0  0  0
  145.4032  132.5636  153.9031 H   0  0  0  0  0  0  0  0  0  0  0  0
  145.1620  131.2470  151.5509 H   0  0  0  0  0  0  0  0  0  0  0  0
  143.2918  132.7346  150.9167 H   0  0  0  0  0  0  0  0  0  0  0  0
  143.3990  132.9896  152.6586 H   0  0  0  0  0  0  0  0  0  0  0  0
  143.9966  134.8837  150.4932 H   0  0  0  0  0  0  0  0  0  0  0  0
  144.0476  135.2342  152.2121 H   0  0  0  0  0  0  0  0  0  0  0  0
  146.4094  135.2414  150.8695 H   0  0  0  0  0  0  0  0  0  0  0  0
  147.1165  132.7303  150.5993 H   0  0  0  0  0  0  0  0  0  0  0  0
  145.6244  133.0427  149.6828 H   0  0  0  0  0  0  0  0  0  0  0  0
  1  2  1  0  0  0  0
  1 24  1  0  0  0  0
  1 25  1  0  0  0  0
  1 26  1  0  0  0  0
  2  3  1  0  0  0  0
  2 17  1  0  0  0  0
  2 27  1  0  0  0  0
  3  4  1  0  0  0  0
  3 28  1  0  0  0  0
  4  5  2  0  0  0  0
  4  6  1  0  0  0  0
  6  7  1  0  0  0  0
  6 29  1  0  0  0  0
  6 30  1  0  0  0  0
  7 15  1  0  0  0  0
  7  8  1  0  0  0  0
  8  9  2  0  0  0  0
  8 31  1  0  0  0  0
  9 10  1  0  0  0  0
  9 13  1  0  0  0  0
 10 11  2  0  0  0  0
 10 12  1  0  0  0  0
 13 14  2  0  0  0  0
 13 32  1  0  0  0  0
 14 15  1  0  0  0  0
 14 33  1  0  0  0  0
 15 16  2  0  0  0  0
 17 22  1  0  0  0  0
 17 18  1  0  0  0  0
 17 34  1  0  0  0  0
 18 19  1  0  0  0  0
 18 35  1  0  0  0  0
 18 36  1  0  0  0  0
 19 23  1  0  0  0  0
 19 20  1  0  0  0  0
 19 37  1  0  0  0  0
 20 21  1  0  0  0  0
 20 38  1  0  0  0  0
 20 39  1  0  0  0  0
 21 22  1  0  0  0  0
 21 40  1  0  0  0  0
 21 41  1  0  0  0  0
 22 23  1  0  0  0  0
 22 42  1  0  0  0  0
 23 43  1  0  0  0  0
 23 44  1  0  0  0  0
M  CHG  1  10   1
M  CHG  1  12  -1
M  END
> <s_m_source_file>
AV-unprocessed.smi

> <i_m_source_file_index>
334

> <i_lp_mmshare_version>
43012

> <i_f3d_flags>
0

> <s_epik_input>
W0NIMl0xW0NIMl1bQ0BIXShbQ0gyXTIpW0NAQEhdKFtDSDJdW0NAQEhdMTIpW0NASF0oW0NIM10pW05IXUMoPU8pW0NIMl1uM1tjSF1jKFtOK10oPU8pW08tXSlbY0hdW2NIXWMzPU8=

> <s_epik_cmdline>
J2VwaWtfcHl0aG9uJywgJy1waCcsICc3LjAnLCAnLXRuJywgJzgnLCAnLW1hJywgJzIwMCcsICctbWV0YWxfYmluZGluZycsICctaW1hZScsICc8aW5maWxlLm1hZT4nLCAnLW9tYWUnLCAnPG91dGZpbGUubWFlPic=

> <r_lp_tautomer_probability>
1

> <r_epik_Ionization_Penalty>
2.17081e-08

> <r_epik_Ionization_Penalty_Charging>
8.1195e-11

> <r_epik_Ionization_Penalty_Neutral>
2.16269e-08

> <r_epik_State_Penalty>
-0

> <r_epik_Charging_Adjusted_Penalty>
8.1195e-11

> <i_epik_Tot_Q>
0

> <i_epik_Tot_abs_Q>
2

> <r_epik_Metal_State_Penalty>
-0

> <b_epik_Metal_Only>
0

> <s_lp_Force_Field>
OPLS_2005

> <r_lp_Energy>
61.6475

> <b_lp_Chiralities_Consistent>
1

> <s_lp_Variant>
AV-unprocessed.smi:334-4

> <Gold.Version>
5.8.1

> <Gold.Id.Protein>
6NUR|6NUR_protein|mol2

> <Gold.PLP.Fitness>
49.5753

> <Gold.PLP.PLP>
-38.6083

> <Gold.PLP.part.hbond>
-3.0000

> <Gold.PLP.part.metal>
0.0000

> <Gold.PLP.part.buried>
-3.1828

> <Gold.PLP.part.nonpolar>
-32.3380

> <Gold.PLP.part.repulsive>
0.3362

> <Gold.PLP.ligand.clash>
0.0000

> <Gold.PLP.ligand.torsion>
0.3314

> <Gold.PLP.Chemscore.Hbond>
2.8560

> <Gold.PLP.Chemscore.CHOScore>
1.0000

> <Gold.PLP.Chemscore.Metal>
0.0000

> <Gold.Chemscore.Hbonds>
donor molecule, donor type, donor heavy atom, donor atom, acceptor molecule, acceptor atom, score
      L1  H     3    28       P1  7948  0.74
      P1  H  7997  8009       L1    11  0.75
      P1  H 10752 10763       L1    12  0.94
      L1  C     8    31       P1  7948  1.00

> <Gold.PLP.Chemscore.Internal.Correction>
0.0617

> <Gold.Rescore>
     Score         DG    S(hbond)    S(metal)    S(lipo)     H(rot)  DE(clash)    DE(int)     intcor
     18.27     -19.50       2.74        0.00      79.71       1.75       0.27       0.96       ----

> <Gold.Chemscore.Fitness>
18.2712

> <Gold.Chemscore.DG>
-19.5007

> <Gold.Chemscore.ZeroCoef>
-5.4800

> <Gold.Chemscore.Hbond>
2.7449

> <Gold.Chemscore.Metal>
0.0000

> <Gold.Chemscore.Lipo>
79.7100

> <Gold.Chemscore.Internal_Hbond>
0.0000

> <Gold.Chemscore.DEClash>
0.2689

> <Gold.Chemscore.DEInternal>
0.9606

> <Gold.Chemscore.Rot>
1.7474

> <Gold.Chemscore.Internal.Correction>
   9.000000E+99

> <Gold.Chemscore.Hbonds>
donor molecule, donor type, donor heavy atom, donor atom, acceptor molecule, acceptor atom, score
      L1  H     3    28       P1  7948  0.73
      P1  H  7997  8009       L1    11  0.75
      P1  H 10752 10763       L1    12  0.87

> <Gold.Chemscore.Hbond.Weighted>
-9.1679

> <Gold.Chemscore.Metal.Weighted>
-0.0000

> <Gold.Chemscore.Lipo.Weighted>
-9.3261

> <Gold.Chemscore.Internal_Hbond.Weighted>
0.0000

> <Gold.Chemscore.DEClash.Weighted>
0.2689

> <Gold.Chemscore.DEInternal.Weighted>
0.9606

> <Gold.Chemscore.Rot.Weighted>
4.4733

> <Gold.Chemscore.Internal.Correction.Weighted>
   9.000000E+99

> <Gold.Protein.RotatedTorsions>
[ 6907 6896 6895 6894 ] final   46.81 input  -60.11 | X-H torsion
[ 7974 7965 7964 7962 ] final -145.54 input  175.53 | X-H torsion
[ 8008 7997 7996 7995 ] final -131.46 input   59.86 | X-H torsion
[ 10167 10162 10161 10158 ] final   70.62 input  -65.29 | X-H torsion
[ 10718 10713 10712 10709 ] final -114.15 input   66.30 | X-H torsion
[ 10763 10752 10751 10750 ] final   40.01 input  -60.55 | X-H torsion
[ 11005 11000 10999 10996 ] final   37.75 input  -57.11 | X-H torsion

> <Gold.Protein.ActiveResidues>
 VAL166  LYS551  ARG553  GLY616  TRP617  ASP618  TYR619  PRO620  LYS621  CYS622 
 ASP623  PHE694  ASN695  SER759  ASP760  ASP761  ALA762  ILE779  LEU786  VAL792 
 PHE793  MET794  SER795  GLU796  ALA797  LYS798  CYS799  TRP800  GLU811  SER814 

> <Gold.Protein.RotatedAtoms>
  152.2607  134.8036  160.0430 H   0  0  0  0  0  0  0  0  0  0  0  0  # atno 6907 bound_to 6896
  151.8684  133.3465  159.3735 H   0  0  0  0  0  0  0  0  0  0  0  0  # atno 6908 bound_to 6896
  150.7116  134.5065  159.5630 H   0  0  0  0  0  0  0  0  0  0  0  0  # atno 6909 bound_to 6896
  144.8220  140.5570  143.5572 H   0  0  0  0  0  0  0  0  0  0  0  0  # atno 7974 bound_to 7965
  155.3128  140.0458  157.3035 H   0  0  0  0  0  0  0  0  0  0  0  0  # atno 8008 bound_to 7997
  154.5423  140.2292  155.8586 H   0  0  0  0  0  0  0  0  0  0  0  0  # atno 8009 bound_to 7997
  156.1892  140.3055  155.9306 H   0  0  0  0  0  0  0  0  0  0  0  0  # atno 8010 bound_to 7997
  140.0550  144.5280  150.7335 H   0  0  0  0  0  0  0  0  0  0  0  0  # atno 10167 bound_to 10162
  156.0812  130.6011  150.8737 H   0  0  0  0  0  0  0  0  0  0  0  0  # atno 10718 bound_to 10713
  152.9949  135.6204  154.2558 H   0  0  0  0  0  0  0  0  0  0  0  0  # atno 10763 bound_to 10752
  154.2295  135.2792  155.2897 H   0  0  0  0  0  0  0  0  0  0  0  0  # atno 10764 bound_to 10752
  154.5461  135.5747  153.6939 H   0  0  0  0  0  0  0  0  0  0  0  0  # atno 10765 bound_to 10752
  140.2194  134.3659  155.8012 H   0  0  0  0  0  0  0  0  0  0  0  0  # atno 11005 bound_to 11000
  145.5083  139.1480  143.3619 LP  0  0  0  0  0  0  0  0  0  0  0  0  # atno 17320 bound_to 7965
  146.2526  140.5224  142.8887 LP  0  0  0  0  0  0  0  0  0  0  0  0  # atno 17321 bound_to 7965
  140.7199  143.2579  151.4313 LP  0  0  0  0  0  0  0  0  0  0  0  0  # atno 17342 bound_to 10162
  139.5929  144.1459  152.2110 LP  0  0  0  0  0  0  0  0  0  0  0  0  # atno 17343 bound_to 10162
  157.5929  131.0944  150.9089 LP  0  0  0  0  0  0  0  0  0  0  0  0  # atno 17370 bound_to 10713
  156.9261  130.5333  149.5279 LP  0  0  0  0  0  0  0  0  0  0  0  0  # atno 17371 bound_to 10713
  141.2223  133.7185  156.8551 LP  0  0  0  0  0  0  0  0  0  0  0  0  # atno 17394 bound_to 11000
  140.1865  134.8996  157.3011 LP  0  0  0  0  0  0  0  0  0  0  0  0  # atno 17395 bound_to 11000

$$$$
