#       Name:                AV-unprocessed.smi:2043
#       Creating user name   scv26
#       Creation time:       Fri Mar 27 10:56:08 2020


#       File generated by GOLD software.
#

@<TRIPOS>MOLECULE
AV-unprocessed.smi:2043
    33    34     1
SMALL
NO_CHARGES


@<TRIPOS>ATOM
      1 ****        -5.8839   2.7036   0.0780 C.3            1 S1                 0.0000
      2 ****        -4.5352   2.0920   0.2472 C.2            1 S1                 0.0000
      3 ****        -4.3567   0.8486   0.7096 N.2            1 S1                 0.0000
      4 ****        -3.0146   0.5023   0.7834 N.2            1 S1                 0.0000
      5 ****        -2.2181   1.4996   0.3748 C.2            1 S1                 0.0000
      6 ****        -0.8008   1.4183   0.3485 N.am           1 S1                 0.0000
      7 ****        -0.0178   0.3873   0.7121 C.2            1 S1                 0.0000
      8 ****        -0.4196  -0.6979   1.1327 O.2            1 S1                 0.0000
      9 ****         1.2800   0.6877   0.5577 N.am           1 S1                 0.0000
     10 ****         2.3941  -0.2060   0.8534 C.3            1 S1                 0.0000
     11 ****         2.7892  -1.0281  -0.3709 C.3            1 S1                 0.0000
     12 ****         1.8836  -2.1685  -0.8634 C.3            1 S1                 0.0000
     13 ****         3.1459  -2.9382  -1.2603 C.3            1 S1                 0.0000
     14 ****         3.9048  -2.0768  -0.2476 C.3            1 S1                 0.0000
     15 ****        -3.0522   2.9561  -0.1392 S.3            1 S1                 0.0000
     16 ****        -6.6507   1.9304   0.0207 H              1 S1                 0.0000
     17 ****        -5.9159   3.2934  -0.8382 H              1 S1                 0.0000
     18 ****        -6.1048   3.3553   0.9233 H              1 S1                 0.0000
     19 ****        -0.3267   2.2454   0.0177 H              1 S1                 0.0000
     20 ****         1.5170   1.6037   0.2058 H              1 S1                 0.0000
     21 ****         3.2354   0.4066   1.1776 H              1 S1                 0.0000
     22 ****         2.1521  -0.8545   1.6971 H              1 S1                 0.0000
     23 ****         3.0222  -0.3756  -1.2153 H              1 S1                 0.0000
     24 ****         1.3336  -2.6533  -0.0549 H              1 S1                 0.0000
     25 ****         1.2269  -1.9041  -1.6928 H              1 S1                 0.0000
     26 ****         3.1244  -4.0036  -1.0296 H              1 S1                 0.0000
     27 ****         3.4513  -2.7497  -2.2907 H              1 S1                 0.0000
     28 ****         4.8872  -1.7397  -0.5795 H              1 S1                 0.0000
     29 ****         3.9499  -2.5344   0.7423 H              1 S1                 0.0000
     30 ****        -5.1047   0.2389   0.9719 LP             1 S1                 0.0000
     31 ****        -2.6820  -0.3849   1.1031 LP             1 S1                 0.0000
     32 ****        -1.4010  -0.8656   1.2261 LP             1 S1                 0.0000
     33 ****         0.2354  -1.4115   1.3809 LP             1 S1                 0.0000
@<TRIPOS>BOND
    1    1    2 1     
    2    1   16 1     
    3    1   17 1     
    4    1   18 1     
    5    2   15 1     
    6    2    3 2     
    7    3    4 1     
    8    4    5 2     
    9    5    6 1     
   10    5   15 1     
   11    6    7 am    
   12    6   19 1     
   13    7    8 2     
   14    7    9 am    
   15    9   10 1     
   16    9   20 1     
   17   10   11 1     
   18   10   21 1     
   19   10   22 1     
   20   11   14 1     
   21   11   12 1     
   22   11   23 1     
   23   12   13 1     
   24   12   24 1     
   25   12   25 1     
   26   13   14 1     
   27   13   26 1     
   28   13   27 1     
   29   14   28 1     
   30   14   29 1     
   31    3   30 1     
   32    4   31 1     
   33    8   32 1     
   34    8   33 1     
@<TRIPOS>SUBSTRUCTURE
      1 S1             1
@<TRIPOS>SET
LONE_PAIRS      STATIC     ATOMS    <user>   **** ""
4 30 31 32 33
DONOR_HYDROGENS      STATIC     ATOMS    <user>   **** ""
2 19 20
ATOM$BLUE        STATIC     ATOMS    COLORGROUP SYSTEM
4 30 31 32 33
ATOM$RED        STATIC     ATOMS    COLORGROUP SYSTEM
2 19 20
