AV-unprocessed.smi:2583|AV-procd|sdf|10138|dock3
  -GOLD-   2272014153D 1   1.00000     0.00000
 Structure written by MMmdl.
 55 57  0  0  0  0  0  0  0  0  3 V2000
  153.5786  142.4294  161.1727 C   0  0  0  0  0  0  0  0  0  0  0  0
  152.5196  143.2334  160.4477 C   0  0  0  0  0  0  0  0  0  0  0  0
  152.0633  144.4653  160.9599 C   0  0  0  0  0  0  0  0  0  0  0  0
  151.1127  145.2103  160.3579 N   0  0  0  0  0  0  0  0  0  0  0  0
  150.5834  144.7485  159.2051 C   0  0  0  0  0  0  0  0  0  0  0  0
  150.9752  143.5393  158.5927 C   0  0  0  0  0  0  0  0  0  0  0  0
  150.3248  143.1604  157.3870 N   0  0  0  0  0  0  0  0  0  0  0  0
  150.5308  142.0645  156.6366 C   0  0  0  0  0  0  0  0  0  0  0  0
  151.3852  141.2058  156.8539 O   0  0  0  0  0  0  0  0  0  0  0  0
  149.6925  142.0294  155.5898 N   0  0  0  0  0  0  0  0  0  0  0  0
  149.6485  140.9846  154.5692 C   0  0  2  0  0  0  0  0  0  0  0  0
  148.3137  141.0427  153.8040 C   0  0  0  0  0  0  0  0  0  0  0  0
  148.1858  139.8591  152.8248 C   0  0  0  0  0  0  0  0  0  0  0  0
  148.3219  138.5443  153.5164 N   0  3  2  0  0  0  0  0  0  0  0  0
  147.1510  138.1428  154.3731 C   0  0  2  0  0  0  0  0  0  0  0  0
  147.4672  136.9832  155.3489 C   0  0  0  0  0  0  0  0  0  0  0  0
  147.7295  135.6615  154.6031 C   0  0  0  0  0  0  0  0  0  0  0  0
  146.5686  135.2854  153.7573 N   0  3  2  0  0  0  0  0  0  0  0  0
  146.7636  133.9854  153.0800 C   0  0  0  0  0  0  0  0  0  0  0  0
  146.1833  136.3627  152.8111 C   0  0  0  0  0  0  0  0  0  0  0  0
  145.9195  137.6863  153.5536 C   0  0  0  0  0  0  0  0  0  0  0  0
  149.6555  138.4777  154.1811 C   0  0  0  0  0  0  0  0  0  0  0  0
  149.8372  139.6021  155.2189 C   0  0  0  0  0  0  0  0  0  0  0  0
  151.9626  142.7601  159.2428 C   0  0  0  0  0  0  0  0  0  0  0  0
  153.9263  142.9466  162.0675 H   0  0  0  0  0  0  0  0  0  0  0  0
  154.4364  142.2598  160.5217 H   0  0  0  0  0  0  0  0  0  0  0  0
  153.1775  141.4608  161.4726 H   0  0  0  0  0  0  0  0  0  0  0  0
  152.4649  144.8627  161.8805 H   0  0  0  0  0  0  0  0  0  0  0  0
  149.8231  145.3695  158.7540 H   0  0  0  0  0  0  0  0  0  0  0  0
  149.6543  143.8260  157.0311 H   0  0  0  0  0  0  0  0  0  0  0  0
  149.0310  142.7861  155.4938 H   0  0  0  0  0  0  0  0  0  0  0  0
  150.4553  141.1240  153.8472 H   0  0  0  0  0  0  0  0  0  0  0  0
  147.4757  141.0427  154.5017 H   0  0  0  0  0  0  0  0  0  0  0  0
  148.2468  141.9815  153.2526 H   0  0  0  0  0  0  0  0  0  0  0  0
  147.2675  139.9296  152.2466 H   0  0  0  0  0  0  0  0  0  0  0  0
  148.9816  139.9321  152.0820 H   0  0  0  0  0  0  0  0  0  0  0  0
  146.8548  139.0059  154.9687 H   0  0  0  0  0  0  0  0  0  0  0  0
  148.2882  137.2181  156.0237 H   0  0  0  0  0  0  0  0  0  0  0  0
  146.6112  136.8401  156.0101 H   0  0  0  0  0  0  0  0  0  0  0  0
  148.6251  135.7445  153.9858 H   0  0  0  0  0  0  0  0  0  0  0  0
  147.9184  134.8677  155.3271 H   0  0  0  0  0  0  0  0  0  0  0  0
  147.5964  134.0302  152.3768 H   0  0  0  0  0  0  0  0  0  0  0  0
  145.8666  133.6995  152.5298 H   0  0  0  0  0  0  0  0  0  0  0  0
  146.9721  133.1997  153.8071 H   0  0  0  0  0  0  0  0  0  0  0  0
  146.9669  136.4963  152.0638 H   0  0  0  0  0  0  0  0  0  0  0  0
  145.2830  136.0632  152.2732 H   0  0  0  0  0  0  0  0  0  0  0  0
  145.0817  137.5359  154.2365 H   0  0  0  0  0  0  0  0  0  0  0  0
  145.5688  138.4523  152.8652 H   0  0  0  0  0  0  0  0  0  0  0  0
  149.8507  137.5028  154.6216 H   0  0  0  0  0  0  0  0  0  0  0  0
  150.4207  138.5855  153.4110 H   0  0  0  0  0  0  0  0  0  0  0  0
  150.8331  139.5362  155.6588 H   0  0  0  0  0  0  0  0  0  0  0  0
  149.1337  139.4691  156.0414 H   0  0  0  0  0  0  0  0  0  0  0  0
  152.2890  141.8090  158.8518 H   0  0  0  0  0  0  0  0  0  0  0  0
  148.3561  137.8552  152.7790 H   0  0  0  0  0  0  0  0  0  0  0  0
  145.7860  135.1628  154.3845 H   0  0  0  0  0  0  0  0  0  0  0  0
  1  2  1  0  0  0  0
  1 25  1  0  0  0  0
  1 26  1  0  0  0  0
  1 27  1  0  0  0  0
  2 24  1  0  0  0  0
  2  3  2  0  0  0  0
  3  4  1  0  0  0  0
  3 28  1  0  0  0  0
  4  5  2  0  0  0  0
  5  6  1  0  0  0  0
  5 29  1  0  0  0  0
  6  7  1  0  0  0  0
  6 24  2  0  0  0  0
  7  8  1  0  0  0  0
  7 30  1  0  0  0  0
  8  9  2  0  0  0  0
  8 10  1  0  0  0  0
 10 11  1  0  0  0  0
 10 31  1  0  0  0  0
 11 23  1  0  0  0  0
 11 12  1  0  0  0  0
 11 32  1  0  0  0  0
 12 13  1  0  0  0  0
 12 33  1  0  0  0  0
 12 34  1  0  0  0  0
 13 14  1  0  0  0  0
 13 35  1  0  0  0  0
 13 36  1  0  0  0  0
 14 15  1  0  0  0  0
 14 22  1  0  0  0  0
 14 54  1  0  0  0  0
 15 21  1  0  0  0  0
 15 16  1  0  0  0  0
 15 37  1  0  0  0  0
 16 17  1  0  0  0  0
 16 38  1  0  0  0  0
 16 39  1  0  0  0  0
 17 18  1  0  0  0  0
 17 40  1  0  0  0  0
 17 41  1  0  0  0  0
 18 19  1  0  0  0  0
 18 20  1  0  0  0  0
 18 55  1  0  0  0  0
 19 42  1  0  0  0  0
 19 43  1  0  0  0  0
 19 44  1  0  0  0  0
 20 21  1  0  0  0  0
 20 45  1  0  0  0  0
 20 46  1  0  0  0  0
 21 47  1  0  0  0  0
 21 48  1  0  0  0  0
 22 23  1  0  0  0  0
 22 49  1  0  0  0  0
 22 50  1  0  0  0  0
 23 51  1  0  0  0  0
 23 52  1  0  0  0  0
 24 53  1  0  0  0  0
M  CHG  1  14   1
M  CHG  1  18   1
M  END
> <s_m_source_file>
AV-unprocessed.smi

> <i_m_source_file_index>
2583

> <i_lp_mmshare_version>
43012

> <i_f3d_flags>
0

> <s_epik_input>
W0NIM11jMVtjSF1uW2NIXWMoW2NIXTEpW05IXUMoPU8pW05IXVtDSF0yW0NIMl1bQ0gyXU4oW0NIMl1bQ0gyXTIpW0NIXTNbQ0gyXVtDSDJdTihbQ0gzXSlbQ0gyXVtDSDJdMw==

> <s_epik_cmdline>
J2VwaWtfcHl0aG9uJywgJy1waCcsICc3LjAnLCAnLXRuJywgJzgnLCAnLW1hJywgJzIwMCcsICctbWV0YWxfYmluZGluZycsICctaW1hZScsICc8aW5maWxlLm1hZT4nLCAnLW9tYWUnLCAnPG91dGZpbGUubWFlPic=

> <r_epik_Ionization_Penalty>
0.188357

> <r_epik_Ionization_Penalty_Charging>
0.180787

> <r_epik_Ionization_Penalty_Neutral>
0.00756971

> <r_epik_State_Penalty>
0.157948

> <r_epik_Charging_Adjusted_Penalty>
0.338735

> <i_epik_Tot_Q>
2

> <i_epik_Tot_abs_Q>
2

> <r_epik_Metal_State_Penalty>
0.153874

> <b_epik_Metal_Only>
0

> <s_lp_Force_Field>
OPLS_2005

> <r_lp_Energy>
50.7645

> <b_lp_Chiralities_Consistent>
1

> <s_lp_Variant>
AV-unprocessed.smi:2583-4

> <Gold.Version>
5.8.1

> <Gold.Id.Protein>
6NUR|6NUR_protein|mol2

> <Gold.PLP.Fitness>
50.5062

> <Gold.PLP.PLP>
-36.8943

> <Gold.PLP.part.hbond>
-3.3905

> <Gold.PLP.part.metal>
0.0000

> <Gold.PLP.part.buried>
0.9108

> <Gold.PLP.part.nonpolar>
-35.0466

> <Gold.PLP.part.repulsive>
0.4044

> <Gold.PLP.ligand.clash>
0.0000

> <Gold.PLP.ligand.torsion>
0.6067

> <Gold.PLP.Chemscore.Hbond>
3.9265

> <Gold.PLP.Chemscore.CHOScore>
1.0000

> <Gold.PLP.Chemscore.Metal>
0.0000

> <Gold.Chemscore.Hbonds>
donor molecule, donor type, donor heavy atom, donor atom, acceptor molecule, acceptor atom, score
      L1  H     7    30       P1  8028  1.00
      L1  H    10    31       P1  8028  0.85
      L1  H    14    54       P1  7948  2.00
      L1  C     5    29       P1  8029  1.00

> <Gold.PLP.Chemscore.Internal.Correction>
0.0458

> <Gold.Rescore>
     Score         DG    S(hbond)    S(metal)    S(lipo)     H(rot)  DE(clash)    DE(int)     intcor
     19.47     -24.69       2.61        0.00     116.12       1.21       1.92       3.29       ----

> <Gold.Chemscore.Fitness>
19.4730

> <Gold.Chemscore.DG>
-24.6882

> <Gold.Chemscore.ZeroCoef>
-5.4800

> <Gold.Chemscore.Hbond>
2.6102

> <Gold.Chemscore.Metal>
0.0000

> <Gold.Chemscore.Lipo>
116.1172

> <Gold.Chemscore.Internal_Hbond>
0.0000

> <Gold.Chemscore.DEClash>
1.9243

> <Gold.Chemscore.DEInternal>
3.2909

> <Gold.Chemscore.Rot>
1.2092

> <Gold.Chemscore.Internal.Correction>
   9.000000E+99

> <Gold.Chemscore.Hbonds>
donor molecule, donor type, donor heavy atom, donor atom, acceptor molecule, acceptor atom, score
      L1  H     7    30       P1  8028  0.85
      L1  H    10    31       P1  8028  0.82
      L1  H    14    54       P1  7948  0.98

> <Gold.Chemscore.Hbond.Weighted>
-8.7179

> <Gold.Chemscore.Metal.Weighted>
-0.0000

> <Gold.Chemscore.Lipo.Weighted>
-13.5857

> <Gold.Chemscore.Internal_Hbond.Weighted>
0.0000

> <Gold.Chemscore.DEClash.Weighted>
1.9243

> <Gold.Chemscore.DEInternal.Weighted>
3.2909

> <Gold.Chemscore.Rot.Weighted>
3.0955

> <Gold.Chemscore.Internal.Correction.Weighted>
   9.000000E+99

> <Gold.Protein.RotatedTorsions>
[ 6907 6896 6895 6894 ] final   52.06 input  -60.11 | X-H torsion
[ 7974 7965 7964 7962 ] final -119.45 input  175.53 | X-H torsion
[ 8008 7997 7996 7995 ] final   68.64 input   59.86 | X-H torsion
[ 10167 10162 10161 10158 ] final   95.74 input  -65.29 | X-H torsion
[ 10718 10713 10712 10709 ] final   74.26 input   66.30 | X-H torsion
[ 10763 10752 10751 10750 ] final -160.74 input  -60.55 | X-H torsion
[ 11005 11000 10999 10996 ] final  -11.81 input  -57.11 | X-H torsion

> <Gold.Protein.ActiveResidues>
 VAL166  LYS551  ARG553  GLY616  TRP617  ASP618  TYR619  PRO620  LYS621  CYS622 
 ASP623  PHE694  ASN695  SER759  ASP760  ASP761  ALA762  ILE779  LEU786  VAL792 
 PHE793  MET794  SER795  GLU796  ALA797  LYS798  CYS799  TRP800  GLU811  SER814 

> <Gold.Protein.RotatedAtoms>
  152.3192  134.7401  160.0317 H   0  0  0  0  0  0  0  0  0  0  0  0  # atno 6907 bound_to 6896
  151.7855  133.3348  159.3492 H   0  0  0  0  0  0  0  0  0  0  0  0  # atno 6908 bound_to 6896
  150.7361  134.5822  159.5989 H   0  0  0  0  0  0  0  0  0  0  0  0  # atno 6909 bound_to 6896
  145.0624  140.8299  143.4144 H   0  0  0  0  0  0  0  0  0  0  0  0  # atno 7974 bound_to 7965
  155.7114  140.3494  155.4976 H   0  0  0  0  0  0  0  0  0  0  0  0  # atno 8008 bound_to 7997
  155.9352  140.1091  157.1122 H   0  0  0  0  0  0  0  0  0  0  0  0  # atno 8009 bound_to 7997
  154.4092  140.1223  156.4841 H   0  0  0  0  0  0  0  0  0  0  0  0  # atno 8010 bound_to 7997
  139.7960  144.6833  150.9828 H   0  0  0  0  0  0  0  0  0  0  0  0  # atno 10167 bound_to 10162
  157.6584  130.9669  150.1186 H   0  0  0  0  0  0  0  0  0  0  0  0  # atno 10718 bound_to 10713
  154.7364  135.3058  154.8804 H   0  0  0  0  0  0  0  0  0  0  0  0  # atno 10763 bound_to 10752
  153.9632  135.6750  153.4749 H   0  0  0  0  0  0  0  0  0  0  0  0  # atno 10764 bound_to 10752
  153.0966  135.4932  154.8713 H   0  0  0  0  0  0  0  0  0  0  0  0  # atno 10765 bound_to 10752
  140.7592  133.8529  155.9110 H   0  0  0  0  0  0  0  0  0  0  0  0  # atno 11005 bound_to 11000
  145.1393  139.2582  143.5499 LP  0  0  0  0  0  0  0  0  0  0  0  0  # atno 17320 bound_to 7965
  146.3525  140.1065  142.8605 LP  0  0  0  0  0  0  0  0  0  0  0  0  # atno 17321 bound_to 7965
  140.7820  143.4331  151.0665 LP  0  0  0  0  0  0  0  0  0  0  0  0  # atno 17342 bound_to 10162
  139.8005  143.8091  152.3162 LP  0  0  0  0  0  0  0  0  0  0  0  0  # atno 17343 bound_to 10162
  156.2063  130.3663  149.8725 LP  0  0  0  0  0  0  0  0  0  0  0  0  # atno 17370 bound_to 10713
  156.6616  130.8784  151.3548 LP  0  0  0  0  0  0  0  0  0  0  0  0  # atno 17371 bound_to 10713
  140.9679  134.1569  157.4600 LP  0  0  0  0  0  0  0  0  0  0  0  0  # atno 17394 bound_to 11000
  139.8774  134.9968  156.5814 LP  0  0  0  0  0  0  0  0  0  0  0  0  # atno 17395 bound_to 11000

$$$$
