#       Name:                AV-unprocessed.smi:598
#       Creating user name   scv26
#       Creation time:       Thu Mar 26 23:53:48 2020


#       File generated by GOLD software.
#

@<TRIPOS>MOLECULE
AV-unprocessed.smi:598
    49    50     1
SMALL
NO_CHARGES


@<TRIPOS>ATOM
      1 ****        -3.9467   0.0362  -3.5081 C.3            1 S1                 0.0000
      2 ****        -3.4217   0.0045  -2.0609 C.3            1 S1                 0.0000
      3 ****        -4.1311  -1.1210  -1.2818 C.3            1 S1                 0.0000
      4 ****        -3.6726  -1.1801   0.1789 C.3            1 S1                 0.0000
      5 ****        -2.1552  -1.3681   0.2595 C.3            1 S1                 0.0000
      6 ****        -1.4100  -0.2508  -0.4961 C.3            1 S1                 0.0000
      7 ****         0.0288  -0.5008  -0.4262 N.am           1 S1                 0.0000
      8 ****         0.8405  -0.1077   0.5672 C.2            1 S1                 0.0000
      9 ****         0.4455   0.5071   1.5590 O.2            1 S1                 0.0000
     10 ****         2.3192  -0.4915   0.4152 C.3            1 S1                 0.0000
     11 ****         3.2169   0.2998   1.2734 N.am           1 S1                 0.0000
     12 ****         3.5786  -0.2641   2.5129 C.2            1 S1                 0.0000
     13 ****         4.3875   0.3742   3.3811 C.2            1 S1                 0.0000
     14 ****         4.7416  -0.2162   4.6532 N.pl3          1 S1                 1.0000
     15 ****         5.4917   0.4029   5.4011 O.2            1 S1                 0.0000
     16 ****         4.2829  -1.3160   4.9474 O.2            1 S1                -1.0000
     17 ****         4.8887   1.6805   2.9998 C.2            1 S1                 0.0000
     18 ****         4.5425   2.2274   1.8179 C.2            1 S1                 0.0000
     19 ****         3.6567   1.5335   0.8772 C.2            1 S1                 0.0000
     20 ****         3.3303   2.0311  -0.2007 O.2            1 S1                 0.0000
     21 ****        -1.8753  -0.1407  -1.9739 C.3            1 S1                 0.0000
     22 ****        -1.1457   1.0114  -2.6997 C.3            1 S1                 0.0000
     23 ****        -3.6279  -0.8451  -4.0653 H              1 S1                 0.0000
     24 ****        -3.6041   0.9188  -4.0471 H              1 S1                 0.0000
     25 ****        -5.0366   0.0622  -3.5276 H              1 S1                 0.0000
     26 ****        -3.6978   0.9505  -1.5928 H              1 S1                 0.0000
     27 ****        -5.2112  -0.9729  -1.3122 H              1 S1                 0.0000
     28 ****        -3.9393  -2.0816  -1.7617 H              1 S1                 0.0000
     29 ****        -3.9599  -0.2634   0.6953 H              1 S1                 0.0000
     30 ****        -4.1767  -1.9984   0.6936 H              1 S1                 0.0000
     31 ****        -1.8479  -1.3856   1.3060 H              1 S1                 0.0000
     32 ****        -1.8875  -2.3404  -0.1568 H              1 S1                 0.0000
     33 ****        -1.6297   0.7005  -0.0070 H              1 S1                 0.0000
     34 ****         0.4383  -1.0055  -1.1990 H              1 S1                 0.0000
     35 ****         2.4184  -1.5549   0.6378 H              1 S1                 0.0000
     36 ****         2.6125  -0.3920  -0.6316 H              1 S1                 0.0000
     37 ****         3.1472  -1.2359   2.7056 H              1 S1                 0.0000
     38 ****         5.5440   2.2301   3.6595 H              1 S1                 0.0000
     39 ****         4.9262   3.2025   1.5551 H              1 S1                 0.0000
     40 ****        -1.6015  -1.0694  -2.4776 H              1 S1                 0.0000
     41 ****        -1.4196   1.9789  -2.2780 H              1 S1                 0.0000
     42 ****        -1.3779   1.0319  -3.7636 H              1 S1                 0.0000
     43 ****        -0.0622   0.9171  -2.6287 H              1 S1                 0.0000
     44 ****        -0.5234   0.7366   1.6519 LP             1 S1                 0.0000
     45 ****         1.0937   0.7767   2.2711 LP             1 S1                 0.0000
     46 ****         5.8453   1.2971   5.1265 LP             1 S1                 0.0000
     47 ****         5.7495   0.0133   6.2853 LP             1 S1                 0.0000
     48 ****         2.7244   1.5309  -0.8193 LP             1 S1                 0.0000
     49 ****         3.6711   2.9355  -0.4576 LP             1 S1                 0.0000
@<TRIPOS>BOND
    1    1    2 1     
    2    1   23 1     
    3    1   24 1     
    4    1   25 1     
    5    2   21 1     
    6    2    3 1     
    7    2   26 1     
    8    3    4 1     
    9    3   27 1     
   10    3   28 1     
   11    4    5 1     
   12    4   29 1     
   13    4   30 1     
   14    5    6 1     
   15    5   31 1     
   16    5   32 1     
   17    6    7 1     
   18    6   21 1     
   19    6   33 1     
   20    7    8 am    
   21    7   34 1     
   22    8    9 2     
   23    8   10 1     
   24   10   11 1     
   25   10   35 1     
   26   10   36 1     
   27   11   19 am    
   28   11   12 1     
   29   12   13 2     
   30   12   37 1     
   31   13   14 1     
   32   13   17 1     
   33   14   15 2     
   34   14   16 1     
   35   17   18 2     
   36   17   38 1     
   37   18   19 1     
   38   18   39 1     
   39   19   20 2     
   40   21   22 1     
   41   21   40 1     
   42   22   41 1     
   43   22   42 1     
   44   22   43 1     
   45    9   44 1     
   46    9   45 1     
   47   15   46 1     
   48   15   47 1     
   49   20   48 1     
   50   20   49 1     
@<TRIPOS>SUBSTRUCTURE
      1 S1             1
@<TRIPOS>SET
LONE_PAIRS      STATIC     ATOMS    <user>   **** ""
7 44 45 46 47 16 48 49
DONOR_HYDROGENS      STATIC     ATOMS    <user>   **** ""
1 34
ATOM$BLUE        STATIC     ATOMS    COLORGROUP SYSTEM
7 44 45 46 47 16 48 49
ATOM$RED        STATIC     ATOMS    COLORGROUP SYSTEM
1 34
