#       Name:                AV-unprocessed.smi:2049
#       Creating user name   scv26
#       Creation time:       Fri Mar 27 10:58:47 2020


#       File generated by GOLD software.
#

@<TRIPOS>MOLECULE
AV-unprocessed.smi:2049
    58    60     1
SMALL
NO_CHARGES


@<TRIPOS>ATOM
      1 ****        -0.5565   1.7796  -2.2039 O.2            1 S1                 0.0000
      2 ****        -0.9216   0.6068  -2.1311 C.2            1 S1                 0.0000
      3 ****        -2.3951   0.2430  -2.3395 C.3            1 S1                 0.0000
      4 ****        -3.2560   0.9219  -1.3587 N.am           1 S1                 0.0000
      5 ****        -3.9790   2.0462  -1.7915 C.2            1 S1                 0.0000
      6 ****        -4.7680   2.7239  -0.9454 C.2            1 S1                 0.0000
      7 ****        -4.8263   2.2253   0.4351 C.2            1 S1                 0.0000
      8 ****        -4.1676   1.2013   0.8331 N.2            1 S1                 0.0000
      9 ****        -3.3396   0.4920  -0.0565 C.2            1 S1                 0.0000
     10 ****        -2.6990  -0.4900   0.3213 O.2            1 S1                 0.0000
     11 ****        -0.0963  -0.4125  -1.8537 N.am           1 S1                 0.0000
     12 ****         1.3104  -0.2938  -1.4757 C.3            1 S1                 0.0000
     13 ****         1.5318  -0.2315   0.0747 C.3            1 S1                 0.0000
     14 ****         0.6701  -1.2945   0.7251 N.4            1 S1                 1.0000
     15 ****         1.0475  -2.6996   0.3967 C.3            1 S1                 0.0000
     16 ****        -0.0066  -3.6849   0.9210 C.3            1 S1                 0.0000
     17 ****        -0.1142  -3.5402   2.3285 O.3            1 S1                 0.0000
     18 ****        -0.5681  -2.2427   2.6820 C.3            1 S1                 0.0000
     19 ****         0.4252  -1.1728   2.1919 C.3            1 S1                 0.0000
     20 ****         3.0412  -0.4538   0.3904 C.3            1 S1                 0.0000
     21 ****         3.9553   0.6697  -0.1380 C.3            1 S1                 0.0000
     22 ****         3.5257   2.0487   0.3804 C.3            1 S1                 0.0000
     23 ****         2.0491   2.3270   0.0700 C.3            1 S1                 0.0000
     24 ****         1.1581   1.1920   0.6075 C.3            1 S1                 0.0000
     25 ****        -2.6745   0.5118  -3.3593 H              1 S1                 0.0000
     26 ****        -2.5360  -0.8379  -2.2755 H              1 S1                 0.0000
     27 ****        -3.8468   2.3172  -2.8289 H              1 S1                 0.0000
     28 ****        -5.3469   3.5963  -1.2106 H              1 S1                 0.0000
     29 ****        -5.4748   2.7909   1.1092 H              1 S1                 0.0000
     30 ****        -0.4890  -1.3426  -1.8502 H              1 S1                 0.0000
     31 ****         1.8198  -1.1614  -1.8931 H              1 S1                 0.0000
     32 ****         1.7644   0.5468  -1.9976 H              1 S1                 0.0000
     33 ****         1.1460  -2.8464  -0.6771 H              1 S1                 0.0000
     34 ****         2.0107  -2.9463   0.8445 H              1 S1                 0.0000
     35 ****        -0.9732  -3.5193   0.4419 H              1 S1                 0.0000
     36 ****         0.2913  -4.7089   0.6946 H              1 S1                 0.0000
     37 ****        -1.5616  -2.0704   2.2657 H              1 S1                 0.0000
     38 ****        -0.6694  -2.1895   3.7662 H              1 S1                 0.0000
     39 ****         1.3654  -1.2573   2.7376 H              1 S1                 0.0000
     40 ****        -0.0212  -0.2137   2.4458 H              1 S1                 0.0000
     41 ****         3.1859  -0.5346   1.4680 H              1 S1                 0.0000
     42 ****         3.3919  -1.3953  -0.0322 H              1 S1                 0.0000
     43 ****         4.9851   0.4737   0.1624 H              1 S1                 0.0000
     44 ****         3.9577   0.6711  -1.2280 H              1 S1                 0.0000
     45 ****         3.6845   2.0953   1.4586 H              1 S1                 0.0000
     46 ****         4.1531   2.8255  -0.0576 H              1 S1                 0.0000
     47 ****         1.7547   3.2691   0.5334 H              1 S1                 0.0000
     48 ****         1.9067   2.4713  -0.9999 H              1 S1                 0.0000
     49 ****         0.1083   1.4175   0.4215 H              1 S1                 0.0000
     50 ****         1.2874   1.2383   1.6875 H              1 S1                 0.0000
     51 ****        -0.2409  -1.1598   0.3096 H              1 S1                 0.0000
     52 ****        -1.2225   2.4993  -2.3997 LP             1 S1                 0.0000
     53 ****         0.4063   2.0129  -2.0672 LP             1 S1                 0.0000
     54 ****        -4.2425   0.9032   1.7847 LP             1 S1                 0.0000
     55 ****        -2.1118  -0.9816  -0.3218 LP             1 S1                 0.0000
     56 ****        -2.7661  -0.7957   1.2711 LP             1 S1                 0.0000
     57 ****         0.7835  -3.6946   2.7411 LP             1 S1                 0.0000
     58 ****        -0.7620  -4.2178   2.6767 LP             1 S1                 0.0000
@<TRIPOS>BOND
    1    1    2 2     
    2    2    3 1     
    3    2   11 am    
    4    3    4 1     
    5    3   25 1     
    6    3   26 1     
    7    4    9 am    
    8    4    5 1     
    9    5    6 2     
   10    5   27 1     
   11    6    7 1     
   12    6   28 1     
   13    7    8 2     
   14    7   29 1     
   15    8    9 1     
   16    9   10 2     
   17   11   12 1     
   18   11   30 1     
   19   12   13 1     
   20   12   31 1     
   21   12   32 1     
   22   13   24 1     
   23   13   14 1     
   24   13   20 1     
   25   14   19 1     
   26   14   15 1     
   27   14   51 1     
   28   15   16 1     
   29   15   33 1     
   30   15   34 1     
   31   16   17 1     
   32   16   35 1     
   33   16   36 1     
   34   17   18 1     
   35   18   19 1     
   36   18   37 1     
   37   18   38 1     
   38   19   39 1     
   39   19   40 1     
   40   20   21 1     
   41   20   41 1     
   42   20   42 1     
   43   21   22 1     
   44   21   43 1     
   45   21   44 1     
   46   22   23 1     
   47   22   45 1     
   48   22   46 1     
   49   23   24 1     
   50   23   47 1     
   51   23   48 1     
   52   24   49 1     
   53   24   50 1     
   54    1   52 1     
   55    1   53 1     
   56    8   54 1     
   57   10   55 1     
   58   10   56 1     
   59   17   57 1     
   60   17   58 1     
@<TRIPOS>SUBSTRUCTURE
      1 S1             1
@<TRIPOS>SET
LONE_PAIRS      STATIC     ATOMS    <user>   **** ""
7 52 53 54 55 56 57 58
DONOR_HYDROGENS      STATIC     ATOMS    <user>   **** ""
2 30 51
ATOM$BLUE        STATIC     ATOMS    COLORGROUP SYSTEM
7 52 53 54 55 56 57 58
ATOM$RED        STATIC     ATOMS    COLORGROUP SYSTEM
2 30 51
