#       Name:                AV-unprocessed.smi:528
#       Creating user name   scv26
#       Creation time:       Thu Mar 26 23:32:55 2020


#       File generated by GOLD software.
#

@<TRIPOS>MOLECULE
AV-unprocessed.smi:528
    49    51     1
SMALL
NO_CHARGES


@<TRIPOS>ATOM
      1 ****        -2.1690  -1.8967   1.4278 C.3            1 S1                 0.0000
      2 ****        -1.6692  -1.0853   0.2201 C.3            1 S1                 0.0000
      3 ****        -0.2083  -1.0683   0.2132 N.am           1 S1                 0.0000
      4 ****         0.5653  -0.1805   0.8561 C.2            1 S1                 0.0000
      5 ****         0.1144   0.7228   1.5621 O.2            1 S1                 0.0000
      6 ****         2.0793  -0.3630   0.6767 C.3            1 S1                 0.0000
      7 ****         2.8666   0.8117   1.0874 N.am           1 S1                 0.0000
      8 ****         3.4422   0.7801   2.3728 C.2            1 S1                 0.0000
      9 ****         4.1959   1.7825   2.8637 C.2            1 S1                 0.0000
     10 ****         4.7555   1.7420   4.2772 C.3            1 S1                 0.0000
     11 ****         4.9253   2.9717   4.7634 F              1 S1                 0.0000
     12 ****         3.9423   1.0757   5.0975 F              1 S1                 0.0000
     13 ****         5.9380   1.1284   4.2778 F              1 S1                 0.0000
     14 ****         4.3687   2.9390   2.0064 C.2            1 S1                 0.0000
     15 ****         3.8152   2.9905   0.7789 C.2            1 S1                 0.0000
     16 ****         3.0134   1.8837   0.2520 C.2            1 S1                 0.0000
     17 ****         2.5048   1.9178  -0.8691 O.2            1 S1                 0.0000
     18 ****        -2.1903  -1.6572  -1.1194 C.3            1 S1                 0.0000
     19 ****        -3.7156  -1.5285  -1.3323 C.3            1 S1                 0.0000
     20 ****        -3.8188  -0.9157  -2.7416 C.3            1 S1                 0.0000
     21 ****        -3.4182   0.5692  -2.6741 C.3            1 S1                 0.0000
     22 ****        -1.8940   0.4984  -2.4700 C.3            1 S1                 0.0000
     23 ****        -1.6260  -1.0199  -2.4150 C.3            1 S1                 0.0000
     24 ****        -2.6198  -1.5324  -3.4527 C.3            1 S1                 0.0000
     25 ****        -3.2578  -1.9073   1.4761 H              1 S1                 0.0000
     26 ****        -1.8083  -1.4715   2.3648 H              1 S1                 0.0000
     27 ****        -1.8287  -2.9317   1.3801 H              1 S1                 0.0000
     28 ****        -2.0387  -0.0649   0.3302 H              1 S1                 0.0000
     29 ****         0.2495  -1.7789  -0.3393 H              1 S1                 0.0000
     30 ****         2.3841  -1.2446   1.2425 H              1 S1                 0.0000
     31 ****         2.2907  -0.6074  -0.3661 H              1 S1                 0.0000
     32 ****         3.2235  -0.1123   2.9412 H              1 S1                 0.0000
     33 ****         4.9548   3.7777   2.3523 H              1 S1                 0.0000
     34 ****         3.9663   3.8676   0.1668 H              1 S1                 0.0000
     35 ****        -1.9350  -2.7183  -1.1468 H              1 S1                 0.0000
     36 ****        -4.1902  -2.5098  -1.2953 H              1 S1                 0.0000
     37 ****        -4.2007  -0.8994  -0.5848 H              1 S1                 0.0000
     38 ****        -4.7815  -1.0871  -3.2238 H              1 S1                 0.0000
     39 ****        -3.6561   1.0802  -3.6079 H              1 S1                 0.0000
     40 ****        -3.9227   1.0984  -1.8649 H              1 S1                 0.0000
     41 ****        -1.3791   0.9439  -3.3222 H              1 S1                 0.0000
     42 ****        -1.5605   1.0305  -1.5798 H              1 S1                 0.0000
     43 ****        -0.5878  -1.2854  -2.6170 H              1 S1                 0.0000
     44 ****        -2.6648  -2.6213  -3.5128 H              1 S1                 0.0000
     45 ****        -2.4527  -1.1257  -4.4517 H              1 S1                 0.0000
     46 ****        -0.8741   0.8208   1.6780 LP             1 S1                 0.0000
     47 ****         0.7368   1.3581   2.0193 LP             1 S1                 0.0000
     48 ****         1.9626   1.1437  -1.1960 LP             1 S1                 0.0000
     49 ****         2.6339   2.7196  -1.4526 LP             1 S1                 0.0000
@<TRIPOS>BOND
    1    1    2 1     
    2    1   25 1     
    3    1   26 1     
    4    1   27 1     
    5    2    3 1     
    6    2   18 1     
    7    2   28 1     
    8    3    4 am    
    9    3   29 1     
   10    4    5 2     
   11    4    6 1     
   12    6    7 1     
   13    6   30 1     
   14    6   31 1     
   15    7   16 am    
   16    7    8 1     
   17    8    9 2     
   18    8   32 1     
   19    9   10 1     
   20    9   14 1     
   21   10   11 1     
   22   10   12 1     
   23   10   13 1     
   24   14   15 2     
   25   14   33 1     
   26   15   16 1     
   27   15   34 1     
   28   16   17 2     
   29   18   23 1     
   30   18   19 1     
   31   18   35 1     
   32   19   20 1     
   33   19   36 1     
   34   19   37 1     
   35   20   24 1     
   36   20   21 1     
   37   20   38 1     
   38   21   22 1     
   39   21   39 1     
   40   21   40 1     
   41   22   23 1     
   42   22   41 1     
   43   22   42 1     
   44   23   24 1     
   45   23   43 1     
   46   24   44 1     
   47   24   45 1     
   48    5   46 1     
   49    5   47 1     
   50   17   48 1     
   51   17   49 1     
@<TRIPOS>SUBSTRUCTURE
      1 S1             1
@<TRIPOS>SET
LONE_PAIRS      STATIC     ATOMS    <user>   **** ""
4 46 47 48 49
DONOR_HYDROGENS      STATIC     ATOMS    <user>   **** ""
1 29
ATOM$BLUE        STATIC     ATOMS    COLORGROUP SYSTEM
4 46 47 48 49
ATOM$RED        STATIC     ATOMS    COLORGROUP SYSTEM
1 29
