#       Name:                AV-unprocessed.smi:53
#       Creating user name   scv26
#       Creation time:       Thu Mar 26 16:39:37 2020


#       File generated by GOLD software.
#

@<TRIPOS>MOLECULE
AV-unprocessed.smi:53
    41    42     1
SMALL
NO_CHARGES


@<TRIPOS>ATOM
      1 ****        -4.9629  -0.3727   0.0097 N.pl3          1 S1                 0.0000
      2 ****        -3.6298  -0.4936   0.0795 C.2            1 S1                 0.0000
      3 ****        -2.8025   0.6680   0.3157 C.2            1 S1                 0.0000
      4 ****        -1.4682   0.4645   0.3774 C.2            1 S1                 0.0000
      5 ****        -0.9056  -0.7967   0.2363 N.am           1 S1                 0.0000
      6 ****         0.5912  -1.0005   0.2992 C.3            1 S1                 0.0000
      7 ****         1.1470  -0.0192   1.1250 O.3            1 S1                 0.0000
      8 ****         2.2681   0.5826   0.4856 C.3            1 S1                 0.0000
      9 ****         2.4525   2.0158   1.0068 C.3            1 S1                 0.0000
     10 ****         3.1435   1.9968   2.2372 O.3            1 S1                 0.0000
     11 ****         1.8845   0.5124  -0.9927 C.3            1 S1                 0.0000
     12 ****         2.9899   0.6605  -1.8637 O.3            1 S1                 0.0000
     13 ****         1.2080  -0.8493  -1.1011 C.3            1 S1                 0.0000
     14 ****         2.1221  -1.8972  -1.3694 O.3            1 S1                 0.0000
     15 ****        -1.7396  -1.9112  -0.0197 C.2            1 S1                 0.0000
     16 ****        -1.2798  -3.0387  -0.1969 O.2            1 S1                 0.0000
     17 ****        -3.0891  -1.6868  -0.0758 N.2            1 S1                 0.0000
     18 ****         0.7572  -1.9761   0.7608 H              1 S1                 0.0000
     19 ****         3.1571  -0.0259   0.6643 H              1 S1                 0.0000
     20 ****         1.1527   1.2899  -1.2167 H              1 S1                 0.0000
     21 ****         0.4399  -0.8564  -1.8760 H              1 S1                 0.0000
     22 ****        -5.5381  -1.1851  -0.1592 H              1 S1                 0.0000
     23 ****        -5.3899   0.5355   0.1218 H              1 S1                 0.0000
     24 ****        -3.1997   1.6653   0.4408 H              1 S1                 0.0000
     25 ****        -0.8369   1.3255   0.5415 H              1 S1                 0.0000
     26 ****         3.0505   2.5974   0.3048 H              1 S1                 0.0000
     27 ****         1.4949   2.5257   1.1167 H              1 S1                 0.0000
     28 ****         2.6372   1.4935   2.8567 H              1 S1                 0.0000
     29 ****         2.6978   0.5026  -2.7484 H              1 S1                 0.0000
     30 ****         1.6485  -2.7153  -1.3674 H              1 S1                 0.0000
     31 ****         1.4419  -0.4381   1.9838 LP             1 S1                 0.0000
     32 ****         0.4593   0.6814   1.3147 LP             1 S1                 0.0000
     33 ****         3.2579   2.9311   2.5746 LP             1 S1                 0.0000
     34 ****         4.0417   1.5748   2.1134 LP             1 S1                 0.0000
     35 ****         3.7015   0.0012  -1.6207 LP             1 S1                 0.0000
     36 ****         3.3557   1.5882  -1.7898 LP             1 S1                 0.0000
     37 ****         2.8308  -1.9158  -0.6641 LP             1 S1                 0.0000
     38 ****         2.5458  -1.7547  -2.2640 LP             1 S1                 0.0000
     39 ****        -0.2914  -3.1869  -0.1620 LP             1 S1                 0.0000
     40 ****        -1.8944  -3.8070  -0.3759 LP             1 S1                 0.0000
     41 ****        -3.6942  -2.4653  -0.2426 LP             1 S1                 0.0000
@<TRIPOS>BOND
    1    1    2 1     
    2    1   22 1     
    3    1   23 1     
    4    2   17 2     
    5    2    3 1     
    6    3    4 2     
    7    3   24 1     
    8    4    5 1     
    9    4   25 1     
   10    5    6 1     
   11    5   15 am    
   12    6   18 1     
   13    6   13 1     
   14    6    7 1     
   15    7    8 1     
   16    8   19 1     
   17    8    9 1     
   18    8   11 1     
   19    9   10 1     
   20    9   26 1     
   21    9   27 1     
   22   10   28 1     
   23   11   20 1     
   24   11   12 1     
   25   11   13 1     
   26   12   29 1     
   27   13   21 1     
   28   13   14 1     
   29   14   30 1     
   30   15   16 2     
   31   15   17 1     
   32    7   31 1     
   33    7   32 1     
   34   10   33 1     
   35   10   34 1     
   36   12   35 1     
   37   12   36 1     
   38   14   37 1     
   39   14   38 1     
   40   16   39 1     
   41   16   40 1     
   42   17   41 1     
@<TRIPOS>SUBSTRUCTURE
      1 S1             1
@<TRIPOS>SET
LONE_PAIRS      STATIC     ATOMS    <user>   **** ""
11 31 32 33 34 35 36 37 38 39 40 41
DONOR_HYDROGENS      STATIC     ATOMS    <user>   **** ""
5 22 23 28 29 30
ATOM$BLUE        STATIC     ATOMS    COLORGROUP SYSTEM
11 31 32 33 34 35 36 37 38 39 40 41
ATOM$RED        STATIC     ATOMS    COLORGROUP SYSTEM
5 22 23 28 29 30
