#       Name:                AV-unprocessed.smi:775
#       Creating user name   scv26
#       Creation time:       Fri Mar 27 01:11:48 2020


#       File generated by GOLD software.
#

@<TRIPOS>MOLECULE
AV-unprocessed.smi:775
    44    45     1
SMALL
NO_CHARGES


@<TRIPOS>ATOM
      1 ****        -1.4248  -1.5472   3.7802 C.3            1 S1                 0.0000
      2 ****        -1.3247  -0.8161   2.4337 C.3            1 S1                 0.0000
      3 ****        -2.5278  -1.1713   1.5284 C.3            1 S1                 0.0000
      4 ****        -2.6441  -0.3182   0.3585 N.pl3          1 S1                 0.0000
      5 ****        -3.0203   1.0075   0.3008 C.2            1 S1                 0.0000
      6 ****        -2.9755   1.3865  -1.0102 C.2            1 S1                 0.0000
      7 ****        -2.5655   0.2053  -1.6893 C.2            1 S1                 0.0000
      8 ****        -2.3707  -0.8139  -0.8683 N.2            1 S1                 0.0000
      9 ****        -0.0640  -1.2252   1.8202 N.3            1 S1                 0.0000
     10 ****         0.5888  -0.1364   1.0773 C.3            1 S1                 0.0000
     11 ****         1.8550  -0.5901   0.3309 C.2            1 S1                 0.0000
     12 ****         2.3416  -1.6898   0.6024 O.2            1 S1                 0.0000
     13 ****         2.3976   0.2295  -0.6044 N.am           1 S1                 0.0000
     14 ****         1.8656   1.5457  -0.9702 C.3            1 S1                 0.0000
     15 ****         1.2282   1.4266  -2.3652 C.3            1 S1                 0.0000
     16 ****         2.1042   0.7275  -3.3086 N.am           1 S1                 0.0000
     17 ****         3.1652  -0.0295  -2.9690 C.2            1 S1                 0.0000
     18 ****         3.8642  -0.5779  -3.8179 O.2            1 S1                 0.0000
     19 ****         3.5022  -0.2052  -1.4745 C.3            1 S1                 0.0000
     20 ****        -2.3399  -1.2738   4.3063 H              1 S1                 0.0000
     21 ****        -0.5873  -1.2947   4.4317 H              1 S1                 0.0000
     22 ****        -1.4308  -2.6301   3.6483 H              1 S1                 0.0000
     23 ****        -1.3177   0.2547   2.6460 H              1 S1                 0.0000
     24 ****        -2.4778  -2.2153   1.2132 H              1 S1                 0.0000
     25 ****        -3.4556  -1.0681   2.0926 H              1 S1                 0.0000
     26 ****        -3.2794   1.5650   1.1888 H              1 S1                 0.0000
     27 ****        -3.2027   2.3587  -1.4216 H              1 S1                 0.0000
     28 ****        -2.4034   0.0593  -2.7470 H              1 S1                 0.0000
     29 ****         0.5505  -1.5844   2.5370 H              1 S1                 0.0000
     30 ****        -0.1123   0.2704   0.3529 H              1 S1                 0.0000
     31 ****         0.8553   0.6650   1.7676 H              1 S1                 0.0000
     32 ****         1.1637   1.9706  -0.2541 H              1 S1                 0.0000
     33 ****         2.6964   2.2521  -1.0074 H              1 S1                 0.0000
     34 ****         0.2901   0.8745  -2.2998 H              1 S1                 0.0000
     35 ****         0.9884   2.4143  -2.7593 H              1 S1                 0.0000
     36 ****         1.8925   0.8284  -4.2909 H              1 S1                 0.0000
     37 ****         4.3846   0.3931  -1.2449 H              1 S1                 0.0000
     38 ****         3.7886  -1.2458  -1.3155 H              1 S1                 0.0000
     39 ****        -2.0850  -1.7431  -1.1032 LP             1 S1                 0.0000
     40 ****        -0.2668  -1.9389   1.1497 LP             1 S1                 0.0000
     41 ****         1.9134  -2.2685   1.2966 LP             1 S1                 0.0000
     42 ****         3.1646  -2.0032   0.1285 LP             1 S1                 0.0000
     43 ****         3.6509  -0.4675  -4.7886 LP             1 S1                 0.0000
     44 ****         4.6464  -1.1346  -3.5380 LP             1 S1                 0.0000
@<TRIPOS>BOND
    1    1    2 1     
    2    1   20 1     
    3    1   21 1     
    4    1   22 1     
    5    2    3 1     
    6    2    9 1     
    7    2   23 1     
    8    3    4 1     
    9    3   24 1     
   10    3   25 1     
   11    4    8 1     
   12    4    5 1     
   13    5    6 2     
   14    5   26 1     
   15    6    7 1     
   16    6   27 1     
   17    7    8 2     
   18    7   28 1     
   19    9   10 1     
   20    9   29 1     
   21   10   11 1     
   22   10   30 1     
   23   10   31 1     
   24   11   12 2     
   25   11   13 am    
   26   13   19 1     
   27   13   14 1     
   28   14   15 1     
   29   14   32 1     
   30   14   33 1     
   31   15   16 1     
   32   15   34 1     
   33   15   35 1     
   34   16   17 am    
   35   16   36 1     
   36   17   18 2     
   37   17   19 1     
   38   19   37 1     
   39   19   38 1     
   40    8   39 1     
   41    9   40 1     
   42   12   41 1     
   43   12   42 1     
   44   18   43 1     
   45   18   44 1     
@<TRIPOS>SUBSTRUCTURE
      1 S1             1
@<TRIPOS>SET
LONE_PAIRS      STATIC     ATOMS    <user>   **** ""
6 39 40 41 42 43 44
DONOR_HYDROGENS      STATIC     ATOMS    <user>   **** ""
2 29 36
ATOM$BLUE        STATIC     ATOMS    COLORGROUP SYSTEM
6 39 40 41 42 43 44
ATOM$RED        STATIC     ATOMS    COLORGROUP SYSTEM
2 29 36
