AV-unprocessed.smi:2124|AV-procd|sdf|8655|dock10
  -GOLD-   2272011403D 1   1.00000     0.00000
 Structure written by MMmdl.
 47 49  0  0  0  0  0  0  0  0  1 V2000
  158.0221  135.1945  158.8554 C   0  0  0  0  0  0  0  0  0  0  0  0
  156.7592  135.9778  159.1457 C   0  0  0  0  0  0  0  0  0  0  0  0
  156.5431  136.6156  160.2488 N   0  0  0  0  0  0  0  0  0  0  0  0
  155.3318  137.3046  160.4024 C   0  0  0  0  0  0  0  0  0  0  0  0
  155.1478  138.0229  161.7284 C   0  0  0  0  0  0  0  0  0  0  0  0
  154.3870  137.3192  159.4168 C   0  0  0  0  0  0  0  0  0  0  0  0
  153.0553  138.0560  159.5544 C   0  0  0  0  0  0  0  0  0  0  0  0
  152.8354  139.2353  158.6034 C   0  0  0  0  0  0  0  0  0  0  0  0
  153.6212  139.4471  157.6795 O   0  0  0  0  0  0  0  0  0  0  0  0
  151.7494  139.9881  158.8471 N   0  0  0  0  0  0  0  0  0  0  0  0
  151.2800  141.1486  158.0849 C   0  0  1  0  0  0  0  0  0  0  0  0
  149.9534  140.8315  157.3663 C   0  0  0  0  0  0  0  0  0  0  0  0
  151.2071  142.4364  158.9496 C   0  0  2  0  0  0  0  0  0  0  0  0
  150.8614  143.7076  158.1366 C   0  0  0  0  0  0  0  0  0  0  0  0
  151.9889  144.6854  158.5109 C   0  0  1  0  0  0  0  0  0  0  0  0
  151.8301  145.1182  159.9799 C   0  0  0  0  0  0  0  0  0  0  0  0
  152.2467  143.8523  160.7518 C   0  0  0  0  0  0  0  0  0  0  0  0
  152.5430  142.8481  159.6219 C   0  0  2  0  0  0  0  0  0  0  0  0
  153.1904  143.7524  158.5783 C   0  0  0  0  0  0  0  0  0  0  0  0
  154.6435  136.5859  158.1624 C   0  0  0  0  0  0  0  0  0  0  0  0
  153.8591  136.5254  157.2168 O   0  0  0  0  0  0  0  0  0  0  0  0
  155.8349  135.9501  158.1027 N   0  0  0  0  0  0  0  0  0  0  0  0
  156.0571  135.4325  157.2650 H   0  0  0  0  0  0  0  0  0  0  0  0
  158.1532  134.4061  159.5972 H   0  0  0  0  0  0  0  0  0  0  0  0
  158.8901  135.8529  158.8962 H   0  0  0  0  0  0  0  0  0  0  0  0
  157.9910  134.7314  157.8679 H   0  0  0  0  0  0  0  0  0  0  0  0
  155.1037  139.1013  161.5753 H   0  0  0  0  0  0  0  0  0  0  0  0
  155.9749  137.8158  162.4084 H   0  0  0  0  0  0  0  0  0  0  0  0
  154.2276  137.7033  162.2177 H   0  0  0  0  0  0  0  0  0  0  0  0
  152.2463  137.3419  159.3983 H   0  0  0  0  0  0  0  0  0  0  0  0
  152.9208  138.4093  160.5775 H   0  0  0  0  0  0  0  0  0  0  0  0
  151.1780  139.7215  159.6356 H   0  0  0  0  0  0  0  0  0  0  0  0
  152.0348  141.3020  157.3131 H   0  0  0  0  0  0  0  0  0  0  0  0
  149.6781  141.6232  156.6700 H   0  0  0  0  0  0  0  0  0  0  0  0
  149.1284  140.7170  158.0695 H   0  0  0  0  0  0  0  0  0  0  0  0
  150.0299  139.9085  156.7906 H   0  0  0  0  0  0  0  0  0  0  0  0
  150.4484  142.2906  159.7196 H   0  0  0  0  0  0  0  0  0  0  0  0
  150.8841  143.5161  157.0631 H   0  0  0  0  0  0  0  0  0  0  0  0
  149.8732  144.0993  158.3801 H   0  0  0  0  0  0  0  0  0  0  0  0
  152.0912  145.5197  157.8165 H   0  0  0  0  0  0  0  0  0  0  0  0
  152.4959  145.9488  160.2169 H   0  0  0  0  0  0  0  0  0  0  0  0
  150.8101  145.4285  160.2097 H   0  0  0  0  0  0  0  0  0  0  0  0
  153.1437  144.0435  161.3423 H   0  0  0  0  0  0  0  0  0  0  0  0
  151.4704  143.5008  161.4326 H   0  0  0  0  0  0  0  0  0  0  0  0
  153.1644  142.0158  159.9529 H   0  0  0  0  0  0  0  0  0  0  0  0
  153.4027  143.2482  157.6343 H   0  0  0  0  0  0  0  0  0  0  0  0
  154.0988  144.2423  158.9331 H   0  0  0  0  0  0  0  0  0  0  0  0
  1  2  1  0  0  0  0
  1 24  1  0  0  0  0
  1 25  1  0  0  0  0
  1 26  1  0  0  0  0
  2 22  1  0  0  0  0
  2  3  2  0  0  0  0
  3  4  1  0  0  0  0
  4  5  1  0  0  0  0
  4  6  2  0  0  0  0
  5 27  1  0  0  0  0
  5 28  1  0  0  0  0
  5 29  1  0  0  0  0
  6  7  1  0  0  0  0
  6 20  1  0  0  0  0
  7  8  1  0  0  0  0
  7 30  1  0  0  0  0
  7 31  1  0  0  0  0
  8  9  2  0  0  0  0
  8 10  1  0  0  0  0
 10 11  1  0  0  0  0
 10 32  1  0  0  0  0
 11 12  1  0  0  0  0
 11 13  1  0  0  0  0
 11 33  1  0  0  0  0
 12 34  1  0  0  0  0
 12 35  1  0  0  0  0
 12 36  1  0  0  0  0
 13 18  1  0  0  0  0
 13 14  1  0  0  0  0
 13 37  1  0  0  0  0
 14 15  1  0  0  0  0
 14 38  1  0  0  0  0
 14 39  1  0  0  0  0
 15 19  1  0  0  0  0
 15 16  1  0  0  0  0
 15 40  1  0  0  0  0
 16 17  1  0  0  0  0
 16 41  1  0  0  0  0
 16 42  1  0  0  0  0
 17 18  1  0  0  0  0
 17 43  1  0  0  0  0
 17 44  1  0  0  0  0
 18 19  1  0  0  0  0
 18 45  1  0  0  0  0
 19 46  1  0  0  0  0
 19 47  1  0  0  0  0
 20 21  2  0  0  0  0
 20 22  1  0  0  0  0
 22 23  1  0  0  0  0
M  END
> <s_m_source_file>
AV-unprocessed.smi

> <i_m_source_file_index>
2124

> <i_lp_mmshare_version>
43012

> <i_f3d_flags>
0

> <s_epik_input>
W0NIM11jMW5jKFtDSDNdKWMoYyg9TylbbkhdMSlbQ0gyXUMoPU8pW05IXVtDQEhdKFtDSDNdKVtDQEhdKFtDSDJdW0NASF0yMylbQ0BIXShbQ0gyXTMpW0NIMl1bQ0gyXTI=

> <s_epik_cmdline>
J2VwaWtfcHl0aG9uJywgJy1waCcsICc3LjAnLCAnLXRuJywgJzgnLCAnLW1hJywgJzIwMCcsICctbWV0YWxfYmluZGluZycsICctaW1hZScsICc8aW5maWxlLm1hZT4nLCAnLW9tYWUnLCAnPG91dGZpbGUubWFlPic=

> <r_lp_tautomer_probability>
0.839158

> <r_epik_Ionization_Penalty>
0.000383628

> <r_epik_Ionization_Penalty_Charging>
0.00035045

> <r_epik_Ionization_Penalty_Neutral>
3.31781e-05

> <r_epik_State_Penalty>
0.09125

> <r_epik_Charging_Adjusted_Penalty>
0.0916005

> <i_epik_Tot_Q>
0

> <i_epik_Tot_abs_Q>
0

> <r_epik_Metal_State_Penalty>
0.255229

> <b_epik_Metal_Only>
0

> <s_lp_Force_Field>
OPLS_2005

> <r_lp_Energy>
52.5198

> <b_lp_Chiralities_Consistent>
1

> <s_lp_Variant>
AV-unprocessed.smi:2124-6

> <Gold.Version>
5.8.1

> <Gold.Id.Protein>
6NUR|6NUR_protein|mol2

> <Gold.PLP.Fitness>
46.0557

> <Gold.PLP.PLP>
-40.2900

> <Gold.PLP.part.hbond>
-1.9534

> <Gold.PLP.part.metal>
0.0000

> <Gold.PLP.part.buried>
-5.4177

> <Gold.PLP.part.nonpolar>
-33.6386

> <Gold.PLP.part.repulsive>
0.2198

> <Gold.PLP.ligand.clash>
0.0000

> <Gold.PLP.ligand.torsion>
0.1501

> <Gold.PLP.Chemscore.Hbond>
2.0000

> <Gold.PLP.Chemscore.CHOScore>
0.0000

> <Gold.PLP.Chemscore.Metal>
0.0000

> <Gold.Chemscore.Hbonds>
donor molecule, donor type, donor heavy atom, donor atom, acceptor molecule, acceptor atom, score
      P1  H  7997  8008       L1     9  0.55
      P1  H 10752 10763       L1    21  0.67

> <Gold.PLP.Chemscore.Internal.Correction>
0.0660

> <Gold.Rescore>
     Score         DG    S(hbond)    S(metal)    S(lipo)     H(rot)  DE(clash)    DE(int)     intcor
     21.54     -21.80       1.98        0.00     119.01       1.65       0.01       0.25       ----

> <Gold.Chemscore.Fitness>
21.5404

> <Gold.Chemscore.DG>
-21.7980

> <Gold.Chemscore.ZeroCoef>
-5.4800

> <Gold.Chemscore.Hbond>
1.9839

> <Gold.Chemscore.Metal>
0.0000

> <Gold.Chemscore.Lipo>
119.0107

> <Gold.Chemscore.Internal_Hbond>
0.0000

> <Gold.Chemscore.DEClash>
0.0052

> <Gold.Chemscore.DEInternal>
0.2524

> <Gold.Chemscore.Rot>
1.6534

> <Gold.Chemscore.Internal.Correction>
   9.000000E+99

> <Gold.Chemscore.Hbonds>
donor molecule, donor type, donor heavy atom, donor atom, acceptor molecule, acceptor atom, score
      P1  H  7997  8008       L1     9  0.56
      P1  H 10752 10763       L1    21  0.65

> <Gold.Chemscore.Hbond.Weighted>
-6.6264

> <Gold.Chemscore.Metal.Weighted>
-0.0000

> <Gold.Chemscore.Lipo.Weighted>
-13.9243

> <Gold.Chemscore.Internal_Hbond.Weighted>
0.0000

> <Gold.Chemscore.DEClash.Weighted>
0.0052

> <Gold.Chemscore.DEInternal.Weighted>
0.2524

> <Gold.Chemscore.Rot.Weighted>
4.2326

> <Gold.Chemscore.Internal.Correction.Weighted>
   9.000000E+99

> <Gold.Protein.RotatedTorsions>
[ 6907 6896 6895 6894 ] final   24.68 input  -60.11 | X-H torsion
[ 7974 7965 7964 7962 ] final -159.38 input  175.53 | X-H torsion
[ 8008 7997 7996 7995 ] final  -68.22 input   59.86 | X-H torsion
[ 10167 10162 10161 10158 ] final -155.42 input  -65.29 | X-H torsion
[ 10718 10713 10712 10709 ] final   37.92 input   66.30 | X-H torsion
[ 10763 10752 10751 10750 ] final  136.32 input  -60.55 | X-H torsion
[ 11005 11000 10999 10996 ] final  -49.76 input  -57.11 | X-H torsion

> <Gold.Protein.ActiveResidues>
 VAL166  LYS551  ARG553  GLY616  TRP617  ASP618  TYR619  PRO620  LYS621  CYS622 
 ASP623  PHE694  ASN695  SER759  ASP760  ASP761  ALA762  ILE779  LEU786  VAL792 
 PHE793  MET794  SER795  GLU796  ALA797  LYS798  CYS799  TRP800  GLU811  SER814 

> <Gold.Protein.RotatedAtoms>
  151.9611  135.0123  160.0547 H   0  0  0  0  0  0  0  0  0  0  0  0  # atno 6907 bound_to 6896
  152.1868  133.4740  159.4995 H   0  0  0  0  0  0  0  0  0  0  0  0  # atno 6908 bound_to 6896
  150.6927  134.1681  159.4245 H   0  0  0  0  0  0  0  0  0  0  0  0  # atno 6909 bound_to 6896
  144.7467  140.3693  143.6079 H   0  0  0  0  0  0  0  0  0  0  0  0  # atno 7974 bound_to 7965
  154.4853  140.0877  156.7471 H   0  0  0  0  0  0  0  0  0  0  0  0  # atno 8008 bound_to 7997
  155.4367  140.3452  155.4267 H   0  0  0  0  0  0  0  0  0  0  0  0  # atno 8009 bound_to 7997
  156.1251  140.1485  156.9135 H   0  0  0  0  0  0  0  0  0  0  0  0  # atno 8010 bound_to 7997
  139.6933  143.9385  152.2395 H   0  0  0  0  0  0  0  0  0  0  0  0  # atno 10167 bound_to 10162
  157.3527  130.7607  149.6990 H   0  0  0  0  0  0  0  0  0  0  0  0  # atno 10718 bound_to 10713
  153.8546  135.3075  155.3434 H   0  0  0  0  0  0  0  0  0  0  0  0  # atno 10763 bound_to 10752
  154.7876  135.4801  153.9983 H   0  0  0  0  0  0  0  0  0  0  0  0  # atno 10764 bound_to 10752
  153.1498  135.6841  153.8993 H   0  0  0  0  0  0  0  0  0  0  0  0  # atno 10765 bound_to 10752
  141.0777  133.6661  156.3632 H   0  0  0  0  0  0  0  0  0  0  0  0  # atno 11005 bound_to 11000
  145.7094  139.1681  143.2547 LP  0  0  0  0  0  0  0  0  0  0  0  0  # atno 17320 bound_to 7965
  146.1358  140.7125  142.9390 LP  0  0  0  0  0  0  0  0  0  0  0  0  # atno 17321 bound_to 7965
  139.9207  144.6801  150.8465 LP  0  0  0  0  0  0  0  0  0  0  0  0  # atno 17342 bound_to 10162
  140.7689  143.3377  151.2274 LP  0  0  0  0  0  0  0  0  0  0  0  0  # atno 17343 bound_to 10162
  155.9724  130.4136  150.4090 LP  0  0  0  0  0  0  0  0  0  0  0  0  # atno 17370 bound_to 10713
  157.2155  131.0470  151.2575 LP  0  0  0  0  0  0  0  0  0  0  0  0  # atno 17371 bound_to 10713
  140.5537  134.6003  157.5414 LP  0  0  0  0  0  0  0  0  0  0  0  0  # atno 17394 bound_to 11000
  139.9590  134.7485  156.0278 LP  0  0  0  0  0  0  0  0  0  0  0  0  # atno 17395 bound_to 11000

$$$$
