AV-unprocessed.smi:349|AV-procd|sdf|2396|dock8
  -GOLD-   2262022323D 1   1.00000     0.00000
 Structure written by MMmdl.
 43 44  0  0  0  0  0  0  0  0  1 V2000
  153.8307  137.1524  162.2208 C   0  0  0  0  0  0  0  0  0  0  0  0
  154.6610  138.4389  162.3534 C   0  0  0  0  0  0  0  0  0  0  0  0
  155.5183  138.7754  161.1128 C   0  0  2  0  0  0  0  0  0  0  0  0
  156.5699  139.8474  161.4455 C   0  0  0  0  0  0  0  0  0  0  0  0
  154.6545  139.2318  159.9275 C   0  0  0  0  0  0  0  0  0  0  0  0
  155.1843  139.5788  158.8714 O   0  0  0  0  0  0  0  0  0  0  0  0
  153.3263  139.2377  160.1210 N   0  0  0  0  0  0  0  0  0  0  0  0
  152.3425  139.6775  159.1372 C   0  0  0  0  0  0  0  0  0  0  0  0
  152.2553  141.1971  158.9802 C   0  0  0  0  0  0  0  0  0  0  0  0
  152.8044  142.0397  159.9737 C   0  0  0  0  0  0  0  0  0  0  0  0
  152.7005  143.4349  159.8341 C   0  0  0  0  0  0  0  0  0  0  0  0
  152.0383  143.9423  158.7029 C   0  0  0  0  0  0  0  0  0  0  0  0
  151.4988  143.1553  157.7501 N   0  0  0  0  0  0  0  0  0  0  0  0
  151.5984  141.8092  157.8778 C   0  0  0  0  0  0  0  0  0  0  0  0
  151.0427  141.0263  156.8506 N   0  0  0  0  0  0  0  0  0  0  0  0
  152.0245  140.1721  156.1945 C   0  0  0  0  0  0  0  0  0  0  0  0
  151.3149  139.1899  155.2470 C   0  0  0  0  0  0  0  0  0  0  0  0
  150.5120  139.9137  154.3180 O   0  0  0  0  0  0  0  0  0  0  0  0
  149.5092  140.6915  154.9665 C   0  0  0  0  0  0  0  0  0  0  0  0
  150.1760  141.7156  155.9006 C   0  0  0  0  0  0  0  0  0  0  0  0
  153.3141  136.9291  163.1544 H   0  0  0  0  0  0  0  0  0  0  0  0
  154.4635  136.2980  161.9794 H   0  0  0  0  0  0  0  0  0  0  0  0
  153.0721  137.2402  161.4429 H   0  0  0  0  0  0  0  0  0  0  0  0
  153.9977  139.2728  162.5877 H   0  0  0  0  0  0  0  0  0  0  0  0
  155.3187  138.3324  163.2168 H   0  0  0  0  0  0  0  0  0  0  0  0
  156.0547  137.8715  160.8184 H   0  0  0  0  0  0  0  0  0  0  0  0
  157.1683  140.1035  160.5701 H   0  0  0  0  0  0  0  0  0  0  0  0
  157.2559  139.4940  162.2159 H   0  0  0  0  0  0  0  0  0  0  0  0
  156.1069  140.7644  161.8127 H   0  0  0  0  0  0  0  0  0  0  0  0
  152.9738  138.9336  161.0170 H   0  0  0  0  0  0  0  0  0  0  0  0
  152.5500  139.1769  158.1915 H   0  0  0  0  0  0  0  0  0  0  0  0
  151.3645  139.3188  159.4579 H   0  0  0  0  0  0  0  0  0  0  0  0
  153.2997  141.6270  160.8402 H   0  0  0  0  0  0  0  0  0  0  0  0
  153.1155  144.0990  160.5776 H   0  0  0  0  0  0  0  0  0  0  0  0
  151.9372  145.0080  158.5594 H   0  0  0  0  0  0  0  0  0  0  0  0
  152.7244  140.7931  155.6336 H   0  0  0  0  0  0  0  0  0  0  0  0
  152.6073  139.6224  156.9337 H   0  0  0  0  0  0  0  0  0  0  0  0
  152.0490  138.5997  154.6986 H   0  0  0  0  0  0  0  0  0  0  0  0
  150.6964  138.4878  155.8087 H   0  0  0  0  0  0  0  0  0  0  0  0
  148.9118  141.2033  154.2119 H   0  0  0  0  0  0  0  0  0  0  0  0
  148.8322  140.0405  155.5223 H   0  0  0  0  0  0  0  0  0  0  0  0
  149.4174  142.2856  156.4383 H   0  0  0  0  0  0  0  0  0  0  0  0
  150.7594  142.4238  155.3105 H   0  0  0  0  0  0  0  0  0  0  0  0
  1  2  1  0  0  0  0
  1 21  1  0  0  0  0
  1 22  1  0  0  0  0
  1 23  1  0  0  0  0
  2  3  1  0  0  0  0
  2 24  1  0  0  0  0
  2 25  1  0  0  0  0
  3  4  1  0  0  0  0
  3  5  1  0  0  0  0
  3 26  1  0  0  0  0
  4 27  1  0  0  0  0
  4 28  1  0  0  0  0
  4 29  1  0  0  0  0
  5  6  2  0  0  0  0
  5  7  1  0  0  0  0
  7  8  1  0  0  0  0
  7 30  1  0  0  0  0
  8  9  1  0  0  0  0
  8 31  1  0  0  0  0
  8 32  1  0  0  0  0
  9 14  1  0  0  0  0
  9 10  2  0  0  0  0
 10 11  1  0  0  0  0
 10 33  1  0  0  0  0
 11 12  2  0  0  0  0
 11 34  1  0  0  0  0
 12 13  1  0  0  0  0
 12 35  1  0  0  0  0
 13 14  2  0  0  0  0
 14 15  1  0  0  0  0
 15 20  1  0  0  0  0
 15 16  1  0  0  0  0
 16 17  1  0  0  0  0
 16 36  1  0  0  0  0
 16 37  1  0  0  0  0
 17 18  1  0  0  0  0
 17 38  1  0  0  0  0
 17 39  1  0  0  0  0
 18 19  1  0  0  0  0
 19 20  1  0  0  0  0
 19 40  1  0  0  0  0
 19 41  1  0  0  0  0
 20 42  1  0  0  0  0
 20 43  1  0  0  0  0
M  END
> <s_m_source_file>
AV-unprocessed.smi

> <i_m_source_file_index>
349

> <i_lp_mmshare_version>
43012

> <i_f3d_flags>
0

> <s_epik_input>
W0NIM11bQ0gyXVtDQEhdKFtDSDNdKUMoPU8pW05IXVtDSDJdYzFbY0hdW2NIXVtjSF1uYzFOMltDSDJdW0NIMl1PW0NIMl1bQ0gyXTI=

> <s_epik_cmdline>
J2VwaWtfcHl0aG9uJywgJy1waCcsICc3LjAnLCAnLXRuJywgJzgnLCAnLW1hJywgJzIwMCcsICctbWV0YWxfYmluZGluZycsICctaW1hZScsICc8aW5maWxlLm1hZT4nLCAnLW9tYWUnLCAnPG91dGZpbGUubWFlPic=

> <r_lp_tautomer_probability>
1

> <r_epik_Ionization_Penalty>
0.00513869

> <r_epik_Ionization_Penalty_Charging>
0

> <r_epik_Ionization_Penalty_Neutral>
0.00513869

> <r_epik_State_Penalty>
0.00374265

> <r_epik_Charging_Adjusted_Penalty>
0.00374265

> <i_epik_Tot_Q>
0

> <i_epik_Tot_abs_Q>
0

> <r_epik_Metal_State_Penalty>
-0

> <b_epik_Metal_Only>
0

> <s_lp_Force_Field>
OPLS_2005

> <r_lp_Energy>
18.1158

> <b_lp_Chiralities_Consistent>
1

> <s_lp_Variant>
AV-unprocessed.smi:349-1

> <Gold.Version>
5.8.1

> <Gold.Id.Protein>
6NUR|6NUR_protein|mol2

> <Gold.PLP.Fitness>
42.0225

> <Gold.PLP.PLP>
-37.9778

> <Gold.PLP.part.hbond>
-2.0000

> <Gold.PLP.part.metal>
0.0000

> <Gold.PLP.part.buried>
-3.8176

> <Gold.PLP.part.nonpolar>
-32.2821

> <Gold.PLP.part.repulsive>
0.3123

> <Gold.PLP.ligand.clash>
1.0536

> <Gold.PLP.ligand.torsion>
0.5484

> <Gold.PLP.Chemscore.Hbond>
2.0000

> <Gold.PLP.Chemscore.CHOScore>
0.0000

> <Gold.PLP.Chemscore.Metal>
0.0000

> <Gold.Chemscore.Hbonds>
donor molecule, donor type, donor heavy atom, donor atom, acceptor molecule, acceptor atom, score
      P1  H  7989  7998       L1    18  1.00
      P1  H  7997  8008       L1     6  1.00

> <Gold.PLP.Chemscore.Internal.Correction>
0.1951

> <Gold.Rescore>
     Score         DG    S(hbond)    S(metal)    S(lipo)     H(rot)  DE(clash)    DE(int)     intcor
     17.38     -19.18       1.70        0.00     104.33       1.64       0.09       1.71       ----

> <Gold.Chemscore.Fitness>
17.3751

> <Gold.Chemscore.DG>
-19.1753

> <Gold.Chemscore.ZeroCoef>
-5.4800

> <Gold.Chemscore.Hbond>
1.7034

> <Gold.Chemscore.Metal>
0.0000

> <Gold.Chemscore.Lipo>
104.3255

> <Gold.Chemscore.Internal_Hbond>
0.0000

> <Gold.Chemscore.DEClash>
0.0876

> <Gold.Chemscore.DEInternal>
1.7127

> <Gold.Chemscore.Rot>
1.6407

> <Gold.Chemscore.Internal.Correction>
   9.000000E+99

> <Gold.Chemscore.Hbonds>
donor molecule, donor type, donor heavy atom, donor atom, acceptor molecule, acceptor atom, score
      P1  H  7989  7998       L1    18  0.37
      P1  H  7997  8008       L1     6  0.98

> <Gold.Chemscore.Hbond.Weighted>
-5.6894

> <Gold.Chemscore.Metal.Weighted>
-0.0000

> <Gold.Chemscore.Lipo.Weighted>
-12.2061

> <Gold.Chemscore.Internal_Hbond.Weighted>
0.0000

> <Gold.Chemscore.DEClash.Weighted>
0.0876

> <Gold.Chemscore.DEInternal.Weighted>
1.7127

> <Gold.Chemscore.Rot.Weighted>
4.2001

> <Gold.Chemscore.Internal.Correction.Weighted>
   9.000000E+99

> <Gold.Protein.RotatedTorsions>
[ 6907 6896 6895 6894 ] final  -79.64 input  -60.11 | X-H torsion
[ 7974 7965 7964 7962 ] final   92.62 input  175.53 | X-H torsion
[ 8008 7997 7996 7995 ] final -137.77 input   59.86 | X-H torsion
[ 10167 10162 10161 10158 ] final  125.94 input  -65.29 | X-H torsion
[ 10718 10713 10712 10709 ] final  147.13 input   66.30 | X-H torsion
[ 10763 10752 10751 10750 ] final -139.70 input  -60.55 | X-H torsion
[ 11005 11000 10999 10996 ] final -127.21 input  -57.11 | X-H torsion

> <Gold.Protein.ActiveResidues>
 VAL166  LYS551  ARG553  GLY616  TRP617  ASP618  TYR619  PRO620  LYS621  CYS622 
 ASP623  PHE694  ASN695  SER759  ASP760  ASP761  ALA762  ILE779  LEU786  VAL792 
 PHE793  MET794  SER795  GLU796  ALA797  LYS798  CYS799  TRP800  GLU811  SER814 

> <Gold.Protein.RotatedAtoms>
  150.6945  134.4090  159.5153 H   0  0  0  0  0  0  0  0  0  0  0  0  # atno 6907 bound_to 6896
  152.1852  134.8717  160.0532 H   0  0  0  0  0  0  0  0  0  0  0  0  # atno 6908 bound_to 6896
  151.9693  133.3685  159.4102 H   0  0  0  0  0  0  0  0  0  0  0  0  # atno 6909 bound_to 6896
  145.4899  139.2276  143.2836 H   0  0  0  0  0  0  0  0  0  0  0  0  # atno 7974 bound_to 7965
  155.4173  140.0516  157.3028 H   0  0  0  0  0  0  0  0  0  0  0  0  # atno 8008 bound_to 7997
  154.4919  140.2123  155.9490 H   0  0  0  0  0  0  0  0  0  0  0  0  # atno 8009 bound_to 7997
  156.1353  140.3164  155.8416 H   0  0  0  0  0  0  0  0  0  0  0  0  # atno 8010 bound_to 7997
  139.5658  144.6910  151.3914 H   0  0  0  0  0  0  0  0  0  0  0  0  # atno 10167 bound_to 10162
  157.3248  131.0910  151.1211 H   0  0  0  0  0  0  0  0  0  0  0  0  # atno 10718 bound_to 10713
  154.8601  135.3575  154.5588 H   0  0  0  0  0  0  0  0  0  0  0  0  # atno 10763 bound_to 10752
  153.6204  135.7006  153.5317 H   0  0  0  0  0  0  0  0  0  0  0  0  # atno 10764 bound_to 10752
  153.3134  135.4172  155.1315 H   0  0  0  0  0  0  0  0  0  0  0  0  # atno 10765 bound_to 10752
  140.9618  134.0925  157.3960 H   0  0  0  0  0  0  0  0  0  0  0  0  # atno 11005 bound_to 11000
  146.2291  140.5692  142.8983 LP  0  0  0  0  0  0  0  0  0  0  0  0  # atno 17320 bound_to 7965
  144.7840  140.5899  143.6586 LP  0  0  0  0  0  0  0  0  0  0  0  0  # atno 17321 bound_to 7965
  140.6941  143.7790  150.7300 LP  0  0  0  0  0  0  0  0  0  0  0  0  # atno 17342 bound_to 10162
  140.1282  143.4550  152.2271 LP  0  0  0  0  0  0  0  0  0  0  0  0  # atno 17343 bound_to 10162
  157.2482  130.6601  149.5920 LP  0  0  0  0  0  0  0  0  0  0  0  0  # atno 17370 bound_to 10713
  155.9689  130.4546  150.5858 LP  0  0  0  0  0  0  0  0  0  0  0  0  # atno 17371 bound_to 10713
  139.8881  135.0095  156.6599 LP  0  0  0  0  0  0  0  0  0  0  0  0  # atno 17394 bound_to 11000
  140.7456  133.8941  155.8309 LP  0  0  0  0  0  0  0  0  0  0  0  0  # atno 17395 bound_to 11000

$$$$
