AV-unprocessed.smi:668|AV-procd|sdf|3259|dock10
  -GOLD-   22720 0213D 1   1.00000     0.00000
 Structure written by MMmdl.
 38 39  0  0  0  0  0  0  0  0  1 V2000
  152.4254  130.8815  157.8825 C   0  0  0  0  0  0  0  0  0  0  0  0
  152.4035  132.2917  157.6910 O   0  0  0  0  0  0  0  0  0  0  0  0
  151.5186  132.8142  156.7703 C   0  0  0  0  0  0  0  0  0  0  0  0
  151.5554  134.1986  156.5104 C   0  0  0  0  0  0  0  0  0  0  0  0
  150.6620  134.7388  155.5659 C   0  0  0  0  0  0  0  0  0  0  0  0
  149.7605  133.8718  154.9042 C   0  0  0  0  0  0  0  0  0  0  0  0
  148.8056  134.2989  153.9432 N   0  0  0  0  0  0  0  0  0  0  0  0
  147.5474  133.8592  153.7717 C   0  0  0  0  0  0  0  0  0  0  0  0
  147.0040  132.9795  154.4395 O   0  0  0  0  0  0  0  0  0  0  0  0
  146.9338  134.5200  152.7803 N   0  0  0  0  0  0  0  0  0  0  0  0
  145.5492  134.3093  152.3650 C   0  0  2  0  0  0  0  0  0  0  0  0
  145.4086  133.1422  151.3752 C   0  0  0  0  0  0  0  0  0  0  0  0
  144.2469  133.5395  150.4702 C   0  0  0  0  0  0  0  0  0  0  0  0
  144.4062  135.0494  150.3065 C   0  0  0  0  0  0  0  0  0  0  0  0
  144.9868  135.5609  151.6407 C   0  0  1  0  0  0  0  0  0  0  0  0
  143.9400  136.2999  152.4904 C   0  0  0  0  0  0  0  0  0  0  0  0
  143.5229  137.4881  152.0457 N   0  0  0  0  0  0  0  0  0  0  0  0
  143.5100  135.8045  153.5304 O   0  0  0  0  0  0  0  0  0  0  0  0
  149.7894  132.5053  155.2507 C   0  0  0  0  0  0  0  0  0  0  0  0
  150.6455  131.9806  156.1525 N   0  0  0  0  0  0  0  0  0  0  0  0
  153.1760  130.6311  158.6320 H   0  0  0  0  0  0  0  0  0  0  0  0
  152.6910  130.3595  156.9621 H   0  0  0  0  0  0  0  0  0  0  0  0
  151.4640  130.5101  158.2405 H   0  0  0  0  0  0  0  0  0  0  0  0
  152.2566  134.8365  157.0281 H   0  0  0  0  0  0  0  0  0  0  0  0
  150.6776  135.8012  155.3784 H   0  0  0  0  0  0  0  0  0  0  0  0
  149.0849  135.0837  153.3731 H   0  0  0  0  0  0  0  0  0  0  0  0
  147.4552  135.2280  152.2848 H   0  0  0  0  0  0  0  0  0  0  0  0
  144.9471  134.0819  153.2479 H   0  0  0  0  0  0  0  0  0  0  0  0
  146.3128  133.0439  150.7721 H   0  0  0  0  0  0  0  0  0  0  0  0
  145.2413  132.1883  151.8762 H   0  0  0  0  0  0  0  0  0  0  0  0
  144.2547  133.0093  149.5175 H   0  0  0  0  0  0  0  0  0  0  0  0
  143.3013  133.3198  150.9678 H   0  0  0  0  0  0  0  0  0  0  0  0
  145.1148  135.2545  149.5027 H   0  0  0  0  0  0  0  0  0  0  0  0
  143.4649  135.5256  150.0272 H   0  0  0  0  0  0  0  0  0  0  0  0
  145.7925  136.2596  151.4060 H   0  0  0  0  0  0  0  0  0  0  0  0
  142.8373  138.0122  152.5696 H   0  0  0  0  0  0  0  0  0  0  0  0
  143.8980  137.8587  151.1845 H   0  0  0  0  0  0  0  0  0  0  0  0
  149.1102  131.8070  154.7837 H   0  0  0  0  0  0  0  0  0  0  0  0
  1  2  1  0  0  0  0
  1 21  1  0  0  0  0
  1 22  1  0  0  0  0
  1 23  1  0  0  0  0
  2  3  1  0  0  0  0
  3 20  1  0  0  0  0
  3  4  2  0  0  0  0
  4  5  1  0  0  0  0
  4 24  1  0  0  0  0
  5  6  2  0  0  0  0
  5 25  1  0  0  0  0
  6  7  1  0  0  0  0
  6 19  1  0  0  0  0
  7  8  1  0  0  0  0
  7 26  1  0  0  0  0
  8  9  2  0  0  0  0
  8 10  1  0  0  0  0
 10 11  1  0  0  0  0
 10 27  1  0  0  0  0
 11 15  1  0  0  0  0
 11 12  1  0  0  0  0
 11 28  1  0  0  0  0
 12 13  1  0  0  0  0
 12 29  1  0  0  0  0
 12 30  1  0  0  0  0
 13 14  1  0  0  0  0
 13 31  1  0  0  0  0
 13 32  1  0  0  0  0
 14 15  1  0  0  0  0
 14 33  1  0  0  0  0
 14 34  1  0  0  0  0
 15 16  1  0  0  0  0
 15 35  1  0  0  0  0
 16 17  1  0  0  0  0
 16 18  2  0  0  0  0
 17 36  1  0  0  0  0
 17 37  1  0  0  0  0
 19 20  2  0  0  0  0
 19 38  1  0  0  0  0
M  END
> <s_m_source_file>
AV-unprocessed.smi

> <i_m_source_file_index>
668

> <i_lp_mmshare_version>
43012

> <i_f3d_flags>
0

> <s_epik_input>
W0NIM11PYzFbY0hdW2NIXWMoW2NIXW4xKVtOSF1DKD1PKVtOSF1bQ0BASF0yW0NIMl1bQ0gyXVtDSDJdW0NASF0yQyg9TylbTkgyXQ==

> <s_epik_cmdline>
J2VwaWtfcHl0aG9uJywgJy1waCcsICc3LjAnLCAnLXRuJywgJzgnLCAnLW1hJywgJzIwMCcsICctbWV0YWxfYmluZGluZycsICctaW1hZScsICc8aW5maWxlLm1hZT4nLCAnLW9tYWUnLCAnPG91dGZpbGUubWFlPic=

> <r_lp_tautomer_probability>
1

> <r_epik_Ionization_Penalty>
9.0916e-05

> <r_epik_Ionization_Penalty_Charging>
0

> <r_epik_Ionization_Penalty_Neutral>
9.0916e-05

> <r_epik_State_Penalty>
-0

> <r_epik_Charging_Adjusted_Penalty>
0

> <i_epik_Tot_Q>
0

> <i_epik_Tot_abs_Q>
0

> <r_epik_Metal_State_Penalty>
-0

> <b_epik_Metal_Only>
0

> <s_lp_Force_Field>
OPLS_2005

> <r_lp_Energy>
16.4016

> <b_lp_Chiralities_Consistent>
1

> <s_lp_Variant>
AV-unprocessed.smi:668-1

> <Gold.Version>
5.8.1

> <Gold.Id.Protein>
6NUR|6NUR_protein|mol2

> <Gold.PLP.Fitness>
40.0303

> <Gold.PLP.PLP>
-29.6378

> <Gold.PLP.part.hbond>
-4.8956

> <Gold.PLP.part.metal>
0.0000

> <Gold.PLP.part.buried>
-4.2126

> <Gold.PLP.part.nonpolar>
-20.7899

> <Gold.PLP.part.repulsive>
0.1692

> <Gold.PLP.ligand.clash>
0.0000

> <Gold.PLP.ligand.torsion>
0.8059

> <Gold.PLP.Chemscore.Hbond>
4.0000

> <Gold.PLP.Chemscore.CHOScore>
0.0000

> <Gold.PLP.Chemscore.Metal>
0.0000

> <Gold.Chemscore.Hbonds>
donor molecule, donor type, donor heavy atom, donor atom, acceptor molecule, acceptor atom, score
      L1  H     7    26       P1  7948  1.00
      L1  H    10    27       P1  7948  1.00
      L1  H    17    37       P1 10171  1.00
      P1  H  6896  6907       L1     2  0.99

> <Gold.PLP.Chemscore.Internal.Correction>
0.0042

> <Gold.Rescore>
     Score         DG    S(hbond)    S(metal)    S(lipo)     H(rot)  DE(clash)    DE(int)     intcor
     14.48     -16.45       2.91        0.00      51.57       1.86       0.06       1.92       ----

> <Gold.Chemscore.Fitness>
14.4776

> <Gold.Chemscore.DG>
-16.4536

> <Gold.Chemscore.ZeroCoef>
-5.4800

> <Gold.Chemscore.Hbond>
2.9083

> <Gold.Chemscore.Metal>
0.0000

> <Gold.Chemscore.Lipo>
51.5721

> <Gold.Chemscore.Internal_Hbond>
0.0000

> <Gold.Chemscore.DEClash>
0.0580

> <Gold.Chemscore.DEInternal>
1.9180

> <Gold.Chemscore.Rot>
1.8648

> <Gold.Chemscore.Internal.Correction>
   9.000000E+99

> <Gold.Chemscore.Hbonds>
donor molecule, donor type, donor heavy atom, donor atom, acceptor molecule, acceptor atom, score
      L1  H     7    26       P1  7948  0.25
      L1  H    10    27       P1  7948  0.98
      L1  H    17    37       P1 10171  0.94
      P1  H  6896  6907       L1     2  0.36

> <Gold.Chemscore.Hbond.Weighted>
-9.7136

> <Gold.Chemscore.Metal.Weighted>
-0.0000

> <Gold.Chemscore.Lipo.Weighted>
-6.0339

> <Gold.Chemscore.Internal_Hbond.Weighted>
0.0000

> <Gold.Chemscore.DEClash.Weighted>
0.0580

> <Gold.Chemscore.DEInternal.Weighted>
1.9180

> <Gold.Chemscore.Rot.Weighted>
4.7739

> <Gold.Chemscore.Internal.Correction.Weighted>
   9.000000E+99

> <Gold.Protein.RotatedTorsions>
[ 6907 6896 6895 6894 ] final  154.63 input  -60.11 | X-H torsion
[ 7974 7965 7964 7962 ] final  119.40 input  175.53 | X-H torsion
[ 8008 7997 7996 7995 ] final   -1.08 input   59.86 | X-H torsion
[ 10167 10162 10161 10158 ] final -174.25 input  -65.29 | X-H torsion
[ 10718 10713 10712 10709 ] final  -40.39 input   66.30 | X-H torsion
[ 10763 10752 10751 10750 ] final  -73.61 input  -60.55 | X-H torsion
[ 11005 11000 10999 10996 ] final  -24.50 input  -57.11 | X-H torsion

> <Gold.Protein.ActiveResidues>
 VAL166  LYS551  ARG553  GLY616  TRP617  ASP618  TYR619  PRO620  LYS621  CYS622 
 ASP623  PHE694  ASN695  SER759  ASP760  ASP761  ALA762  ILE779  LEU786  VAL792 
 PHE793  MET794  SER795  GLU796  ALA797  LYS798  CYS799  TRP800  GLU811  SER814 

> <Gold.Protein.RotatedAtoms>
  152.0557  133.4039  159.4395 H   0  0  0  0  0  0  0  0  0  0  0  0  # atno 6907 bound_to 6896
  150.6868  134.3258  159.4815 H   0  0  0  0  0  0  0  0  0  0  0  0  # atno 6908 bound_to 6896
  152.1073  134.9299  160.0618 H   0  0  0  0  0  0  0  0  0  0  0  0  # atno 6909 bound_to 6896
  145.1436  139.3253  143.4603 H   0  0  0  0  0  0  0  0  0  0  0  0  # atno 7974 bound_to 7965
  154.6508  140.2568  155.7216 H   0  0  0  0  0  0  0  0  0  0  0  0  # atno 8008 bound_to 7997
  156.2574  140.2868  156.0861 H   0  0  0  0  0  0  0  0  0  0  0  0  # atno 8009 bound_to 7997
  155.1454  140.0381  157.2799 H   0  0  0  0  0  0  0  0  0  0  0  0  # atno 8010 bound_to 7997
  139.5644  144.1791  152.1289 H   0  0  0  0  0  0  0  0  0  0  0  0  # atno 10167 bound_to 10162
  156.2819  130.4218  149.8328 H   0  0  0  0  0  0  0  0  0  0  0  0  # atno 10718 bound_to 10713
  154.4618  135.5892  153.6261 H   0  0  0  0  0  0  0  0  0  0  0  0  # atno 10763 bound_to 10752
  152.9824  135.6045  154.3477 H   0  0  0  0  0  0  0  0  0  0  0  0  # atno 10764 bound_to 10752
  154.3350  135.2842  155.2431 H   0  0  0  0  0  0  0  0  0  0  0  0  # atno 10765 bound_to 10752
  140.8851  133.7627  156.0350 H   0  0  0  0  0  0  0  0  0  0  0  0  # atno 11005 bound_to 11000
  146.3502  140.1482  142.8593 LP  0  0  0  0  0  0  0  0  0  0  0  0  # atno 17320 bound_to 7965
  145.0506  140.9015  143.4998 LP  0  0  0  0  0  0  0  0  0  0  0  0  # atno 17321 bound_to 7965
  140.1311  144.5287  150.6802 LP  0  0  0  0  0  0  0  0  0  0  0  0  # atno 17342 bound_to 10162
  140.6926  143.2385  151.5088 LP  0  0  0  0  0  0  0  0  0  0  0  0  # atno 17343 bound_to 10162
  156.5772  130.8450  151.3373 LP  0  0  0  0  0  0  0  0  0  0  0  0  # atno 17370 bound_to 10713
  157.7317  130.9704  150.1892 LP  0  0  0  0  0  0  0  0  0  0  0  0  # atno 17371 bound_to 10713
  140.8415  134.3061  157.5311 LP  0  0  0  0  0  0  0  0  0  0  0  0  # atno 17394 bound_to 11000
  139.8723  134.9418  156.3808 LP  0  0  0  0  0  0  0  0  0  0  0  0  # atno 17395 bound_to 11000

$$$$
