AV-unprocessed.smi:373|AV-procd|sdf|2449|dock6
  -GOLD-   2262022383D 1   1.00000     0.00000
 Structure written by MMmdl.
 40 41  0  0  0  0  0  0  0  0  1 V2000
  152.5753  144.6534  158.1411 C   0  0  0  0  0  0  0  0  0  0  0  0
  151.9196  143.9784  159.3507 C   0  0  0  0  0  0  0  0  0  0  0  0
  152.5098  142.5950  159.6451 C   0  0  0  0  0  0  0  0  0  0  0  0
  151.8701  141.6406  158.8110 O   0  0  0  0  0  0  0  0  0  0  0  0
  152.1191  140.2878  159.1687 C   0  0  2  0  0  0  0  0  0  0  0  0
  153.6316  140.0285  159.3260 C   0  0  0  0  0  0  0  0  0  0  0  0
  153.8958  138.5311  159.5512 C   0  0  0  0  0  0  0  0  0  0  0  0
  153.2619  137.6841  158.4355 C   0  0  0  0  0  0  0  0  0  0  0  0
  151.8402  137.9904  158.2965 N   0  0  0  0  0  0  0  0  0  0  0  0
  151.1491  137.0573  157.5015 C   0  0  0  0  0  0  0  0  0  0  0  0
  150.4088  136.1153  158.1345 N   0  0  0  0  0  0  0  0  0  0  0  0
  149.7202  135.2219  157.3935 C   0  0  0  0  0  0  0  0  0  0  0  0
  149.7169  135.2183  155.9823 C   0  0  0  0  0  0  0  0  0  0  0  0
  148.9432  134.1800  155.2225 C   0  0  0  0  0  0  0  0  0  0  0  0
  148.5886  134.5034  153.9750 N   0  0  0  0  0  0  0  0  0  0  0  0
  148.6135  133.1182  155.7472 O   0  0  0  0  0  0  0  0  0  0  0  0
  150.5010  136.1910  155.3236 C   0  0  0  0  0  0  0  0  0  0  0  0
  151.2248  137.1269  156.0881 C   0  0  0  0  0  0  0  0  0  0  0  0
  152.2001  138.3063  155.2814 Cl  0  0  0  0  0  0  0  0  0  0  0  0
  151.5421  139.4012  158.0512 C   0  0  0  0  0  0  0  0  0  0  0  0
  152.1294  145.6302  157.9526 H   0  0  0  0  0  0  0  0  0  0  0  0
  152.4531  144.0520  157.2400 H   0  0  0  0  0  0  0  0  0  0  0  0
  153.6431  144.8008  158.3044 H   0  0  0  0  0  0  0  0  0  0  0  0
  152.0350  144.6174  160.2269 H   0  0  0  0  0  0  0  0  0  0  0  0
  150.8474  143.8855  159.1755 H   0  0  0  0  0  0  0  0  0  0  0  0
  153.5852  142.6065  159.4665 H   0  0  0  0  0  0  0  0  0  0  0  0
  152.3513  142.3377  160.6935 H   0  0  0  0  0  0  0  0  0  0  0  0
  151.6022  140.0441  160.0991 H   0  0  0  0  0  0  0  0  0  0  0  0
  154.1561  140.3606  158.4292 H   0  0  0  0  0  0  0  0  0  0  0  0
  154.0420  140.6002  160.1578 H   0  0  0  0  0  0  0  0  0  0  0  0
  154.9685  138.3421  159.5983 H   0  0  0  0  0  0  0  0  0  0  0  0
  153.4845  138.2292  160.5153 H   0  0  0  0  0  0  0  0  0  0  0  0
  153.7605  137.8856  157.4864 H   0  0  0  0  0  0  0  0  0  0  0  0
  153.4094  136.6251  158.6488 H   0  0  0  0  0  0  0  0  0  0  0  0
  149.1504  134.4934  157.9520 H   0  0  0  0  0  0  0  0  0  0  0  0
  148.0720  133.8467  153.4086 H   0  0  0  0  0  0  0  0  0  0  0  0
  148.8457  135.4055  153.6008 H   0  0  0  0  0  0  0  0  0  0  0  0
  150.5591  136.2235  154.2452 H   0  0  0  0  0  0  0  0  0  0  0  0
  150.4623  139.5432  157.9875 H   0  0  0  0  0  0  0  0  0  0  0  0
  151.9631  139.6992  157.0896 H   0  0  0  0  0  0  0  0  0  0  0  0
  1  2  1  0  0  0  0
  1 21  1  0  0  0  0
  1 22  1  0  0  0  0
  1 23  1  0  0  0  0
  2  3  1  0  0  0  0
  2 24  1  0  0  0  0
  2 25  1  0  0  0  0
  3  4  1  0  0  0  0
  3 26  1  0  0  0  0
  3 27  1  0  0  0  0
  4  5  1  0  0  0  0
  5 20  1  0  0  0  0
  5  6  1  0  0  0  0
  5 28  1  0  0  0  0
  6  7  1  0  0  0  0
  6 29  1  0  0  0  0
  6 30  1  0  0  0  0
  7  8  1  0  0  0  0
  7 31  1  0  0  0  0
  7 32  1  0  0  0  0
  8  9  1  0  0  0  0
  8 33  1  0  0  0  0
  8 34  1  0  0  0  0
  9 10  1  0  0  0  0
  9 20  1  0  0  0  0
 10 18  1  0  0  0  0
 10 11  2  0  0  0  0
 11 12  1  0  0  0  0
 12 13  2  0  0  0  0
 12 35  1  0  0  0  0
 13 14  1  0  0  0  0
 13 17  1  0  0  0  0
 14 15  1  0  0  0  0
 14 16  2  0  0  0  0
 15 36  1  0  0  0  0
 15 37  1  0  0  0  0
 17 18  2  0  0  0  0
 17 38  1  0  0  0  0
 18 19  1  0  0  0  0
 20 39  1  0  0  0  0
 20 40  1  0  0  0  0
M  END
> <s_m_source_file>
AV-unprocessed.smi

> <i_m_source_file_index>
373

> <i_lp_mmshare_version>
43012

> <i_f3d_flags>
0

> <s_epik_input>
W0NIM11bQ0gyXVtDSDJdT1tDQEBIXTFbQ0gyXVtDSDJdW0NIMl1OKFtDSDJdMSljMm5bY0hdYyhDKD1PKVtOSDJdKVtjSF1jMkNs

> <s_epik_cmdline>
J2VwaWtfcHl0aG9uJywgJy1waCcsICc3LjAnLCAnLXRuJywgJzgnLCAnLW1hJywgJzIwMCcsICctbWV0YWxfYmluZGluZycsICctaW1hZScsICc8aW5maWxlLm1hZT4nLCAnLW9tYWUnLCAnPG91dGZpbGUubWFlPic=

> <r_lp_tautomer_probability>
1

> <r_epik_Ionization_Penalty>
3.23666e-05

> <r_epik_Ionization_Penalty_Charging>
0

> <r_epik_Ionization_Penalty_Neutral>
3.23666e-05

> <r_epik_State_Penalty>
-0

> <r_epik_Charging_Adjusted_Penalty>
0

> <i_epik_Tot_Q>
0

> <i_epik_Tot_abs_Q>
0

> <r_epik_Metal_State_Penalty>
-0

> <b_epik_Metal_Only>
0

> <s_lp_Force_Field>
OPLS_2005

> <r_lp_Energy>
19.8682

> <b_lp_Chiralities_Consistent>
1

> <s_lp_Variant>
AV-unprocessed.smi:373-1

> <Gold.Version>
5.8.1

> <Gold.Id.Protein>
6NUR|6NUR_protein|mol2

> <Gold.PLP.Fitness>
34.5614

> <Gold.PLP.PLP>
-31.2237

> <Gold.PLP.part.hbond>
-2.0000

> <Gold.PLP.part.metal>
0.0000

> <Gold.PLP.part.buried>
-4.1836

> <Gold.PLP.part.nonpolar>
-26.0722

> <Gold.PLP.part.repulsive>
0.0005

> <Gold.PLP.ligand.clash>
0.0000

> <Gold.PLP.ligand.torsion>
0.7144

> <Gold.PLP.Chemscore.Hbond>
1.4971

> <Gold.PLP.Chemscore.CHOScore>
0.0000

> <Gold.PLP.Chemscore.Metal>
0.0000

> <Gold.Chemscore.Hbonds>
donor molecule, donor type, donor heavy atom, donor atom, acceptor molecule, acceptor atom, score
      L1  H    15    37       P1  7948  0.72
      P1  H  6896  6907       L1    11  0.74

> <Gold.PLP.Chemscore.Internal.Correction>
0.2750

> <Gold.Rescore>
     Score         DG    S(hbond)    S(metal)    S(lipo)     H(rot)  DE(clash)    DE(int)     intcor
     15.18     -15.79       1.33        0.00      84.47       1.57       0.00       0.61       ----

> <Gold.Chemscore.Fitness>
15.1803

> <Gold.Chemscore.DG>
-15.7886

> <Gold.Chemscore.ZeroCoef>
-5.4800

> <Gold.Chemscore.Hbond>
1.3296

> <Gold.Chemscore.Metal>
0.0000

> <Gold.Chemscore.Lipo>
84.4736

> <Gold.Chemscore.Internal_Hbond>
0.0000

> <Gold.Chemscore.DEClash>
0.0000

> <Gold.Chemscore.DEInternal>
0.6082

> <Gold.Chemscore.Rot>
1.5687

> <Gold.Chemscore.Internal.Correction>
   9.000000E+99

> <Gold.Chemscore.Hbonds>
donor molecule, donor type, donor heavy atom, donor atom, acceptor molecule, acceptor atom, score
      L1  H    15    37       P1  7948  0.59
      P1  H  6896  6907       L1    11  0.16

> <Gold.Chemscore.Hbond.Weighted>
-4.4409

> <Gold.Chemscore.Metal.Weighted>
-0.0000

> <Gold.Chemscore.Lipo.Weighted>
-9.8834

> <Gold.Chemscore.Internal_Hbond.Weighted>
0.0000

> <Gold.Chemscore.DEClash.Weighted>
0.0000

> <Gold.Chemscore.DEInternal.Weighted>
0.6082

> <Gold.Chemscore.Rot.Weighted>
4.0158

> <Gold.Chemscore.Internal.Correction.Weighted>
   9.000000E+99

> <Gold.Protein.RotatedTorsions>
[ 6907 6896 6895 6894 ] final  -44.75 input  -60.11 | X-H torsion
[ 7974 7965 7964 7962 ] final -101.18 input  175.53 | X-H torsion
[ 8008 7997 7996 7995 ] final  -17.46 input   59.86 | X-H torsion
[ 10167 10162 10161 10158 ] final -122.99 input  -65.29 | X-H torsion
[ 10718 10713 10712 10709 ] final   24.34 input   66.30 | X-H torsion
[ 10763 10752 10751 10750 ] final  115.10 input  -60.55 | X-H torsion
[ 11005 11000 10999 10996 ] final   41.17 input  -57.11 | X-H torsion

> <Gold.Protein.ActiveResidues>
 VAL166  LYS551  ARG553  GLY616  TRP617  ASP618  TYR619  PRO620  LYS621  CYS622 
 ASP623  PHE694  ASN695  SER759  ASP760  ASP761  ALA762  ILE779  LEU786  VAL792 
 PHE793  MET794  SER795  GLU796  ALA797  LYS798  CYS799  TRP800  GLU811  SER814 

> <Gold.Protein.RotatedAtoms>
  150.9294  134.8710  159.7541 H   0  0  0  0  0  0  0  0  0  0  0  0  # atno 6907 bound_to 6896
  152.5031  134.4101  159.9455 H   0  0  0  0  0  0  0  0  0  0  0  0  # atno 6908 bound_to 6896
  151.4129  133.3682  159.2781 H   0  0  0  0  0  0  0  0  0  0  0  0  # atno 6909 bound_to 6896
  145.2849  140.9337  143.2910 H   0  0  0  0  0  0  0  0  0  0  0  0  # atno 7974 bound_to 7965
  154.4977  140.2142  155.9412 H   0  0  0  0  0  0  0  0  0  0  0  0  # atno 8008 bound_to 7997
  156.1392  140.3183  155.8437 H   0  0  0  0  0  0  0  0  0  0  0  0  # atno 8009 bound_to 7997
  155.4152  140.0493  157.3020 H   0  0  0  0  0  0  0  0  0  0  0  0  # atno 8010 bound_to 7997
  140.0083  143.5468  152.2274 H   0  0  0  0  0  0  0  0  0  0  0  0  # atno 10167 bound_to 10162
  157.1784  130.6791  149.6104 H   0  0  0  0  0  0  0  0  0  0  0  0  # atno 10718 bound_to 10713
  153.5171  135.3605  155.2614 H   0  0  0  0  0  0  0  0  0  0  0  0  # atno 10763 bound_to 10752
  154.8738  135.4036  154.3302 H   0  0  0  0  0  0  0  0  0  0  0  0  # atno 10764 bound_to 10752
  153.3966  135.7073  153.6523 H   0  0  0  0  0  0  0  0  0  0  0  0  # atno 10765 bound_to 10752
  140.1860  134.4045  155.8173 H   0  0  0  0  0  0  0  0  0  0  0  0  # atno 11005 bound_to 11000
  144.9221  139.4399  143.6536 LP  0  0  0  0  0  0  0  0  0  0  0  0  # atno 17320 bound_to 7965
  146.3204  139.8087  142.8950 LP  0  0  0  0  0  0  0  0  0  0  0  0  # atno 17321 bound_to 7965
  139.6223  144.7631  151.2714 LP  0  0  0  0  0  0  0  0  0  0  0  0  # atno 17342 bound_to 10162
  140.7391  143.6627  150.8150 LP  0  0  0  0  0  0  0  0  0  0  0  0  # atno 17343 bound_to 10162
  155.9728  130.4655  150.6256 LP  0  0  0  0  0  0  0  0  0  0  0  0  # atno 17370 bound_to 10713
  157.3976  131.0805  151.1338 LP  0  0  0  0  0  0  0  0  0  0  0  0  # atno 17371 bound_to 10713
  141.2225  133.7023  156.8014 LP  0  0  0  0  0  0  0  0  0  0  0  0  # atno 17394 bound_to 11000
  140.2213  134.8755  157.3380 LP  0  0  0  0  0  0  0  0  0  0  0  0  # atno 17395 bound_to 11000

$$$$
