AV-unprocessed.smi:821|AV-procd|sdf|3841|dock8
  -GOLD-   22720 1283D 1   1.00000     0.00000
 Structure written by MMmdl.
 45 46  0  0  0  0  0  0  0  0  2 V2000
  147.9822  141.8453  154.5226 C   0  0  0  0  0  0  0  0  0  0  0  0
  148.9681  141.0356  155.3757 C   0  0  1  0  0  0  0  0  0  0  0  0
  149.6771  139.9486  154.5357 C   0  0  0  0  0  0  0  0  0  0  0  0
  150.3833  138.9410  155.3671 N   0  3  0  0  0  0  0  0  0  0  0  0
  150.1149  137.5415  154.9558 C   0  0  0  0  0  0  0  0  0  0  0  0
  150.8143  136.5640  155.9144 C   0  0  0  0  0  0  0  0  0  0  0  0
  152.2106  136.8360  155.9353 O   0  0  0  0  0  0  0  0  0  0  0  0
  152.4922  138.1510  156.3989 C   0  0  0  0  0  0  0  0  0  0  0  0
  151.8419  139.1819  155.4603 C   0  0  0  0  0  0  0  0  0  0  0  0
  149.9324  141.9518  155.9859 N   0  0  0  0  0  0  0  0  0  0  0  0
  150.5160  141.8026  157.1855 C   0  0  0  0  0  0  0  0  0  0  0  0
  150.3311  140.8227  157.9083 O   0  0  0  0  0  0  0  0  0  0  0  0
  151.4777  142.9217  157.6087 C   0  0  0  0  0  0  0  0  0  0  0  0
  152.0979  142.6895  158.9243 N   0  0  0  0  0  0  0  0  0  0  0  0
  151.9502  143.7049  159.8862 C   0  0  0  0  0  0  0  0  0  0  0  0
  152.4763  143.5949  161.1135 C   0  0  0  0  0  0  0  0  0  0  0  0
  153.2088  142.3949  161.4371 C   0  0  0  0  0  0  0  0  0  0  0  0
  153.3721  141.4032  160.5311 C   0  0  0  0  0  0  0  0  0  0  0  0
  154.1414  140.1249  160.8582 C   0  0  0  0  0  0  0  0  0  0  0  0
  155.2318  140.0266  160.0969 F   0  0  0  0  0  0  0  0  0  0  0  0
  154.5309  140.0945  162.1335 F   0  0  0  0  0  0  0  0  0  0  0  0
  153.3817  139.0509  160.6386 F   0  0  0  0  0  0  0  0  0  0  0  0
  152.7928  141.5373  159.1788 C   0  0  0  0  0  0  0  0  0  0  0  0
  152.9213  140.6667  158.3161 O   0  0  0  0  0  0  0  0  0  0  0  0
  147.2228  141.1989  154.0818 H   0  0  0  0  0  0  0  0  0  0  0  0
  148.4909  142.3637  153.7091 H   0  0  0  0  0  0  0  0  0  0  0  0
  147.4654  142.5945  155.1239 H   0  0  0  0  0  0  0  0  0  0  0  0
  148.3821  140.5573  156.1618 H   0  0  0  0  0  0  0  0  0  0  0  0
  148.9686  139.4454  153.8755 H   0  0  0  0  0  0  0  0  0  0  0  0
  150.3984  140.4431  153.8833 H   0  0  0  0  0  0  0  0  0  0  0  0
  149.0433  137.3435  154.9548 H   0  0  0  0  0  0  0  0  0  0  0  0
  150.4700  137.3827  153.9364 H   0  0  0  0  0  0  0  0  0  0  0  0
  150.3991  136.6412  156.9208 H   0  0  0  0  0  0  0  0  0  0  0  0
  150.6590  135.5372  155.5836 H   0  0  0  0  0  0  0  0  0  0  0  0
  152.1314  138.2734  157.4217 H   0  0  0  0  0  0  0  0  0  0  0  0
  153.5727  138.2936  156.4231 H   0  0  0  0  0  0  0  0  0  0  0  0
  152.2883  139.1212  154.4663 H   0  0  0  0  0  0  0  0  0  0  0  0
  152.0292  140.1878  155.8374 H   0  0  0  0  0  0  0  0  0  0  0  0
  150.1514  142.7873  155.4619 H   0  0  0  0  0  0  0  0  0  0  0  0
  152.2420  143.0209  156.8369 H   0  0  0  0  0  0  0  0  0  0  0  0
  150.9484  143.8768  157.6073 H   0  0  0  0  0  0  0  0  0  0  0  0
  151.3932  144.5722  159.5625 H   0  0  0  0  0  0  0  0  0  0  0  0
  152.3575  144.3849  161.8407 H   0  0  0  0  0  0  0  0  0  0  0  0
  153.6282  142.3022  162.4278 H   0  0  0  0  0  0  0  0  0  0  0  0
  150.0206  139.0448  156.3044 H   0  0  0  0  0  0  0  0  0  0  0  0
  1  2  1  0  0  0  0
  1 25  1  0  0  0  0
  1 26  1  0  0  0  0
  1 27  1  0  0  0  0
  2  3  1  0  0  0  0
  2 10  1  0  0  0  0
  2 28  1  0  0  0  0
  3  4  1  0  0  0  0
  3 29  1  0  0  0  0
  3 30  1  0  0  0  0
  4  9  1  0  0  0  0
  4  5  1  0  0  0  0
  4 45  1  0  0  0  0
  5  6  1  0  0  0  0
  5 31  1  0  0  0  0
  5 32  1  0  0  0  0
  6  7  1  0  0  0  0
  6 33  1  0  0  0  0
  6 34  1  0  0  0  0
  7  8  1  0  0  0  0
  8  9  1  0  0  0  0
  8 35  1  0  0  0  0
  8 36  1  0  0  0  0
  9 37  1  0  0  0  0
  9 38  1  0  0  0  0
 10 11  1  0  0  0  0
 10 39  1  0  0  0  0
 11 12  2  0  0  0  0
 11 13  1  0  0  0  0
 13 14  1  0  0  0  0
 13 40  1  0  0  0  0
 13 41  1  0  0  0  0
 14 23  1  0  0  0  0
 14 15  1  0  0  0  0
 15 16  2  0  0  0  0
 15 42  1  0  0  0  0
 16 17  1  0  0  0  0
 16 43  1  0  0  0  0
 17 18  2  0  0  0  0
 17 44  1  0  0  0  0
 18 19  1  0  0  0  0
 18 23  1  0  0  0  0
 19 20  1  0  0  0  0
 19 21  1  0  0  0  0
 19 22  1  0  0  0  0
 23 24  2  0  0  0  0
M  CHG  1   4   1
M  END
> <s_m_source_file>
AV-unprocessed.smi

> <i_m_source_file_index>
821

> <i_lp_mmshare_version>
43012

> <i_f3d_flags>
0

> <s_epik_input>
W0NIMl0xW0NIMl1PW0NIMl1bQ0gyXU4xW0NIMl1bQ0BASF0oW0NIM10pW05IXUMoPU8pW0NIMl1uMltjSF1bY0hdW2NIXWMoQyhGKShGKUYpYzI9Tw==

> <s_epik_cmdline>
J2VwaWtfcHl0aG9uJywgJy1waCcsICc3LjAnLCAnLXRuJywgJzgnLCAnLW1hJywgJzIwMCcsICctbWV0YWxfYmluZGluZycsICctaW1hZScsICc8aW5maWxlLm1hZT4nLCAnLW9tYWUnLCAnPG91dGZpbGUubWFlPic=

> <r_lp_tautomer_probability>
1

> <r_epik_Ionization_Penalty>
0.656654

> <r_epik_Ionization_Penalty_Charging>
0.656653

> <r_epik_Ionization_Penalty_Neutral>
9.12373e-08

> <r_epik_State_Penalty>
0.675641

> <r_epik_Charging_Adjusted_Penalty>
1.33229

> <i_epik_Tot_Q>
1

> <i_epik_Tot_abs_Q>
1

> <r_epik_Metal_State_Penalty>
0.675695

> <b_epik_Metal_Only>
0

> <s_lp_Force_Field>
OPLS_2005

> <r_lp_Energy>
32.7589

> <b_lp_Chiralities_Consistent>
1

> <s_lp_Variant>
AV-unprocessed.smi:821-4

> <Gold.Version>
5.8.1

> <Gold.Id.Protein>
6NUR|6NUR_protein|mol2

> <Gold.PLP.Fitness>
52.5439

> <Gold.PLP.PLP>
-49.7248

> <Gold.PLP.part.hbond>
-3.0000

> <Gold.PLP.part.metal>
0.0000

> <Gold.PLP.part.buried>
-2.1206

> <Gold.PLP.part.nonpolar>
-44.6387

> <Gold.PLP.part.repulsive>
0.2256

> <Gold.PLP.ligand.clash>
0.2468

> <Gold.PLP.ligand.torsion>
1.1462

> <Gold.PLP.Chemscore.Hbond>
1.6667

> <Gold.PLP.Chemscore.CHOScore>
0.0000

> <Gold.PLP.Chemscore.Metal>
0.0000

> <Gold.Chemscore.Hbonds>
donor molecule, donor type, donor heavy atom, donor atom, acceptor molecule, acceptor atom, score
      L1  H    10    39       P1  8028  0.13
      P1  H  7997  8010       L1    24  0.42
      P1  H 10752 10765       L1     7  0.98

> <Gold.PLP.Chemscore.Internal.Correction>
0.3581

> <Gold.Rescore>
     Score         DG    S(hbond)    S(metal)    S(lipo)     H(rot)  DE(clash)    DE(int)     intcor
     11.63     -18.92       2.10        0.00     102.46       2.17       0.19       7.10       ----

> <Gold.Chemscore.Fitness>
11.6320

> <Gold.Chemscore.DG>
-18.9215

> <Gold.Chemscore.ZeroCoef>
-5.4800

> <Gold.Chemscore.Hbond>
2.0996

> <Gold.Chemscore.Metal>
0.0000

> <Gold.Chemscore.Lipo>
102.4608

> <Gold.Chemscore.Internal_Hbond>
0.0000

> <Gold.Chemscore.DEClash>
0.1917

> <Gold.Chemscore.DEInternal>
7.0977

> <Gold.Chemscore.Rot>
2.1716

> <Gold.Chemscore.Internal.Correction>
   9.000000E+99

> <Gold.Chemscore.Hbonds>
donor molecule, donor type, donor heavy atom, donor atom, acceptor molecule, acceptor atom, score
      L1  H    10    39       P1  8028  0.13
      P1  H  7997  8010       L1    24  0.42
      P1  H 10752 10765       L1     7  0.77

> <Gold.Chemscore.Hbond.Weighted>
-7.0128

> <Gold.Chemscore.Metal.Weighted>
-0.0000

> <Gold.Chemscore.Lipo.Weighted>
-11.9879

> <Gold.Chemscore.Internal_Hbond.Weighted>
0.0000

> <Gold.Chemscore.DEClash.Weighted>
0.1917

> <Gold.Chemscore.DEInternal.Weighted>
7.0977

> <Gold.Chemscore.Rot.Weighted>
5.5592

> <Gold.Chemscore.Internal.Correction.Weighted>
   9.000000E+99

> <Gold.Protein.RotatedTorsions>
[ 6907 6896 6895 6894 ] final  -76.80 input  -60.11 | X-H torsion
[ 7974 7965 7964 7962 ] final   17.14 input  175.53 | X-H torsion
[ 8008 7997 7996 7995 ] final   46.30 input   59.86 | X-H torsion
[ 10167 10162 10161 10158 ] final   36.75 input  -65.29 | X-H torsion
[ 10718 10713 10712 10709 ] final  153.64 input   66.30 | X-H torsion
[ 10763 10752 10751 10750 ] final -145.90 input  -60.55 | X-H torsion
[ 11005 11000 10999 10996 ] final   27.77 input  -57.11 | X-H torsion

> <Gold.Protein.ActiveResidues>
 VAL166  LYS551  ARG553  GLY616  TRP617  ASP618  TYR619  PRO620  LYS621  CYS622 
 ASP623  PHE694  ASN695  SER759  ASP760  ASP761  ALA762  ILE779  LEU786  VAL792 
 PHE793  MET794  SER795  GLU796  ALA797  LYS798  CYS799  TRP800  GLU811  SER814 

> <Gold.Protein.RotatedAtoms>
  150.7017  134.4518  159.5339 H   0  0  0  0  0  0  0  0  0  0  0  0  # atno 6907 bound_to 6896
  152.2209  134.8411  160.0495 H   0  0  0  0  0  0  0  0  0  0  0  0  # atno 6908 bound_to 6896
  151.9262  133.3563  159.3951 H   0  0  0  0  0  0  0  0  0  0  0  0  # atno 6909 bound_to 6896
  146.2228  139.8645  142.8598 H   0  0  0  0  0  0  0  0  0  0  0  0  # atno 7974 bound_to 7965
  155.3502  140.3413  155.4239 H   0  0  0  0  0  0  0  0  0  0  0  0  # atno 8008 bound_to 7997
  156.1768  140.1650  156.8383 H   0  0  0  0  0  0  0  0  0  0  0  0  # atno 8009 bound_to 7997
  154.5290  140.0749  156.8294 H   0  0  0  0  0  0  0  0  0  0  0  0  # atno 8010 bound_to 7997
  140.4098  144.1608  150.6138 H   0  0  0  0  0  0  0  0  0  0  0  0  # atno 10167 bound_to 10162
  157.2421  131.0761  151.1785 H   0  0  0  0  0  0  0  0  0  0  0  0  # atno 10718 bound_to 10713
  154.8362  135.3401  154.6576 H   0  0  0  0  0  0  0  0  0  0  0  0  # atno 10763 bound_to 10752
  153.7191  135.6959  153.5022 H   0  0  0  0  0  0  0  0  0  0  0  0  # atno 10764 bound_to 10752
  153.2395  135.4389  155.0635 H   0  0  0  0  0  0  0  0  0  0  0  0  # atno 10765 bound_to 10752
  140.3227  134.2526  155.7714 H   0  0  0  0  0  0  0  0  0  0  0  0  # atno 11005 bound_to 11000
  145.2670  141.0096  143.3793 LP  0  0  0  0  0  0  0  0  0  0  0  0  # atno 17320 bound_to 7965
  144.9253  139.4363  143.6521 LP  0  0  0  0  0  0  0  0  0  0  0  0  # atno 17321 bound_to 7965
  140.4650  143.2434  151.9168 LP  0  0  0  0  0  0  0  0  0  0  0  0  # atno 17342 bound_to 10162
  139.4783  144.5429  151.8502 LP  0  0  0  0  0  0  0  0  0  0  0  0  # atno 17343 bound_to 10162
  157.3367  130.7013  149.6357 LP  0  0  0  0  0  0  0  0  0  0  0  0  # atno 17370 bound_to 10713
  155.9669  130.4291  150.4820 LP  0  0  0  0  0  0  0  0  0  0  0  0  # atno 17371 bound_to 10713
  141.2083  133.7782  157.0069 LP  0  0  0  0  0  0  0  0  0  0  0  0  # atno 17394 bound_to 11000
  140.0928  134.9582  157.1803 LP  0  0  0  0  0  0  0  0  0  0  0  0  # atno 17395 bound_to 11000

$$$$
