#       Name:                AV-unprocessed.smi:2486
#       Creating user name   scv26
#       Creation time:       Fri Mar 27 13:42:55 2020


#       File generated by GOLD software.
#

@<TRIPOS>MOLECULE
AV-unprocessed.smi:2486
    46    47     1
SMALL
NO_CHARGES


@<TRIPOS>ATOM
      1 ****        -5.4285   0.9226  -0.2424 C.3            1 S1                 0.0000
      2 ****        -4.9002   2.1969   0.2051 N.pl3          1 S1                 0.0000
      3 ****        -5.7269   3.2170   0.5346 N.2            1 S1                 0.0000
      4 ****        -4.8765   4.1826   0.8841 C.2            1 S1                 0.0000
      5 ****        -3.5494   3.8689   0.8070 N.2            1 S1                 0.0000
      6 ****        -3.6426   2.6147   0.3760 C.2            1 S1                 0.0000
      7 ****        -2.5569   1.7414   0.0989 N.am           1 S1                 0.0000
      8 ****        -1.2435   1.9938   0.2287 C.2            1 S1                 0.0000
      9 ****        -0.7588   3.0508   0.6333 O.2            1 S1                 0.0000
     10 ****        -0.5072   0.9377  -0.1399 N.am           1 S1                 0.0000
     11 ****         0.9517   0.8977  -0.1103 C.3            1 S1                 0.0000
     12 ****         1.5297  -0.4235  -0.6859 C.3            1 S1                 0.0000
     13 ****         1.1362  -0.5340  -2.1772 C.3            1 S1                 0.0000
     14 ****         3.0796  -0.3588  -0.6108 C.3            1 S1                 0.0000
     15 ****         3.7146  -0.6888   0.7531 C.3            1 S1                 0.0000
     16 ****         4.0210  -2.1865   0.9211 C.3            1 S1                 0.0000
     17 ****         2.7847  -3.0741   1.1231 C.3            1 S1                 0.0000
     18 ****         1.7200  -2.9534   0.0191 C.3            1 S1                 0.0000
     19 ****         0.9327  -1.6316   0.0907 C.3            1 S1                 0.0000
     20 ****        -5.0644   0.1269   0.4081 H              1 S1                 0.0000
     21 ****        -5.0995   0.7283  -1.2637 H              1 S1                 0.0000
     22 ****        -6.5192   0.9284  -0.2164 H              1 S1                 0.0000
     23 ****        -5.2266   5.1520   1.2070 H              1 S1                 0.0000
     24 ****        -2.8098   0.8244  -0.2379 H              1 S1                 0.0000
     25 ****        -0.9815   0.1062  -0.4601 H              1 S1                 0.0000
     26 ****         1.3358   1.7513  -0.6720 H              1 S1                 0.0000
     27 ****         1.2778   1.0363   0.9214 H              1 S1                 0.0000
     28 ****         1.5422  -1.4375  -2.6326 H              1 S1                 0.0000
     29 ****         1.5127   0.3154  -2.7485 H              1 S1                 0.0000
     30 ****         0.0551  -0.5654  -2.3161 H              1 S1                 0.0000
     31 ****         3.5188  -1.0166  -1.3621 H              1 S1                 0.0000
     32 ****         3.4007   0.6404  -0.9081 H              1 S1                 0.0000
     33 ****         4.6617  -0.1522   0.8196 H              1 S1                 0.0000
     34 ****         3.1073  -0.3180   1.5789 H              1 S1                 0.0000
     35 ****         4.5921  -2.5435   0.0631 H              1 S1                 0.0000
     36 ****         4.6762  -2.3139   1.7834 H              1 S1                 0.0000
     37 ****         3.1161  -4.1116   1.1770 H              1 S1                 0.0000
     38 ****         2.3349  -2.8599   2.0933 H              1 S1                 0.0000
     39 ****         2.1560  -3.1073  -0.9681 H              1 S1                 0.0000
     40 ****         1.0121  -3.7711   0.1584 H              1 S1                 0.0000
     41 ****         0.7982  -1.3672   1.1406 H              1 S1                 0.0000
     42 ****        -0.0781  -1.8178  -0.2746 H              1 S1                 0.0000
     43 ****        -6.7265   3.2405   0.5196 LP             1 S1                 0.0000
     44 ****        -2.7423   4.4218   1.0144 LP             1 S1                 0.0000
     45 ****        -1.3577   3.8071   0.8966 LP             1 S1                 0.0000
     46 ****         0.2339   3.1530   0.6987 LP             1 S1                 0.0000
@<TRIPOS>BOND
    1    1    2 1     
    2    1   20 1     
    3    1   21 1     
    4    1   22 1     
    5    2    6 1     
    6    2    3 1     
    7    3    4 2     
    8    4    5 1     
    9    4   23 1     
   10    5    6 2     
   11    6    7 1     
   12    7    8 am    
   13    7   24 1     
   14    8    9 2     
   15    8   10 am    
   16   10   11 1     
   17   10   25 1     
   18   11   12 1     
   19   11   26 1     
   20   11   27 1     
   21   12   19 1     
   22   12   13 1     
   23   12   14 1     
   24   13   28 1     
   25   13   29 1     
   26   13   30 1     
   27   14   15 1     
   28   14   31 1     
   29   14   32 1     
   30   15   16 1     
   31   15   33 1     
   32   15   34 1     
   33   16   17 1     
   34   16   35 1     
   35   16   36 1     
   36   17   18 1     
   37   17   37 1     
   38   17   38 1     
   39   18   19 1     
   40   18   39 1     
   41   18   40 1     
   42   19   41 1     
   43   19   42 1     
   44    3   43 1     
   45    5   44 1     
   46    9   45 1     
   47    9   46 1     
@<TRIPOS>SUBSTRUCTURE
      1 S1             1
@<TRIPOS>SET
LONE_PAIRS      STATIC     ATOMS    <user>   **** ""
4 43 44 45 46
DONOR_HYDROGENS      STATIC     ATOMS    <user>   **** ""
2 24 25
ATOM$BLUE        STATIC     ATOMS    COLORGROUP SYSTEM
4 43 44 45 46
ATOM$RED        STATIC     ATOMS    COLORGROUP SYSTEM
2 24 25
