AV-unprocessed.smi:483|AV-procd|sdf|2686|dock5
  -GOLD-   2262023113D 1   1.00000     0.00000
 Structure written by MMmdl.
 44 44  0  0  0  0  0  0  0  0  1 V2000
  145.4005  143.6891  161.9859 C   0  0  0  0  0  0  0  0  0  0  0  0
  146.6645  143.9930  161.1675 C   0  0  0  0  0  0  0  0  0  0  0  0
  146.3951  144.6885  159.8202 C   0  0  0  0  0  0  0  0  0  0  0  0
  146.8751  143.8938  158.6938 N   0  0  0  0  0  0  0  0  0  0  0  0
  146.7392  142.5649  158.5663 C   0  0  0  0  0  0  0  0  0  0  0  0
  146.2403  141.8483  159.4358 O   0  0  0  0  0  0  0  0  0  0  0  0
  147.2119  141.9581  157.2353 C   0  0  1  0  0  0  0  0  0  0  0  0
  146.3446  142.5133  156.0926 C   0  0  0  0  0  0  0  0  0  0  0  0
  148.5964  142.3614  156.9995 N   0  0  0  0  0  0  0  0  0  0  0  0
  149.5927  141.5220  156.6740 C   0  0  0  0  0  0  0  0  0  0  0  0
  149.4149  140.3288  156.4247 O   0  0  0  0  0  0  0  0  0  0  0  0
  151.0054  142.1191  156.6337 C   0  0  0  0  0  0  0  0  0  0  0  0
  151.5893  142.2414  157.9776 N   0  0  0  0  0  0  0  0  0  0  0  0
  151.2173  143.3863  158.6547 N   0  0  0  0  0  0  0  0  0  0  0  0
  151.6951  143.6619  159.8236 C   0  0  0  0  0  0  0  0  0  0  0  0
  151.2252  144.9415  160.4614 C   0  0  0  0  0  0  0  0  0  0  0  0
  152.6427  142.7468  160.4522 C   0  0  0  0  0  0  0  0  0  0  0  0
  153.1791  143.1280  161.8251 C   0  0  0  0  0  0  0  0  0  0  0  0
  152.9892  141.6186  159.7835 C   0  0  0  0  0  0  0  0  0  0  0  0
  153.9154  140.6703  160.3127 C   0  0  0  0  0  0  0  0  0  0  0  0
  154.6733  139.9155  160.7555 N   0  0  0  0  0  0  0  0  0  0  0  0
  152.4441  141.2949  158.4638 C   0  0  0  0  0  0  0  0  0  0  0  0
  152.7285  140.2735  157.8360 O   0  0  0  0  0  0  0  0  0  0  0  0
  145.6471  143.1312  162.8894 H   0  0  0  0  0  0  0  0  0  0  0  0
  144.6903  143.0944  161.4110 H   0  0  0  0  0  0  0  0  0  0  0  0
  144.8973  144.6043  162.2965 H   0  0  0  0  0  0  0  0  0  0  0  0
  147.3405  144.6050  161.7657 H   0  0  0  0  0  0  0  0  0  0  0  0
  147.1925  143.0579  160.9779 H   0  0  0  0  0  0  0  0  0  0  0  0
  145.3215  144.8289  159.6946 H   0  0  0  0  0  0  0  0  0  0  0  0
  146.8326  145.6882  159.8176 H   0  0  0  0  0  0  0  0  0  0  0  0
  147.2924  144.4001  157.9263 H   0  0  0  0  0  0  0  0  0  0  0  0
  147.1316  140.8692  157.2573 H   0  0  0  0  0  0  0  0  0  0  0  0
  145.2940  142.2566  156.2344 H   0  0  0  0  0  0  0  0  0  0  0  0
  146.6534  142.0959  155.1337 H   0  0  0  0  0  0  0  0  0  0  0  0
  146.4148  143.5994  156.0145 H   0  0  0  0  0  0  0  0  0  0  0  0
  148.8277  143.3266  157.1843 H   0  0  0  0  0  0  0  0  0  0  0  0
  151.6256  141.4815  156.0013 H   0  0  0  0  0  0  0  0  0  0  0  0
  150.9897  143.0956  156.1453 H   0  0  0  0  0  0  0  0  0  0  0  0
  150.6788  144.7364  161.3819 H   0  0  0  0  0  0  0  0  0  0  0  0
  150.5621  145.5048  159.8030 H   0  0  0  0  0  0  0  0  0  0  0  0
  152.0699  145.5862  160.7047 H   0  0  0  0  0  0  0  0  0  0  0  0
  153.8262  142.3579  162.2435 H   0  0  0  0  0  0  0  0  0  0  0  0
  152.3609  143.2828  162.5292 H   0  0  0  0  0  0  0  0  0  0  0  0
  153.7601  144.0489  161.7646 H   0  0  0  0  0  0  0  0  0  0  0  0
  1  2  1  0  0  0  0
  1 24  1  0  0  0  0
  1 25  1  0  0  0  0
  1 26  1  0  0  0  0
  2  3  1  0  0  0  0
  2 27  1  0  0  0  0
  2 28  1  0  0  0  0
  3  4  1  0  0  0  0
  3 29  1  0  0  0  0
  3 30  1  0  0  0  0
  4  5  1  0  0  0  0
  4 31  1  0  0  0  0
  5  6  2  0  0  0  0
  5  7  1  0  0  0  0
  7  8  1  0  0  0  0
  7  9  1  0  0  0  0
  7 32  1  0  0  0  0
  8 33  1  0  0  0  0
  8 34  1  0  0  0  0
  8 35  1  0  0  0  0
  9 10  1  0  0  0  0
  9 36  1  0  0  0  0
 10 11  2  0  0  0  0
 10 12  1  0  0  0  0
 12 13  1  0  0  0  0
 12 37  1  0  0  0  0
 12 38  1  0  0  0  0
 13 22  1  0  0  0  0
 13 14  1  0  0  0  0
 14 15  2  0  0  0  0
 15 16  1  0  0  0  0
 15 17  1  0  0  0  0
 16 39  1  0  0  0  0
 16 40  1  0  0  0  0
 16 41  1  0  0  0  0
 17 18  1  0  0  0  0
 17 19  2  0  0  0  0
 18 42  1  0  0  0  0
 18 43  1  0  0  0  0
 18 44  1  0  0  0  0
 19 20  1  0  0  0  0
 19 22  1  0  0  0  0
 20 21  3  0  0  0  0
 22 23  2  0  0  0  0
M  END
> <s_m_source_file>
AV-unprocessed.smi

> <i_m_source_file_index>
483

> <i_lp_mmshare_version>
43012

> <i_f3d_flags>
0

> <s_epik_input>
W0NIM11bQ0gyXVtDSDJdW05IXUMoPU8pW0NASF0oW0NIM10pW05IXUMoPU8pW0NIMl1uMW5jKFtDSDNdKWMoW0NIM10pYyhDI04pYzE9Tw==

> <s_epik_cmdline>
J2VwaWtfcHl0aG9uJywgJy1waCcsICc3LjAnLCAnLXRuJywgJzgnLCAnLW1hJywgJzIwMCcsICctbWV0YWxfYmluZGluZycsICctaW1hZScsICc8aW5maWxlLm1hZT4nLCAnLW9tYWUnLCAnPG91dGZpbGUubWFlPic=

> <r_lp_tautomer_probability>
1

> <r_epik_Ionization_Penalty>
5.96698e-08

> <r_epik_Ionization_Penalty_Charging>
1.88177e-11

> <r_epik_Ionization_Penalty_Neutral>
5.9651e-08

> <r_epik_State_Penalty>
-0

> <r_epik_Charging_Adjusted_Penalty>
1.88177e-11

> <i_epik_Tot_Q>
0

> <i_epik_Tot_abs_Q>
0

> <r_epik_Metal_State_Penalty>
-0

> <b_epik_Metal_Only>
0

> <s_lp_Force_Field>
OPLS_2005

> <r_lp_Energy>
18.0289

> <b_lp_Chiralities_Consistent>
1

> <s_lp_Variant>
AV-unprocessed.smi:483-2

> <Gold.Version>
5.8.1

> <Gold.Id.Protein>
6NUR|6NUR_protein|mol2

> <Gold.PLP.Fitness>
51.5961

> <Gold.PLP.PLP>
-43.8141

> <Gold.PLP.part.hbond>
-4.0000

> <Gold.PLP.part.metal>
0.0000

> <Gold.PLP.part.buried>
-6.5756

> <Gold.PLP.part.nonpolar>
-32.0258

> <Gold.PLP.part.repulsive>
0.1667

> <Gold.PLP.ligand.clash>
0.0000

> <Gold.PLP.ligand.torsion>
1.2554

> <Gold.PLP.Chemscore.Hbond>
3.4080

> <Gold.PLP.Chemscore.CHOScore>
0.0000

> <Gold.PLP.Chemscore.Metal>
0.0000

> <Gold.Chemscore.Hbonds>
donor molecule, donor type, donor heavy atom, donor atom, acceptor molecule, acceptor atom, score
      L1  H     4    31       P1  8029  0.98
      L1  H     9    36       P1  8028  0.41
      P1  H  6934  6946       L1     6  1.00
      P1  H  7997  8009       L1    23  0.96

> <Gold.PLP.Chemscore.Internal.Correction>
0.0687

> <Gold.Rescore>
     Score         DG    S(hbond)    S(metal)    S(lipo)     H(rot)  DE(clash)    DE(int)     intcor
     16.07     -17.14       2.38        0.00      83.70       2.38       0.06       1.01       ----

> <Gold.Chemscore.Fitness>
16.0747

> <Gold.Chemscore.DG>
-17.1439

> <Gold.Chemscore.ZeroCoef>
-5.4800

> <Gold.Chemscore.Hbond>
2.3833

> <Gold.Chemscore.Metal>
0.0000

> <Gold.Chemscore.Lipo>
83.6993

> <Gold.Chemscore.Internal_Hbond>
0.0000

> <Gold.Chemscore.DEClash>
0.0599

> <Gold.Chemscore.DEInternal>
1.0093

> <Gold.Chemscore.Rot>
2.3785

> <Gold.Chemscore.Internal.Correction>
   9.000000E+99

> <Gold.Chemscore.Hbonds>
donor molecule, donor type, donor heavy atom, donor atom, acceptor molecule, acceptor atom, score
      L1  H     4    31       P1  8029  0.28
      L1  H     9    36       P1  8028  0.18
      P1  H  6934  6946       L1     6  0.97
      P1  H  7997  8009       L1    23  0.88

> <Gold.Chemscore.Hbond.Weighted>
-7.9601

> <Gold.Chemscore.Metal.Weighted>
-0.0000

> <Gold.Chemscore.Lipo.Weighted>
-9.7928

> <Gold.Chemscore.Internal_Hbond.Weighted>
0.0000

> <Gold.Chemscore.DEClash.Weighted>
0.0599

> <Gold.Chemscore.DEInternal.Weighted>
1.0093

> <Gold.Chemscore.Rot.Weighted>
6.0890

> <Gold.Chemscore.Internal.Correction.Weighted>
   9.000000E+99

> <Gold.Protein.RotatedTorsions>
[ 6907 6896 6895 6894 ] final   35.02 input  -60.11 | X-H torsion
[ 7974 7965 7964 7962 ] final -163.26 input  175.53 | X-H torsion
[ 8008 7997 7996 7995 ] final  165.69 input   59.86 | X-H torsion
[ 10167 10162 10161 10158 ] final   62.97 input  -65.29 | X-H torsion
[ 10718 10713 10712 10709 ] final -137.20 input   66.30 | X-H torsion
[ 10763 10752 10751 10750 ] final  -17.69 input  -60.55 | X-H torsion
[ 11005 11000 10999 10996 ] final  -70.73 input  -57.11 | X-H torsion

> <Gold.Protein.ActiveResidues>
 VAL166  LYS551  ARG553  GLY616  TRP617  ASP618  TYR619  PRO620  LYS621  CYS622 
 ASP623  PHE694  ASN695  SER759  ASP760  ASP761  ALA762  ILE779  LEU786  VAL792 
 PHE793  MET794  SER795  GLU796  ALA797  LYS798  CYS799  TRP800  GLU811  SER814 

> <Gold.Protein.RotatedAtoms>
  152.1104  134.9278  160.0566 H   0  0  0  0  0  0  0  0  0  0  0  0  # atno 6907 bound_to 6896
  152.0458  133.3992  159.4364 H   0  0  0  0  0  0  0  0  0  0  0  0  # atno 6908 bound_to 6896
  150.6843  134.3284  159.4860 H   0  0  0  0  0  0  0  0  0  0  0  0  # atno 6909 bound_to 6896
  144.7331  140.3133  143.6184 H   0  0  0  0  0  0  0  0  0  0  0  0  # atno 7974 bound_to 7965
  156.1780  140.1663  156.8327 H   0  0  0  0  0  0  0  0  0  0  0  0  # atno 8008 bound_to 7997
  154.5328  140.0753  156.8409 H   0  0  0  0  0  0  0  0  0  0  0  0  # atno 8009 bound_to 7997
  155.3371  140.3382  155.4241 H   0  0  0  0  0  0  0  0  0  0  0  0  # atno 8010 bound_to 7997
  140.1382  144.4579  150.6826 H   0  0  0  0  0  0  0  0  0  0  0  0  # atno 10167 bound_to 10162
  156.2854  130.7345  151.1355 H   0  0  0  0  0  0  0  0  0  0  0  0  # atno 10718 bound_to 10713
  153.5777  135.7006  153.5477 H   0  0  0  0  0  0  0  0  0  0  0  0  # atno 10763 bound_to 10752
  153.3288  135.4053  155.1478 H   0  0  0  0  0  0  0  0  0  0  0  0  # atno 10764 bound_to 10752
  154.8623  135.3714  154.5303 H   0  0  0  0  0  0  0  0  0  0  0  0  # atno 10765 bound_to 10752
  141.1579  133.6798  156.6797 H   0  0  0  0  0  0  0  0  0  0  0  0  # atno 11005 bound_to 11000
  145.7643  139.1835  143.2249 LP  0  0  0  0  0  0  0  0  0  0  0  0  # atno 17320 bound_to 7965
  146.0961  140.7598  142.9571 LP  0  0  0  0  0  0  0  0  0  0  0  0  # atno 17321 bound_to 7965
  140.6776  143.2312  151.5466 LP  0  0  0  0  0  0  0  0  0  0  0  0  # atno 17342 bound_to 10162
  139.5485  144.2457  152.1487 LP  0  0  0  0  0  0  0  0  0  0  0  0  # atno 17343 bound_to 10162
  157.7327  131.0597  150.5614 LP  0  0  0  0  0  0  0  0  0  0  0  0  # atno 17370 bound_to 10713
  156.5725  130.4283  149.6013 LP  0  0  0  0  0  0  0  0  0  0  0  0  # atno 17371 bound_to 10713
  140.3112  134.8085  157.4177 LP  0  0  0  0  0  0  0  0  0  0  0  0  # atno 17394 bound_to 11000
  140.1177  134.5261  155.8210 LP  0  0  0  0  0  0  0  0  0  0  0  0  # atno 17395 bound_to 11000

$$$$
