AV-unprocessed.smi:753|AV-procd|sdf|3602|dock4
  -GOLD-   22720 0593D 1   1.00000     0.00000
 Structure written by MMmdl.
 43 45  0  0  0  0  0  0  0  0  1 V2000
  144.5358  136.1892  153.0995 C   0  0  0  0  0  0  0  0  0  0  0  0
  145.2746  137.4858  153.3573 C   0  0  0  0  0  0  0  0  0  0  0  0
  145.7655  138.2649  152.2883 C   0  0  0  0  0  0  0  0  0  0  0  0
  146.4451  139.4613  152.5877 C   0  0  0  0  0  0  0  0  0  0  0  0
  146.6071  139.8310  153.9385 C   0  0  0  0  0  0  0  0  0  0  0  0
  147.3370  141.1047  154.3146 C   0  0  0  0  0  0  0  0  0  0  0  0
  148.7306  140.8198  154.8962 C   0  0  0  0  0  0  0  0  0  0  0  0
  149.1614  141.8872  155.7896 N   0  0  0  0  0  0  0  0  0  0  0  0
  149.7158  141.7036  156.9996 C   0  0  0  0  0  0  0  0  0  0  0  0
  149.9031  140.5954  157.4982 O   0  0  0  0  0  0  0  0  0  0  0  0
  150.0596  142.8362  157.6379 N   0  0  0  0  0  0  0  0  0  0  0  0
  150.6788  142.9757  158.9583 C   0  0  1  0  0  0  0  0  0  0  0  0
  152.0016  142.1843  159.0563 C   0  0  0  0  0  0  0  0  0  0  0  0
  153.0244  143.2691  159.4429 C   0  0  2  0  0  0  0  0  0  0  0  0
  152.7534  143.7441  160.8836 C   0  0  0  0  0  0  0  0  0  0  0  0
  151.4568  144.5647  160.7359 C   0  0  0  0  0  0  0  0  0  0  0  0
  151.1426  144.4262  159.2352 C   0  0  1  0  0  0  0  0  0  0  0  0
  152.5403  144.4578  158.6246 C   0  0  0  0  0  0  0  0  0  0  0  0
  146.0790  138.9804  154.9324 C   0  0  0  0  0  0  0  0  0  0  0  0
  145.4259  137.8316  154.6550 N   0  0  0  0  0  0  0  0  0  0  0  0
  144.4211  136.0054  152.0310 H   0  0  0  0  0  0  0  0  0  0  0  0
  143.5420  136.2232  153.5470 H   0  0  0  0  0  0  0  0  0  0  0  0
  145.0808  135.3504  153.5331 H   0  0  0  0  0  0  0  0  0  0  0  0
  145.6271  137.9556  151.2627 H   0  0  0  0  0  0  0  0  0  0  0  0
  146.8356  140.0809  151.7937 H   0  0  0  0  0  0  0  0  0  0  0  0
  147.4180  141.7405  153.4318 H   0  0  0  0  0  0  0  0  0  0  0  0
  146.7347  141.6572  155.0373 H   0  0  0  0  0  0  0  0  0  0  0  0
  148.7141  139.8900  155.4654 H   0  0  0  0  0  0  0  0  0  0  0  0
  149.4599  140.6822  154.0958 H   0  0  0  0  0  0  0  0  0  0  0  0
  149.0422  142.8341  155.4603 H   0  0  0  0  0  0  0  0  0  0  0  0
  149.8526  143.7007  157.1588 H   0  0  0  0  0  0  0  0  0  0  0  0
  149.9813  142.6301  159.7239 H   0  0  0  0  0  0  0  0  0  0  0  0
  151.9507  141.3847  159.7963 H   0  0  0  0  0  0  0  0  0  0  0  0
  152.2716  141.7314  158.1009 H   0  0  0  0  0  0  0  0  0  0  0  0
  154.0597  142.9775  159.2649 H   0  0  0  0  0  0  0  0  0  0  0  0
  152.6427  142.9116  161.5793 H   0  0  0  0  0  0  0  0  0  0  0  0
  153.5664  144.3759  161.2437 H   0  0  0  0  0  0  0  0  0  0  0  0
  150.6505  144.1911  161.3680 H   0  0  0  0  0  0  0  0  0  0  0  0
  151.6323  145.6084  160.9999 H   0  0  0  0  0  0  0  0  0  0  0  0
  150.4633  145.1964  158.8677 H   0  0  0  0  0  0  0  0  0  0  0  0
  153.0851  145.3796  158.8360 H   0  0  0  0  0  0  0  0  0  0  0  0
  152.5485  144.2757  157.5484 H   0  0  0  0  0  0  0  0  0  0  0  0
  146.1862  139.2260  155.9786 H   0  0  0  0  0  0  0  0  0  0  0  0
  1  2  1  0  0  0  0
  1 21  1  0  0  0  0
  1 22  1  0  0  0  0
  1 23  1  0  0  0  0
  2 20  1  0  0  0  0
  2  3  2  0  0  0  0
  3  4  1  0  0  0  0
  3 24  1  0  0  0  0
  4  5  2  0  0  0  0
  4 25  1  0  0  0  0
  5  6  1  0  0  0  0
  5 19  1  0  0  0  0
  6  7  1  0  0  0  0
  6 26  1  0  0  0  0
  6 27  1  0  0  0  0
  7  8  1  0  0  0  0
  7 28  1  0  0  0  0
  7 29  1  0  0  0  0
  8  9  1  0  0  0  0
  8 30  1  0  0  0  0
  9 10  2  0  0  0  0
  9 11  1  0  0  0  0
 11 12  1  0  0  0  0
 11 31  1  0  0  0  0
 12 17  1  0  0  0  0
 12 13  1  0  0  0  0
 12 32  1  0  0  0  0
 13 14  1  0  0  0  0
 13 33  1  0  0  0  0
 13 34  1  0  0  0  0
 14 18  1  0  0  0  0
 14 15  1  0  0  0  0
 14 35  1  0  0  0  0
 15 16  1  0  0  0  0
 15 36  1  0  0  0  0
 15 37  1  0  0  0  0
 16 17  1  0  0  0  0
 16 38  1  0  0  0  0
 16 39  1  0  0  0  0
 17 18  1  0  0  0  0
 17 40  1  0  0  0  0
 18 41  1  0  0  0  0
 18 42  1  0  0  0  0
 19 20  2  0  0  0  0
 19 43  1  0  0  0  0
M  END
> <s_m_source_file>
AV-unprocessed.smi

> <i_m_source_file_index>
753

> <i_lp_mmshare_version>
43012

> <i_f3d_flags>
0

> <s_epik_input>
W0NIM11jMVtjSF1bY0hdYyhbY0hdbjEpW0NIMl1bQ0gyXVtOSF1DKD1PKVtOSF1bQ0BIXShbQ0gyXVtDQEBIXTIzKVtDQEBIXShbQ0gyXTMpW0NIMl1bQ0gyXTI=

> <s_epik_cmdline>
J2VwaWtfcHl0aG9uJywgJy1waCcsICc3LjAnLCAnLXRuJywgJzgnLCAnLW1hJywgJzIwMCcsICctbWV0YWxfYmluZGluZycsICctaW1hZScsICc8aW5maWxlLm1hZT4nLCAnLW9tYWUnLCAnPG91dGZpbGUubWFlPic=

> <r_epik_Ionization_Penalty>
0.0569047

> <r_epik_Ionization_Penalty_Charging>
0

> <r_epik_Ionization_Penalty_Neutral>
0.0569047

> <r_epik_State_Penalty>
0.0490541

> <r_epik_Charging_Adjusted_Penalty>
0.0490541

> <i_epik_Tot_Q>
0

> <i_epik_Tot_abs_Q>
0

> <r_epik_Metal_State_Penalty>
0.0447357

> <b_epik_Metal_Only>
0

> <s_lp_Force_Field>
OPLS_2005

> <r_lp_Energy>
50.3887

> <b_lp_Chiralities_Consistent>
1

> <s_lp_Variant>
AV-unprocessed.smi:753-4

> <Gold.Version>
5.8.1

> <Gold.Id.Protein>
6NUR|6NUR_protein|mol2

> <Gold.PLP.Fitness>
50.1864

> <Gold.PLP.PLP>
-45.2802

> <Gold.PLP.part.hbond>
-2.0000

> <Gold.PLP.part.metal>
0.0000

> <Gold.PLP.part.buried>
0.4489

> <Gold.PLP.part.nonpolar>
-44.8806

> <Gold.PLP.part.repulsive>
0.3904

> <Gold.PLP.ligand.clash>
0.0000

> <Gold.PLP.ligand.torsion>
0.4498

> <Gold.PLP.Chemscore.Hbond>
1.9280

> <Gold.PLP.Chemscore.CHOScore>
0.0000

> <Gold.PLP.Chemscore.Metal>
0.0000

> <Gold.Chemscore.Hbonds>
donor molecule, donor type, donor heavy atom, donor atom, acceptor molecule, acceptor atom, score
      L1  H     8    30       P1  8028  1.00
      L1  H    11    31       P1  8028  0.98

> <Gold.PLP.Chemscore.Internal.Correction>
0.0219

> <Gold.Rescore>
     Score         DG    S(hbond)    S(metal)    S(lipo)     H(rot)  DE(clash)    DE(int)     intcor
     22.54     -23.38       1.86        0.00     131.16       1.43       0.51       0.32       ----

> <Gold.Chemscore.Fitness>
22.5417

> <Gold.Chemscore.DG>
-23.3753

> <Gold.Chemscore.ZeroCoef>
-5.4800

> <Gold.Chemscore.Hbond>
1.8589

> <Gold.Chemscore.Metal>
0.0000

> <Gold.Chemscore.Lipo>
131.1559

> <Gold.Chemscore.Internal_Hbond>
0.0000

> <Gold.Chemscore.DEClash>
0.5123

> <Gold.Chemscore.DEInternal>
0.3213

> <Gold.Chemscore.Rot>
1.4291

> <Gold.Chemscore.Internal.Correction>
   9.000000E+99

> <Gold.Chemscore.Hbonds>
donor molecule, donor type, donor heavy atom, donor atom, acceptor molecule, acceptor atom, score
      L1  H     8    30       P1  8028  0.98
      L1  H    11    31       P1  8028  0.81

> <Gold.Chemscore.Hbond.Weighted>
-6.2086

> <Gold.Chemscore.Metal.Weighted>
-0.0000

> <Gold.Chemscore.Lipo.Weighted>
-15.3452

> <Gold.Chemscore.Internal_Hbond.Weighted>
0.0000

> <Gold.Chemscore.DEClash.Weighted>
0.5123

> <Gold.Chemscore.DEInternal.Weighted>
0.3213

> <Gold.Chemscore.Rot.Weighted>
3.6585

> <Gold.Chemscore.Internal.Correction.Weighted>
   9.000000E+99

> <Gold.Protein.RotatedTorsions>
[ 6907 6896 6895 6894 ] final   67.82 input  -60.11 | X-H torsion
[ 7974 7965 7964 7962 ] final -112.34 input  175.53 | X-H torsion
[ 8008 7997 7996 7995 ] final  -62.16 input   59.86 | X-H torsion
[ 10167 10162 10161 10158 ] final -147.19 input  -65.29 | X-H torsion
[ 10718 10713 10712 10709 ] final  -52.33 input   66.30 | X-H torsion
[ 10763 10752 10751 10750 ] final   48.94 input  -60.55 | X-H torsion
[ 11005 11000 10999 10996 ] final  -48.71 input  -57.11 | X-H torsion

> <Gold.Protein.ActiveResidues>
 VAL166  LYS551  ARG553  GLY616  TRP617  ASP618  TYR619  PRO620  LYS621  CYS622 
 ASP623  PHE694  ASN695  SER759  ASP760  ASP761  ALA762  ILE779  LEU786  VAL792 
 PHE793  MET794  SER795  GLU796  ALA797  LYS798  CYS799  TRP800  GLU811  SER814 

> <Gold.Protein.RotatedAtoms>
  152.4578  134.5252  159.9794 H   0  0  0  0  0  0  0  0  0  0  0  0  # atno 6907 bound_to 6896
  151.5309  133.3443  159.2926 H   0  0  0  0  0  0  0  0  0  0  0  0  # atno 6908 bound_to 6896
  150.8529  134.7889  159.7085 H   0  0  0  0  0  0  0  0  0  0  0  0  # atno 6909 bound_to 6896
  145.1452  140.8799  143.3679 H   0  0  0  0  0  0  0  0  0  0  0  0  # atno 7974 bound_to 7965
  154.4485  140.1002  156.6543 H   0  0  0  0  0  0  0  0  0  0  0  0  # atno 8008 bound_to 7997
  155.5363  140.3482  155.4418 H   0  0  0  0  0  0  0  0  0  0  0  0  # atno 8009 bound_to 7997
  156.0629  140.1330  156.9909 H   0  0  0  0  0  0  0  0  0  0  0  0  # atno 8010 bound_to 7997
  139.7645  143.8328  152.2613 H   0  0  0  0  0  0  0  0  0  0  0  0  # atno 10167 bound_to 10162
  156.1631  130.4149  149.9763 H   0  0  0  0  0  0  0  0  0  0  0  0  # atno 10718 bound_to 10713
  152.9789  135.5928  154.4007 H   0  0  0  0  0  0  0  0  0  0  0  0  # atno 10763 bound_to 10752
  154.3653  135.2767  155.2299 H   0  0  0  0  0  0  0  0  0  0  0  0  # atno 10764 bound_to 10752
  154.4278  135.6043  153.6104 H   0  0  0  0  0  0  0  0  0  0  0  0  # atno 10765 bound_to 10752
  141.0717  133.6677  156.3481 H   0  0  0  0  0  0  0  0  0  0  0  0  # atno 11005 bound_to 11000
  145.0490  139.3197  143.5938 LP  0  0  0  0  0  0  0  0  0  0  0  0  # atno 17320 bound_to 7965
  146.3501  139.9891  142.8687 LP  0  0  0  0  0  0  0  0  0  0  0  0  # atno 17321 bound_to 7965
  139.8344  144.7239  150.9409 LP  0  0  0  0  0  0  0  0  0  0  0  0  # atno 17342 bound_to 10162
  140.7810  143.4040  151.1102 LP  0  0  0  0  0  0  0  0  0  0  0  0  # atno 17343 bound_to 10162
  156.7586  130.9142  151.3640 LP  0  0  0  0  0  0  0  0  0  0  0  0  # atno 17370 bound_to 10713
  157.6747  130.9083  150.0123 LP  0  0  0  0  0  0  0  0  0  0  0  0  # atno 17371 bound_to 10713
  140.5660  134.5888  157.5445 LP  0  0  0  0  0  0  0  0  0  0  0  0  # atno 17394 bound_to 11000
  139.9530  134.7584  156.0405 LP  0  0  0  0  0  0  0  0  0  0  0  0  # atno 17395 bound_to 11000

$$$$
