#       Name:                AV-unprocessed.smi:2204
#       Creating user name   scv26
#       Creation time:       Fri Mar 27 12:15:50 2020


#       File generated by GOLD software.
#

@<TRIPOS>MOLECULE
AV-unprocessed.smi:2204
    44    45     1
SMALL
NO_CHARGES


@<TRIPOS>ATOM
      1 ****        -2.6447   3.0238  -0.7372 C.3            1 S1                 0.0000
      2 ****        -2.5584   1.7841   0.1030 C.2            1 S1                 0.0000
      3 ****        -2.5556   1.6801   1.5219 C.2            1 S1                 0.0000
      4 ****        -2.4522   0.3390   1.7622 C.2            1 S1                 0.0000
      5 ****        -2.3887  -0.4064   3.0547 C.3            1 S1                 0.0000
      6 ****        -2.4023  -0.2868   0.5291 N.pl3          1 S1                 0.0000
      7 ****        -2.2616  -1.7033   0.2237 C.3            1 S1                 0.0000
      8 ****        -0.7955  -2.1340   0.2959 C.2            1 S1                 0.0000
      9 ****        -0.4346  -2.9598   1.1337 O.2            1 S1                 0.0000
     10 ****         0.0371  -1.5473  -0.5775 N.am           1 S1                 0.0000
     11 ****         1.4899  -1.6825  -0.5986 C.3            1 S1                 0.0000
     12 ****         1.8964  -2.8560  -1.5033 C.3            1 S1                 0.0000
     13 ****         2.1158  -0.3517  -1.0573 C.3            1 S1                 0.0000
     14 ****         1.7050   0.8692  -0.2277 C.3            1 S1                 0.0000
     15 ****         2.8842   1.8205  -0.3669 C.3            1 S1                 0.0000
     16 ****         3.9777   0.9705  -1.0186 C.3            1 S1                 0.0000
     17 ****         3.5246  -0.3690  -0.8901 O.3            1 S1                 0.0000
     18 ****        -2.4708   0.6029  -0.4857 N.2            1 S1                 0.0000
     19 ****        -2.4533   3.9165  -0.1415 H              1 S1                 0.0000
     20 ****        -3.6352   3.1264  -1.1809 H              1 S1                 0.0000
     21 ****        -1.9152   3.0043  -1.5475 H              1 S1                 0.0000
     22 ****        -2.6153   2.4720   2.2537 H              1 S1                 0.0000
     23 ****        -2.4550   0.2766   3.9016 H              1 S1                 0.0000
     24 ****        -1.4513  -0.9563   3.1412 H              1 S1                 0.0000
     25 ****        -3.2100  -1.1188   3.1339 H              1 S1                 0.0000
     26 ****        -2.8616  -2.2814   0.9273 H              1 S1                 0.0000
     27 ****        -2.6567  -1.9041  -0.7735 H              1 S1                 0.0000
     28 ****        -0.3631  -0.8887  -1.2307 H              1 S1                 0.0000
     29 ****         1.8425  -1.8872   0.4142 H              1 S1                 0.0000
     30 ****         2.9793  -2.9817  -1.5191 H              1 S1                 0.0000
     31 ****         1.5647  -2.6999  -2.5304 H              1 S1                 0.0000
     32 ****         1.4639  -3.7931  -1.1513 H              1 S1                 0.0000
     33 ****         1.8895  -0.1696  -2.1101 H              1 S1                 0.0000
     34 ****         0.7657   1.3078  -0.5668 H              1 S1                 0.0000
     35 ****         1.5835   0.5927   0.8207 H              1 S1                 0.0000
     36 ****         2.6396   2.6833  -0.9873 H              1 S1                 0.0000
     37 ****         3.1957   2.1879   0.6116 H              1 S1                 0.0000
     38 ****         4.0735   1.2149  -2.0775 H              1 S1                 0.0000
     39 ****         4.9519   1.1064  -0.5486 H              1 S1                 0.0000
     40 ****        -1.1002  -3.3509   1.7693 LP             1 S1                 0.0000
     41 ****         0.5243  -3.2398   1.1790 LP             1 S1                 0.0000
     42 ****         3.9462  -0.9425  -1.5925 LP             1 S1                 0.0000
     43 ****         3.7581  -0.7246   0.0149 LP             1 S1                 0.0000
     44 ****        -2.4580   0.4104  -1.4669 LP             1 S1                 0.0000
@<TRIPOS>BOND
    1    1    2 1     
    2    1   19 1     
    3    1   20 1     
    4    1   21 1     
    5    2   18 2     
    6    2    3 1     
    7    3    4 2     
    8    3   22 1     
    9    4    5 1     
   10    4    6 1     
   11    5   23 1     
   12    5   24 1     
   13    5   25 1     
   14    6    7 1     
   15    6   18 1     
   16    7    8 1     
   17    7   26 1     
   18    7   27 1     
   19    8    9 2     
   20    8   10 am    
   21   10   11 1     
   22   10   28 1     
   23   11   12 1     
   24   11   13 1     
   25   11   29 1     
   26   12   30 1     
   27   12   31 1     
   28   12   32 1     
   29   13   17 1     
   30   13   14 1     
   31   13   33 1     
   32   14   15 1     
   33   14   34 1     
   34   14   35 1     
   35   15   16 1     
   36   15   36 1     
   37   15   37 1     
   38   16   17 1     
   39   16   38 1     
   40   16   39 1     
   41    9   40 1     
   42    9   41 1     
   43   17   42 1     
   44   17   43 1     
   45   18   44 1     
@<TRIPOS>SUBSTRUCTURE
      1 S1             1
@<TRIPOS>SET
LONE_PAIRS      STATIC     ATOMS    <user>   **** ""
5 40 41 42 43 44
DONOR_HYDROGENS      STATIC     ATOMS    <user>   **** ""
1 28
ATOM$BLUE        STATIC     ATOMS    COLORGROUP SYSTEM
5 40 41 42 43 44
ATOM$RED        STATIC     ATOMS    COLORGROUP SYSTEM
1 28
