AV-unprocessed.smi:1399|AV-procd|sdf|5685|dock8
  -GOLD-   22720 5313D 1   1.00000     0.00000
 Structure written by MMmdl.
 37 38  0  0  0  0  0  0  0  0  3 V2000
  148.6486  141.3048  153.4324 N   0  5  0  0  0  0  0  0  0  0  0  0
  147.3959  141.5085  153.8835 C   0  0  0  0  0  0  0  0  0  0  0  0
  146.6758  142.4874  153.6983 O   0  0  0  0  0  0  0  0  0  0  0  0
  146.8653  140.3237  154.6979 C   0  0  0  0  0  0  0  0  0  0  0  0
  146.1395  139.3761  153.8150 N   0  3  2  0  0  0  0  0  0  0  0  0
  145.6533  138.1822  154.5522 C   0  0  0  0  0  0  0  0  0  0  0  0
  144.7837  137.2866  153.6522 C   0  0  0  0  0  0  0  0  0  0  0  0
  145.5234  136.8675  152.3663 C   0  0  2  0  0  0  0  0  0  0  0  0
  146.6026  135.9194  152.6416 N   0  0  0  0  0  0  0  0  0  0  0  0
  146.4549  134.7278  153.2382 C   0  0  0  0  0  0  0  0  0  0  0  0
  145.3742  134.2984  153.6416 O   0  0  0  0  0  0  0  0  0  0  0  0
  147.6282  134.0825  153.3353 N   0  0  0  0  0  0  0  0  0  0  0  0
  147.8591  132.8032  153.8996 C   0  0  0  0  0  0  0  0  0  0  0  0
  147.2859  132.2133  155.0646 C   0  0  0  0  0  0  0  0  0  0  0  0
  147.7588  130.9914  155.2650 N   0  0  0  0  0  0  0  0  0  0  0  0
  148.6235  130.7959  154.2443 N   0  0  0  0  0  0  0  0  0  0  0  0
  148.7149  131.8727  153.3903 C   0  0  0  0  0  0  0  0  0  0  0  0
  146.0736  138.1167  151.6573 C   0  0  0  0  0  0  0  0  0  0  0  0
  146.9132  138.9950  152.6023 C   0  0  0  0  0  0  0  0  0  0  0  0
  149.1382  129.9322  154.1461 H   0  0  0  0  0  0  0  0  0  0  0  0
  148.8895  140.3926  153.0264 H   0  0  0  0  0  0  0  0  0  0  0  0
  147.6505  139.8043  155.2518 H   0  0  0  0  0  0  0  0  0  0  0  0
  146.1830  140.7353  155.4429 H   0  0  0  0  0  0  0  0  0  0  0  0
  146.5039  137.6200  154.9405 H   0  0  0  0  0  0  0  0  0  0  0  0
  145.0636  138.4977  155.4137 H   0  0  0  0  0  0  0  0  0  0  0  0
  144.4488  136.4101  154.2079 H   0  0  0  0  0  0  0  0  0  0  0  0
  143.8788  137.8314  153.3803 H   0  0  0  0  0  0  0  0  0  0  0  0
  144.8139  136.3822  151.6936 H   0  0  0  0  0  0  0  0  0  0  0  0
  147.5291  136.1851  152.3411 H   0  0  0  0  0  0  0  0  0  0  0  0
  148.4412  134.5531  152.9656 H   0  0  0  0  0  0  0  0  0  0  0  0
  146.5618  132.6115  155.7597 H   0  0  0  0  0  0  0  0  0  0  0  0
  149.3607  131.8798  152.5245 H   0  0  0  0  0  0  0  0  0  0  0  0
  146.6654  137.8293  150.7873 H   0  0  0  0  0  0  0  0  0  0  0  0
  145.2399  138.7066  151.2736 H   0  0  0  0  0  0  0  0  0  0  0  0
  147.2312  139.8868  152.0617 H   0  0  0  0  0  0  0  0  0  0  0  0
  147.8225  138.4706  152.8996 H   0  0  0  0  0  0  0  0  0  0  0  0
  145.3180  139.8712  153.4975 H   0  0  0  0  0  0  0  0  0  0  0  0
  1  2  1  0  0  0  0
  1 21  1  0  0  0  0
  2  3  2  0  0  0  0
  2  4  1  0  0  0  0
  4  5  1  0  0  0  0
  4 22  1  0  0  0  0
  4 23  1  0  0  0  0
  5 19  1  0  0  0  0
  5  6  1  0  0  0  0
  5 37  1  0  0  0  0
  6  7  1  0  0  0  0
  6 24  1  0  0  0  0
  6 25  1  0  0  0  0
  7  8  1  0  0  0  0
  7 26  1  0  0  0  0
  7 27  1  0  0  0  0
  8  9  1  0  0  0  0
  8 18  1  0  0  0  0
  8 28  1  0  0  0  0
  9 10  1  0  0  0  0
  9 29  1  0  0  0  0
 10 11  2  0  0  0  0
 10 12  1  0  0  0  0
 12 13  1  0  0  0  0
 12 30  1  0  0  0  0
 13 17  2  0  0  0  0
 13 14  1  0  0  0  0
 14 15  2  0  0  0  0
 14 31  1  0  0  0  0
 15 16  1  0  0  0  0
 16 20  1  0  0  0  0
 16 17  1  0  0  0  0
 17 32  1  0  0  0  0
 18 19  1  0  0  0  0
 18 33  1  0  0  0  0
 18 34  1  0  0  0  0
 19 35  1  0  0  0  0
 19 36  1  0  0  0  0
M  CHG  1   1  -1
M  CHG  1   5   1
M  END
> <s_m_source_file>
AV-unprocessed.smi

> <i_m_source_file_index>
1399

> <i_lp_mmshare_version>
43012

> <i_f3d_flags>
0

> <s_epik_input>
W05IMl1DKD1PKVtDSDJdTjFbQ0gyXVtDSDJdW0NIXShbQ0gyXVtDSDJdMSlbTkhdQyg9TylbTkhdYzJbY0hdbltuSF1bY0hdMg==

> <s_epik_cmdline>
J2VwaWtfcHl0aG9uJywgJy1waCcsICc3LjAnLCAnLXRuJywgJzgnLCAnLW1hJywgJzIwMCcsICctbWV0YWxfYmluZGluZycsICctaW1hZScsICc8aW5maWxlLm1hZT4nLCAnLW9tYWUnLCAnPG91dGZpbGUubWFlPic=

> <r_lp_tautomer_probability>
0.5

> <r_epik_Ionization_Penalty>
5.72885

> <r_epik_Ionization_Penalty_Charging>
5.7288

> <r_epik_Ionization_Penalty_Neutral>
4.21226e-05

> <r_epik_State_Penalty>
6.54882

> <r_epik_Charging_Adjusted_Penalty>
12.2776

> <i_epik_Tot_Q>
0

> <i_epik_Tot_abs_Q>
2

> <r_epik_Metal_State_Penalty>
2.51297

> <b_epik_Metal_Only>
1

> <s_lp_Force_Field>
OPLS_2005

> <r_lp_Energy>
10.897

> <b_lp_Chiralities_Consistent>
1

> <s_lp_Variant>
AV-unprocessed.smi:1399-5

> <Gold.Version>
5.8.1

> <Gold.Id.Protein>
6NUR|6NUR_protein|mol2

> <Gold.PLP.Fitness>
39.0443

> <Gold.PLP.PLP>
-22.1004

> <Gold.PLP.part.hbond>
-4.8378

> <Gold.PLP.part.metal>
0.0000

> <Gold.PLP.part.buried>
0.6896

> <Gold.PLP.part.nonpolar>
-18.2601

> <Gold.PLP.part.repulsive>
0.3072

> <Gold.PLP.ligand.clash>
0.0000

> <Gold.PLP.ligand.torsion>
0.6997

> <Gold.PLP.Chemscore.Hbond>
5.1060

> <Gold.PLP.Chemscore.CHOScore>
0.9989

> <Gold.PLP.Chemscore.Metal>
0.0000

> <Gold.Chemscore.Hbonds>
donor molecule, donor type, donor heavy atom, donor atom, acceptor molecule, acceptor atom, score
      L1  H     1    21       P1  7957  0.53
      L1  H     5    37       P1 10175  2.00
      L1  H     9    29       P1  7948  0.91
      L1  H    12    30       P1  7948  0.83
      P1  H  8011  8017       L1     1  0.84
      L1  C    17    32       P1 10747  1.00

> <Gold.PLP.Chemscore.Internal.Correction>
0.0287

> <Gold.Rescore>
     Score         DG    S(hbond)    S(metal)    S(lipo)     H(rot)  DE(clash)    DE(int)     intcor
     12.00     -14.70       2.86        0.00      42.25       2.06       1.29       1.41       ----

> <Gold.Chemscore.Fitness>
11.9961

> <Gold.Chemscore.DG>
-14.6971

> <Gold.Chemscore.ZeroCoef>
-5.4800

> <Gold.Chemscore.Hbond>
2.8573

> <Gold.Chemscore.Metal>
0.0000

> <Gold.Chemscore.Lipo>
42.2495

> <Gold.Chemscore.Internal_Hbond>
0.0000

> <Gold.Chemscore.DEClash>
1.2861

> <Gold.Chemscore.DEInternal>
1.4149

> <Gold.Chemscore.Rot>
2.0584

> <Gold.Chemscore.Internal.Correction>
   9.000000E+99

> <Gold.Chemscore.Hbonds>
donor molecule, donor type, donor heavy atom, donor atom, acceptor molecule, acceptor atom, score
      L1  H     1    21       P1  7957  0.50
      L1  H     5    37       P1 10175  0.94
      L1  H     9    29       P1  7948  0.87
      L1  H    12    30       P1  7948  0.27
      P1  H  8011  8017       L1     1  0.19

> <Gold.Chemscore.Hbond.Weighted>
-9.5434

> <Gold.Chemscore.Metal.Weighted>
-0.0000

> <Gold.Chemscore.Lipo.Weighted>
-4.9432

> <Gold.Chemscore.Internal_Hbond.Weighted>
0.0000

> <Gold.Chemscore.DEClash.Weighted>
1.2861

> <Gold.Chemscore.DEInternal.Weighted>
1.4149

> <Gold.Chemscore.Rot.Weighted>
5.2695

> <Gold.Chemscore.Internal.Correction.Weighted>
   9.000000E+99

> <Gold.Protein.RotatedTorsions>
[ 6907 6896 6895 6894 ] final   99.84 input  -60.11 | X-H torsion
[ 7974 7965 7964 7962 ] final  125.61 input  175.53 | X-H torsion
[ 8008 7997 7996 7995 ] final   69.50 input   59.86 | X-H torsion
[ 10167 10162 10161 10158 ] final  119.69 input  -65.29 | X-H torsion
[ 10718 10713 10712 10709 ] final  -77.49 input   66.30 | X-H torsion
[ 10763 10752 10751 10750 ] final   96.64 input  -60.55 | X-H torsion
[ 11005 11000 10999 10996 ] final -114.38 input  -57.11 | X-H torsion

> <Gold.Protein.ActiveResidues>
 VAL166  LYS551  ARG553  GLY616  TRP617  ASP618  TYR619  PRO620  LYS621  CYS622 
 ASP623  PHE694  ASN695  SER759  ASP760  ASP761  ALA762  ILE779  LEU786  VAL792 
 PHE793  MET794  SER795  GLU796  ALA797  LYS798  CYS799  TRP800  GLU811  SER814 

> <Gold.Protein.RotatedAtoms>
  152.5384  134.0367  159.8049 H   0  0  0  0  0  0  0  0  0  0  0  0  # atno 6907 bound_to 6896
  151.0530  133.5600  159.2648 H   0  0  0  0  0  0  0  0  0  0  0  0  # atno 6908 bound_to 6896
  151.2528  135.0635  159.9122 H   0  0  0  0  0  0  0  0  0  0  0  0  # atno 6909 bound_to 6896
  145.0710  139.3730  143.4957 H   0  0  0  0  0  0  0  0  0  0  0  0  # atno 7974 bound_to 7965
  155.7245  140.3493  155.5031 H   0  0  0  0  0  0  0  0  0  0  0  0  # atno 8008 bound_to 7997
  155.9239  140.1072  157.1207 H   0  0  0  0  0  0  0  0  0  0  0  0  # atno 8009 bound_to 7997
  154.4074  140.1244  156.4701 H   0  0  0  0  0  0  0  0  0  0  0  0  # atno 8010 bound_to 7997
  139.6030  144.7062  151.3019 H   0  0  0  0  0  0  0  0  0  0  0  0  # atno 10167 bound_to 10162
  156.0143  130.4493  150.3353 H   0  0  0  0  0  0  0  0  0  0  0  0  # atno 10718 bound_to 10713
  153.2674  135.4211  155.0954 H   0  0  0  0  0  0  0  0  0  0  0  0  # atno 10763 bound_to 10752
  154.8443  135.3463  154.6293 H   0  0  0  0  0  0  0  0  0  0  0  0  # atno 10764 bound_to 10752
  153.6712  135.7043  153.5204 H   0  0  0  0  0  0  0  0  0  0  0  0  # atno 10765 bound_to 10752
  141.0555  133.9619  157.2761 H   0  0  0  0  0  0  0  0  0  0  0  0  # atno 11005 bound_to 11000
  146.3528  140.0455  142.8640 LP  0  0  0  0  0  0  0  0  0  0  0  0  # atno 17320 bound_to 7965
  145.1293  140.9508  143.4554 LP  0  0  0  0  0  0  0  0  0  0  0  0  # atno 17321 bound_to 7965
  140.7264  143.6992  150.7858 LP  0  0  0  0  0  0  0  0  0  0  0  0  # atno 17342 bound_to 10162
  140.0572  143.5190  152.2645 LP  0  0  0  0  0  0  0  0  0  0  0  0  # atno 17343 bound_to 10162
  157.1450  131.0306  151.2911 LP  0  0  0  0  0  0  0  0  0  0  0  0  # atno 17370 bound_to 10713
  157.4440  130.7560  149.7094 LP  0  0  0  0  0  0  0  0  0  0  0  0  # atno 17371 bound_to 10713
  139.9387  135.0193  156.8638 LP  0  0  0  0  0  0  0  0  0  0  0  0  # atno 17394 bound_to 11000
  140.5972  134.0206  155.7522 LP  0  0  0  0  0  0  0  0  0  0  0  0  # atno 17395 bound_to 11000

$$$$
