AV-unprocessed.smi:2159|AV-procd|sdf|8794|dock5
  -GOLD-   2272011573D 1   1.00000     0.00000
 Structure written by MMmdl.
 48 50  0  0  0  0  0  0  0  0  2 V2000
  154.0770  135.8494  160.4360 O   0  0  0  0  0  0  0  0  0  0  0  0
  154.0976  136.8265  161.1853 C   0  0  0  0  0  0  0  0  0  0  0  0
  153.3825  138.1229  160.7946 C   0  0  0  0  0  0  0  0  0  0  0  0
  154.3308  139.3374  160.7385 C   0  0  0  0  0  0  0  0  0  0  0  0
  153.6256  140.5435  160.2983 N   0  0  0  0  0  0  0  0  0  0  0  0
  153.4700  141.6488  161.0517 C   0  0  0  0  0  0  0  0  0  0  0  0
  153.9552  141.8680  162.1612 O   0  0  0  0  0  0  0  0  0  0  0  0
  152.5125  142.5956  160.3436 C   0  0  1  0  0  0  0  0  0  0  0  0
  152.6481  144.1169  160.4235 C   0  0  0  0  0  0  0  0  0  0  0  0
  151.4874  144.7152  159.5849 C   0  0  0  0  0  0  0  0  0  0  0  0
  151.3675  144.1180  158.1516 C   0  0  0  0  0  0  0  0  0  0  0  0
  151.4289  142.5680  158.1067 C   0  0  0  0  0  0  0  0  0  0  0  0
  152.6670  142.1521  158.9022 C   0  0  2  0  0  0  0  0  0  0  0  0
  153.0783  140.6977  159.0774 C   0  0  0  0  0  0  0  0  0  0  0  0
  152.9805  139.8484  158.1922 O   0  0  0  0  0  0  0  0  0  0  0  0
  154.7404  136.8319  162.3634 N   0  0  0  0  0  0  0  0  0  0  0  0
  155.4835  135.7031  162.9111 C   0  0  0  0  0  0  0  0  0  0  0  0
  155.0383  135.3760  164.3466 C   0  0  0  0  0  0  0  0  0  0  0  0
  154.4372  133.9890  164.4603 C   0  0  0  0  0  0  0  0  0  0  0  0
  153.8745  133.5073  165.6623 C   0  0  0  0  0  0  0  0  0  0  0  0
  153.3305  132.2061  165.6948 C   0  0  0  0  0  0  0  0  0  0  0  0
  153.3596  131.4159  164.5268 C   0  0  0  0  0  0  0  0  0  0  0  0
  153.9322  131.9479  163.3533 C   0  0  0  0  0  0  0  0  0  0  0  0
  154.4431  133.1989  163.3621 N   0  3  0  0  0  0  0  0  0  0  0  0
  152.8996  137.9905  159.8251 H   0  0  0  0  0  0  0  0  0  0  0  0
  152.5870  138.3035  161.5183 H   0  0  0  0  0  0  0  0  0  0  0  0
  154.7794  139.5159  161.7176 H   0  0  0  0  0  0  0  0  0  0  0  0
  155.1650  139.1304  160.0652 H   0  0  0  0  0  0  0  0  0  0  0  0
  151.5205  142.3270  160.7144 H   0  0  0  0  0  0  0  0  0  0  0  0
  152.5858  144.4584  161.4572 H   0  0  0  0  0  0  0  0  0  0  0  0
  153.6137  144.4425  160.0348 H   0  0  0  0  0  0  0  0  0  0  0  0
  150.5494  144.5365  160.1122 H   0  0  0  0  0  0  0  0  0  0  0  0
  151.5947  145.7987  159.5258 H   0  0  0  0  0  0  0  0  0  0  0  0
  150.4464  144.4645  157.6824 H   0  0  0  0  0  0  0  0  0  0  0  0
  152.1803  144.5161  157.5429 H   0  0  0  0  0  0  0  0  0  0  0  0
  150.5259  142.1332  158.5371 H   0  0  0  0  0  0  0  0  0  0  0  0
  151.4938  142.2194  157.0756 H   0  0  0  0  0  0  0  0  0  0  0  0
  153.5346  142.6397  158.4514 H   0  0  0  0  0  0  0  0  0  0  0  0
  154.7087  137.6748  162.9190 H   0  0  0  0  0  0  0  0  0  0  0  0
  155.3197  134.8400  162.2651 H   0  0  0  0  0  0  0  0  0  0  0  0
  156.5535  135.9157  162.8788 H   0  0  0  0  0  0  0  0  0  0  0  0
  155.8845  135.4429  165.0320 H   0  0  0  0  0  0  0  0  0  0  0  0
  154.3092  136.1121  164.6882 H   0  0  0  0  0  0  0  0  0  0  0  0
  153.8584  134.1248  166.5489 H   0  0  0  0  0  0  0  0  0  0  0  0
  152.8963  131.8188  166.6049 H   0  0  0  0  0  0  0  0  0  0  0  0
  152.9482  130.4170  164.5311 H   0  0  0  0  0  0  0  0  0  0  0  0
  153.9971  131.4153  162.4157 H   0  0  0  0  0  0  0  0  0  0  0  0
  154.8525  133.5644  162.5018 H   0  0  0  0  0  0  0  0  0  0  0  0
  1  2  2  0  0  0  0
  2  3  1  0  0  0  0
  2 16  1  0  0  0  0
  3  4  1  0  0  0  0
  3 25  1  0  0  0  0
  3 26  1  0  0  0  0
  4  5  1  0  0  0  0
  4 27  1  0  0  0  0
  4 28  1  0  0  0  0
  5 14  1  0  0  0  0
  5  6  1  0  0  0  0
  6  7  2  0  0  0  0
  6  8  1  0  0  0  0
  8 13  1  0  0  0  0
  8  9  1  0  0  0  0
  8 29  1  0  0  0  0
  9 10  1  0  0  0  0
  9 30  1  0  0  0  0
  9 31  1  0  0  0  0
 10 11  1  0  0  0  0
 10 32  1  0  0  0  0
 10 33  1  0  0  0  0
 11 12  1  0  0  0  0
 11 34  1  0  0  0  0
 11 35  1  0  0  0  0
 12 13  1  0  0  0  0
 12 36  1  0  0  0  0
 12 37  1  0  0  0  0
 13 14  1  0  0  0  0
 13 38  1  0  0  0  0
 14 15  2  0  0  0  0
 16 17  1  0  0  0  0
 16 39  1  0  0  0  0
 17 18  1  0  0  0  0
 17 40  1  0  0  0  0
 17 41  1  0  0  0  0
 18 19  1  0  0  0  0
 18 42  1  0  0  0  0
 18 43  1  0  0  0  0
 19 24  1  0  0  0  0
 19 20  2  0  0  0  0
 20 21  1  0  0  0  0
 20 44  1  0  0  0  0
 21 22  2  0  0  0  0
 21 45  1  0  0  0  0
 22 23  1  0  0  0  0
 22 46  1  0  0  0  0
 23 24  2  0  0  0  0
 23 47  1  0  0  0  0
 24 48  1  0  0  0  0
M  CHG  1  24   1
M  END
> <s_m_source_file>
AV-unprocessed.smi

> <i_m_source_file_index>
2159

> <i_lp_mmshare_version>
43012

> <i_f3d_flags>
0

> <s_epik_input>
bjFbY0hdW2NIXVtjSF1bY0hdYzFbQ0gyXVtDSDJdW05IXUMoPU8pW0NIMl1bQ0gyXU4oQzI9TylDKD1PKVtDQEhdKFtDQEBIXTIzKVtDSDJdW0NIMl1bQ0gyXVtDSDJdMw==

> <s_epik_cmdline>
J2VwaWtfcHl0aG9uJywgJy1waCcsICc3LjAnLCAnLXRuJywgJzgnLCAnLW1hJywgJzIwMCcsICctbWV0YWxfYmluZGluZycsICctaW1hZScsICc8aW5maWxlLm1hZT4nLCAnLW9tYWUnLCAnPG91dGZpbGUubWFlPic=

> <r_lp_tautomer_probability>
1

> <r_epik_Ionization_Penalty>
1.85146

> <r_epik_Ionization_Penalty_Charging>
1.85146

> <r_epik_Ionization_Penalty_Neutral>
2.95922e-08

> <r_epik_State_Penalty>
1.96899

> <r_epik_Charging_Adjusted_Penalty>
3.82044

> <i_epik_Tot_Q>
1

> <i_epik_Tot_abs_Q>
1

> <r_epik_Metal_State_Penalty>
1.99467

> <b_epik_Metal_Only>
0

> <s_lp_Force_Field>
OPLS_2005

> <r_lp_Energy>
36.2537

> <b_lp_Chiralities_Consistent>
1

> <s_lp_Variant>
AV-unprocessed.smi:2159-4

> <Gold.Version>
5.8.1

> <Gold.Id.Protein>
6NUR|6NUR_protein|mol2

> <Gold.PLP.Fitness>
56.4888

> <Gold.PLP.PLP>
-51.3608

> <Gold.PLP.part.hbond>
-2.3023

> <Gold.PLP.part.metal>
0.0000

> <Gold.PLP.part.buried>
-6.9569

> <Gold.PLP.part.nonpolar>
-42.9087

> <Gold.PLP.part.repulsive>
0.0724

> <Gold.PLP.ligand.clash>
0.0371

> <Gold.PLP.ligand.torsion>
0.4440

> <Gold.PLP.Chemscore.Hbond>
2.0000

> <Gold.PLP.Chemscore.CHOScore>
0.0000

> <Gold.PLP.Chemscore.Metal>
0.0000

> <Gold.Chemscore.Hbonds>
donor molecule, donor type, donor heavy atom, donor atom, acceptor molecule, acceptor atom, score
      P1  H  6896  6907       L1     1  0.96
      P1  H  7997  8009       L1    15  1.00

> <Gold.PLP.Chemscore.Internal.Correction>
0.0530

> <Gold.Rescore>
     Score         DG    S(hbond)    S(metal)    S(lipo)     H(rot)  DE(clash)    DE(int)     intcor
     22.11     -22.60       1.93        0.00     137.10       2.10       0.04       0.45       ----

> <Gold.Chemscore.Fitness>
22.1102

> <Gold.Chemscore.DG>
-22.5995

> <Gold.Chemscore.ZeroCoef>
-5.4800

> <Gold.Chemscore.Hbond>
1.9295

> <Gold.Chemscore.Metal>
0.0000

> <Gold.Chemscore.Lipo>
137.0969

> <Gold.Chemscore.Internal_Hbond>
0.0000

> <Gold.Chemscore.DEClash>
0.0433

> <Gold.Chemscore.DEInternal>
0.4459

> <Gold.Chemscore.Rot>
2.0959

> <Gold.Chemscore.Internal.Correction>
   9.000000E+99

> <Gold.Chemscore.Hbonds>
donor molecule, donor type, donor heavy atom, donor atom, acceptor molecule, acceptor atom, score
      P1  H  6896  6907       L1     1  0.91
      P1  H  7997  8009       L1    15  0.52

> <Gold.Chemscore.Hbond.Weighted>
-6.4446

> <Gold.Chemscore.Metal.Weighted>
-0.0000

> <Gold.Chemscore.Lipo.Weighted>
-16.0403

> <Gold.Chemscore.Internal_Hbond.Weighted>
0.0000

> <Gold.Chemscore.DEClash.Weighted>
0.0433

> <Gold.Chemscore.DEInternal.Weighted>
0.4459

> <Gold.Chemscore.Rot.Weighted>
5.3655

> <Gold.Chemscore.Internal.Correction.Weighted>
   9.000000E+99

> <Gold.Protein.RotatedTorsions>
[ 6907 6896 6895 6894 ] final   55.43 input  -60.11 | X-H torsion
[ 7974 7965 7964 7962 ] final  113.70 input  175.53 | X-H torsion
[ 8008 7997 7996 7995 ] final  152.32 input   59.86 | X-H torsion
[ 10167 10162 10161 10158 ] final  -75.76 input  -65.29 | X-H torsion
[ 10718 10713 10712 10709 ] final  107.69 input   66.30 | X-H torsion
[ 10763 10752 10751 10750 ] final  131.92 input  -60.55 | X-H torsion
[ 11005 11000 10999 10996 ] final -117.39 input  -57.11 | X-H torsion

> <Gold.Protein.ActiveResidues>
 VAL166  LYS551  ARG553  GLY616  TRP617  ASP618  TYR619  PRO620  LYS621  CYS622 
 ASP623  PHE694  ASN695  SER759  ASP760  ASP761  ALA762  ILE779  LEU786  VAL792 
 PHE793  MET794  SER795  GLU796  ALA797  LYS798  CYS799  TRP800  GLU811  SER814 

> <Gold.Protein.RotatedAtoms>
  152.3538  134.6969  160.0228 H   0  0  0  0  0  0  0  0  0  0  0  0  # atno 6907 bound_to 6896
  151.7314  133.3312  159.3349 H   0  0  0  0  0  0  0  0  0  0  0  0  # atno 6908 bound_to 6896
  150.7557  134.6293  159.6222 H   0  0  0  0  0  0  0  0  0  0  0  0  # atno 6909 bound_to 6896
  145.2137  139.2894  143.4255 H   0  0  0  0  0  0  0  0  0  0  0  0  # atno 7974 bound_to 7965
  156.2634  140.2024  156.6314 H   0  0  0  0  0  0  0  0  0  0  0  0  # atno 8008 bound_to 7997
  154.6680  140.0553  157.0159 H   0  0  0  0  0  0  0  0  0  0  0  0  # atno 8009 bound_to 7997
  155.1179  140.3222  155.4507 H   0  0  0  0  0  0  0  0  0  0  0  0  # atno 8010 bound_to 7997
  140.4915  143.2379  151.7899 H   0  0  0  0  0  0  0  0  0  0  0  0  # atno 10167 bound_to 10162
  157.6618  131.0878  150.6194 H   0  0  0  0  0  0  0  0  0  0  0  0  # atno 10718 bound_to 10713
  153.7822  135.3167  155.3367 H   0  0  0  0  0  0  0  0  0  0  0  0  # atno 10763 bound_to 10752
  154.8157  135.4638  154.0640 H   0  0  0  0  0  0  0  0  0  0  0  0  # atno 10764 bound_to 10752
  153.1932  135.6911  153.8411 H   0  0  0  0  0  0  0  0  0  0  0  0  # atno 10765 bound_to 10752
  141.0358  133.9912  157.3073 H   0  0  0  0  0  0  0  0  0  0  0  0  # atno 11005 bound_to 11000
  146.3392  140.2420  142.8596 LP  0  0  0  0  0  0  0  0  0  0  0  0  # atno 17320 bound_to 7965
  144.9832  140.8478  143.5385 LP  0  0  0  0  0  0  0  0  0  0  0  0  # atno 17321 bound_to 7965
  139.4852  144.4643  151.9503 LP  0  0  0  0  0  0  0  0  0  0  0  0  # atno 17342 bound_to 10162
  140.3730  144.2832  150.5917 LP  0  0  0  0  0  0  0  0  0  0  0  0  # atno 17343 bound_to 10162
  156.6497  130.4481  149.5724 LP  0  0  0  0  0  0  0  0  0  0  0  0  # atno 17370 bound_to 10713
  156.2147  130.6700  151.1306 LP  0  0  0  0  0  0  0  0  0  0  0  0  # atno 17371 bound_to 10713
  139.9239  135.0201  156.8165 LP  0  0  0  0  0  0  0  0  0  0  0  0  # atno 17394 bound_to 11000
  140.6325  133.9892  155.7669 LP  0  0  0  0  0  0  0  0  0  0  0  0  # atno 17395 bound_to 11000

$$$$
