AV-unprocessed.smi:1995|AV-procd|sdf|8081|dock8
  -GOLD-   2272010293D 1   1.00000     0.00000
 Structure written by MMmdl.
 41 42  0  0  0  0  0  0  0  0  2 V2000
  148.9515  140.0064  155.6383 C   0  0  0  0  0  0  0  0  0  0  0  0
  149.6662  140.4241  156.9364 C   0  0  0  0  0  0  0  0  0  0  0  0
  150.8341  139.4935  157.3956 C   0  0  2  0  0  0  0  0  0  0  0  0
  151.8130  139.3969  156.1944 C   0  0  0  0  0  0  0  0  0  0  0  0
  150.2453  138.0722  157.6779 C   0  0  0  0  0  0  0  0  0  0  0  0
  149.2157  138.0508  158.7183 N   0  0  0  0  0  0  0  0  0  0  0  0
  148.6239  136.9655  159.2382 C   0  0  0  0  0  0  0  0  0  0  0  0
  148.9425  135.8401  158.8473 O   0  0  0  0  0  0  0  0  0  0  0  0
  147.6904  137.2530  160.1738 N   0  5  0  0  0  0  0  0  0  0  0  0
  147.1253  136.2629  160.8837 C   0  0  0  0  0  0  0  0  0  0  0  0
  146.5539  135.1929  160.3191 N   0  0  0  0  0  0  0  0  0  0  0  0
  146.0343  134.2871  161.2459 C   0  0  0  0  0  0  0  0  0  0  0  0
  146.2220  134.6727  162.5468 C   0  0  0  0  0  0  0  0  0  0  0  0
  147.0630  136.1933  162.6474 S   0  0  0  0  0  0  0  0  0  0  0  0
  151.5324  140.0561  158.5870 N   0  0  0  0  0  0  0  0  0  0  0  0
  151.8895  141.4767  158.4887 C   0  0  0  0  0  0  0  0  0  0  0  0
  152.4718  142.0174  159.8059 C   0  0  0  0  0  0  0  0  0  0  0  0
  153.6020  141.2417  160.1869 O   0  0  0  0  0  0  0  0  0  0  0  0
  153.2864  139.8639  160.3458 C   0  0  0  0  0  0  0  0  0  0  0  0
  152.7148  139.3079  159.0304 C   0  0  0  0  0  0  0  0  0  0  0  0
  148.1638  140.7186  155.3926 H   0  0  0  0  0  0  0  0  0  0  0  0
  148.4835  139.0270  155.7318 H   0  0  0  0  0  0  0  0  0  0  0  0
  149.6348  139.9733  154.7898 H   0  0  0  0  0  0  0  0  0  0  0  0
  150.0203  141.4491  156.8279 H   0  0  0  0  0  0  0  0  0  0  0  0
  148.9077  140.4817  157.7178 H   0  0  0  0  0  0  0  0  0  0  0  0
  151.2910  139.2234  155.2530 H   0  0  0  0  0  0  0  0  0  0  0  0
  152.5192  138.5745  156.3087 H   0  0  0  0  0  0  0  0  0  0  0  0
  152.3951  140.3105  156.0734 H   0  0  0  0  0  0  0  0  0  0  0  0
  149.8543  137.6195  156.7668 H   0  0  0  0  0  0  0  0  0  0  0  0
  151.0295  137.3998  158.0237 H   0  0  0  0  0  0  0  0  0  0  0  0
  148.9163  138.9473  159.0726 H   0  0  0  0  0  0  0  0  0  0  0  0
  145.5470  133.3915  160.8901 H   0  0  0  0  0  0  0  0  0  0  0  0
  145.9205  134.1586  163.4468 H   0  0  0  0  0  0  0  0  0  0  0  0
  152.6221  141.6300  157.6964 H   0  0  0  0  0  0  0  0  0  0  0  0
  151.0203  142.0817  158.2370 H   0  0  0  0  0  0  0  0  0  0  0  0
  152.7779  143.0567  159.6856 H   0  0  0  0  0  0  0  0  0  0  0  0
  151.7211  141.9938  160.5975 H   0  0  0  0  0  0  0  0  0  0  0  0
  154.1898  139.3217  160.6249 H   0  0  0  0  0  0  0  0  0  0  0  0
  152.5717  139.7383  161.1607 H   0  0  0  0  0  0  0  0  0  0  0  0
  152.4770  138.2577  159.1887 H   0  0  0  0  0  0  0  0  0  0  0  0
  153.4937  139.3450  158.2690 H   0  0  0  0  0  0  0  0  0  0  0  0
  1  2  1  0  0  0  0
  1 21  1  0  0  0  0
  1 22  1  0  0  0  0
  1 23  1  0  0  0  0
  2  3  1  0  0  0  0
  2 24  1  0  0  0  0
  2 25  1  0  0  0  0
  3  4  1  0  0  0  0
  3  5  1  0  0  0  0
  3 15  1  0  0  0  0
  4 26  1  0  0  0  0
  4 27  1  0  0  0  0
  4 28  1  0  0  0  0
  5  6  1  0  0  0  0
  5 29  1  0  0  0  0
  5 30  1  0  0  0  0
  6  7  1  0  0  0  0
  6 31  1  0  0  0  0
  7  8  2  0  0  0  0
  7  9  1  0  0  0  0
  9 10  1  0  0  0  0
 10 14  1  0  0  0  0
 10 11  2  0  0  0  0
 11 12  1  0  0  0  0
 12 13  2  0  0  0  0
 12 32  1  0  0  0  0
 13 14  1  0  0  0  0
 13 33  1  0  0  0  0
 15 20  1  0  0  0  0
 15 16  1  0  0  0  0
 16 17  1  0  0  0  0
 16 34  1  0  0  0  0
 16 35  1  0  0  0  0
 17 18  1  0  0  0  0
 17 36  1  0  0  0  0
 17 37  1  0  0  0  0
 18 19  1  0  0  0  0
 19 20  1  0  0  0  0
 19 38  1  0  0  0  0
 19 39  1  0  0  0  0
 20 40  1  0  0  0  0
 20 41  1  0  0  0  0
M  CHG  1   9  -1
M  END
> <s_m_source_file>
AV-unprocessed.smi

> <i_m_source_file_index>
1995

> <i_lp_mmshare_version>
43012

> <i_f3d_flags>
0

> <s_epik_input>
W0NIMl0xW0NIMl1PW0NIMl1bQ0gyXU4xW0NAQF0oW0NIM10pKFtDSDJdW0NIM10pW0NIMl1bTkhdQyg9TylbTkhdYzJuW2NIXVtjSF1zMg==

> <s_epik_cmdline>
J2VwaWtfcHl0aG9uJywgJy1waCcsICc3LjAnLCAnLXRuJywgJzgnLCAnLW1hJywgJzIwMCcsICctbWV0YWxfYmluZGluZycsICctaW1hZScsICc8aW5maWxlLm1hZT4nLCAnLW9tYWUnLCAnPG91dGZpbGUubWFlPic=

> <r_lp_tautomer_probability>
0.999

> <r_epik_Ionization_Penalty>
8.86479

> <r_epik_Ionization_Penalty_Charging>
6.76546

> <r_epik_Ionization_Penalty_Neutral>
2.09933

> <r_epik_State_Penalty>
7.05418

> <r_epik_Charging_Adjusted_Penalty>
13.8196

> <i_epik_Tot_Q>
-1

> <i_epik_Tot_abs_Q>
1

> <r_epik_Metal_State_Penalty>
2.97744

> <b_epik_Metal_Only>
1

> <s_lp_Force_Field>
OPLS_2005

> <r_lp_Energy>
37.8837

> <b_lp_Chiralities_Consistent>
1

> <s_lp_Variant>
AV-unprocessed.smi:1995-6

> <Gold.Version>
5.8.1

> <Gold.Id.Protein>
6NUR|6NUR_protein|mol2

> <Gold.PLP.Fitness>
44.6707

> <Gold.PLP.PLP>
-34.3749

> <Gold.PLP.part.hbond>
-3.0000

> <Gold.PLP.part.metal>
0.0000

> <Gold.PLP.part.buried>
-5.2988

> <Gold.PLP.part.nonpolar>
-28.2338

> <Gold.PLP.part.repulsive>
0.2251

> <Gold.PLP.ligand.clash>
0.0000

> <Gold.PLP.ligand.torsion>
0.6352

> <Gold.PLP.Chemscore.Hbond>
3.8144

> <Gold.PLP.Chemscore.CHOScore>
0.0000

> <Gold.PLP.Chemscore.Metal>
0.0000

> <Gold.Chemscore.Hbonds>
donor molecule, donor type, donor heavy atom, donor atom, acceptor molecule, acceptor atom, score
      P1  H  6896  6908       L1     8  0.46
      P1  H  6931  6943       L1     9  0.10
      P1  H  6934  6947       L1     9  1.76

> <Gold.PLP.Chemscore.Internal.Correction>
0.1229

> <Gold.Rescore>
     Score         DG    S(hbond)    S(metal)    S(lipo)     H(rot)  DE(clash)    DE(int)     intcor
     15.89     -16.68       2.01        0.00      75.47       1.70       0.08       0.72       ----

> <Gold.Chemscore.Fitness>
15.8857

> <Gold.Chemscore.DG>
-16.6832

> <Gold.Chemscore.ZeroCoef>
-5.4800

> <Gold.Chemscore.Hbond>
2.0125

> <Gold.Chemscore.Metal>
0.0000

> <Gold.Chemscore.Lipo>
75.4672

> <Gold.Chemscore.Internal_Hbond>
0.0000

> <Gold.Chemscore.DEClash>
0.0816

> <Gold.Chemscore.DEInternal>
0.7159

> <Gold.Chemscore.Rot>
1.6985

> <Gold.Chemscore.Internal.Correction>
   9.000000E+99

> <Gold.Chemscore.Hbonds>
donor molecule, donor type, donor heavy atom, donor atom, acceptor molecule, acceptor atom, score
      P1  H  6896  6908       L1     8  0.46
      P1  H  6931  6943       L1     9  0.01
      P1  H  6934  6947       L1     9  0.66

> <Gold.Chemscore.Hbond.Weighted>
-6.7218

> <Gold.Chemscore.Metal.Weighted>
-0.0000

> <Gold.Chemscore.Lipo.Weighted>
-8.8297

> <Gold.Chemscore.Internal_Hbond.Weighted>
0.0000

> <Gold.Chemscore.DEClash.Weighted>
0.0816

> <Gold.Chemscore.DEInternal.Weighted>
0.7159

> <Gold.Chemscore.Rot.Weighted>
4.3482

> <Gold.Chemscore.Internal.Correction.Weighted>
   9.000000E+99

> <Gold.Protein.RotatedTorsions>
[ 6907 6896 6895 6894 ] final  172.71 input  -60.11 | X-H torsion
[ 7974 7965 7964 7962 ] final   91.82 input  175.53 | X-H torsion
[ 8008 7997 7996 7995 ] final  -33.74 input   59.86 | X-H torsion
[ 10167 10162 10161 10158 ] final -150.04 input  -65.29 | X-H torsion
[ 10718 10713 10712 10709 ] final  103.35 input   66.30 | X-H torsion
[ 10763 10752 10751 10750 ] final  -69.65 input  -60.55 | X-H torsion
[ 11005 11000 10999 10996 ] final    2.78 input  -57.11 | X-H torsion

> <Gold.Protein.ActiveResidues>
 VAL166  LYS551  ARG553  GLY616  TRP617  ASP618  TYR619  PRO620  LYS621  CYS622 
 ASP623  PHE694  ASN695  SER759  ASP760  ASP761  ALA762  ILE779  LEU786  VAL792 
 PHE793  MET794  SER795  GLU796  ALA797  LYS798  CYS799  TRP800  GLU811  SER814 

> <Gold.Protein.RotatedAtoms>
  151.7799  133.3349  159.3468 H   0  0  0  0  0  0  0  0  0  0  0  0  # atno 6907 bound_to 6896
  150.7430  134.5941  159.6012 H   0  0  0  0  0  0  0  0  0  0  0  0  # atno 6908 bound_to 6896
  152.3283  134.7293  160.0347 H   0  0  0  0  0  0  0  0  0  0  0  0  # atno 6909 bound_to 6896
  145.5005  139.2276  143.2780 H   0  0  0  0  0  0  0  0  0  0  0  0  # atno 7974 bound_to 7965
  154.4140  140.1702  156.1938 H   0  0  0  0  0  0  0  0  0  0  0  0  # atno 8008 bound_to 7997
  155.9581  140.3395  155.6443 H   0  0  0  0  0  0  0  0  0  0  0  0  # atno 8009 bound_to 7997
  155.6783  140.0719  157.2485 H   0  0  0  0  0  0  0  0  0  0  0  0  # atno 8010 bound_to 7997
  139.7389  143.8692  152.2557 H   0  0  0  0  0  0  0  0  0  0  0  0  # atno 10167 bound_to 10162
  157.6775  131.0776  150.5541 H   0  0  0  0  0  0  0  0  0  0  0  0  # atno 10718 bound_to 10713
  154.4064  135.6019  153.5927 H   0  0  0  0  0  0  0  0  0  0  0  0  # atno 10763 bound_to 10752
  152.9789  135.5919  154.4122 H   0  0  0  0  0  0  0  0  0  0  0  0  # atno 10764 bound_to 10752
  154.3928  135.2842  155.2122 H   0  0  0  0  0  0  0  0  0  0  0  0  # atno 10765 bound_to 10752
  140.6004  133.9841  155.8129 H   0  0  0  0  0  0  0  0  0  0  0  0  # atno 11005 bound_to 11000
  146.2229  140.5806  142.9009 LP  0  0  0  0  0  0  0  0  0  0  0  0  # atno 17320 bound_to 7965
  144.7782  140.5785  143.6623 LP  0  0  0  0  0  0  0  0  0  0  0  0  # atno 17321 bound_to 7965
  139.8637  144.7104  150.9069 LP  0  0  0  0  0  0  0  0  0  0  0  0  # atno 17342 bound_to 10162
  140.7783  143.3796  151.1501 LP  0  0  0  0  0  0  0  0  0  0  0  0  # atno 17343 bound_to 10162
  156.5845  130.4313  149.5963 LP  0  0  0  0  0  0  0  0  0  0  0  0  # atno 17370 bound_to 10713
  156.2634  130.6975  151.1751 LP  0  0  0  0  0  0  0  0  0  0  0  0  # atno 17371 bound_to 10713
  141.0876  133.9967  157.3289 LP  0  0  0  0  0  0  0  0  0  0  0  0  # atno 17394 bound_to 11000
  139.9235  135.0201  156.8149 LP  0  0  0  0  0  0  0  0  0  0  0  0  # atno 17395 bound_to 11000

$$$$
