AV-unprocessed.smi:3280|AV-procd|sdf|12555|dock4
  -GOLD-   2272018473D 1   1.00000     0.00000
 Structure written by MMmdl.
 38 39  0  0  0  0  0  0  0  0  1 V2000
  148.6283  136.0621  155.7226 C   0  0  0  0  0  0  0  0  0  0  0  0
  149.9046  136.3667  154.9250 C   0  0  0  0  0  0  0  0  0  0  0  0
  151.1087  135.5273  155.3775 C   0  0  0  0  0  0  0  0  0  0  0  0
  150.2192  137.8315  154.9196 C   0  0  0  0  0  0  0  0  0  0  0  0
  151.2507  138.3109  154.2340 N   0  0  0  0  0  0  0  0  0  0  0  0
  151.1890  139.6907  154.4750 O   0  0  0  0  0  0  0  0  0  0  0  0
  150.1289  139.8751  155.2976 C   0  0  0  0  0  0  0  0  0  0  0  0
  149.7681  141.2637  155.7076 C   0  0  0  0  0  0  0  0  0  0  0  0
  150.9055  141.9610  156.4646 C   0  0  0  0  0  0  0  0  0  0  0  0
  150.3462  142.8668  157.4588 N   0  0  0  0  0  0  0  0  0  0  0  0
  151.3670  143.3906  158.3597 C   0  0  1  0  0  0  0  0  0  0  0  0
  150.6830  144.4074  159.2947 C   0  0  0  0  0  0  0  0  0  0  0  0
  151.6726  145.0856  160.2556 C   0  0  0  0  0  0  0  0  0  0  0  0
  152.3635  144.0804  161.1870 C   0  0  0  0  0  0  0  0  0  0  0  0
  153.3423  142.8805  160.2444 S   0  0  0  0  0  0  0  0  0  0  0  0
  152.0326  142.2499  159.1591 C   0  0  0  0  0  0  0  0  0  0  0  0
  149.4748  138.7544  155.5918 N   0  0  0  0  0  0  0  0  0  0  0  0
  147.7771  136.6176  155.3276 H   0  0  0  0  0  0  0  0  0  0  0  0
  148.7430  136.3299  156.7734 H   0  0  0  0  0  0  0  0  0  0  0  0
  148.3803  135.0015  155.6757 H   0  0  0  0  0  0  0  0  0  0  0  0
  149.6989  136.0756  153.8935 H   0  0  0  0  0  0  0  0  0  0  0  0
  151.9769  135.7143  154.7450 H   0  0  0  0  0  0  0  0  0  0  0  0
  150.8859  134.4614  155.3252 H   0  0  0  0  0  0  0  0  0  0  0  0
  151.3892  135.7576  156.4058 H   0  0  0  0  0  0  0  0  0  0  0  0
  149.5026  141.8320  154.8150 H   0  0  0  0  0  0  0  0  0  0  0  0
  148.8726  141.2183  156.3292 H   0  0  0  0  0  0  0  0  0  0  0  0
  151.5391  141.2140  156.9415 H   0  0  0  0  0  0  0  0  0  0  0  0
  151.5272  142.5206  155.7644 H   0  0  0  0  0  0  0  0  0  0  0  0
  149.9052  143.6390  156.9798 H   0  0  0  0  0  0  0  0  0  0  0  0
  152.1202  143.9182  157.7724 H   0  0  0  0  0  0  0  0  0  0  0  0
  150.1903  145.1782  158.7002 H   0  0  0  0  0  0  0  0  0  0  0  0
  149.8964  143.9171  159.8706 H   0  0  0  0  0  0  0  0  0  0  0  0
  152.4221  145.6376  159.6871 H   0  0  0  0  0  0  0  0  0  0  0  0
  151.1408  145.8238  160.8567 H   0  0  0  0  0  0  0  0  0  0  0  0
  153.0235  144.6003  161.8816 H   0  0  0  0  0  0  0  0  0  0  0  0
  151.6254  143.5461  161.7861 H   0  0  0  0  0  0  0  0  0  0  0  0
  151.2943  141.7244  159.7663 H   0  0  0  0  0  0  0  0  0  0  0  0
  152.4862  141.5107  158.4998 H   0  0  0  0  0  0  0  0  0  0  0  0
  1  2  1  0  0  0  0
  1 18  1  0  0  0  0
  1 19  1  0  0  0  0
  1 20  1  0  0  0  0
  2  3  1  0  0  0  0
  2  4  1  0  0  0  0
  2 21  1  0  0  0  0
  3 22  1  0  0  0  0
  3 23  1  0  0  0  0
  3 24  1  0  0  0  0
  4 17  1  0  0  0  0
  4  5  2  0  0  0  0
  5  6  1  0  0  0  0
  6  7  1  0  0  0  0
  7  8  1  0  0  0  0
  7 17  2  0  0  0  0
  8  9  1  0  0  0  0
  8 25  1  0  0  0  0
  8 26  1  0  0  0  0
  9 10  1  0  0  0  0
  9 27  1  0  0  0  0
  9 28  1  0  0  0  0
 10 11  1  0  0  0  0
 10 29  1  0  0  0  0
 11 16  1  0  0  0  0
 11 12  1  0  0  0  0
 11 30  1  0  0  0  0
 12 13  1  0  0  0  0
 12 31  1  0  0  0  0
 12 32  1  0  0  0  0
 13 14  1  0  0  0  0
 13 33  1  0  0  0  0
 13 34  1  0  0  0  0
 14 15  1  0  0  0  0
 14 35  1  0  0  0  0
 14 36  1  0  0  0  0
 15 16  1  0  0  0  0
 16 37  1  0  0  0  0
 16 38  1  0  0  0  0
M  END
> <s_m_source_file>
AV-unprocessed.smi

> <i_m_source_file_index>
3280

> <i_lp_mmshare_version>
43012

> <i_f3d_flags>
0

> <s_epik_input>
W0NIM11bQ0hdKFtDSDNdKWMxbm9jKG4xKVtDSDJdW0NIMl1bTkhdW0NAQEhdMltDSDJdW0NIMl1bQ0gyXVNbQ0gyXTI=

> <s_epik_cmdline>
J2VwaWtfcHl0aG9uJywgJy1waCcsICc3LjAnLCAnLXRuJywgJzgnLCAnLW1hJywgJzIwMCcsICctbWV0YWxfYmluZGluZycsICctaW1hZScsICc8aW5maWxlLm1hZT4nLCAnLW9tYWUnLCAnPG91dGZpbGUubWFlPic=

> <r_lp_tautomer_probability>
1

> <r_epik_Ionization_Penalty>
2.40576

> <r_epik_Ionization_Penalty_Charging>
0

> <r_epik_Ionization_Penalty_Neutral>
2.40576

> <r_epik_State_Penalty>
2.56401

> <r_epik_Charging_Adjusted_Penalty>
2.56401

> <i_epik_Tot_Q>
0

> <i_epik_Tot_abs_Q>
0

> <r_epik_Metal_State_Penalty>
2.56401

> <b_epik_Metal_Only>
0

> <s_lp_Force_Field>
OPLS_2005

> <r_lp_Energy>
1.02241

> <b_lp_Chiralities_Consistent>
1

> <s_lp_Variant>
AV-unprocessed.smi:3280-4

> <Gold.Version>
5.8.1

> <Gold.Id.Protein>
6NUR|6NUR_protein|mol2

> <Gold.PLP.Fitness>
40.6189

> <Gold.PLP.PLP>
-35.1038

> <Gold.PLP.part.hbond>
-2.0000

> <Gold.PLP.part.metal>
0.0000

> <Gold.PLP.part.buried>
-5.9703

> <Gold.PLP.part.nonpolar>
-27.7378

> <Gold.PLP.part.repulsive>
0.3268

> <Gold.PLP.ligand.clash>
0.0000

> <Gold.PLP.ligand.torsion>
0.2835

> <Gold.PLP.Chemscore.Hbond>
2.0000

> <Gold.PLP.Chemscore.CHOScore>
0.0000

> <Gold.PLP.Chemscore.Metal>
0.0000

> <Gold.Chemscore.Hbonds>
donor molecule, donor type, donor heavy atom, donor atom, acceptor molecule, acceptor atom, score
      L1  H    10    29       P1  8028  1.00
      P1  H  7989  7998       L1     6  1.00

> <Gold.PLP.Chemscore.Internal.Correction>
0.0821

> <Gold.Rescore>
     Score         DG    S(hbond)    S(metal)    S(lipo)     H(rot)  DE(clash)    DE(int)     intcor
     18.12     -18.54       1.93        0.00      93.28       1.68       0.02       0.40       ----

> <Gold.Chemscore.Fitness>
18.1157

> <Gold.Chemscore.DG>
-18.5423

> <Gold.Chemscore.ZeroCoef>
-5.4800

> <Gold.Chemscore.Hbond>
1.9333

> <Gold.Chemscore.Metal>
0.0000

> <Gold.Chemscore.Lipo>
93.2842

> <Gold.Chemscore.Internal_Hbond>
0.0000

> <Gold.Chemscore.DEClash>
0.0215

> <Gold.Chemscore.DEInternal>
0.4050

> <Gold.Chemscore.Rot>
1.6833

> <Gold.Chemscore.Internal.Correction>
   9.000000E+99

> <Gold.Chemscore.Hbonds>
donor molecule, donor type, donor heavy atom, donor atom, acceptor molecule, acceptor atom, score
      L1  H    10    29       P1  8028  0.96
      P1  H  7989  7998       L1     6  0.96

> <Gold.Chemscore.Hbond.Weighted>
-6.4572

> <Gold.Chemscore.Metal.Weighted>
-0.0000

> <Gold.Chemscore.Lipo.Weighted>
-10.9143

> <Gold.Chemscore.Internal_Hbond.Weighted>
0.0000

> <Gold.Chemscore.DEClash.Weighted>
0.0215

> <Gold.Chemscore.DEInternal.Weighted>
0.4050

> <Gold.Chemscore.Rot.Weighted>
4.3092

> <Gold.Chemscore.Internal.Correction.Weighted>
   9.000000E+99

> <Gold.Protein.RotatedTorsions>
[ 6907 6896 6895 6894 ] final    7.81 input  -60.11 | X-H torsion
[ 7974 7965 7964 7962 ] final  -62.26 input  175.53 | X-H torsion
[ 8008 7997 7996 7995 ] final   83.45 input   59.86 | X-H torsion
[ 10167 10162 10161 10158 ] final   30.50 input  -65.29 | X-H torsion
[ 10718 10713 10712 10709 ] final  -35.04 input   66.30 | X-H torsion
[ 10763 10752 10751 10750 ] final  149.40 input  -60.55 | X-H torsion
[ 11005 11000 10999 10996 ] final   46.42 input  -57.11 | X-H torsion

> <Gold.Protein.ActiveResidues>
 VAL166  LYS551  ARG553  GLY616  TRP617  ASP618  TYR619  PRO620  LYS621  CYS622 
 ASP623  PHE694  ASN695  SER759  ASP760  ASP761  ALA762  ILE779  LEU786  VAL792 
 PHE793  MET794  SER795  GLU796  ALA797  LYS798  CYS799  TRP800  GLU811  SER814 

> <Gold.Protein.RotatedAtoms>
  151.6960  135.0938  160.0241 H   0  0  0  0  0  0  0  0  0  0  0  0  # atno 6907 bound_to 6896
  152.3750  133.6464  159.6125 H   0  0  0  0  0  0  0  0  0  0  0  0  # atno 6908 bound_to 6896
  150.7702  133.9125  159.3415 H   0  0  0  0  0  0  0  0  0  0  0  0  # atno 6909 bound_to 6896
  145.7935  140.8696  143.0268 H   0  0  0  0  0  0  0  0  0  0  0  0  # atno 7974 bound_to 7965
  155.9240  140.3419  155.6196 H   0  0  0  0  0  0  0  0  0  0  0  0  # atno 8008 bound_to 7997
  155.7238  140.0787  157.2337 H   0  0  0  0  0  0  0  0  0  0  0  0  # atno 8009 bound_to 7997
  154.4074  140.1600  156.2419 H   0  0  0  0  0  0  0  0  0  0  0  0  # atno 8010 bound_to 7997
  140.4672  144.0817  150.6227 H   0  0  0  0  0  0  0  0  0  0  0  0  # atno 10167 bound_to 10162
  156.3433  130.4297  149.7768 H   0  0  0  0  0  0  0  0  0  0  0  0  # atno 10718 bound_to 10713
  154.0706  135.2867  155.3309 H   0  0  0  0  0  0  0  0  0  0  0  0  # atno 10763 bound_to 10752
  154.6749  135.5285  153.8190 H   0  0  0  0  0  0  0  0  0  0  0  0  # atno 10764 bound_to 10752
  153.0487  135.6567  154.0888 H   0  0  0  0  0  0  0  0  0  0  0  0  # atno 10765 bound_to 10752
  140.1370  134.4632  155.8478 H   0  0  0  0  0  0  0  0  0  0  0  0  # atno 11005 bound_to 11000
  144.6778  140.0157  143.7484 LP  0  0  0  0  0  0  0  0  0  0  0  0  # atno 17320 bound_to 7965
  145.9952  139.3047  143.0960 LP  0  0  0  0  0  0  0  0  0  0  0  0  # atno 17321 bound_to 7965
  140.4021  143.2698  151.9935 LP  0  0  0  0  0  0  0  0  0  0  0  0  # atno 17342 bound_to 10162
  139.4813  144.5988  151.7642 LP  0  0  0  0  0  0  0  0  0  0  0  0  # atno 17343 bound_to 10162
  156.4996  130.8122  151.3127 LP  0  0  0  0  0  0  0  0  0  0  0  0  # atno 17370 bound_to 10713
  157.7450  130.9949  150.2724 LP  0  0  0  0  0  0  0  0  0  0  0  0  # atno 17371 bound_to 10713
  141.2180  133.6818  156.7176 LP  0  0  0  0  0  0  0  0  0  0  0  0  # atno 17394 bound_to 11000
  140.2770  134.8347  157.3899 LP  0  0  0  0  0  0  0  0  0  0  0  0  # atno 17395 bound_to 11000

$$$$
