AV-unprocessed.smi:1639|AV-procd|sdf|6551|dock5
  -GOLD-   22720 7233D 1   1.00000     0.00000
 Structure written by MMmdl.
 38 39  0  0  0  0  0  0  0  0  2 V2000
  151.5557  145.5014  160.0637 C   0  0  0  0  0  0  0  0  0  0  0  0
  150.6924  144.4248  160.7353 C   0  0  0  0  0  0  0  0  0  0  0  0
  151.4880  143.3857  161.2900 O   0  0  0  0  0  0  0  0  0  0  0  0
  152.4387  142.8129  160.4008 C   0  0  1  0  0  0  0  0  0  0  0  0
  153.2834  141.7810  161.1685 C   0  0  0  0  0  0  0  0  0  0  0  0
  154.2096  141.0287  160.1999 C   0  0  0  0  0  0  0  0  0  0  0  0
  153.4044  140.4000  159.0492 C   0  0  0  0  0  0  0  0  0  0  0  0
  152.5895  141.4073  158.3748 N   0  0  0  0  0  0  0  0  0  0  0  0
  151.9644  140.9194  157.2214 C   0  0  0  0  0  0  0  0  0  0  0  0
  152.2447  139.6512  156.6689 C   0  0  0  0  0  0  0  0  0  0  0  0
  151.5352  139.2953  155.5086 C   0  0  0  0  0  0  0  0  0  0  0  0
  151.7469  137.9609  154.8251 C   0  0  0  0  0  0  0  0  0  0  0  0
  150.6319  140.1273  154.9514 N   0  0  0  0  0  0  0  0  0  0  0  0
  150.4124  141.3164  155.5236 C   0  0  0  0  0  0  0  0  0  0  0  0
  149.4894  142.1559  154.9477 N   0  0  0  0  0  0  0  0  0  0  0  0
  151.0491  141.7261  156.6304 N   0  3  0  0  0  0  0  0  0  0  0  0
  151.6742  142.1336  159.2514 C   0  0  0  0  0  0  0  0  0  0  0  0
  150.9358  146.3213  159.7006 H   0  0  0  0  0  0  0  0  0  0  0  0
  152.1073  145.1045  159.2116 H   0  0  0  0  0  0  0  0  0  0  0  0
  152.2782  145.9163  160.7668 H   0  0  0  0  0  0  0  0  0  0  0  0
  150.1288  144.8800  161.5500 H   0  0  0  0  0  0  0  0  0  0  0  0
  149.9559  144.0181  160.0406 H   0  0  0  0  0  0  0  0  0  0  0  0
  153.1016  143.5696  159.9759 H   0  0  0  0  0  0  0  0  0  0  0  0
  153.8694  142.2709  161.9465 H   0  0  0  0  0  0  0  0  0  0  0  0
  152.6279  141.0700  161.6729 H   0  0  0  0  0  0  0  0  0  0  0  0
  154.9507  141.7182  159.7935 H   0  0  0  0  0  0  0  0  0  0  0  0
  154.7639  140.2568  160.7343 H   0  0  0  0  0  0  0  0  0  0  0  0
  154.0834  139.9355  158.3329 H   0  0  0  0  0  0  0  0  0  0  0  0
  152.7606  139.6099  159.4385 H   0  0  0  0  0  0  0  0  0  0  0  0
  152.9684  138.9849  157.1155 H   0  0  0  0  0  0  0  0  0  0  0  0
  152.4895  137.3614  155.3525 H   0  0  0  0  0  0  0  0  0  0  0  0
  152.0932  138.1084  153.8018 H   0  0  0  0  0  0  0  0  0  0  0  0
  150.8142  137.3971  154.7944 H   0  0  0  0  0  0  0  0  0  0  0  0
  148.9939  141.8745  154.1139 H   0  0  0  0  0  0  0  0  0  0  0  0
  149.2912  143.0590  155.3536 H   0  0  0  0  0  0  0  0  0  0  0  0
  150.9344  141.4429  159.6581 H   0  0  0  0  0  0  0  0  0  0  0  0
  151.1298  142.8831  158.6751 H   0  0  0  0  0  0  0  0  0  0  0  0
  150.8544  142.6400  157.0397 H   0  0  0  0  0  0  0  0  0  0  0  0
  1  2  1  0  0  0  0
  1 18  1  0  0  0  0
  1 19  1  0  0  0  0
  1 20  1  0  0  0  0
  2  3  1  0  0  0  0
  2 21  1  0  0  0  0
  2 22  1  0  0  0  0
  3  4  1  0  0  0  0
  4 17  1  0  0  0  0
  4  5  1  0  0  0  0
  4 23  1  0  0  0  0
  5  6  1  0  0  0  0
  5 24  1  0  0  0  0
  5 25  1  0  0  0  0
  6  7  1  0  0  0  0
  6 26  1  0  0  0  0
  6 27  1  0  0  0  0
  7  8  1  0  0  0  0
  7 28  1  0  0  0  0
  7 29  1  0  0  0  0
  8  9  1  0  0  0  0
  8 17  1  0  0  0  0
  9 16  1  0  0  0  0
  9 10  2  0  0  0  0
 10 11  1  0  0  0  0
 10 30  1  0  0  0  0
 11 12  1  0  0  0  0
 11 13  2  0  0  0  0
 12 31  1  0  0  0  0
 12 32  1  0  0  0  0
 12 33  1  0  0  0  0
 13 14  1  0  0  0  0
 14 15  1  0  0  0  0
 14 16  2  0  0  0  0
 15 34  1  0  0  0  0
 15 35  1  0  0  0  0
 16 38  1  0  0  0  0
 17 36  1  0  0  0  0
 17 37  1  0  0  0  0
M  CHG  1  16   1
M  END
> <s_m_source_file>
AV-unprocessed.smi

> <i_m_source_file_index>
1639

> <i_lp_mmshare_version>
43012

> <i_f3d_flags>
0

> <s_epik_input>
W0NIM11bQ0gyXU9bQ0BASF0xW0NIMl1bQ0gyXVtDSDJdTihbQ0gyXTEpYzJbY0hdYyhbQ0gzXSluYyhuMilbTkgyXQ==

> <s_epik_cmdline>
J2VwaWtfcHl0aG9uJywgJy1waCcsICc3LjAnLCAnLXRuJywgJzgnLCAnLW1hJywgJzIwMCcsICctbWV0YWxfYmluZGluZycsICctaW1hZScsICc8aW5maWxlLm1hZT4nLCAnLW9tYWUnLCAnPG91dGZpbGUubWFlPic=

> <r_lp_tautomer_probability>
0.424989

> <r_epik_Ionization_Penalty>
0.443088

> <r_epik_Ionization_Penalty_Charging>
0.443085

> <r_epik_Ionization_Penalty_Neutral>
3.21819e-06

> <r_epik_State_Penalty>
1.26241

> <r_epik_Charging_Adjusted_Penalty>
1.70549

> <i_epik_Tot_Q>
1

> <i_epik_Tot_abs_Q>
1

> <r_epik_Metal_State_Penalty>
1.59997

> <b_epik_Metal_Only>
0

> <s_lp_Force_Field>
OPLS_2005

> <r_lp_Energy>
15.005

> <b_lp_Chiralities_Consistent>
1

> <s_lp_Variant>
AV-unprocessed.smi:1639-4

> <Gold.Version>
5.8.1

> <Gold.Id.Protein>
6NUR|6NUR_protein|mol2

> <Gold.PLP.Fitness>
43.0448

> <Gold.PLP.PLP>
-36.4360

> <Gold.PLP.part.hbond>
-2.5871

> <Gold.PLP.part.metal>
0.0000

> <Gold.PLP.part.buried>
-3.5434

> <Gold.PLP.part.nonpolar>
-29.0834

> <Gold.PLP.part.repulsive>
0.5260

> <Gold.PLP.ligand.clash>
0.9019

> <Gold.PLP.ligand.torsion>
0.3835

> <Gold.PLP.Chemscore.Hbond>
2.7125

> <Gold.PLP.Chemscore.CHOScore>
0.0000

> <Gold.PLP.Chemscore.Metal>
0.0000

> <Gold.Chemscore.Hbonds>
donor molecule, donor type, donor heavy atom, donor atom, acceptor molecule, acceptor atom, score
      L1  H    15    35       P1  8028  2.00
      P1  H  6933  6945       L1     3  0.07
      P1  H  7989  7998       L1    13  0.70

> <Gold.PLP.Chemscore.Internal.Correction>
0.1402

> <Gold.Rescore>
     Score         DG    S(hbond)    S(metal)    S(lipo)     H(rot)  DE(clash)    DE(int)     intcor
     15.10     -15.63       1.00        0.00      90.04       1.46       0.00       0.52       ----

> <Gold.Chemscore.Fitness>
15.1040

> <Gold.Chemscore.DG>
-15.6277

> <Gold.Chemscore.ZeroCoef>
-5.4800

> <Gold.Chemscore.Hbond>
1.0001

> <Gold.Chemscore.Metal>
0.0000

> <Gold.Chemscore.Lipo>
90.0391

> <Gold.Chemscore.Internal_Hbond>
0.0000

> <Gold.Chemscore.DEClash>
0.0029

> <Gold.Chemscore.DEInternal>
0.5207

> <Gold.Chemscore.Rot>
1.4560

> <Gold.Chemscore.Internal.Correction>
   9.000000E+99

> <Gold.Chemscore.Hbonds>
donor molecule, donor type, donor heavy atom, donor atom, acceptor molecule, acceptor atom, score
      L1  H    15    35       P1  8028  1.00
      P1  H  6933  6945       L1     3  0.04
      P1  H  7989  7998       L1    13  0.03

> <Gold.Chemscore.Hbond.Weighted>
-3.3403

> <Gold.Chemscore.Metal.Weighted>
-0.0000

> <Gold.Chemscore.Lipo.Weighted>
-10.5346

> <Gold.Chemscore.Internal_Hbond.Weighted>
0.0000

> <Gold.Chemscore.DEClash.Weighted>
0.0029

> <Gold.Chemscore.DEInternal.Weighted>
0.5207

> <Gold.Chemscore.Rot.Weighted>
3.7272

> <Gold.Chemscore.Internal.Correction.Weighted>
   9.000000E+99

> <Gold.Protein.RotatedTorsions>
[ 6907 6896 6895 6894 ] final  -55.26 input  -60.11 | X-H torsion
[ 7974 7965 7964 7962 ] final  -14.03 input  175.53 | X-H torsion
[ 8008 7997 7996 7995 ] final  -91.55 input   59.86 | X-H torsion
[ 10167 10162 10161 10158 ] final   34.68 input  -65.29 | X-H torsion
[ 10718 10713 10712 10709 ] final   -2.99 input   66.30 | X-H torsion
[ 10763 10752 10751 10750 ] final  -37.45 input  -60.55 | X-H torsion
[ 11005 11000 10999 10996 ] final   63.79 input  -57.11 | X-H torsion

> <Gold.Protein.ActiveResidues>
 VAL166  LYS551  ARG553  GLY616  TRP617  ASP618  TYR619  PRO620  LYS621  CYS622 
 ASP623  PHE694  ASN695  SER759  ASP760  ASP761  ALA762  ILE779  LEU786  VAL792 
 PHE793  MET794  SER795  GLU796  ALA797  LYS798  CYS799  TRP800  GLU811  SER814 

> <Gold.Protein.RotatedAtoms>
  150.8266  134.7500  159.6818 H   0  0  0  0  0  0  0  0  0  0  0  0  # atno 6907 bound_to 6896
  152.4376  134.5651  159.9915 H   0  0  0  0  0  0  0  0  0  0  0  0  # atno 6908 bound_to 6896
  151.5822  133.3339  159.3046 H   0  0  0  0  0  0  0  0  0  0  0  0  # atno 6909 bound_to 6896
  146.2091  140.3289  142.8397 H   0  0  0  0  0  0  0  0  0  0  0  0  # atno 7974 bound_to 7965
  154.7122  140.0518  157.0560 H   0  0  0  0  0  0  0  0  0  0  0  0  # atno 8008 bound_to 7997
  155.0540  140.3182  155.4663 H   0  0  0  0  0  0  0  0  0  0  0  0  # atno 8009 bound_to 7997
  156.2792  140.2111  156.5666 H   0  0  0  0  0  0  0  0  0  0  0  0  # atno 8010 bound_to 7997
  140.4293  144.1348  150.6157 H   0  0  0  0  0  0  0  0  0  0  0  0  # atno 10167 bound_to 10162
  156.7827  130.5336  149.5748 H   0  0  0  0  0  0  0  0  0  0  0  0  # atno 10718 bound_to 10713
  153.8964  135.6807  153.4757 H   0  0  0  0  0  0  0  0  0  0  0  0  # atno 10763 bound_to 10752
  153.1153  135.4764  154.9102 H   0  0  0  0  0  0  0  0  0  0  0  0  # atno 10764 bound_to 10752
  154.7597  135.3207  154.8356 H   0  0  0  0  0  0  0  0  0  0  0  0  # atno 10765 bound_to 10752
  140.0001  134.6455  155.9944 H   0  0  0  0  0  0  0  0  0  0  0  0  # atno 11005 bound_to 11000
  144.8866  140.7470  143.5953 LP  0  0  0  0  0  0  0  0  0  0  0  0  # atno 17320 bound_to 7965
  145.3211  139.1788  143.4587 LP  0  0  0  0  0  0  0  0  0  0  0  0  # atno 17321 bound_to 7965
  140.4446  143.2512  151.9428 LP  0  0  0  0  0  0  0  0  0  0  0  0  # atno 17342 bound_to 10162
  139.4784  144.5622  151.8222 LP  0  0  0  0  0  0  0  0  0  0  0  0  # atno 17343 bound_to 10162
  156.1208  130.6108  151.0190 LP  0  0  0  0  0  0  0  0  0  0  0  0  # atno 17370 bound_to 10713
  157.6639  131.0875  150.7775 LP  0  0  0  0  0  0  0  0  0  0  0  0  # atno 17371 bound_to 10713
  141.1635  133.6538  156.4400 LP  0  0  0  0  0  0  0  0  0  0  0  0  # atno 17394 bound_to 11000
  140.4744  134.6723  157.5143 LP  0  0  0  0  0  0  0  0  0  0  0  0  # atno 17395 bound_to 11000

$$$$
