AV-unprocessed.smi:1669|AV-procd|sdf|6689|dock3
  -GOLD-   22720 7413D 1   1.00000     0.00000
 Structure written by MMmdl.
 49 51  0  0  0  0  0  0  0  0  3 V2000
  151.0353  137.0015  154.5602 C   0  0  0  0  0  0  0  0  0  0  0  0
  151.0135  136.6302  155.9944 N   0  3  1  0  0  0  0  0  0  0  0  0
  150.9316  135.1618  156.2042 C   0  0  0  0  0  0  0  0  0  0  0  0
  149.9394  134.5104  155.2588 C   0  0  0  0  0  0  0  0  0  0  0  0
  148.6625  135.0824  155.0764 C   0  0  0  0  0  0  0  0  0  0  0  0
  147.7374  134.4831  154.1997 C   0  0  0  0  0  0  0  0  0  0  0  0
  148.0852  133.3094  153.5032 C   0  0  0  0  0  0  0  0  0  0  0  0
  149.3579  132.7343  153.6846 C   0  0  0  0  0  0  0  0  0  0  0  0
  150.2834  133.3326  154.5617 C   0  0  0  0  0  0  0  0  0  0  0  0
  152.1238  137.2601  156.7524 C   0  0  0  0  0  0  0  0  0  0  0  0
  152.1285  138.7978  156.6032 C   0  0  2  0  0  0  0  0  0  0  0  0
  153.2891  139.3060  157.2271 O   0  0  0  0  0  0  0  0  0  0  0  0
  150.9080  139.4864  157.2477 C   0  0  0  0  0  0  0  0  0  0  0  0
  150.8547  140.9317  156.9785 N   0  0  0  0  0  0  0  0  0  0  0  0
  150.2641  141.6279  155.9626 C   0  0  0  0  0  0  0  0  0  0  0  0
  149.4866  141.0655  154.8151 C   0  0  0  0  0  0  0  0  0  0  0  0
  150.2880  140.3195  153.9245 O   0  0  0  0  0  0  0  0  0  0  0  0
  150.5152  142.9500  156.1841 N   0  3  0  0  0  0  0  0  0  0  0  0
  151.2685  143.1024  157.3480 C   0  0  0  0  0  0  0  0  0  0  0  0
  151.7639  144.2437  157.9708 C   0  0  0  0  0  0  0  0  0  0  0  0
  152.4998  144.0478  159.1580 C   0  0  0  0  0  0  0  0  0  0  0  0
  152.7163  142.7573  159.6832 C   0  0  0  0  0  0  0  0  0  0  0  0
  152.2082  141.6076  159.0430 C   0  0  0  0  0  0  0  0  0  0  0  0
  151.4856  141.8100  157.8672 C   0  0  0  0  0  0  0  0  0  0  0  0
  151.9336  136.6217  154.0720 H   0  0  0  0  0  0  0  0  0  0  0  0
  151.0145  138.0853  154.4418 H   0  0  0  0  0  0  0  0  0  0  0  0
  150.1662  136.6049  154.0355 H   0  0  0  0  0  0  0  0  0  0  0  0
  151.9196  134.7119  156.0925 H   0  0  0  0  0  0  0  0  0  0  0  0
  150.6109  134.9351  157.2210 H   0  0  0  0  0  0  0  0  0  0  0  0
  148.3896  135.9833  155.6068 H   0  0  0  0  0  0  0  0  0  0  0  0
  146.7606  134.9232  154.0612 H   0  0  0  0  0  0  0  0  0  0  0  0
  147.3757  132.8499  152.8308 H   0  0  0  0  0  0  0  0  0  0  0  0
  149.6239  131.8335  153.1512 H   0  0  0  0  0  0  0  0  0  0  0  0
  151.2577  132.8854  154.6949 H   0  0  0  0  0  0  0  0  0  0  0  0
  152.0417  136.9612  157.7980 H   0  0  0  0  0  0  0  0  0  0  0  0
  153.0847  136.8768  156.4047 H   0  0  0  0  0  0  0  0  0  0  0  0
  152.1723  139.0762  155.5510 H   0  0  0  0  0  0  0  0  0  0  0  0
  153.4152  138.8552  158.0488 H   0  0  0  0  0  0  0  0  0  0  0  0
  149.9817  139.0435  156.8802 H   0  0  0  0  0  0  0  0  0  0  0  0
  150.9044  139.3417  158.3291 H   0  0  0  0  0  0  0  0  0  0  0  0
  148.6926  140.4179  155.1862 H   0  0  0  0  0  0  0  0  0  0  0  0
  149.0126  141.8832  154.2716 H   0  0  0  0  0  0  0  0  0  0  0  0
  149.8174  140.2150  153.1111 H   0  0  0  0  0  0  0  0  0  0  0  0
  151.5973  145.2339  157.5720 H   0  0  0  0  0  0  0  0  0  0  0  0
  152.9047  144.9049  159.6769 H   0  0  0  0  0  0  0  0  0  0  0  0
  153.2834  142.6471  160.5965 H   0  0  0  0  0  0  0  0  0  0  0  0
  152.3782  140.6242  159.4561 H   0  0  0  0  0  0  0  0  0  0  0  0
  150.1651  137.0269  156.3736 H   0  0  0  0  0  0  0  0  0  0  0  0
  150.1926  143.6917  155.5755 H   0  0  0  0  0  0  0  0  0  0  0  0
  1  2  1  0  0  0  0
  1 25  1  0  0  0  0
  1 26  1  0  0  0  0
  1 27  1  0  0  0  0
  2  3  1  0  0  0  0
  2 10  1  0  0  0  0
  2 48  1  0  0  0  0
  3  4  1  0  0  0  0
  3 28  1  0  0  0  0
  3 29  1  0  0  0  0
  4  9  1  0  0  0  0
  4  5  2  0  0  0  0
  5  6  1  0  0  0  0
  5 30  1  0  0  0  0
  6  7  2  0  0  0  0
  6 31  1  0  0  0  0
  7  8  1  0  0  0  0
  7 32  1  0  0  0  0
  8  9  2  0  0  0  0
  8 33  1  0  0  0  0
  9 34  1  0  0  0  0
 10 11  1  0  0  0  0
 10 35  1  0  0  0  0
 10 36  1  0  0  0  0
 11 12  1  0  0  0  0
 11 13  1  0  0  0  0
 11 37  1  0  0  0  0
 12 38  1  0  0  0  0
 13 14  1  0  0  0  0
 13 39  1  0  0  0  0
 13 40  1  0  0  0  0
 14 24  1  0  0  0  0
 14 15  1  0  0  0  0
 15 16  1  0  0  0  0
 15 18  2  0  0  0  0
 16 17  1  0  0  0  0
 16 41  1  0  0  0  0
 16 42  1  0  0  0  0
 17 43  1  0  0  0  0
 18 19  1  0  0  0  0
 18 49  1  0  0  0  0
 19 24  2  0  0  0  0
 19 20  1  0  0  0  0
 20 21  2  0  0  0  0
 20 44  1  0  0  0  0
 21 22  1  0  0  0  0
 21 45  1  0  0  0  0
 22 23  2  0  0  0  0
 22 46  1  0  0  0  0
 23 24  1  0  0  0  0
 23 47  1  0  0  0  0
M  CHG  1   2   1
M  CHG  1  18   1
M  END
> <s_m_source_file>
AV-unprocessed.smi

> <i_m_source_file_index>
1669

> <i_lp_mmshare_version>
43012

> <i_f3d_flags>
0

> <s_epik_input>
W2NIXTFbY0hdW2NIXVtjSF1bY0hdYzFbQ0gyXU4oW0NIM10pW0NIMl1bQ0BIXShbT0hdKVtDSDJdbihjKG4yKVtDSDJdW09IXSljKGMyMylbY0hdW2NIXVtjSF1bY0hdMw==

> <s_epik_cmdline>
J2VwaWtfcHl0aG9uJywgJy1waCcsICc3LjAnLCAnLXRuJywgJzgnLCAnLW1hJywgJzIwMCcsICctbWV0YWxfYmluZGluZycsICctaW1hZScsICc8aW5maWxlLm1hZT4nLCAnLW9tYWUnLCAnPG91dGZpbGUubWFlPic=

> <r_epik_Ionization_Penalty>
1.57484

> <r_epik_Ionization_Penalty_Charging>
1.57398

> <r_epik_Ionization_Penalty_Neutral>
0.000858917

> <r_epik_State_Penalty>
1.64997

> <r_epik_Charging_Adjusted_Penalty>
3.22395

> <i_epik_Tot_Q>
2

> <i_epik_Tot_abs_Q>
2

> <r_epik_Metal_State_Penalty>
5.70481

> <b_epik_Metal_Only>
0

> <s_lp_Force_Field>
OPLS_2005

> <r_lp_Energy>
24.1241

> <b_lp_Chiralities_Consistent>
1

> <s_lp_Variant>
AV-unprocessed.smi:1669-7

> <Gold.Version>
5.8.1

> <Gold.Id.Protein>
6NUR|6NUR_protein|mol2

> <Gold.PLP.Fitness>
60.2418

> <Gold.PLP.PLP>
-48.7432

> <Gold.PLP.part.hbond>
-3.6774

> <Gold.PLP.part.metal>
0.0000

> <Gold.PLP.part.buried>
-7.1167

> <Gold.PLP.part.nonpolar>
-39.5681

> <Gold.PLP.part.repulsive>
0.2025

> <Gold.PLP.ligand.clash>
0.0000

> <Gold.PLP.ligand.torsion>
0.7316

> <Gold.PLP.Chemscore.Hbond>
4.2628

> <Gold.PLP.Chemscore.CHOScore>
0.0000

> <Gold.PLP.Chemscore.Metal>
0.0000

> <Gold.Chemscore.Hbonds>
donor molecule, donor type, donor heavy atom, donor atom, acceptor molecule, acceptor atom, score
      L1  H    17    43       P1  7957  1.00
      L1  H    18    49       P1  8028  1.34
      P1  H  7989  7998       L1    17  0.79
      P1  H  7997  8008       L1    12  0.91

> <Gold.PLP.Chemscore.Internal.Correction>
0.1735

> <Gold.Rescore>
     Score         DG    S(hbond)    S(metal)    S(lipo)     H(rot)  DE(clash)    DE(int)     intcor
     20.57     -21.52       3.15        0.00     118.74       3.27       0.05       0.91       ----

> <Gold.Chemscore.Fitness>
20.5700

> <Gold.Chemscore.DG>
-21.5240

> <Gold.Chemscore.ZeroCoef>
-5.4800

> <Gold.Chemscore.Hbond>
3.1521

> <Gold.Chemscore.Metal>
0.0000

> <Gold.Chemscore.Lipo>
118.7353

> <Gold.Chemscore.Internal_Hbond>
0.0000

> <Gold.Chemscore.DEClash>
0.0478

> <Gold.Chemscore.DEInternal>
0.9062

> <Gold.Chemscore.Rot>
3.2718

> <Gold.Chemscore.Internal.Correction>
   9.000000E+99

> <Gold.Chemscore.Hbonds>
donor molecule, donor type, donor heavy atom, donor atom, acceptor molecule, acceptor atom, score
      L1  H    17    43       P1  7957  0.97
      L1  H    18    49       P1  8028  0.66
      P1  H  7989  7998       L1    17  0.25
      P1  H  7997  8008       L1    12  0.85

> <Gold.Chemscore.Hbond.Weighted>
-10.5279

> <Gold.Chemscore.Metal.Weighted>
-0.0000

> <Gold.Chemscore.Lipo.Weighted>
-13.8920

> <Gold.Chemscore.Internal_Hbond.Weighted>
0.0000

> <Gold.Chemscore.DEClash.Weighted>
0.0478

> <Gold.Chemscore.DEInternal.Weighted>
0.9062

> <Gold.Chemscore.Rot.Weighted>
8.3759

> <Gold.Chemscore.Internal.Correction.Weighted>
   9.000000E+99

> <Gold.Protein.RotatedTorsions>
[ 6907 6896 6895 6894 ] final    1.61 input  -60.11 | X-H torsion
[ 7974 7965 7964 7962 ] final  -67.77 input  175.53 | X-H torsion
[ 8008 7997 7996 7995 ] final  -53.05 input   59.86 | X-H torsion
[ 10167 10162 10161 10158 ] final   -2.14 input  -65.29 | X-H torsion
[ 10718 10713 10712 10709 ] final  177.42 input   66.30 | X-H torsion
[ 10763 10752 10751 10750 ] final  124.31 input  -60.55 | X-H torsion
[ 11005 11000 10999 10996 ] final  -12.24 input  -57.11 | X-H torsion

> <Gold.Protein.ActiveResidues>
 VAL166  LYS551  ARG553  GLY616  TRP617  ASP618  TYR619  PRO620  LYS621  CYS622 
 ASP623  PHE694  ASN695  SER759  ASP760  ASP761  ALA762  ILE779  LEU786  VAL792 
 PHE793  MET794  SER795  GLU796  ALA797  LYS798  CYS799  TRP800  GLU811  SER814 

> <Gold.Protein.RotatedAtoms>
  151.5954  135.1051  160.0048 H   0  0  0  0  0  0  0  0  0  0  0  0  # atno 6907 bound_to 6896
  152.4285  133.7232  159.6556 H   0  0  0  0  0  0  0  0  0  0  0  0  # atno 6908 bound_to 6896
  150.8175  133.8239  159.3176 H   0  0  0  0  0  0  0  0  0  0  0  0  # atno 6909 bound_to 6896
  145.7250  140.9022  143.0610 H   0  0  0  0  0  0  0  0  0  0  0  0  # atno 7974 bound_to 7965
  154.4123  140.1209  156.5091 H   0  0  0  0  0  0  0  0  0  0  0  0  # atno 8008 bound_to 7997
  155.6817  140.3496  155.4839 H   0  0  0  0  0  0  0  0  0  0  0  0  # atno 8009 bound_to 7997
  155.9545  140.1111  157.0938 H   0  0  0  0  0  0  0  0  0  0  0  0  # atno 8010 bound_to 7997
  140.6839  143.6692  150.8200 H   0  0  0  0  0  0  0  0  0  0  0  0  # atno 10167 bound_to 10162
  156.9056  130.9893  151.3029 H   0  0  0  0  0  0  0  0  0  0  0  0  # atno 10718 bound_to 10713
  153.6593  135.3349  155.3122 H   0  0  0  0  0  0  0  0  0  0  0  0  # atno 10763 bound_to 10752
  154.8519  135.4360  154.1821 H   0  0  0  0  0  0  0  0  0  0  0  0  # atno 10764 bound_to 10752
  153.2784  135.7006  153.7485 H   0  0  0  0  0  0  0  0  0  0  0  0  # atno 10765 bound_to 10752
  140.7636  133.8495  155.9146 H   0  0  0  0  0  0  0  0  0  0  0  0  # atno 11005 bound_to 11000
  144.6907  139.9254  143.7469 LP  0  0  0  0  0  0  0  0  0  0  0  0  # atno 17320 bound_to 7965
  146.0590  139.3585  143.0593 LP  0  0  0  0  0  0  0  0  0  0  0  0  # atno 17321 bound_to 7965
  140.0396  143.5359  152.2724 LP  0  0  0  0  0  0  0  0  0  0  0  0  # atno 17342 bound_to 10162
  139.6182  144.7624  151.2799 LP  0  0  0  0  0  0  0  0  0  0  0  0  # atno 17343 bound_to 10162
  157.5999  130.8505  149.8787 LP  0  0  0  0  0  0  0  0  0  0  0  0  # atno 17370 bound_to 10713
  156.0561  130.3708  150.1088 LP  0  0  0  0  0  0  0  0  0  0  0  0  # atno 17371 bound_to 10713
  140.9640  134.1619  157.4631 LP  0  0  0  0  0  0  0  0  0  0  0  0  # atno 17394 bound_to 11000
  139.8767  134.9955  156.5746 LP  0  0  0  0  0  0  0  0  0  0  0  0  # atno 17395 bound_to 11000

$$$$
