AV-unprocessed.smi:1361|AV-procd|sdf|5557|dock2
  -GOLD-   22720 5153D 1   1.00000     0.00000
 Structure written by MMmdl.
 45 46  0  0  0  0  0  0  0  0  2 V2000
  150.9308  142.5666  157.4434 C   0  0  0  0  0  0  0  0  0  0  0  0
  150.9649  141.3108  156.5989 C   0  0  0  0  0  0  0  0  0  0  0  0
  149.9533  141.0163  155.8750 N   0  0  0  0  0  0  0  0  0  0  0  0
  149.9821  139.8540  155.0862 C   0  0  0  0  0  0  0  0  0  0  0  0
  148.7388  139.5885  154.2547 C   0  0  0  0  0  0  0  0  0  0  0  0
  151.0697  139.0306  155.0816 C   0  0  0  0  0  0  0  0  0  0  0  0
  151.1537  137.7605  154.2363 C   0  0  0  0  0  0  0  0  0  0  0  0
  150.8101  136.4627  154.9689 C   0  0  0  0  0  0  0  0  0  0  0  0
  151.4781  136.1061  155.9391 O   0  0  0  0  0  0  0  0  0  0  0  0
  149.7644  135.7678  154.4943 N   0  0  0  0  0  0  0  0  0  0  0  0
  149.2574  134.5091  155.0356 C   0  0  0  0  0  0  0  0  0  0  0  0
  149.5731  133.3556  154.0564 C   0  0  0  0  0  0  0  0  0  0  0  0
  148.8604  132.0268  154.3693 C   0  0  0  0  0  0  0  0  0  0  0  0
  147.8208  131.5966  153.3175 C   0  0  0  0  0  0  0  0  0  0  0  0
  146.8666  132.6860  152.7847 C   0  0  0  0  0  0  0  0  0  0  0  0
  146.0899  133.4890  153.8428 C   0  0  0  0  0  0  0  0  0  0  0  0
  146.7535  134.8102  154.2883 C   0  0  0  0  0  0  0  0  0  0  0  0
  147.7728  134.6813  155.4362 C   0  0  0  0  0  0  0  0  0  0  0  0
  152.2120  139.4019  155.9363 C   0  0  0  0  0  0  0  0  0  0  0  0
  153.2125  138.6872  155.9824 O   0  0  0  0  0  0  0  0  0  0  0  0
  152.1107  140.5506  156.6641 N   0  5  0  0  0  0  0  0  0  0  0  0
  149.9267  142.9914  157.4755 H   0  0  0  0  0  0  0  0  0  0  0  0
  151.6080  143.3149  157.0307 H   0  0  0  0  0  0  0  0  0  0  0  0
  151.2399  142.3461  158.4657 H   0  0  0  0  0  0  0  0  0  0  0  0
  148.9840  139.5564  153.1932 H   0  0  0  0  0  0  0  0  0  0  0  0
  147.9929  140.3707  154.4003 H   0  0  0  0  0  0  0  0  0  0  0  0
  148.2843  138.6392  154.5374 H   0  0  0  0  0  0  0  0  0  0  0  0
  150.4932  137.8750  153.3764 H   0  0  0  0  0  0  0  0  0  0  0  0
  152.1468  137.6501  153.8002 H   0  0  0  0  0  0  0  0  0  0  0  0
  149.2765  136.1443  153.6948 H   0  0  0  0  0  0  0  0  0  0  0  0
  149.7927  134.3040  155.9649 H   0  0  0  0  0  0  0  0  0  0  0  0
  149.3794  133.6659  153.0304 H   0  0  0  0  0  0  0  0  0  0  0  0
  150.6492  133.1785  154.0826 H   0  0  0  0  0  0  0  0  0  0  0  0
  149.6090  131.2367  154.4400 H   0  0  0  0  0  0  0  0  0  0  0  0
  148.4011  132.0495  155.3561 H   0  0  0  0  0  0  0  0  0  0  0  0
  148.3493  131.1718  152.4634 H   0  0  0  0  0  0  0  0  0  0  0  0
  147.2315  130.7777  153.7316 H   0  0  0  0  0  0  0  0  0  0  0  0
  147.3869  133.3647  152.1092 H   0  0  0  0  0  0  0  0  0  0  0  0
  146.1381  132.1791  152.1505 H   0  0  0  0  0  0  0  0  0  0  0  0
  145.1335  133.7576  153.3927 H   0  0  0  0  0  0  0  0  0  0  0  0
  145.8349  132.8636  154.6989 H   0  0  0  0  0  0  0  0  0  0  0  0
  147.1790  135.3451  153.4389 H   0  0  0  0  0  0  0  0  0  0  0  0
  145.9512  135.4525  154.6537 H   0  0  0  0  0  0  0  0  0  0  0  0
  147.4619  133.8889  156.1164 H   0  0  0  0  0  0  0  0  0  0  0  0
  147.7068  135.5865  156.0424 H   0  0  0  0  0  0  0  0  0  0  0  0
  1  2  1  0  0  0  0
  1 22  1  0  0  0  0
  1 23  1  0  0  0  0
  1 24  1  0  0  0  0
  2 21  1  0  0  0  0
  2  3  2  0  0  0  0
  3  4  1  0  0  0  0
  4  5  1  0  0  0  0
  4  6  2  0  0  0  0
  5 25  1  0  0  0  0
  5 26  1  0  0  0  0
  5 27  1  0  0  0  0
  6  7  1  0  0  0  0
  6 19  1  0  0  0  0
  7  8  1  0  0  0  0
  7 28  1  0  0  0  0
  7 29  1  0  0  0  0
  8  9  2  0  0  0  0
  8 10  1  0  0  0  0
 10 11  1  0  0  0  0
 10 30  1  0  0  0  0
 11 18  1  0  0  0  0
 11 12  1  0  0  0  0
 11 31  1  0  0  0  0
 12 13  1  0  0  0  0
 12 32  1  0  0  0  0
 12 33  1  0  0  0  0
 13 14  1  0  0  0  0
 13 34  1  0  0  0  0
 13 35  1  0  0  0  0
 14 15  1  0  0  0  0
 14 36  1  0  0  0  0
 14 37  1  0  0  0  0
 15 16  1  0  0  0  0
 15 38  1  0  0  0  0
 15 39  1  0  0  0  0
 16 17  1  0  0  0  0
 16 40  1  0  0  0  0
 16 41  1  0  0  0  0
 17 18  1  0  0  0  0
 17 42  1  0  0  0  0
 17 43  1  0  0  0  0
 18 44  1  0  0  0  0
 18 45  1  0  0  0  0
 19 20  2  0  0  0  0
 19 21  1  0  0  0  0
M  CHG  1  21  -1
M  END
> <s_m_source_file>
AV-unprocessed.smi

> <i_m_source_file_index>
1361

> <i_lp_mmshare_version>
43012

> <i_f3d_flags>
0

> <s_epik_input>
W0NIM11jMW5jKFtDSDNdKWMoYyg9TylbbkhdMSlbQ0gyXUMoPU8pW05IXVtDSF0yW0NIMl1bQ0gyXVtDSDJdW0NIMl1bQ0gyXVtDSDJdW0NIMl0y

> <s_epik_cmdline>
J2VwaWtfcHl0aG9uJywgJy1waCcsICc3LjAnLCAnLXRuJywgJzgnLCAnLW1hJywgJzIwMCcsICctbWV0YWxfYmluZGluZycsICctaW1hZScsICc8aW5maWxlLm1hZT4nLCAnLW9tYWUnLCAnPG91dGZpbGUubWFlPic=

> <r_lp_tautomer_probability>
0.839158

> <r_epik_Ionization_Penalty>
6.62804

> <r_epik_Ionization_Penalty_Charging>
7.40585e-08

> <r_epik_Ionization_Penalty_Neutral>
6.62804

> <r_epik_State_Penalty>
4.44437

> <r_epik_Charging_Adjusted_Penalty>
4.44437

> <i_epik_Tot_Q>
-1

> <i_epik_Tot_abs_Q>
1

> <r_epik_Metal_State_Penalty>
0.804717

> <b_epik_Metal_Only>
1

> <s_lp_Force_Field>
OPLS_2005

> <r_lp_Energy>
26.9664

> <b_lp_Chiralities_Consistent>
1

> <s_lp_Variant>
AV-unprocessed.smi:1361-3

> <Gold.Version>
5.8.1

> <Gold.Id.Protein>
6NUR|6NUR_protein|mol2

> <Gold.PLP.Fitness>
42.7489

> <Gold.PLP.PLP>
-34.6268

> <Gold.PLP.part.hbond>
-3.5519

> <Gold.PLP.part.metal>
0.0000

> <Gold.PLP.part.buried>
-0.6891

> <Gold.PLP.part.nonpolar>
-31.3255

> <Gold.PLP.part.repulsive>
0.1693

> <Gold.PLP.ligand.clash>
0.0000

> <Gold.PLP.ligand.torsion>
0.3771

> <Gold.PLP.Chemscore.Hbond>
2.9420

> <Gold.PLP.Chemscore.CHOScore>
0.0000

> <Gold.PLP.Chemscore.Metal>
0.0000

> <Gold.Chemscore.Hbonds>
donor molecule, donor type, donor heavy atom, donor atom, acceptor molecule, acceptor atom, score
      L1  H    10    30       P1  7948  1.00
      P1  H  7997  8008       L1    20  0.68
      P1  H 10752 10763       L1     9  0.95

> <Gold.PLP.Chemscore.Internal.Correction>
0.0503

> <Gold.Rescore>
     Score         DG    S(hbond)    S(metal)    S(lipo)     H(rot)  DE(clash)    DE(int)     intcor
     17.49     -18.11       2.47        0.00      68.92       1.43       0.18       0.44       ----

> <Gold.Chemscore.Fitness>
17.4884

> <Gold.Chemscore.DG>
-18.1095

> <Gold.Chemscore.ZeroCoef>
-5.4800

> <Gold.Chemscore.Hbond>
2.4662

> <Gold.Chemscore.Metal>
0.0000

> <Gold.Chemscore.Lipo>
68.9165

> <Gold.Chemscore.Internal_Hbond>
0.0000

> <Gold.Chemscore.DEClash>
0.1838

> <Gold.Chemscore.DEInternal>
0.4373

> <Gold.Chemscore.Rot>
1.4339

> <Gold.Chemscore.Internal.Correction>
   9.000000E+99

> <Gold.Chemscore.Hbonds>
donor molecule, donor type, donor heavy atom, donor atom, acceptor molecule, acceptor atom, score
      L1  H    10    30       P1  7948  0.81
      P1  H  7997  8008       L1    20  0.07
      P1  H 10752 10763       L1     9  0.21

> <Gold.Chemscore.Hbond.Weighted>
-8.2370

> <Gold.Chemscore.Metal.Weighted>
-0.0000

> <Gold.Chemscore.Lipo.Weighted>
-8.0632

> <Gold.Chemscore.Internal_Hbond.Weighted>
0.0000

> <Gold.Chemscore.DEClash.Weighted>
0.1838

> <Gold.Chemscore.DEInternal.Weighted>
0.4373

> <Gold.Chemscore.Rot.Weighted>
3.6708

> <Gold.Chemscore.Internal.Correction.Weighted>
   9.000000E+99

> <Gold.Protein.RotatedTorsions>
[ 6907 6896 6895 6894 ] final -151.08 input  -60.11 | X-H torsion
[ 7974 7965 7964 7962 ] final   24.98 input  175.53 | X-H torsion
[ 8008 7997 7996 7995 ] final  -48.68 input   59.86 | X-H torsion
[ 10167 10162 10161 10158 ] final   64.10 input  -65.29 | X-H torsion
[ 10718 10713 10712 10709 ] final  166.65 input   66.30 | X-H torsion
[ 10763 10752 10751 10750 ] final   85.25 input  -60.55 | X-H torsion
[ 11005 11000 10999 10996 ] final   59.65 input  -57.11 | X-H torsion

> <Gold.Protein.ActiveResidues>
 VAL166  LYS551  ARG553  GLY616  TRP617  ASP618  TYR619  PRO620  LYS621  CYS622 
 ASP623  PHE694  ASN695  SER759  ASP760  ASP761  ALA762  ILE779  LEU786  VAL792 
 PHE793  MET794  SER795  GLU796  ALA797  LYS798  CYS799  TRP800  GLU811  SER814 

> <Gold.Protein.RotatedAtoms>
  151.2079  133.4573  159.2597 H   0  0  0  0  0  0  0  0  0  0  0  0  # atno 6907 bound_to 6896
  151.1005  134.9969  159.8456 H   0  0  0  0  0  0  0  0  0  0  0  0  # atno 6908 bound_to 6896
  152.5443  134.2006  159.8763 H   0  0  0  0  0  0  0  0  0  0  0  0  # atno 6909 bound_to 6896
  146.1911  139.7529  142.8831 H   0  0  0  0  0  0  0  0  0  0  0  0  # atno 7974 bound_to 7965
  154.4032  140.1315  156.4379 H   0  0  0  0  0  0  0  0  0  0  0  0  # atno 8008 bound_to 7997
  155.7487  140.3488  155.5120 H   0  0  0  0  0  0  0  0  0  0  0  0  # atno 8009 bound_to 7997
  155.8970  140.1013  157.1368 H   0  0  0  0  0  0  0  0  0  0  0  0  # atno 8010 bound_to 7997
  140.1258  144.4689  150.6893 H   0  0  0  0  0  0  0  0  0  0  0  0  # atno 10167 bound_to 10162
  157.0628  131.0344  151.2640 H   0  0  0  0  0  0  0  0  0  0  0  0  # atno 10718 bound_to 10713
  153.1457  135.4624  154.9563 H   0  0  0  0  0  0  0  0  0  0  0  0  # atno 10763 bound_to 10752
  154.7784  135.3180  154.8044 H   0  0  0  0  0  0  0  0  0  0  0  0  # atno 10764 bound_to 10752
  153.8559  135.6917  153.4842 H   0  0  0  0  0  0  0  0  0  0  0  0  # atno 10765 bound_to 10752
  140.0288  134.6043  155.9535 H   0  0  0  0  0  0  0  0  0  0  0  0  # atno 11005 bound_to 11000
  145.3789  141.0355  143.3189 LP  0  0  0  0  0  0  0  0  0  0  0  0  # atno 17320 bound_to 7965
  144.8489  139.5353  143.6866 LP  0  0  0  0  0  0  0  0  0  0  0  0  # atno 17321 bound_to 7965
  140.6845  143.2343  151.5296 LP  0  0  0  0  0  0  0  0  0  0  0  0  # atno 17342 bound_to 10162
  139.5545  144.2311  152.1588 LP  0  0  0  0  0  0  0  0  0  0  0  0  # atno 17343 bound_to 10162
  157.4941  130.7840  149.7537 LP  0  0  0  0  0  0  0  0  0  0  0  0  # atno 17370 bound_to 10713
  155.9973  130.3900  150.2744 LP  0  0  0  0  0  0  0  0  0  0  0  0  # atno 17371 bound_to 10713
  141.1819  133.6548  156.5054 LP  0  0  0  0  0  0  0  0  0  0  0  0  # atno 17394 bound_to 11000
  140.4261  134.7144  157.4916 LP  0  0  0  0  0  0  0  0  0  0  0  0  # atno 17395 bound_to 11000

$$$$
