AV-unprocessed.smi:705|AV-procd|sdf|3451|dock10
  -GOLD-   22720 0433D 1   1.00000     0.00000
 Structure written by MMmdl.
 28 29  0  0  0  0  0  0  0  0  3 V2000
  152.4832  138.3081  154.9670 N   0  0  0  0  0  0  0  0  0  0  0  0
  151.6729  139.3417  155.2076 C   0  0  0  0  0  0  0  0  0  0  0  0
  150.7923  139.6992  154.4271 O   0  0  0  0  0  0  0  0  0  0  0  0
  151.9038  140.0501  156.5088 C   0  0  0  0  0  0  0  0  0  0  0  0
  151.2019  141.2161  156.9073 C   0  0  0  0  0  0  0  0  0  0  0  0
  151.8392  141.4208  158.1860 C   0  0  0  0  0  0  0  0  0  0  0  0
  151.4016  142.6161  159.0103 C   0  0  1  0  0  0  0  0  0  0  0  0
  152.6062  143.4405  159.5003 C   0  0  0  0  0  0  0  0  0  0  0  0
  152.1305  144.6676  160.2929 C   0  0  0  0  0  0  0  0  0  0  0  0
  151.1334  145.5004  159.4698 C   0  0  0  0  0  0  0  0  0  0  0  0
  149.9937  144.6671  159.0287 N   0  3  0  0  0  0  0  0  0  0  0  0
  150.4113  143.4978  158.2255 C   0  0  0  0  0  0  0  0  0  0  0  0
  152.7696  140.4881  158.4630 N   0  0  0  0  0  0  0  0  0  0  0  0
  152.8017  139.6606  157.4330 N   0  5  0  0  0  0  0  0  0  0  0  0
  152.3953  137.7777  154.1137 H   0  0  0  0  0  0  0  0  0  0  0  0
  153.1835  138.0715  155.6559 H   0  0  0  0  0  0  0  0  0  0  0  0
  150.4274  141.7795  156.4016 H   0  0  0  0  0  0  0  0  0  0  0  0
  150.8807  142.2375  159.8916 H   0  0  0  0  0  0  0  0  0  0  0  0
  153.2600  142.8251  160.1194 H   0  0  0  0  0  0  0  0  0  0  0  0
  153.2025  143.7683  158.6474 H   0  0  0  0  0  0  0  0  0  0  0  0
  151.6595  144.3430  161.2218 H   0  0  0  0  0  0  0  0  0  0  0  0
  152.9853  145.2820  160.5775 H   0  0  0  0  0  0  0  0  0  0  0  0
  150.7570  146.3345  160.0625 H   0  0  0  0  0  0  0  0  0  0  0  0
  151.6261  145.9269  158.5948 H   0  0  0  0  0  0  0  0  0  0  0  0
  149.5026  144.3340  159.8459 H   0  0  0  0  0  0  0  0  0  0  0  0
  150.8641  143.8486  157.2968 H   0  0  0  0  0  0  0  0  0  0  0  0
  149.5261  142.9233  157.9507 H   0  0  0  0  0  0  0  0  0  0  0  0
  149.3650  145.2337  158.4774 H   0  0  0  0  0  0  0  0  0  0  0  0
  1  2  1  0  0  0  0
  1 15  1  0  0  0  0
  1 16  1  0  0  0  0
  2  3  2  0  0  0  0
  2  4  1  0  0  0  0
  4 14  1  0  0  0  0
  4  5  2  0  0  0  0
  5  6  1  0  0  0  0
  5 17  1  0  0  0  0
  6  7  1  0  0  0  0
  6 13  2  0  0  0  0
  7 12  1  0  0  0  0
  7  8  1  0  0  0  0
  7 18  1  0  0  0  0
  8  9  1  0  0  0  0
  8 19  1  0  0  0  0
  8 20  1  0  0  0  0
  9 10  1  0  0  0  0
  9 21  1  0  0  0  0
  9 22  1  0  0  0  0
 10 11  1  0  0  0  0
 10 23  1  0  0  0  0
 10 24  1  0  0  0  0
 11 12  1  0  0  0  0
 11 25  1  0  0  0  0
 11 28  1  0  0  0  0
 12 26  1  0  0  0  0
 12 27  1  0  0  0  0
 13 14  1  0  0  0  0
M  CHG  1  11   1
M  CHG  1  14  -1
M  END
> <s_m_source_file>
AV-unprocessed.smi

> <i_m_source_file_index>
705

> <i_lp_mmshare_version>
43012

> <i_f3d_flags>
0

> <s_epik_input>
W05IMl1DKD1PKWMxW2NIXWMoW25IXW4xKVtDQEBIXTJbQ0gyXVtDSDJdW0NIMl1bTkhdW0NIMl0y

> <s_epik_cmdline>
J2VwaWtfcHl0aG9uJywgJy1waCcsICc3LjAnLCAnLXRuJywgJzgnLCAnLW1hJywgJzIwMCcsICctbWV0YWxfYmluZGluZycsICctaW1hZScsICc8aW5maWxlLm1hZT4nLCAnLW9tYWUnLCAnPG91dGZpbGUubWFlPic=

> <r_lp_tautomer_probability>
0.5

> <r_epik_Ionization_Penalty>
8.1602

> <r_epik_Ionization_Penalty_Charging>
5.25561

> <r_epik_Ionization_Penalty_Neutral>
2.90459

> <r_epik_State_Penalty>
5.66605

> <r_epik_Charging_Adjusted_Penalty>
10.9217

> <i_epik_Tot_Q>
0

> <i_epik_Tot_abs_Q>
2

> <r_epik_Metal_State_Penalty>
1.68656

> <b_epik_Metal_Only>
1

> <s_lp_Force_Field>
OPLS_2005

> <r_lp_Energy>
5.1844

> <b_lp_Chiralities_Consistent>
1

> <s_lp_Variant>
AV-unprocessed.smi:705-6

> <Gold.Version>
5.8.1

> <Gold.Id.Protein>
6NUR|6NUR_protein|mol2

> <Gold.PLP.Fitness>
43.2791

> <Gold.PLP.PLP>
-28.5423

> <Gold.PLP.part.hbond>
-3.4399

> <Gold.PLP.part.metal>
0.0000

> <Gold.PLP.part.buried>
-3.0639

> <Gold.PLP.part.nonpolar>
-22.0889

> <Gold.PLP.part.repulsive>
0.5077

> <Gold.PLP.ligand.clash>
0.0000

> <Gold.PLP.ligand.torsion>
0.1422

> <Gold.PLP.Chemscore.Hbond>
5.0000

> <Gold.PLP.Chemscore.CHOScore>
0.0000

> <Gold.PLP.Chemscore.Metal>
0.0000

> <Gold.Chemscore.Hbonds>
donor molecule, donor type, donor heavy atom, donor atom, acceptor molecule, acceptor atom, score
      L1  H    11    28       P1  8029  2.00
      P1  H  7989  7998       L1     3  1.00
      P1  H  7997  8008       L1    14  2.00

> <Gold.PLP.Chemscore.Internal.Correction>
0.0211

> <Gold.Rescore>
     Score         DG    S(hbond)    S(metal)    S(lipo)     H(rot)  DE(clash)    DE(int)     intcor
     18.27     -18.51       2.11        0.00      73.09       1.00       0.09       0.14       ----

> <Gold.Chemscore.Fitness>
18.2730

> <Gold.Chemscore.DG>
-18.5068

> <Gold.Chemscore.ZeroCoef>
-5.4800

> <Gold.Chemscore.Hbond>
2.1063

> <Gold.Chemscore.Metal>
0.0000

> <Gold.Chemscore.Lipo>
73.0920

> <Gold.Chemscore.Internal_Hbond>
0.0000

> <Gold.Chemscore.DEClash>
0.0898

> <Gold.Chemscore.DEInternal>
0.1441

> <Gold.Chemscore.Rot>
1.0000

> <Gold.Chemscore.Internal.Correction>
   9.000000E+99

> <Gold.Chemscore.Hbonds>
donor molecule, donor type, donor heavy atom, donor atom, acceptor molecule, acceptor atom, score
      L1  H    11    28       P1  8029  0.78
      P1  H  7989  7998       L1     3  0.30
      P1  H  7997  8008       L1    14  0.15

> <Gold.Chemscore.Hbond.Weighted>
-7.0351

> <Gold.Chemscore.Metal.Weighted>
-0.0000

> <Gold.Chemscore.Lipo.Weighted>
-8.5518

> <Gold.Chemscore.Internal_Hbond.Weighted>
0.0000

> <Gold.Chemscore.DEClash.Weighted>
0.0898

> <Gold.Chemscore.DEInternal.Weighted>
0.1441

> <Gold.Chemscore.Rot.Weighted>
2.5600

> <Gold.Chemscore.Internal.Correction.Weighted>
   9.000000E+99

> <Gold.Protein.RotatedTorsions>
[ 6907 6896 6895 6894 ] final   55.64 input  -60.11 | X-H torsion
[ 7974 7965 7964 7962 ] final  118.74 input  175.53 | X-H torsion
[ 8008 7997 7996 7995 ] final  -64.83 input   59.86 | X-H torsion
[ 10167 10162 10161 10158 ] final   -5.35 input  -65.29 | X-H torsion
[ 10718 10713 10712 10709 ] final -143.63 input   66.30 | X-H torsion
[ 10763 10752 10751 10750 ] final  -47.01 input  -60.55 | X-H torsion
[ 11005 11000 10999 10996 ] final  128.34 input  -57.11 | X-H torsion

> <Gold.Protein.ActiveResidues>
 VAL166  LYS551  ARG553  GLY616  TRP617  ASP618  TYR619  PRO620  LYS621  CYS622 
 ASP623  PHE694  ASN695  SER759  ASP760  ASP761  ALA762  ILE779  LEU786  VAL792 
 PHE793  MET794  SER795  GLU796  ALA797  LYS798  CYS799  TRP800  GLU811  SER814 

> <Gold.Protein.RotatedAtoms>
  152.3558  134.6942  160.0222 H   0  0  0  0  0  0  0  0  0  0  0  0  # atno 6907 bound_to 6896
  151.7281  133.3311  159.3341 H   0  0  0  0  0  0  0  0  0  0  0  0  # atno 6908 bound_to 6896
  150.7571  134.6322  159.6237 H   0  0  0  0  0  0  0  0  0  0  0  0  # atno 6909 bound_to 6896
  145.1515  139.3207  143.4564 H   0  0  0  0  0  0  0  0  0  0  0  0  # atno 7974 bound_to 7965
  154.4635  140.0946  156.6957 H   0  0  0  0  0  0  0  0  0  0  0  0  # atno 8008 bound_to 7997
  155.4926  140.3471  155.4339 H   0  0  0  0  0  0  0  0  0  0  0  0  # atno 8009 bound_to 7997
  156.0913  140.1398  156.9576 H   0  0  0  0  0  0  0  0  0  0  0  0  # atno 8010 bound_to 7997
  140.6960  143.6319  150.8515 H   0  0  0  0  0  0  0  0  0  0  0  0  # atno 10167 bound_to 10162
  156.3602  130.7734  151.1901 H   0  0  0  0  0  0  0  0  0  0  0  0  # atno 10718 bound_to 10713
  154.0544  135.6627  153.4804 H   0  0  0  0  0  0  0  0  0  0  0  0  # atno 10763 bound_to 10752
  153.0451  135.5120  154.7720 H   0  0  0  0  0  0  0  0  0  0  0  0  # atno 10764 bound_to 10752
  154.6736  135.3033  154.9675 H   0  0  0  0  0  0  0  0  0  0  0  0  # atno 10765 bound_to 10752
  139.9556  134.9613  156.8988 H   0  0  0  0  0  0  0  0  0  0  0  0  # atno 11005 bound_to 11000
  146.3494  140.1591  142.8591 LP  0  0  0  0  0  0  0  0  0  0  0  0  # atno 17320 bound_to 7965
  145.0426  140.8957  143.5043 LP  0  0  0  0  0  0  0  0  0  0  0  0  # atno 17321 bound_to 7965
  140.0037  143.5717  152.2866 LP  0  0  0  0  0  0  0  0  0  0  0  0  # atno 17342 bound_to 10162
  139.6416  144.7655  151.2328 LP  0  0  0  0  0  0  0  0  0  0  0  0  # atno 17343 bound_to 10162
  157.7472  131.0402  150.4587 LP  0  0  0  0  0  0  0  0  0  0  0  0  # atno 17370 bound_to 10713
  156.4796  130.4071  149.6469 LP  0  0  0  0  0  0  0  0  0  0  0  0  # atno 17371 bound_to 10713
  140.5618  134.0528  155.7401 LP  0  0  0  0  0  0  0  0  0  0  0  0  # atno 17394 bound_to 11000
  141.1226  133.9436  157.2699 LP  0  0  0  0  0  0  0  0  0  0  0  0  # atno 17395 bound_to 11000

$$$$
