AV-unprocessed.smi:232|AV-procd|sdf|1772|dock1
  -GOLD-   2262020313D 1   1.00000     0.00000
 Structure written by MMmdl.
 52 55  0  0  0  0  0  0  0  0  1 V2000
  154.8025  140.0501  160.9712 C   0  0  0  0  0  0  0  0  0  0  0  0
  154.2077  139.8955  159.5659 C   0  0  0  0  0  0  0  0  0  0  0  0
  152.7811  140.4722  159.4436 C   0  0  1  0  0  0  0  0  0  0  0  0
  152.6213  141.8688  160.0649 C   0  0  0  0  0  0  0  0  0  0  0  0
  151.5928  142.5823  159.1792 C   0  0  0  0  0  0  0  0  0  0  0  0
  151.1947  141.5360  158.1335 C   0  0  1  0  0  0  0  0  0  0  0  0
  150.8195  142.1413  156.7712 C   0  0  0  0  0  0  0  0  0  0  0  0
  152.3384  140.6338  158.0629 N   0  0  0  0  0  0  0  0  0  0  0  0
  152.1525  139.4759  157.3856 C   0  0  0  0  0  0  0  0  0  0  0  0
  152.8597  139.2146  156.2540 N   0  0  0  0  0  0  0  0  0  0  0  0
  152.6547  138.0742  155.5873 C   0  0  0  0  0  0  0  0  0  0  0  0
  151.8061  137.0823  155.8688 N   0  0  0  0  0  0  0  0  0  0  0  0
  151.0950  137.3464  157.0028 C   0  0  0  0  0  0  0  0  0  0  0  0
  151.2068  138.5089  157.8148 C   0  0  0  0  0  0  0  0  0  0  0  0
  150.3252  138.4322  158.8853 N   0  0  0  0  0  0  0  0  0  0  0  0
  149.7207  137.2880  158.7139 C   0  0  0  0  0  0  0  0  0  0  0  0
  150.1199  136.5728  157.6074 N   0  0  0  0  0  0  0  0  0  0  0  0
  149.6062  135.2839  157.1791 C   0  0  0  0  0  0  0  0  0  0  0  0
  148.6266  135.4094  155.9953 C   0  0  1  0  0  0  0  0  0  0  0  0
  149.2787  136.0529  154.9166 O   0  0  0  0  0  0  0  0  0  0  0  0
  148.1017  134.0419  155.5196 C   0  0  2  0  0  0  0  0  0  0  0  0
  149.1972  133.0561  155.1042 C   0  0  0  0  0  0  0  0  0  0  0  0
  148.4600  132.1651  154.1320 C   0  0  0  0  0  0  0  0  0  0  0  0
  147.5821  133.1750  153.4021 C   0  0  0  0  0  0  0  0  0  0  0  0
  147.2946  134.1975  154.3523 O   0  0  0  0  0  0  0  0  0  0  0  0
  155.7945  139.6013  161.0224 H   0  0  0  0  0  0  0  0  0  0  0  0
  154.1778  139.5602  161.7185 H   0  0  0  0  0  0  0  0  0  0  0  0
  154.9014  141.0990  161.2509 H   0  0  0  0  0  0  0  0  0  0  0  0
  154.8633  140.3725  158.8362 H   0  0  0  0  0  0  0  0  0  0  0  0
  154.2007  138.8336  159.3187 H   0  0  0  0  0  0  0  0  0  0  0  0
  152.0851  139.7935  159.9410 H   0  0  0  0  0  0  0  0  0  0  0  0
  152.2985  141.8066  161.1046 H   0  0  0  0  0  0  0  0  0  0  0  0
  153.5628  142.4193  160.0433 H   0  0  0  0  0  0  0  0  0  0  0  0
  150.7302  142.9368  159.7439 H   0  0  0  0  0  0  0  0  0  0  0  0
  152.0582  143.4481  158.7060 H   0  0  0  0  0  0  0  0  0  0  0  0
  150.3347  140.9882  158.5223 H   0  0  0  0  0  0  0  0  0  0  0  0
  149.9955  142.8478  156.8737 H   0  0  0  0  0  0  0  0  0  0  0  0
  150.5048  141.3703  156.0672 H   0  0  0  0  0  0  0  0  0  0  0  0
  151.6624  142.6730  156.3282 H   0  0  0  0  0  0  0  0  0  0  0  0
  153.2563  137.9374  154.7009 H   0  0  0  0  0  0  0  0  0  0  0  0
  148.9576  136.9330  159.3915 H   0  0  0  0  0  0  0  0  0  0  0  0
  150.4462  134.6389  156.9177 H   0  0  0  0  0  0  0  0  0  0  0  0
  149.1113  134.8183  158.0321 H   0  0  0  0  0  0  0  0  0  0  0  0
  147.7815  136.0316  156.2935 H   0  0  0  0  0  0  0  0  0  0  0  0
  148.8497  135.8008  154.1131 H   0  0  0  0  0  0  0  0  0  0  0  0
  147.4812  133.5830  156.2915 H   0  0  0  0  0  0  0  0  0  0  0  0
  150.0087  133.5738  154.5905 H   0  0  0  0  0  0  0  0  0  0  0  0
  149.6210  132.5100  155.9477 H   0  0  0  0  0  0  0  0  0  0  0  0
  149.1226  131.6130  153.4651 H   0  0  0  0  0  0  0  0  0  0  0  0
  147.8415  131.4485  154.6746 H   0  0  0  0  0  0  0  0  0  0  0  0
  148.1276  133.6211  152.5695 H   0  0  0  0  0  0  0  0  0  0  0  0
  146.6698  132.7266  153.0080 H   0  0  0  0  0  0  0  0  0  0  0  0
  1  2  1  0  0  0  0
  1 26  1  0  0  0  0
  1 27  1  0  0  0  0
  1 28  1  0  0  0  0
  2  3  1  0  0  0  0
  2 29  1  0  0  0  0
  2 30  1  0  0  0  0
  3  8  1  0  0  0  0
  3  4  1  0  0  0  0
  3 31  1  0  0  0  0
  4  5  1  0  0  0  0
  4 32  1  0  0  0  0
  4 33  1  0  0  0  0
  5  6  1  0  0  0  0
  5 34  1  0  0  0  0
  5 35  1  0  0  0  0
  6  7  1  0  0  0  0
  6  8  1  0  0  0  0
  6 36  1  0  0  0  0
  7 37  1  0  0  0  0
  7 38  1  0  0  0  0
  7 39  1  0  0  0  0
  8  9  1  0  0  0  0
  9 14  1  0  0  0  0
  9 10  2  0  0  0  0
 10 11  1  0  0  0  0
 11 12  2  0  0  0  0
 11 40  1  0  0  0  0
 12 13  1  0  0  0  0
 13 17  1  0  0  0  0
 13 14  2  0  0  0  0
 14 15  1  0  0  0  0
 15 16  2  0  0  0  0
 16 17  1  0  0  0  0
 16 41  1  0  0  0  0
 17 18  1  0  0  0  0
 18 19  1  0  0  0  0
 18 42  1  0  0  0  0
 18 43  1  0  0  0  0
 19 20  1  0  0  0  0
 19 21  1  0  0  0  0
 19 44  1  0  0  0  0
 20 45  1  0  0  0  0
 21 25  1  0  0  0  0
 21 22  1  0  0  0  0
 21 46  1  0  0  0  0
 22 23  1  0  0  0  0
 22 47  1  0  0  0  0
 22 48  1  0  0  0  0
 23 24  1  0  0  0  0
 23 49  1  0  0  0  0
 23 50  1  0  0  0  0
 24 25  1  0  0  0  0
 24 51  1  0  0  0  0
 24 52  1  0  0  0  0
M  END
> <s_m_source_file>
AV-unprocessed.smi

> <i_m_source_file_index>
232

> <i_lp_mmshare_version>
43012

> <i_f3d_flags>
0

> <s_epik_input>
W0NIM11bQ0gyXVtDQEBIXTFbQ0gyXVtDSDJdW0NAQEhdKFtDSDNdKU4xYyhuW2NIXW4yKWMoYzIzKW5bY0hdbjNbQ0gyXVtDQEhdKFtPSF0pW0NAQEhdNFtDSDJdW0NIMl1bQ0gyXU80

> <s_epik_cmdline>
J2VwaWtfcHl0aG9uJywgJy1waCcsICc3LjAnLCAnLXRuJywgJzgnLCAnLW1hJywgJzIwMCcsICctbWV0YWxfYmluZGluZycsICctaW1hZScsICc8aW5maWxlLm1hZT4nLCAnLW9tYWUnLCAnPG91dGZpbGUubWFlPic=

> <r_lp_tautomer_probability>
1

> <r_epik_Ionization_Penalty>
0.00258048

> <r_epik_Ionization_Penalty_Charging>
0

> <r_epik_Ionization_Penalty_Neutral>
0.00258048

> <r_epik_State_Penalty>
0.00168551

> <r_epik_Charging_Adjusted_Penalty>
0.00168551

> <i_epik_Tot_Q>
0

> <i_epik_Tot_abs_Q>
0

> <r_epik_Metal_State_Penalty>
-0

> <b_epik_Metal_Only>
0

> <s_lp_Force_Field>
OPLS_2005

> <r_lp_Energy>
51.197

> <b_lp_Chiralities_Consistent>
1

> <s_lp_Variant>
AV-unprocessed.smi:232-6

> <Gold.Version>
5.8.1

> <Gold.Id.Protein>
6NUR|6NUR_protein|mol2

> <Gold.PLP.Fitness>
45.8212

> <Gold.PLP.PLP>
-37.8028

> <Gold.PLP.part.hbond>
-3.0695

> <Gold.PLP.part.metal>
0.0000

> <Gold.PLP.part.buried>
-5.2731

> <Gold.PLP.part.nonpolar>
-30.5438

> <Gold.PLP.part.repulsive>
0.3758

> <Gold.PLP.ligand.clash>
0.0000

> <Gold.PLP.ligand.torsion>
0.3577

> <Gold.PLP.Chemscore.Hbond>
2.8880

> <Gold.PLP.Chemscore.CHOScore>
0.0000

> <Gold.PLP.Chemscore.Metal>
0.0000

> <Gold.Chemscore.Hbonds>
donor molecule, donor type, donor heavy atom, donor atom, acceptor molecule, acceptor atom, score
      L1  H    20    45       P1  7948  0.31
      P1  H  7997  8009       L1    10  1.00
      P1  H 10752 10765       L1    12  0.39

> <Gold.PLP.Chemscore.Internal.Correction>
0.0698

> <Gold.Rescore>
     Score         DG    S(hbond)    S(metal)    S(lipo)     H(rot)  DE(clash)    DE(int)     intcor
     15.90     -16.44       2.23        0.00      83.20       2.43       0.07       0.48       ----

> <Gold.Chemscore.Fitness>
15.8977

> <Gold.Chemscore.DG>
-16.4426

> <Gold.Chemscore.ZeroCoef>
-5.4800

> <Gold.Chemscore.Hbond>
2.2273

> <Gold.Chemscore.Metal>
0.0000

> <Gold.Chemscore.Lipo>
83.1968

> <Gold.Chemscore.Internal_Hbond>
0.0000

> <Gold.Chemscore.DEClash>
0.0680

> <Gold.Chemscore.DEInternal>
0.4769

> <Gold.Chemscore.Rot>
2.4260

> <Gold.Chemscore.Internal.Correction>
   9.000000E+99

> <Gold.Chemscore.Hbonds>
donor molecule, donor type, donor heavy atom, donor atom, acceptor molecule, acceptor atom, score
      L1  H    20    45       P1  7948  0.30
      P1  H  7997  8009       L1    10  0.30
      P1  H 10752 10765       L1    12  0.04

> <Gold.Chemscore.Hbond.Weighted>
-7.4392

> <Gold.Chemscore.Metal.Weighted>
-0.0000

> <Gold.Chemscore.Lipo.Weighted>
-9.7340

> <Gold.Chemscore.Internal_Hbond.Weighted>
0.0000

> <Gold.Chemscore.DEClash.Weighted>
0.0680

> <Gold.Chemscore.DEInternal.Weighted>
0.4769

> <Gold.Chemscore.Rot.Weighted>
6.2107

> <Gold.Chemscore.Internal.Correction.Weighted>
   9.000000E+99

> <Gold.Protein.RotatedTorsions>
[ 6907 6896 6895 6894 ] final  167.14 input  -60.11 | X-H torsion
[ 7974 7965 7964 7962 ] final -126.51 input  175.53 | X-H torsion
[ 8008 7997 7996 7995 ] final -179.82 input   59.86 | X-H torsion
[ 10167 10162 10161 10158 ] final  -46.01 input  -65.29 | X-H torsion
[ 10718 10713 10712 10709 ] final   84.43 input   66.30 | X-H torsion
[ 10763 10752 10751 10750 ] final -167.97 input  -60.55 | X-H torsion
[ 11005 11000 10999 10996 ] final  124.88 input  -57.11 | X-H torsion

> <Gold.Protein.ActiveResidues>
 VAL166  LYS551  ARG553  GLY616  TRP617  ASP618  TYR619  PRO620  LYS621  CYS622 
 ASP623  PHE694  ASN695  SER759  ASP760  ASP761  ALA762  ILE779  LEU786  VAL792 
 PHE793  MET794  SER795  GLU796  ALA797  LYS798  CYS799  TRP800  GLU811  SER814 

> <Gold.Protein.RotatedAtoms>
  151.8680  133.3470  159.3725 H   0  0  0  0  0  0  0  0  0  0  0  0  # atno 6907 bound_to 6896
  150.7160  134.5140  159.5631 H   0  0  0  0  0  0  0  0  0  0  0  0  # atno 6908 bound_to 6896
  152.2667  134.7977  160.0472 H   0  0  0  0  0  0  0  0  0  0  0  0  # atno 6909 bound_to 6896
  144.9865  140.7691  143.4580 H   0  0  0  0  0  0  0  0  0  0  0  0  # atno 7974 bound_to 7965
  156.0349  140.1290  157.0218 H   0  0  0  0  0  0  0  0  0  0  0  0  # atno 8008 bound_to 7997
  154.4366  140.1042  156.6224 H   0  0  0  0  0  0  0  0  0  0  0  0  # atno 8009 bound_to 7997
  155.5752  140.3467  155.4528 H   0  0  0  0  0  0  0  0  0  0  0  0  # atno 8010 bound_to 7997
  140.6835  143.2851  151.3721 H   0  0  0  0  0  0  0  0  0  0  0  0  # atno 10167 bound_to 10162
  157.6898  131.0133  150.2671 H   0  0  0  0  0  0  0  0  0  0  0  0  # atno 10718 bound_to 10713
  154.6677  135.2934  154.9783 H   0  0  0  0  0  0  0  0  0  0  0  0  # atno 10763 bound_to 10752
  154.0821  135.6603  153.4843 H   0  0  0  0  0  0  0  0  0  0  0  0  # atno 10764 bound_to 10752
  153.0467  135.5200  154.7658 H   0  0  0  0  0  0  0  0  0  0  0  0  # atno 10765 bound_to 10752
  139.9380  134.9638  156.8475 H   0  0  0  0  0  0  0  0  0  0  0  0  # atno 11005 bound_to 11000
  145.2346  139.2099  143.5024 LP  0  0  0  0  0  0  0  0  0  0  0  0  # atno 17320 bound_to 7965
  146.3421  140.2230  142.8592 LP  0  0  0  0  0  0  0  0  0  0  0  0  # atno 17321 bound_to 7965
  139.6175  144.0974  152.2359 LP  0  0  0  0  0  0  0  0  0  0  0  0  # atno 17342 bound_to 10162
  140.0407  144.6009  150.7413 LP  0  0  0  0  0  0  0  0  0  0  0  0  # atno 17343 bound_to 10162
  156.3240  130.3790  149.7549 LP  0  0  0  0  0  0  0  0  0  0  0  0  # atno 17370 bound_to 10713
  156.5110  130.8172  151.3169 LP  0  0  0  0  0  0  0  0  0  0  0  0  # atno 17371 bound_to 10713
  140.6026  134.0158  155.7543 LP  0  0  0  0  0  0  0  0  0  0  0  0  # atno 17394 bound_to 11000
  141.1002  133.9780  157.3092 LP  0  0  0  0  0  0  0  0  0  0  0  0  # atno 17395 bound_to 11000

$$$$
