AV-unprocessed.smi:1640|AV-procd|sdf|6554|dock9
  -GOLD-   22720 7233D 1   1.00000     0.00000
 Structure written by MMmdl.
 47 48  0  0  0  0  0  0  0  0  1 V2000
  151.9879  143.2752  161.0506 C   0  0  0  0  0  0  0  0  0  0  0  0
  152.2053  143.5317  159.5501 C   0  0  0  0  0  0  0  0  0  0  0  0
  151.6666  144.9164  159.1599 C   0  0  0  0  0  0  0  0  0  0  0  0
  151.5761  142.4342  158.6688 C   0  0  0  0  0  0  0  0  0  0  0  0
  151.8699  141.0037  159.1457 C   0  0  0  0  0  0  0  0  0  0  0  0
  151.6597  139.8007  157.7687 S   0  0  0  0  0  0  0  0  0  0  0  0
  152.4566  140.2593  156.6204 O   0  0  0  0  0  0  0  0  0  0  0  0
  151.8437  138.4379  158.2896 O   0  0  0  0  0  0  0  0  0  0  0  0
  149.9975  139.9823  157.3567 N   0  0  0  0  0  0  0  0  0  0  0  0
  149.5690  141.2265  156.7200 C   0  0  0  0  0  0  0  0  0  0  0  0
  148.6285  140.9882  155.5484 C   0  0  0  0  0  0  0  0  0  0  0  0
  147.5276  141.8491  155.3534 C   0  0  0  0  0  0  0  0  0  0  0  0
  146.6560  141.6153  154.2743 C   0  0  0  0  0  0  0  0  0  0  0  0
  146.9191  140.5214  153.4296 C   0  0  0  0  0  0  0  0  0  0  0  0
  147.9663  139.6888  153.6035 N   0  0  0  0  0  0  0  0  0  0  0  0
  148.8099  139.9114  154.6408 C   0  0  0  0  0  0  0  0  0  0  0  0
  149.9056  139.0424  154.7827 N   0  0  0  0  0  0  0  0  0  0  0  0
  149.5797  137.6300  154.9439 C   0  0  0  0  0  0  0  0  0  0  0  0
  150.8578  136.8314  155.2502 C   0  0  0  0  0  0  0  0  0  0  0  0
  151.8124  137.0483  154.2148 O   0  0  0  0  0  0  0  0  0  0  0  0
  152.1826  138.4202  154.1047 C   0  0  0  0  0  0  0  0  0  0  0  0
  150.9411  139.2704  153.7834 C   0  0  0  0  0  0  0  0  0  0  0  0
  150.9265  143.2121  161.2923 H   0  0  0  0  0  0  0  0  0  0  0  0
  152.4175  144.0778  161.6506 H   0  0  0  0  0  0  0  0  0  0  0  0
  152.4598  142.3478  161.3735 H   0  0  0  0  0  0  0  0  0  0  0  0
  153.2801  143.5399  159.3646 H   0  0  0  0  0  0  0  0  0  0  0  0
  150.5890  144.9806  159.3142 H   0  0  0  0  0  0  0  0  0  0  0  0
  151.8661  145.1361  158.1107 H   0  0  0  0  0  0  0  0  0  0  0  0
  152.1346  145.7026  159.7528 H   0  0  0  0  0  0  0  0  0  0  0  0
  150.4977  142.5847  158.6036 H   0  0  0  0  0  0  0  0  0  0  0  0
  151.9558  142.5388  157.6514 H   0  0  0  0  0  0  0  0  0  0  0  0
  152.8923  140.9201  159.5143 H   0  0  0  0  0  0  0  0  0  0  0  0
  151.1979  140.7079  159.9506 H   0  0  0  0  0  0  0  0  0  0  0  0
  149.6252  139.1619  156.8791 H   0  0  0  0  0  0  0  0  0  0  0  0
  149.0956  141.8604  157.4703 H   0  0  0  0  0  0  0  0  0  0  0  0
  150.4443  141.7718  156.3653 H   0  0  0  0  0  0  0  0  0  0  0  0
  147.3492  142.6785  156.0220 H   0  0  0  0  0  0  0  0  0  0  0  0
  145.8056  142.2576  154.0994 H   0  0  0  0  0  0  0  0  0  0  0  0
  146.2723  140.3099  152.5910 H   0  0  0  0  0  0  0  0  0  0  0  0
  148.8570  137.5076  155.7513 H   0  0  0  0  0  0  0  0  0  0  0  0
  149.1187  137.2469  154.0326 H   0  0  0  0  0  0  0  0  0  0  0  0
  151.2770  137.1204  156.2151 H   0  0  0  0  0  0  0  0  0  0  0  0
  150.6313  135.7668  155.3068 H   0  0  0  0  0  0  0  0  0  0  0  0
  152.6557  138.7551  155.0285 H   0  0  0  0  0  0  0  0  0  0  0  0
  152.9245  138.5247  153.3129 H   0  0  0  0  0  0  0  0  0  0  0  0
  150.5548  139.0081  152.7972 H   0  0  0  0  0  0  0  0  0  0  0  0
  151.2097  140.3268  153.7522 H   0  0  0  0  0  0  0  0  0  0  0  0
  1  2  1  0  0  0  0
  1 23  1  0  0  0  0
  1 24  1  0  0  0  0
  1 25  1  0  0  0  0
  2  3  1  0  0  0  0
  2  4  1  0  0  0  0
  2 26  1  0  0  0  0
  3 27  1  0  0  0  0
  3 28  1  0  0  0  0
  3 29  1  0  0  0  0
  4  5  1  0  0  0  0
  4 30  1  0  0  0  0
  4 31  1  0  0  0  0
  5  6  1  0  0  0  0
  5 32  1  0  0  0  0
  5 33  1  0  0  0  0
  6  7  2  0  0  0  0
  6  8  2  0  0  0  0
  6  9  1  0  0  0  0
  9 10  1  0  0  0  0
  9 34  1  0  0  0  0
 10 11  1  0  0  0  0
 10 35  1  0  0  0  0
 10 36  1  0  0  0  0
 11 16  1  0  0  0  0
 11 12  2  0  0  0  0
 12 13  1  0  0  0  0
 12 37  1  0  0  0  0
 13 14  2  0  0  0  0
 13 38  1  0  0  0  0
 14 15  1  0  0  0  0
 14 39  1  0  0  0  0
 15 16  2  0  0  0  0
 16 17  1  0  0  0  0
 17 22  1  0  0  0  0
 17 18  1  0  0  0  0
 18 19  1  0  0  0  0
 18 40  1  0  0  0  0
 18 41  1  0  0  0  0
 19 20  1  0  0  0  0
 19 42  1  0  0  0  0
 19 43  1  0  0  0  0
 20 21  1  0  0  0  0
 21 22  1  0  0  0  0
 21 44  1  0  0  0  0
 21 45  1  0  0  0  0
 22 46  1  0  0  0  0
 22 47  1  0  0  0  0
M  END
> <s_m_source_file>
AV-unprocessed.smi

> <i_m_source_file_index>
1640

> <i_lp_mmshare_version>
43012

> <i_f3d_flags>
0

> <s_epik_input>
W0NIM11bQ0hdKFtDSDNdKVtDSDJdW0NIMl1TKD1PKSg9TylbTkhdW0NIMl1jMVtjSF1bY0hdW2NIXW5jMU4yW0NIMl1bQ0gyXU9bQ0gyXVtDSDJdMg==

> <s_epik_cmdline>
J2VwaWtfcHl0aG9uJywgJy1waCcsICc3LjAnLCAnLXRuJywgJzgnLCAnLW1hJywgJzIwMCcsICctbWV0YWxfYmluZGluZycsICctaW1hZScsICc8aW5maWxlLm1hZT4nLCAnLW9tYWUnLCAnPG91dGZpbGUubWFlPic=

> <r_lp_tautomer_probability>
1

> <r_epik_Ionization_Penalty>
0.00729723

> <r_epik_Ionization_Penalty_Charging>
0

> <r_epik_Ionization_Penalty_Neutral>
0.00729723

> <r_epik_State_Penalty>
0.00542751

> <r_epik_Charging_Adjusted_Penalty>
0.00542751

> <i_epik_Tot_Q>
0

> <i_epik_Tot_abs_Q>
0

> <r_epik_Metal_State_Penalty>
0.0195039

> <b_epik_Metal_Only>
0

> <s_lp_Force_Field>
OPLS_2005

> <r_lp_Energy>
17.806

> <b_lp_Chiralities_Consistent>
1

> <s_lp_Variant>
AV-unprocessed.smi:1640-1

> <Gold.Version>
5.8.1

> <Gold.Id.Protein>
6NUR|6NUR_protein|mol2

> <Gold.PLP.Fitness>
44.5204

> <Gold.PLP.PLP>
-37.5976

> <Gold.PLP.part.hbond>
-2.0000

> <Gold.PLP.part.metal>
0.0000

> <Gold.PLP.part.buried>
-4.7231

> <Gold.PLP.part.nonpolar>
-32.9895

> <Gold.PLP.part.repulsive>
0.4499

> <Gold.PLP.ligand.clash>
0.0000

> <Gold.PLP.ligand.torsion>
1.1385

> <Gold.PLP.Chemscore.Hbond>
2.0000

> <Gold.PLP.Chemscore.CHOScore>
0.9614

> <Gold.PLP.Chemscore.Metal>
0.0000

> <Gold.Chemscore.Hbonds>
donor molecule, donor type, donor heavy atom, donor atom, acceptor molecule, acceptor atom, score
      P1  H  7997  8010       L1     7  1.00
      P1  H 10752 10765       L1    20  0.51
      L1  C    14    39       P1 10175  0.83

> <Gold.PLP.Chemscore.Internal.Correction>
0.3154

> <Gold.Rescore>
     Score         DG    S(hbond)    S(metal)    S(lipo)     H(rot)  DE(clash)    DE(int)     intcor
     13.84     -16.39       0.98        0.00     108.66       1.99       0.06       2.49       ----

> <Gold.Chemscore.Fitness>
13.8410

> <Gold.Chemscore.DG>
-16.3920

> <Gold.Chemscore.ZeroCoef>
-5.4800

> <Gold.Chemscore.Hbond>
0.9827

> <Gold.Chemscore.Metal>
0.0000

> <Gold.Chemscore.Lipo>
108.6575

> <Gold.Chemscore.Internal_Hbond>
0.0000

> <Gold.Chemscore.DEClash>
0.0632

> <Gold.Chemscore.DEInternal>
2.4878

> <Gold.Chemscore.Rot>
1.9856

> <Gold.Chemscore.Internal.Correction>
   9.000000E+99

> <Gold.Chemscore.Hbonds>
donor molecule, donor type, donor heavy atom, donor atom, acceptor molecule, acceptor atom, score
      P1  H  7997  8010       L1     7  0.95
      P1  H 10752 10765       L1    20  0.07

> <Gold.Chemscore.Hbond.Weighted>
-3.2821

> <Gold.Chemscore.Metal.Weighted>
-0.0000

> <Gold.Chemscore.Lipo.Weighted>
-12.7129

> <Gold.Chemscore.Internal_Hbond.Weighted>
0.0000

> <Gold.Chemscore.DEClash.Weighted>
0.0632

> <Gold.Chemscore.DEInternal.Weighted>
2.4878

> <Gold.Chemscore.Rot.Weighted>
5.0830

> <Gold.Chemscore.Internal.Correction.Weighted>
   9.000000E+99

> <Gold.Protein.RotatedTorsions>
[ 6907 6896 6895 6894 ] final   52.24 input  -60.11 | X-H torsion
[ 7974 7965 7964 7962 ] final  -99.06 input  175.53 | X-H torsion
[ 8008 7997 7996 7995 ] final   79.18 input   59.86 | X-H torsion
[ 10167 10162 10161 10158 ] final -172.80 input  -65.29 | X-H torsion
[ 10718 10713 10712 10709 ] final -143.61 input   66.30 | X-H torsion
[ 10763 10752 10751 10750 ] final -168.80 input  -60.55 | X-H torsion
[ 11005 11000 10999 10996 ] final  174.47 input  -57.11 | X-H torsion

> <Gold.Protein.ActiveResidues>
 VAL166  LYS551  ARG553  GLY616  TRP617  ASP618  TYR619  PRO620  LYS621  CYS622 
 ASP623  PHE694  ASN695  SER759  ASP760  ASP761  ALA762  ILE779  LEU786  VAL792 
 PHE793  MET794  SER795  GLU796  ALA797  LYS798  CYS799  TRP800  GLU811  SER814 

> <Gold.Protein.RotatedAtoms>
  152.3212  134.7378  160.0313 H   0  0  0  0  0  0  0  0  0  0  0  0  # atno 6907 bound_to 6896
  151.7826  133.3346  159.3484 H   0  0  0  0  0  0  0  0  0  0  0  0  # atno 6908 bound_to 6896
  150.7371  134.5848  159.6001 H   0  0  0  0  0  0  0  0  0  0  0  0  # atno 6909 bound_to 6896
  145.3125  140.9403  143.2761 H   0  0  0  0  0  0  0  0  0  0  0  0  # atno 7974 bound_to 7965
  155.8661  140.3451  155.5789 H   0  0  0  0  0  0  0  0  0  0  0  0  # atno 8008 bound_to 7997
  155.7879  140.0867  157.2044 H   0  0  0  0  0  0  0  0  0  0  0  0  # atno 8009 bound_to 7997
  154.4014  140.1488  156.3116 H   0  0  0  0  0  0  0  0  0  0  0  0  # atno 8010 bound_to 7997
  139.5724  144.1611  152.1402 H   0  0  0  0  0  0  0  0  0  0  0  0  # atno 10167 bound_to 10162
  156.3600  130.7733  151.1899 H   0  0  0  0  0  0  0  0  0  0  0  0  # atno 10718 bound_to 10713
  154.6590  135.2922  154.9891 H   0  0  0  0  0  0  0  0  0  0  0  0  # atno 10763 bound_to 10752
  154.0957  135.6584  153.4864 H   0  0  0  0  0  0  0  0  0  0  0  0  # atno 10764 bound_to 10752
  153.0419  135.5230  154.7532 H   0  0  0  0  0  0  0  0  0  0  0  0  # atno 10765 bound_to 10752
  140.3516  134.7190  157.4272 H   0  0  0  0  0  0  0  0  0  0  0  0  # atno 11005 bound_to 11000
  144.9004  139.4657  143.6635 LP  0  0  0  0  0  0  0  0  0  0  0  0  # atno 17320 bound_to 7965
  146.3112  139.7754  142.9018 LP  0  0  0  0  0  0  0  0  0  0  0  0  # atno 17321 bound_to 7965
  140.1147  144.5426  150.6902 LP  0  0  0  0  0  0  0  0  0  0  0  0  # atno 17342 bound_to 10162
  140.7008  143.2433  151.4870 LP  0  0  0  0  0  0  0  0  0  0  0  0  # atno 17343 bound_to 10162
  157.7472  131.0403  150.4590 LP  0  0  0  0  0  0  0  0  0  0  0  0  # atno 17370 bound_to 10713
  156.4799  130.4071  149.6467 LP  0  0  0  0  0  0  0  0  0  0  0  0  # atno 17371 bound_to 10713
  140.0698  134.5878  155.8654 LP  0  0  0  0  0  0  0  0  0  0  0  0  # atno 17394 bound_to 11000
  141.2010  133.6616  156.5928 LP  0  0  0  0  0  0  0  0  0  0  0  0  # atno 17395 bound_to 11000

$$$$
