AV-unprocessed.smi:45|AV-procd|sdf|414|dock8
  -GOLD-   2262016283D 1   1.00000     0.00000
 Structure written by MMmdl.
 59 62  0  0  0  0  0  0  0  0  2 V2000
  155.3325  126.1513  154.9264 C   0  0  0  0  0  0  0  0  0  0  0  0
  155.1408  127.5576  154.8813 O   0  0  0  0  0  0  0  0  0  0  0  0
  153.8490  128.0416  154.9055 C   0  0  0  0  0  0  0  0  0  0  0  0
  152.7094  127.2370  155.1610 C   0  0  0  0  0  0  0  0  0  0  0  0
  151.4204  127.8037  155.1704 C   0  0  0  0  0  0  0  0  0  0  0  0
  151.2474  129.1804  154.9258 C   0  0  0  0  0  0  0  0  0  0  0  0
  149.8601  129.7904  154.9384 C   0  0  0  0  0  0  0  0  0  0  0  0
  149.8145  131.0928  155.5858 N   0  0  0  0  0  0  0  0  0  0  0  0
  149.1522  132.1813  154.9933 C   0  0  0  0  0  0  0  0  0  0  0  0
  148.1601  131.9103  154.1113 N   0  0  0  0  0  0  0  0  0  0  0  0
  147.5176  132.9394  153.5564 C   0  0  0  0  0  0  0  0  0  0  0  0
  146.5287  132.6147  152.6409 N   0  0  0  0  0  0  0  0  0  0  0  0
  146.2162  133.5507  151.5632 C   0  0  0  0  0  0  0  0  0  0  0  0
  145.9043  132.7144  150.3155 C   0  0  0  0  0  0  0  0  0  0  0  0
  145.5790  131.3333  150.8725 C   0  0  0  0  0  0  0  0  0  0  0  0
  146.5045  131.2645  152.0885 C   0  0  2  0  0  0  0  0  0  0  0  0
  146.1795  130.1627  153.1191 C   0  0  0  0  0  0  0  0  0  0  0  0
  145.6658  130.7018  154.3200 O   0  0  0  0  0  0  0  0  0  0  0  0
  147.7586  134.2338  153.7798 N   0  0  0  0  0  0  0  0  0  0  0  0
  148.7421  134.5267  154.6572 C   0  0  0  0  0  0  0  0  0  0  0  0
  149.4939  133.5239  155.3159 C   0  0  0  0  0  0  0  0  0  0  0  0
  150.6116  133.8876  156.2608 C   0  0  0  0  0  0  0  0  0  0  0  0
  150.9228  133.0802  157.1437 O   0  0  0  0  0  0  0  0  0  0  0  0
  151.1151  135.1245  155.9964 N   0  5  0  0  0  0  0  0  0  0  0  0
  150.9186  136.2937  156.8532 C   0  0  0  0  0  0  0  0  0  0  0  0
  150.7135  137.5585  156.0315 C   0  0  0  0  0  0  0  0  0  0  0  0
  150.2997  137.3982  154.7681 N   0  0  0  0  0  0  0  0  0  0  0  0
  150.0886  138.5189  154.0450 C   0  0  0  0  0  0  0  0  0  0  0  0
  150.2953  139.8024  154.5886 C   0  0  0  0  0  0  0  0  0  0  0  0
  150.7361  139.8490  155.9264 C   0  0  0  0  0  0  0  0  0  0  0  0
  150.9461  138.7255  156.6456 N   0  0  0  0  0  0  0  0  0  0  0  0
  152.3741  129.9861  154.6713 C   0  0  0  0  0  0  0  0  0  0  0  0
  153.6642  129.4209  154.6597 C   0  0  0  0  0  0  0  0  0  0  0  0
  155.0243  130.4373  154.3415 Cl  0  0  0  0  0  0  0  0  0  0  0  0
  147.5135  131.0695  151.7206 H   0  0  0  0  0  0  0  0  0  0  0  0
  156.4004  125.9341  154.9098 H   0  0  0  0  0  0  0  0  0  0  0  0
  154.8827  125.6589  154.0631 H   0  0  0  0  0  0  0  0  0  0  0  0
  154.9231  125.7226  155.8420 H   0  0  0  0  0  0  0  0  0  0  0  0
  152.7965  126.1784  155.3532 H   0  0  0  0  0  0  0  0  0  0  0  0
  150.5621  127.1775  155.3658 H   0  0  0  0  0  0  0  0  0  0  0  0
  149.5165  129.8879  153.9079 H   0  0  0  0  0  0  0  0  0  0  0  0
  149.1689  129.1150  155.4440 H   0  0  0  0  0  0  0  0  0  0  0  0
  150.2561  131.2112  156.4869 H   0  0  0  0  0  0  0  0  0  0  0  0
  145.3362  134.1211  151.8612 H   0  0  0  0  0  0  0  0  0  0  0  0
  147.0178  134.2646  151.3714 H   0  0  0  0  0  0  0  0  0  0  0  0
  145.0962  133.1331  149.7155 H   0  0  0  0  0  0  0  0  0  0  0  0
  146.7927  132.6537  149.6856 H   0  0  0  0  0  0  0  0  0  0  0  0
  144.5305  131.2963  151.1708 H   0  0  0  0  0  0  0  0  0  0  0  0
  145.7587  130.5318  150.1555 H   0  0  0  0  0  0  0  0  0  0  0  0
  145.4290  129.4878  152.7070 H   0  0  0  0  0  0  0  0  0  0  0  0
  147.0564  129.5538  153.3394 H   0  0  0  0  0  0  0  0  0  0  0  0
  144.8685  130.2433  154.5367 H   0  0  0  0  0  0  0  0  0  0  0  0
  148.9355  135.5772  154.8194 H   0  0  0  0  0  0  0  0  0  0  0  0
  150.0562  136.1612  157.5085 H   0  0  0  0  0  0  0  0  0  0  0  0
  151.7605  136.4642  157.5270 H   0  0  0  0  0  0  0  0  0  0  0  0
  149.7520  138.3910  153.0269 H   0  0  0  0  0  0  0  0  0  0  0  0
  150.1259  140.6996  154.0126 H   0  0  0  0  0  0  0  0  0  0  0  0
  150.9202  140.7910  156.4212 H   0  0  0  0  0  0  0  0  0  0  0  0
  152.2516  131.0426  154.4813 H   0  0  0  0  0  0  0  0  0  0  0  0
  1  2  1  0  0  0  0
  1 36  1  0  0  0  0
  1 37  1  0  0  0  0
  1 38  1  0  0  0  0
  2  3  1  0  0  0  0
  3 33  1  0  0  0  0
  3  4  2  0  0  0  0
  4  5  1  0  0  0  0
  4 39  1  0  0  0  0
  5  6  2  0  0  0  0
  5 40  1  0  0  0  0
  6  7  1  0  0  0  0
  6 32  1  0  0  0  0
  7  8  1  0  0  0  0
  7 41  1  0  0  0  0
  7 42  1  0  0  0  0
  8  9  1  0  0  0  0
  8 43  1  0  0  0  0
  9 21  1  0  0  0  0
  9 10  2  0  0  0  0
 10 11  1  0  0  0  0
 11 12  1  0  0  0  0
 11 19  2  0  0  0  0
 12 16  1  0  0  0  0
 12 13  1  0  0  0  0
 13 14  1  0  0  0  0
 13 44  1  0  0  0  0
 13 45  1  0  0  0  0
 14 15  1  0  0  0  0
 14 46  1  0  0  0  0
 14 47  1  0  0  0  0
 15 16  1  0  0  0  0
 15 48  1  0  0  0  0
 15 49  1  0  0  0  0
 16 35  1  0  0  0  0
 16 17  1  0  0  0  0
 17 18  1  0  0  0  0
 17 50  1  0  0  0  0
 17 51  1  0  0  0  0
 18 52  1  0  0  0  0
 19 20  1  0  0  0  0
 20 21  2  0  0  0  0
 20 53  1  0  0  0  0
 21 22  1  0  0  0  0
 22 23  2  0  0  0  0
 22 24  1  0  0  0  0
 24 25  1  0  0  0  0
 25 26  1  0  0  0  0
 25 54  1  0  0  0  0
 25 55  1  0  0  0  0
 26 31  1  0  0  0  0
 26 27  2  0  0  0  0
 27 28  1  0  0  0  0
 28 29  2  0  0  0  0
 28 56  1  0  0  0  0
 29 30  1  0  0  0  0
 29 57  1  0  0  0  0
 30 31  2  0  0  0  0
 30 58  1  0  0  0  0
 32 33  2  0  0  0  0
 32 59  1  0  0  0  0
 33 34  1  0  0  0  0
M  CHG  1  24  -1
M  END
> <s_m_source_file>
AV-unprocessed.smi

> <i_m_source_file_index>
45

> <i_lp_mmshare_version>
43012

> <i_f3d_flags>
0

> <s_epik_input>
W0NIM11PYzFbY0hdW2NIXWMoW2NIXWMxQ2wpW0NIMl1bTkhdYzJuYyhOM1tDSDJdW0NIMl1bQ0gyXVtDQEhdM1tDSDJdW09IXSluW2NIXWMyQyg9TylbTkhdW0NIMl1jNG5bY0hdW2NIXVtjSF1uNA==

> <s_epik_cmdline>
J2VwaWtfcHl0aG9uJywgJy1waCcsICc3LjAnLCAnLXRuJywgJzgnLCAnLW1hJywgJzIwMCcsICctbWV0YWxfYmluZGluZycsICctaW1hZScsICc8aW5maWxlLm1hZT4nLCAnLW9tYWUnLCAnPG91dGZpbGUubWFlPic=

> <r_lp_tautomer_probability>
1

> <r_epik_Ionization_Penalty>
7.35269

> <r_epik_Ionization_Penalty_Charging>
6.82087

> <r_epik_Ionization_Penalty_Neutral>
0.53182

> <r_epik_State_Penalty>
6.85781

> <r_epik_Charging_Adjusted_Penalty>
13.6787

> <i_epik_Tot_Q>
-1

> <i_epik_Tot_abs_Q>
1

> <r_epik_Metal_State_Penalty>
2.8146

> <b_epik_Metal_Only>
1

> <s_epik_Chemistry_Notes>
This compound contains an electron-poor aromatic ring that is susceptible to covalent hydrolysis at low pH, typically resulting in measured values for nitrogen ring protonation that are around two units higher than predicted values.

> <s_lp_Force_Field>
OPLS_2005

> <r_lp_Energy>
50.4559

> <b_lp_Chiralities_Consistent>
1

> <s_lp_Variant>
AV-unprocessed.smi:45-8

> <Gold.Version>
5.8.1

> <Gold.Id.Protein>
6NUR|6NUR_protein|mol2

> <Gold.PLP.Fitness>
57.3374

> <Gold.PLP.PLP>
-46.2393

> <Gold.PLP.part.hbond>
-3.0000

> <Gold.PLP.part.metal>
0.0000

> <Gold.PLP.part.buried>
-3.1947

> <Gold.PLP.part.nonpolar>
-42.7389

> <Gold.PLP.part.repulsive>
1.4416

> <Gold.PLP.ligand.clash>
0.0000

> <Gold.PLP.ligand.torsion>
3.2235

> <Gold.PLP.Chemscore.Hbond>
3.5698

> <Gold.PLP.Chemscore.CHOScore>
1.9961

> <Gold.PLP.Chemscore.Metal>
0.0000

> <Gold.Chemscore.Hbonds>
donor molecule, donor type, donor heavy atom, donor atom, acceptor molecule, acceptor atom, score
      L1  H    18    52       P1 10956  0.90
      P1  H  6896  6908       L1    23  0.61
      P1  H 10752 10763       L1    24  0.98
      L1  C    28    56       P1  7948  0.97
      L1  C    28    56       P1  7957  1.00

> <Gold.PLP.Chemscore.Internal.Correction>
0.8474

> <Gold.Rescore>
     Score         DG    S(hbond)    S(metal)    S(lipo)     H(rot)  DE(clash)    DE(int)     intcor
     10.94     -17.18       2.07        0.00     108.88       3.11       0.40       5.85       ----

> <Gold.Chemscore.Fitness>
10.9360

> <Gold.Chemscore.DG>
-17.1795

> <Gold.Chemscore.ZeroCoef>
-5.4800

> <Gold.Chemscore.Hbond>
2.0706

> <Gold.Chemscore.Metal>
0.0000

> <Gold.Chemscore.Lipo>
108.8829

> <Gold.Chemscore.Internal_Hbond>
0.0000

> <Gold.Chemscore.DEClash>
0.3967

> <Gold.Chemscore.DEInternal>
5.8468

> <Gold.Chemscore.Rot>
3.1077

> <Gold.Chemscore.Internal.Correction>
   9.000000E+99

> <Gold.Chemscore.Hbonds>
donor molecule, donor type, donor heavy atom, donor atom, acceptor molecule, acceptor atom, score
      L1  H    18    52       P1 10956  0.18
      P1  H  6896  6908       L1    23  0.61
      P1  H 10752 10763       L1    24  0.26

> <Gold.Chemscore.Hbond.Weighted>
-6.9159

> <Gold.Chemscore.Metal.Weighted>
-0.0000

> <Gold.Chemscore.Lipo.Weighted>
-12.7393

> <Gold.Chemscore.Internal_Hbond.Weighted>
0.0000

> <Gold.Chemscore.DEClash.Weighted>
0.3967

> <Gold.Chemscore.DEInternal.Weighted>
5.8468

> <Gold.Chemscore.Rot.Weighted>
7.9557

> <Gold.Chemscore.Internal.Correction.Weighted>
   9.000000E+99

> <Gold.Protein.RotatedTorsions>
[ 6907 6896 6895 6894 ] final   75.38 input  -60.11 | X-H torsion
[ 7974 7965 7964 7962 ] final    4.85 input  175.53 | X-H torsion
[ 8008 7997 7996 7995 ] final   64.37 input   59.86 | X-H torsion
[ 10167 10162 10161 10158 ] final  106.04 input  -65.29 | X-H torsion
[ 10718 10713 10712 10709 ] final   20.23 input   66.30 | X-H torsion
[ 10763 10752 10751 10750 ] final   78.00 input  -60.55 | X-H torsion
[ 11005 11000 10999 10996 ] final  125.83 input  -57.11 | X-H torsion

> <Gold.Protein.ActiveResidues>
 VAL166  LYS551  ARG553  GLY616  TRP617  ASP618  TYR619  PRO620  LYS621  CYS622 
 ASP623  PHE694  ASN695  SER759  ASP760  ASP761  ALA762  ILE779  LEU786  VAL792 
 PHE793  MET794  SER795  GLU796  ALA797  LYS798  CYS799  TRP800  GLU811  SER814 

> <Gold.Protein.RotatedAtoms>
  152.5023  134.4129  159.9454 H   0  0  0  0  0  0  0  0  0  0  0  0  # atno 6907 bound_to 6896
  151.4098  133.3725  159.2750 H   0  0  0  0  0  0  0  0  0  0  0  0  # atno 6908 bound_to 6896
  150.9300  134.8737  159.7604 H   0  0  0  0  0  0  0  0  0  0  0  0  # atno 6909 bound_to 6896
  146.2443  140.0472  142.8377 H   0  0  0  0  0  0  0  0  0  0  0  0  # atno 7974 bound_to 7965
  155.6450  140.3497  155.4728 H   0  0  0  0  0  0  0  0  0  0  0  0  # atno 8008 bound_to 7997
  155.9894  140.1190  157.0675 H   0  0  0  0  0  0  0  0  0  0  0  0  # atno 8009 bound_to 7997
  154.4215  140.1122  156.5531 H   0  0  0  0  0  0  0  0  0  0  0  0  # atno 8010 bound_to 7997
  139.7042  144.7089  151.1134 H   0  0  0  0  0  0  0  0  0  0  0  0  # atno 10167 bound_to 10162
  157.1215  130.6552  149.5925 H   0  0  0  0  0  0  0  0  0  0  0  0  # atno 10718 bound_to 10713
  153.0841  135.4893  154.8562 H   0  0  0  0  0  0  0  0  0  0  0  0  # atno 10763 bound_to 10752
  154.7188  135.3035  154.9082 H   0  0  0  0  0  0  0  0  0  0  0  0  # atno 10764 bound_to 10752
  153.9753  135.6796  153.4801 H   0  0  0  0  0  0  0  0  0  0  0  0  # atno 10765 bound_to 10752
  139.9426  134.9634  156.8616 H   0  0  0  0  0  0  0  0  0  0  0  0  # atno 11005 bound_to 11000
  145.1016  140.9349  143.4709 LP  0  0  0  0  0  0  0  0  0  0  0  0  # atno 17320 bound_to 7965
  145.0666  139.3063  143.5853 LP  0  0  0  0  0  0  0  0  0  0  0  0  # atno 17321 bound_to 7965
  140.7717  143.5382  150.9344 LP  0  0  0  0  0  0  0  0  0  0  0  0  # atno 17342 bound_to 10162
  139.9064  143.6773  152.3123 LP  0  0  0  0  0  0  0  0  0  0  0  0  # atno 17343 bound_to 10162
  155.9827  130.4843  150.6897 LP  0  0  0  0  0  0  0  0  0  0  0  0  # atno 17370 bound_to 10713
  157.4472  131.0868  151.0883 LP  0  0  0  0  0  0  0  0  0  0  0  0  # atno 17371 bound_to 10713
  140.5914  134.0258  155.7501 LP  0  0  0  0  0  0  0  0  0  0  0  0  # atno 17394 bound_to 11000
  141.1065  133.9685  157.2987 LP  0  0  0  0  0  0  0  0  0  0  0  0  # atno 17395 bound_to 11000

$$$$
