AV-unprocessed.smi:2768|AV-procd|sdf|10649|dock3
  -GOLD-   2272015103D 1   1.00000     0.00000
 Structure written by MMmdl.
 35 36  0  0  0  0  0  0  0  0  1 V2000
  150.6286  140.4121  155.1814 O   0  0  0  0  0  0  0  0  0  0  0  0
  150.0477  140.0555  156.2073 C   0  0  0  0  0  0  0  0  0  0  0  0
  148.7393  139.7533  156.2411 N   0  0  0  0  0  0  0  0  0  0  0  0
  147.8158  139.8563  155.1138 C   0  0  1  0  0  0  0  0  0  0  0  0
  148.0214  141.1904  154.3705 C   0  0  0  0  0  0  0  0  0  0  0  0
  147.0618  141.3148  153.1759 C   0  0  0  0  0  0  0  0  0  0  0  0
  147.2087  140.1248  152.2149 C   0  0  0  0  0  0  0  0  0  0  0  0
  147.0151  138.7832  152.9451 C   0  0  0  0  0  0  0  0  0  0  0  0
  147.9496  138.6418  154.1622 C   0  0  1  0  0  0  0  0  0  0  0  0
  149.2834  138.5011  153.7072 O   0  0  0  0  0  0  0  0  0  0  0  0
  150.8073  139.9656  157.5388 C   0  0  0  0  0  0  0  0  0  0  0  0
  149.9966  139.4409  158.4610 F   0  0  0  0  0  0  0  0  0  0  0  0
  151.8514  139.1454  157.3972 F   0  0  0  0  0  0  0  0  0  0  0  0
  151.2867  141.3515  157.9637 C   0  0  0  0  0  0  0  0  0  0  0  0
  152.0348  141.5343  159.1495 C   0  0  0  0  0  0  0  0  0  0  0  0
  152.4345  142.8378  159.5015 C   0  0  0  0  0  0  0  0  0  0  0  0
  152.0733  143.9090  158.6628 C   0  0  0  0  0  0  0  0  0  0  0  0
  151.3240  143.6278  157.5039 C   0  0  0  0  0  0  0  0  0  0  0  0
  150.9352  142.3821  157.1581 N   0  0  0  0  0  0  0  0  0  0  0  0
  146.7980  139.8644  155.5092 H   0  0  0  0  0  0  0  0  0  0  0  0
  147.6934  137.7266  154.6972 H   0  0  0  0  0  0  0  0  0  0  0  0
  148.3447  139.4639  157.1244 H   0  0  0  0  0  0  0  0  0  0  0  0
  147.8636  142.0260  155.0533 H   0  0  0  0  0  0  0  0  0  0  0  0
  149.0515  141.2694  154.0197 H   0  0  0  0  0  0  0  0  0  0  0  0
  146.0339  141.3678  153.5371 H   0  0  0  0  0  0  0  0  0  0  0  0
  147.2502  142.2476  152.6435 H   0  0  0  0  0  0  0  0  0  0  0  0
  146.4851  140.2123  151.4041 H   0  0  0  0  0  0  0  0  0  0  0  0
  148.1947  140.1518  151.7495 H   0  0  0  0  0  0  0  0  0  0  0  0
  145.9801  138.7091  153.2813 H   0  0  0  0  0  0  0  0  0  0  0  0
  147.1685  137.9543  152.2531 H   0  0  0  0  0  0  0  0  0  0  0  0
  149.3600  137.6717  153.2609 H   0  0  0  0  0  0  0  0  0  0  0  0
  152.2961  140.6987  159.7820 H   0  0  0  0  0  0  0  0  0  0  0  0
  153.0068  143.0132  160.4003 H   0  0  0  0  0  0  0  0  0  0  0  0
  152.3625  144.9217  158.9018 H   0  0  0  0  0  0  0  0  0  0  0  0
  151.0280  144.4244  156.8374 H   0  0  0  0  0  0  0  0  0  0  0  0
  1  2  2  0  0  0  0
  2  3  1  0  0  0  0
  2 11  1  0  0  0  0
  3  4  1  0  0  0  0
  3 22  1  0  0  0  0
  4 20  1  0  0  0  0
  4  9  1  0  0  0  0
  4  5  1  0  0  0  0
  5  6  1  0  0  0  0
  5 23  1  0  0  0  0
  5 24  1  0  0  0  0
  6  7  1  0  0  0  0
  6 25  1  0  0  0  0
  6 26  1  0  0  0  0
  7  8  1  0  0  0  0
  7 27  1  0  0  0  0
  7 28  1  0  0  0  0
  8  9  1  0  0  0  0
  8 29  1  0  0  0  0
  8 30  1  0  0  0  0
  9 21  1  0  0  0  0
  9 10  1  0  0  0  0
 10 31  1  0  0  0  0
 11 12  1  0  0  0  0
 11 13  1  0  0  0  0
 11 14  1  0  0  0  0
 14 19  1  0  0  0  0
 14 15  2  0  0  0  0
 15 16  1  0  0  0  0
 15 32  1  0  0  0  0
 16 17  2  0  0  0  0
 16 33  1  0  0  0  0
 17 18  1  0  0  0  0
 17 34  1  0  0  0  0
 18 19  2  0  0  0  0
 18 35  1  0  0  0  0
M  END
> <s_m_source_file>
AV-unprocessed.smi

> <i_m_source_file_index>
2768

> <i_lp_mmshare_version>
43012

> <i_f3d_flags>
0

> <s_epik_input>
bjFbY0hdW2NIXVtjSF1bY0hdYzFDKEYpKEYpQyg9TylbTkhdW0NAQEhdMltDSDJdW0NIMl1bQ0gyXVtDSDJdW0NASF0yW09IXQ==

> <s_epik_cmdline>
J2VwaWtfcHl0aG9uJywgJy1waCcsICc3LjAnLCAnLXRuJywgJzgnLCAnLW1hJywgJzIwMCcsICctbWV0YWxfYmluZGluZycsICctaW1hZScsICc8aW5maWxlLm1hZT4nLCAnLW9tYWUnLCAnPG91dGZpbGUubWFlPic=

> <r_lp_tautomer_probability>
1

> <r_epik_Ionization_Penalty>
4.19456e-05

> <r_epik_Ionization_Penalty_Charging>
0

> <r_epik_Ionization_Penalty_Neutral>
4.19456e-05

> <r_epik_State_Penalty>
-0

> <r_epik_Charging_Adjusted_Penalty>
0

> <i_epik_Tot_Q>
0

> <i_epik_Tot_abs_Q>
0

> <r_epik_Metal_State_Penalty>
0.0354684

> <b_epik_Metal_Only>
0

> <s_lp_Force_Field>
OPLS_2005

> <r_lp_Energy>
19.7139

> <b_lp_Chiralities_Consistent>
1

> <s_lp_Variant>
AV-unprocessed.smi:2768-2

> <Gold.Version>
5.8.1

> <Gold.Id.Protein>
6NUR|6NUR_protein|mol2

> <Gold.PLP.Fitness>
42.4888

> <Gold.PLP.PLP>
-34.1516

> <Gold.PLP.part.hbond>
-3.0000

> <Gold.PLP.part.metal>
0.0000

> <Gold.PLP.part.buried>
-1.8046

> <Gold.PLP.part.nonpolar>
-29.2897

> <Gold.PLP.part.repulsive>
0.1698

> <Gold.PLP.ligand.clash>
0.0000

> <Gold.PLP.ligand.torsion>
0.3188

> <Gold.PLP.Chemscore.Hbond>
1.9833

> <Gold.PLP.Chemscore.CHOScore>
1.0000

> <Gold.PLP.Chemscore.Metal>
0.0000

> <Gold.Chemscore.Hbonds>
donor molecule, donor type, donor heavy atom, donor atom, acceptor molecule, acceptor atom, score
      L1  H    10    31       P1  7948  1.00
      P1  H  7989  7998       L1     1  1.00
      L1  C    18    35       P1  8028  0.99

> <Gold.PLP.Chemscore.Internal.Correction>
0.0251

> <Gold.Rescore>
     Score         DG    S(hbond)    S(metal)    S(lipo)     H(rot)  DE(clash)    DE(int)     intcor
     14.47     -17.87       1.95        0.00      93.85       2.00       0.15       3.25       ----

> <Gold.Chemscore.Fitness>
14.4681

> <Gold.Chemscore.DG>
-17.8672

> <Gold.Chemscore.ZeroCoef>
-5.4800

> <Gold.Chemscore.Hbond>
1.9517

> <Gold.Chemscore.Metal>
0.0000

> <Gold.Chemscore.Lipo>
93.8525

> <Gold.Chemscore.Internal_Hbond>
0.0000

> <Gold.Chemscore.DEClash>
0.1458

> <Gold.Chemscore.DEInternal>
3.2532

> <Gold.Chemscore.Rot>
1.9969

> <Gold.Chemscore.Internal.Correction>
   9.000000E+99

> <Gold.Chemscore.Hbonds>
donor molecule, donor type, donor heavy atom, donor atom, acceptor molecule, acceptor atom, score
      L1  H    10    31       P1  7948  0.91
      P1  H  7989  7998       L1     1  0.92

> <Gold.Chemscore.Hbond.Weighted>
-6.5186

> <Gold.Chemscore.Metal.Weighted>
-0.0000

> <Gold.Chemscore.Lipo.Weighted>
-10.9807

> <Gold.Chemscore.Internal_Hbond.Weighted>
0.0000

> <Gold.Chemscore.DEClash.Weighted>
0.1458

> <Gold.Chemscore.DEInternal.Weighted>
3.2532

> <Gold.Chemscore.Rot.Weighted>
5.1122

> <Gold.Chemscore.Internal.Correction.Weighted>
   9.000000E+99

> <Gold.Protein.RotatedTorsions>
[ 6907 6896 6895 6894 ] final   99.93 input  -60.11 | X-H torsion
[ 7974 7965 7964 7962 ] final   35.40 input  175.53 | X-H torsion
[ 8008 7997 7996 7995 ] final  171.33 input   59.86 | X-H torsion
[ 10167 10162 10161 10158 ] final    9.79 input  -65.29 | X-H torsion
[ 10718 10713 10712 10709 ] final  -43.55 input   66.30 | X-H torsion
[ 10763 10752 10751 10750 ] final -146.74 input  -60.55 | X-H torsion
[ 11005 11000 10999 10996 ] final -146.50 input  -57.11 | X-H torsion

> <Gold.Protein.ActiveResidues>
 VAL166  LYS551  ARG553  GLY616  TRP617  ASP618  TYR619  PRO620  LYS621  CYS622 
 ASP623  PHE694  ASN695  SER759  ASP760  ASP761  ALA762  ILE779  LEU786  VAL792 
 PHE793  MET794  SER795  GLU796  ALA797  LYS798  CYS799  TRP800  GLU811  SER814 

> <Gold.Protein.RotatedAtoms>
  152.5382  134.0354  159.8043 H   0  0  0  0  0  0  0  0  0  0  0  0  # atno 6907 bound_to 6896
  151.0518  133.5610  159.2649 H   0  0  0  0  0  0  0  0  0  0  0  0  # atno 6908 bound_to 6896
  151.2541  135.0640  159.9127 H   0  0  0  0  0  0  0  0  0  0  0  0  # atno 6909 bound_to 6896
  146.1285  139.6147  142.9242 H   0  0  0  0  0  0  0  0  0  0  0  0  # atno 7974 bound_to 7965
  156.1282  140.1515  156.9105 H   0  0  0  0  0  0  0  0  0  0  0  0  # atno 8008 bound_to 7997
  154.4888  140.0857  156.7587 H   0  0  0  0  0  0  0  0  0  0  0  0  # atno 8009 bound_to 7997
  155.4305  140.3427  155.4282 H   0  0  0  0  0  0  0  0  0  0  0  0  # atno 8010 bound_to 7997
  140.6234  143.8155  150.7203 H   0  0  0  0  0  0  0  0  0  0  0  0  # atno 10167 bound_to 10162
  156.2478  130.4185  149.8685 H   0  0  0  0  0  0  0  0  0  0  0  0  # atno 10718 bound_to 10713
  154.8321  135.3378  154.6709 H   0  0  0  0  0  0  0  0  0  0  0  0  # atno 10763 bound_to 10752
  153.7328  135.6951  153.4990 H   0  0  0  0  0  0  0  0  0  0  0  0  # atno 10764 bound_to 10752
  153.2300  135.4419  155.0536 H   0  0  0  0  0  0  0  0  0  0  0  0  # atno 10765 bound_to 10752
  140.7813  134.3076  157.5044 H   0  0  0  0  0  0  0  0  0  0  0  0  # atno 11005 bound_to 11000
  145.5312  141.0427  143.2382 LP  0  0  0  0  0  0  0  0  0  0  0  0  # atno 17320 bound_to 7965
  144.7667  139.6829  143.7212 LP  0  0  0  0  0  0  0  0  0  0  0  0  # atno 17321 bound_to 7965
  140.1750  143.4162  152.1974 LP  0  0  0  0  0  0  0  0  0  0  0  0  # atno 17342 bound_to 10162
  139.5458  144.7297  151.4587 LP  0  0  0  0  0  0  0  0  0  0  0  0  # atno 17343 bound_to 10162
  156.6244  130.8640  151.3482 LP  0  0  0  0  0  0  0  0  0  0  0  0  # atno 17370 bound_to 10713
  157.7202  130.9548  150.1409 LP  0  0  0  0  0  0  0  0  0  0  0  0  # atno 17371 bound_to 10713
  139.8742  134.9320  156.3543 LP  0  0  0  0  0  0  0  0  0  0  0  0  # atno 17394 bound_to 11000
  140.9480  133.7470  156.0233 LP  0  0  0  0  0  0  0  0  0  0  0  0  # atno 17395 bound_to 11000

$$$$
