#       Name:                AV-unprocessed.smi:2149
#       Creating user name   scv26
#       Creation time:       Fri Mar 27 11:53:19 2020


#       File generated by GOLD software.
#

@<TRIPOS>MOLECULE
AV-unprocessed.smi:2149
    46    47     1
SMALL
NO_CHARGES


@<TRIPOS>ATOM
      1 ****        -5.7917  -1.1653   1.7699 C.3            1 S1                 0.0000
      2 ****        -4.0917  -1.8491   1.9421 S.o2           1 S1                 0.0000
      3 ****        -3.4065  -1.0761   2.9896 O.2            1 S1                 0.0000
      4 ****        -4.1691  -3.3144   2.0424 O.2            1 S1                 0.0000
      5 ****        -3.3503  -1.4606   0.4224 N.3            1 S1                 0.0000
      6 ****        -3.8553  -2.1586  -0.7773 C.3            1 S1                 0.0000
      7 ****        -3.4149  -1.4518  -2.0689 C.3            1 S1                 0.0000
      8 ****        -1.8943  -1.2791  -2.1132 C.3            1 S1                 0.0000
      9 ****        -1.4349  -0.5028  -0.8685 C.3            1 S1                 0.0000
     10 ****         0.0869  -0.3056  -0.8723 C.2            1 S1                 0.0000
     11 ****         0.8408  -1.2794  -0.8589 O.2            1 S1                 0.0000
     12 ****         0.5279   0.9620  -0.8851 N.am           1 S1                 0.0000
     13 ****         1.9311   1.3578  -0.8747 C.3            1 S1                 0.0000
     14 ****         2.5287   1.2814   0.5407 C.3            1 S1                 0.0000
     15 ****         3.9872   1.6940   0.5725 C.ar           1 S1                 0.0000
     16 ****         4.3980   2.9756   0.9994 C.ar           1 S1                 0.0000
     17 ****         5.7727   3.2927   1.0017 C.ar           1 S1                 0.0000
     18 ****         6.7055   2.3242   0.5760 C.ar           1 S1                 0.0000
     19 ****         6.2397   1.0608   0.1581 C.ar           1 S1                 0.0000
     20 ****         4.9149   0.7947   0.1715 N.pl3          1 S1                 1.0000
     21 ****        -1.8909  -1.2286   0.4158 C.3            1 S1                 0.0000
     22 ****        -6.3231  -1.2863   2.7137 H              1 S1                 0.0000
     23 ****        -6.3329  -1.6957   0.9879 H              1 S1                 0.0000
     24 ****        -5.7348  -0.1058   1.5222 H              1 S1                 0.0000
     25 ****        -3.4907  -3.1867  -0.7668 H              1 S1                 0.0000
     26 ****        -4.9425  -2.2111  -0.7466 H              1 S1                 0.0000
     27 ****        -3.7494  -2.0225  -2.9356 H              1 S1                 0.0000
     28 ****        -3.8989  -0.4766  -2.1358 H              1 S1                 0.0000
     29 ****        -1.4154  -2.2588  -2.1543 H              1 S1                 0.0000
     30 ****        -1.6076  -0.7491  -3.0225 H              1 S1                 0.0000
     31 ****        -1.9081   0.4810  -0.8867 H              1 S1                 0.0000
     32 ****        -0.1581   1.7032  -0.8990 H              1 S1                 0.0000
     33 ****         2.4980   0.7327  -1.5670 H              1 S1                 0.0000
     34 ****         1.9987   2.3785  -1.2521 H              1 S1                 0.0000
     35 ****         1.9611   1.9192   1.2196 H              1 S1                 0.0000
     36 ****         2.4469   0.2666   0.9330 H              1 S1                 0.0000
     37 ****         3.6710   3.7075   1.3209 H              1 S1                 0.0000
     38 ****         6.1073   4.2673   1.3262 H              1 S1                 0.0000
     39 ****         7.7625   2.5474   0.5699 H              1 S1                 0.0000
     40 ****         6.8813   0.2614  -0.1832 H              1 S1                 0.0000
     41 ****        -1.6131  -0.6279   1.2819 H              1 S1                 0.0000
     42 ****        -1.3855  -2.1897   0.5241 H              1 S1                 0.0000
     43 ****         4.5994  -0.1265  -0.1341 H              1 S1                 0.0000
     44 ****        -3.7235  -0.5384   0.3212 LP             1 S1                 0.0000
     45 ****         0.4621  -2.2048  -0.8454 LP             1 S1                 0.0000
     46 ****         1.8317  -1.1447  -0.8614 LP             1 S1                 0.0000
@<TRIPOS>BOND
    1    1    2 1     
    2    1   22 1     
    3    1   23 1     
    4    1   24 1     
    5    2    3 2     
    6    2    4 2     
    7    2    5 1     
    8    5   21 1     
    9    5    6 1     
   10    6    7 1     
   11    6   25 1     
   12    6   26 1     
   13    7    8 1     
   14    7   27 1     
   15    7   28 1     
   16    8    9 1     
   17    8   29 1     
   18    8   30 1     
   19    9   10 1     
   20    9   21 1     
   21    9   31 1     
   22   10   11 2     
   23   10   12 am    
   24   12   13 1     
   25   12   32 1     
   26   13   14 1     
   27   13   33 1     
   28   13   34 1     
   29   14   15 1     
   30   14   35 1     
   31   14   36 1     
   32   15   20 ar    
   33   15   16 ar    
   34   16   17 ar    
   35   16   37 1     
   36   17   18 ar    
   37   17   38 1     
   38   18   19 ar    
   39   18   39 1     
   40   19   20 ar    
   41   19   40 1     
   42   20   43 1     
   43   21   41 1     
   44   21   42 1     
   45    5   44 1     
   46   11   45 1     
   47   11   46 1     
@<TRIPOS>SUBSTRUCTURE
      1 S1             1
@<TRIPOS>SET
LONE_PAIRS      STATIC     ATOMS    <user>   **** ""
5 3 4 44 45 46
DONOR_HYDROGENS      STATIC     ATOMS    <user>   **** ""
2 32 43
ATOM$BLUE        STATIC     ATOMS    COLORGROUP SYSTEM
5 3 4 44 45 46
ATOM$RED        STATIC     ATOMS    COLORGROUP SYSTEM
2 32 43
