AV-unprocessed.smi:2391|AV-procd|sdf|9482|dock3
  -GOLD-   2272013113D 1   1.00000     0.00000
 Structure written by MMmdl.
 35 36  0  0  0  0  0  0  0  0  1 V2000
  146.5957  137.2967  155.2919 O   0  0  0  0  0  0  0  0  0  0  0  0
  147.3366  136.9099  154.3880 C   0  0  0  0  0  0  0  0  0  0  0  0
  148.3530  137.6156  153.8623 N   0  0  0  0  0  0  0  0  0  0  0  0
  148.7842  138.9222  154.2122 C   0  0  0  0  0  0  0  0  0  0  0  0
  147.7525  139.8472  154.4798 C   0  0  0  0  0  0  0  0  0  0  0  0
  148.1089  141.1593  154.8350 C   0  0  0  0  0  0  0  0  0  0  0  0
  149.4805  141.4588  154.8979 C   0  0  0  0  0  0  0  0  0  0  0  0
  150.4352  140.5413  154.6325 N   0  0  0  0  0  0  0  0  0  0  0  0
  150.0886  139.2942  154.2957 N   0  0  0  0  0  0  0  0  0  0  0  0
  147.2228  135.7126  153.7945 N   0  0  0  0  0  0  0  0  0  0  0  0
  146.2386  134.6784  154.1219 C   0  0  1  0  0  0  0  0  0  0  0  0
  145.3334  134.4123  152.8908 C   0  0  0  0  0  0  0  0  0  0  0  0
  146.0618  133.7926  151.6911 C   0  0  0  0  0  0  0  0  0  0  0  0
  145.1211  134.0174  150.5072 C   0  0  0  0  0  0  0  0  0  0  0  0
  144.3575  135.3096  150.8227 C   0  0  0  0  0  0  0  0  0  0  0  0
  144.6830  135.6623  152.2809 C   0  0  0  0  0  0  0  0  0  0  0  0
  146.9899  133.4263  154.6291 C   0  0  0  0  0  0  0  0  0  0  0  0
  148.0541  133.1964  153.8586 F   0  0  0  0  0  0  0  0  0  0  0  0
  147.4231  133.5992  155.8771 F   0  0  0  0  0  0  0  0  0  0  0  0
  146.1964  132.3551  154.5909 F   0  0  0  0  0  0  0  0  0  0  0  0
  148.8774  137.1681  153.1253 H   0  0  0  0  0  0  0  0  0  0  0  0
  146.7126  139.5611  154.4160 H   0  0  0  0  0  0  0  0  0  0  0  0
  147.3602  141.9068  155.0511 H   0  0  0  0  0  0  0  0  0  0  0  0
  149.8188  142.4488  155.1653 H   0  0  0  0  0  0  0  0  0  0  0  0
  147.8796  135.4858  153.0623 H   0  0  0  0  0  0  0  0  0  0  0  0
  145.6035  135.0261  154.9387 H   0  0  0  0  0  0  0  0  0  0  0  0
  144.5354  133.7268  153.1809 H   0  0  0  0  0  0  0  0  0  0  0  0
  147.0025  134.3167  151.5150 H   0  0  0  0  0  0  0  0  0  0  0  0
  146.2933  132.7367  151.8353 H   0  0  0  0  0  0  0  0  0  0  0  0
  145.6592  134.0725  149.5605 H   0  0  0  0  0  0  0  0  0  0  0  0
  144.4178  133.1867  150.4369 H   0  0  0  0  0  0  0  0  0  0  0  0
  144.6586  136.1197  150.1574 H   0  0  0  0  0  0  0  0  0  0  0  0
  143.2859  135.1584  150.6864 H   0  0  0  0  0  0  0  0  0  0  0  0
  143.7933  135.9739  152.8287 H   0  0  0  0  0  0  0  0  0  0  0  0
  145.3879  136.4946  152.2990 H   0  0  0  0  0  0  0  0  0  0  0  0
  1  2  2  0  0  0  0
  2  3  1  0  0  0  0
  2 10  1  0  0  0  0
  3  4  1  0  0  0  0
  3 21  1  0  0  0  0
  4  9  1  0  0  0  0
  4  5  2  0  0  0  0
  5  6  1  0  0  0  0
  5 22  1  0  0  0  0
  6  7  2  0  0  0  0
  6 23  1  0  0  0  0
  7  8  1  0  0  0  0
  7 24  1  0  0  0  0
  8  9  2  0  0  0  0
 10 11  1  0  0  0  0
 10 25  1  0  0  0  0
 11 12  1  0  0  0  0
 11 17  1  0  0  0  0
 11 26  1  0  0  0  0
 12 16  1  0  0  0  0
 12 13  1  0  0  0  0
 12 27  1  0  0  0  0
 13 14  1  0  0  0  0
 13 28  1  0  0  0  0
 13 29  1  0  0  0  0
 14 15  1  0  0  0  0
 14 30  1  0  0  0  0
 14 31  1  0  0  0  0
 15 16  1  0  0  0  0
 15 32  1  0  0  0  0
 15 33  1  0  0  0  0
 16 34  1  0  0  0  0
 16 35  1  0  0  0  0
 17 18  1  0  0  0  0
 17 19  1  0  0  0  0
 17 20  1  0  0  0  0
M  END
> <s_m_source_file>
AV-unprocessed.smi

> <i_m_source_file_index>
2391

> <i_lp_mmshare_version>
43012

> <i_f3d_flags>
0

> <s_epik_input>
W0NIMl0xW0NIMl1bQ0gyXVtDSDJdW0NIXTFbQ0BIXShDKEYpKEYpRilbTkhdQyg9TylbTkhdYzJbY0hdW2NIXVtjSF1ubjI=

> <s_epik_cmdline>
J2VwaWtfcHl0aG9uJywgJy1waCcsICc3LjAnLCAnLXRuJywgJzgnLCAnLW1hJywgJzIwMCcsICctbWV0YWxfYmluZGluZycsICctaW1hZScsICc8aW5maWxlLm1hZT4nLCAnLW9tYWUnLCAnPG91dGZpbGUubWFlPic=

> <r_lp_tautomer_probability>
1

> <r_epik_Ionization_Penalty>
0.00359591

> <r_epik_Ionization_Penalty_Charging>
0

> <r_epik_Ionization_Penalty_Neutral>
0.00359591

> <r_epik_State_Penalty>
0.0123658

> <r_epik_Charging_Adjusted_Penalty>
0.0123658

> <i_epik_Tot_Q>
0

> <i_epik_Tot_abs_Q>
0

> <r_epik_Metal_State_Penalty>
0.0410426

> <b_epik_Metal_Only>
0

> <s_lp_Force_Field>
OPLS_2005

> <r_lp_Energy>
31.4034

> <b_lp_Chiralities_Consistent>
1

> <s_lp_Variant>
AV-unprocessed.smi:2391-2

> <Gold.Version>
5.8.1

> <Gold.Id.Protein>
6NUR|6NUR_protein|mol2

> <Gold.PLP.Fitness>
34.1752

> <Gold.PLP.PLP>
-23.8675

> <Gold.PLP.part.hbond>
-2.9619

> <Gold.PLP.part.metal>
0.0000

> <Gold.PLP.part.buried>
-2.9929

> <Gold.PLP.part.nonpolar>
-18.2702

> <Gold.PLP.part.repulsive>
0.3139

> <Gold.PLP.ligand.clash>
0.0000

> <Gold.PLP.ligand.torsion>
0.8067

> <Gold.PLP.Chemscore.Hbond>
2.8720

> <Gold.PLP.Chemscore.CHOScore>
1.0000

> <Gold.PLP.Chemscore.Metal>
0.0000

> <Gold.Chemscore.Hbonds>
donor molecule, donor type, donor heavy atom, donor atom, acceptor molecule, acceptor atom, score
      L1  H     3    21       P1  7948  1.00
      L1  H    10    25       P1  7948  0.86
      P1  H  7989  7998       L1     8  0.98
      L1  C     7    24       P1  8028  1.00

> <Gold.PLP.Chemscore.Internal.Correction>
0.3051

> <Gold.Rescore>
     Score         DG    S(hbond)    S(metal)    S(lipo)     H(rot)  DE(clash)    DE(int)     intcor
     12.80     -15.32       2.43        0.00      43.95       1.33       0.14       2.39       ----

> <Gold.Chemscore.Fitness>
12.7962

> <Gold.Chemscore.DG>
-15.3195

> <Gold.Chemscore.ZeroCoef>
-5.4800

> <Gold.Chemscore.Hbond>
2.4260

> <Gold.Chemscore.Metal>
0.0000

> <Gold.Chemscore.Lipo>
43.9535

> <Gold.Chemscore.Internal_Hbond>
0.0000

> <Gold.Chemscore.DEClash>
0.1359

> <Gold.Chemscore.DEInternal>
2.3874

> <Gold.Chemscore.Rot>
1.3304

> <Gold.Chemscore.Internal.Correction>
   9.000000E+99

> <Gold.Chemscore.Hbonds>
donor molecule, donor type, donor heavy atom, donor atom, acceptor molecule, acceptor atom, score
      L1  H     3    21       P1  7948  0.93
      L1  H    10    25       P1  7948  0.87
      P1  H  7989  7998       L1     8  0.31

> <Gold.Chemscore.Hbond.Weighted>
-8.1027

> <Gold.Chemscore.Metal.Weighted>
-0.0000

> <Gold.Chemscore.Lipo.Weighted>
-5.1426

> <Gold.Chemscore.Internal_Hbond.Weighted>
0.0000

> <Gold.Chemscore.DEClash.Weighted>
0.1359

> <Gold.Chemscore.DEInternal.Weighted>
2.3874

> <Gold.Chemscore.Rot.Weighted>
3.4057

> <Gold.Chemscore.Internal.Correction.Weighted>
   9.000000E+99

> <Gold.Protein.RotatedTorsions>
[ 6907 6896 6895 6894 ] final   15.95 input  -60.11 | X-H torsion
[ 7974 7965 7964 7962 ] final  -95.96 input  175.53 | X-H torsion
[ 8008 7997 7996 7995 ] final   90.22 input   59.86 | X-H torsion
[ 10167 10162 10161 10158 ] final  177.73 input  -65.29 | X-H torsion
[ 10718 10713 10712 10709 ] final   50.70 input   66.30 | X-H torsion
[ 10763 10752 10751 10750 ] final  -23.28 input  -60.55 | X-H torsion
[ 11005 11000 10999 10996 ] final  111.43 input  -57.11 | X-H torsion

> <Gold.Protein.ActiveResidues>
 VAL166  LYS551  ARG553  GLY616  TRP617  ASP618  TYR619  PRO620  LYS621  CYS622 
 ASP623  PHE694  ASN695  SER759  ASP760  ASP761  ALA762  ILE779  LEU786  VAL792 
 PHE793  MET794  SER795  GLU796  ALA797  LYS798  CYS799  TRP800  GLU811  SER814 

> <Gold.Protein.RotatedAtoms>
  151.8262  135.0636  160.0430 H   0  0  0  0  0  0  0  0  0  0  0  0  # atno 6907 bound_to 6896
  152.2914  133.5561  159.5568 H   0  0  0  0  0  0  0  0  0  0  0  0  # atno 6908 bound_to 6896
  150.7232  134.0339  159.3785 H   0  0  0  0  0  0  0  0  0  0  0  0  # atno 6909 bound_to 6896
  145.3532  140.9480  143.2542 H   0  0  0  0  0  0  0  0  0  0  0  0  # atno 7974 bound_to 7965
  156.0094  140.3352  155.6925 H   0  0  0  0  0  0  0  0  0  0  0  0  # atno 8008 bound_to 7997
  155.6179  140.0672  157.2704 H   0  0  0  0  0  0  0  0  0  0  0  0  # atno 8009 bound_to 7997
  154.4276  140.1782  156.1329 H   0  0  0  0  0  0  0  0  0  0  0  0  # atno 8010 bound_to 7997
  139.5265  144.2764  152.0584 H   0  0  0  0  0  0  0  0  0  0  0  0  # atno 10167 bound_to 10162
  157.4910  130.8376  149.8202 H   0  0  0  0  0  0  0  0  0  0  0  0  # atno 10718 bound_to 10713
  153.6654  135.6974  153.5164 H   0  0  0  0  0  0  0  0  0  0  0  0  # atno 10763 bound_to 10752
  153.2599  135.4248  155.0883 H   0  0  0  0  0  0  0  0  0  0  0  0  # atno 10764 bound_to 10752
  154.8441  135.3552  154.6198 H   0  0  0  0  0  0  0  0  0  0  0  0  # atno 10765 bound_to 10752
  139.8903  134.9508  156.6432 H   0  0  0  0  0  0  0  0  0  0  0  0  # atno 11005 bound_to 11000
  144.8702  139.5049  143.6771 LP  0  0  0  0  0  0  0  0  0  0  0  0  # atno 17320 bound_to 7965
  146.2959  139.7277  142.9127 LP  0  0  0  0  0  0  0  0  0  0  0  0  # atno 17321 bound_to 7965
  140.2221  144.4455  150.6337 LP  0  0  0  0  0  0  0  0  0  0  0  0  # atno 17342 bound_to 10162
  140.6412  143.2204  151.6287 LP  0  0  0  0  0  0  0  0  0  0  0  0  # atno 17343 bound_to 10162
  156.0173  130.3808  150.2070 LP  0  0  0  0  0  0  0  0  0  0  0  0  # atno 17370 bound_to 10713
  157.0259  130.9993  151.3326 LP  0  0  0  0  0  0  0  0  0  0  0  0  # atno 17371 bound_to 10713
  140.7578  133.8843  155.8395 LP  0  0  0  0  0  0  0  0  0  0  0  0  # atno 17394 bound_to 11000
  140.9947  134.1231  157.4374 LP  0  0  0  0  0  0  0  0  0  0  0  0  # atno 17395 bound_to 11000

$$$$
