AV-unprocessed.smi:1721|AV-procd|sdf|6941|dock3
  -GOLD-   22720 8153D 1   1.00000     0.00000
 Structure written by MMmdl.
 44 46  0  0  0  0  0  0  0  0  2 V2000
  151.3961  138.2341  154.2665 C   0  0  0  0  0  0  0  0  0  0  0  0
  150.0394  138.2535  153.8360 O   0  0  0  0  0  0  0  0  0  0  0  0
  149.3507  139.4511  153.8773 C   0  0  0  0  0  0  0  0  0  0  0  0
  150.0094  140.5581  154.3031 N   0  0  0  0  0  0  0  0  0  0  0  0
  149.3419  141.7292  154.3399 C   0  0  0  0  0  0  0  0  0  0  0  0
  147.9963  141.8602  153.9521 C   0  0  0  0  0  0  0  0  0  0  0  0
  147.3107  140.7138  153.5091 C   0  0  0  0  0  0  0  0  0  0  0  0
  147.9938  139.4729  153.4760 C   0  0  0  0  0  0  0  0  0  0  0  0
  147.4118  138.2500  153.0368 N   0  0  0  0  0  0  0  0  0  0  0  0
  146.1179  137.8904  152.9874 C   0  0  0  0  0  0  0  0  0  0  0  0
  145.1645  138.5855  153.3363 O   0  0  0  0  0  0  0  0  0  0  0  0
  145.9800  136.6480  152.5029 N   0  0  0  0  0  0  0  0  0  0  0  0
  144.7018  135.9641  152.3217 C   0  0  2  0  0  0  0  0  0  0  0  0
  144.0423  135.5518  153.6314 C   0  0  0  0  0  0  0  0  0  0  0  0
  143.0289  134.4917  153.1867 C   0  0  0  0  0  0  0  0  0  0  0  0
  143.5608  133.8851  151.9414 N   0  3  2  0  0  0  0  0  0  0  0  0
  143.7126  132.4065  152.0048 C   0  0  0  0  0  0  0  0  0  0  0  0
  144.6144  131.8978  150.8702 C   0  0  0  0  0  0  0  0  0  0  0  0
  146.0363  132.4813  150.9743 C   0  0  0  0  0  0  0  0  0  0  0  0
  146.0733  133.8080  151.7564 C   0  0  0  0  0  0  0  0  0  0  0  0
  144.7836  134.6381  151.5408 C   0  0  2  0  0  0  0  0  0  0  0  0
  151.7901  137.2223  154.1724 H   0  0  0  0  0  0  0  0  0  0  0  0
  151.4873  138.5282  155.3131 H   0  0  0  0  0  0  0  0  0  0  0  0
  152.0184  138.8887  153.6546 H   0  0  0  0  0  0  0  0  0  0  0  0
  149.8987  142.5884  154.6836 H   0  0  0  0  0  0  0  0  0  0  0  0
  147.5021  142.8195  153.9895 H   0  0  0  0  0  0  0  0  0  0  0  0
  146.2847  140.8192  153.1955 H   0  0  0  0  0  0  0  0  0  0  0  0
  148.0765  137.5404  152.7641 H   0  0  0  0  0  0  0  0  0  0  0  0
  146.8139  136.1411  152.2440 H   0  0  0  0  0  0  0  0  0  0  0  0
  144.0138  136.6348  151.8019 H   0  0  0  0  0  0  0  0  0  0  0  0
  144.7774  135.1030  154.3014 H   0  0  0  0  0  0  0  0  0  0  0  0
  143.5760  136.3873  154.1545 H   0  0  0  0  0  0  0  0  0  0  0  0
  142.8387  133.7619  153.9750 H   0  0  0  0  0  0  0  0  0  0  0  0
  142.0761  134.9643  152.9459 H   0  0  0  0  0  0  0  0  0  0  0  0
  144.1432  132.1121  152.9636 H   0  0  0  0  0  0  0  0  0  0  0  0
  142.7261  131.9456  151.9470 H   0  0  0  0  0  0  0  0  0  0  0  0
  144.6577  130.8081  150.8733 H   0  0  0  0  0  0  0  0  0  0  0  0
  144.1726  132.1817  149.9139 H   0  0  0  0  0  0  0  0  0  0  0  0
  146.7012  131.7664  151.4606 H   0  0  0  0  0  0  0  0  0  0  0  0
  146.4340  132.6289  149.9694 H   0  0  0  0  0  0  0  0  0  0  0  0
  146.1928  133.5970  152.8202 H   0  0  0  0  0  0  0  0  0  0  0  0
  146.9595  134.3686  151.4579 H   0  0  0  0  0  0  0  0  0  0  0  0
  144.7090  134.8550  150.4740 H   0  0  0  0  0  0  0  0  0  0  0  0
  142.8767  134.0728  151.2224 H   0  0  0  0  0  0  0  0  0  0  0  0
  1  2  1  0  0  0  0
  1 22  1  0  0  0  0
  1 23  1  0  0  0  0
  1 24  1  0  0  0  0
  2  3  1  0  0  0  0
  3  8  1  0  0  0  0
  3  4  2  0  0  0  0
  4  5  1  0  0  0  0
  5  6  2  0  0  0  0
  5 25  1  0  0  0  0
  6  7  1  0  0  0  0
  6 26  1  0  0  0  0
  7  8  2  0  0  0  0
  7 27  1  0  0  0  0
  8  9  1  0  0  0  0
  9 10  1  0  0  0  0
  9 28  1  0  0  0  0
 10 11  2  0  0  0  0
 10 12  1  0  0  0  0
 12 13  1  0  0  0  0
 12 29  1  0  0  0  0
 13 21  1  0  0  0  0
 13 14  1  0  0  0  0
 13 30  1  0  0  0  0
 14 15  1  0  0  0  0
 14 31  1  0  0  0  0
 14 32  1  0  0  0  0
 15 16  1  0  0  0  0
 15 33  1  0  0  0  0
 15 34  1  0  0  0  0
 16 21  1  0  0  0  0
 16 17  1  0  0  0  0
 16 44  1  0  0  0  0
 17 18  1  0  0  0  0
 17 35  1  0  0  0  0
 17 36  1  0  0  0  0
 18 19  1  0  0  0  0
 18 37  1  0  0  0  0
 18 38  1  0  0  0  0
 19 20  1  0  0  0  0
 19 39  1  0  0  0  0
 19 40  1  0  0  0  0
 20 21  1  0  0  0  0
 20 41  1  0  0  0  0
 20 42  1  0  0  0  0
 21 43  1  0  0  0  0
M  CHG  1  16   1
M  END
> <s_m_source_file>
AV-unprocessed.smi

> <i_m_source_file_index>
1721

> <i_lp_mmshare_version>
43012

> <i_f3d_flags>
0

> <s_epik_input>
W0NIM11PYzFuW2NIXVtjSF1bY0hdYzFbTkhdQyg9TylbTkhdW0NASF0oW0NIMl1bQ0gyXTIpW0NAQEhdKE4yMylbQ0gyXVtDSDJdW0NIMl1bQ0gyXTM=

> <s_epik_cmdline>
J2VwaWtfcHl0aG9uJywgJy1waCcsICc3LjAnLCAnLXRuJywgJzgnLCAnLW1hJywgJzIwMCcsICctbWV0YWxfYmluZGluZycsICctaW1hZScsICc8aW5maWxlLm1hZT4nLCAnLW9tYWUnLCAnPG91dGZpbGUubWFlPic=

> <r_lp_tautomer_probability>
1

> <r_epik_Ionization_Penalty>
0.00104793

> <r_epik_Ionization_Penalty_Charging>
0.000974069

> <r_epik_Ionization_Penalty_Neutral>
7.38649e-05

> <r_epik_State_Penalty>
0.000633842

> <r_epik_Charging_Adjusted_Penalty>
0.00160791

> <i_epik_Tot_Q>
1

> <i_epik_Tot_abs_Q>
1

> <r_epik_Metal_State_Penalty>
-0

> <b_epik_Metal_Only>
0

> <s_lp_Force_Field>
OPLS_2005

> <r_lp_Energy>
43.7012

> <b_lp_Chiralities_Consistent>
1

> <s_lp_Variant>
AV-unprocessed.smi:1721-7

> <Gold.Version>
5.8.1

> <Gold.Id.Protein>
6NUR|6NUR_protein|mol2

> <Gold.PLP.Fitness>
51.5000

> <Gold.PLP.PLP>
-36.7132

> <Gold.PLP.part.hbond>
-4.0956

> <Gold.PLP.part.metal>
0.0000

> <Gold.PLP.part.buried>
-2.8416

> <Gold.PLP.part.nonpolar>
-36.0433

> <Gold.PLP.part.repulsive>
6.1744

> <Gold.PLP.ligand.clash>
0.0000

> <Gold.PLP.ligand.torsion>
0.2150

> <Gold.PLP.Chemscore.Hbond>
4.1403

> <Gold.PLP.Chemscore.CHOScore>
0.9305

> <Gold.PLP.Chemscore.Metal>
0.0000

> <Gold.Chemscore.Hbonds>
donor molecule, donor type, donor heavy atom, donor atom, acceptor molecule, acceptor atom, score
      L1  H     9    28       P1  7948  1.00
      L1  H    12    29       P1  7948  0.64
      P1  H  7989  7998       L1     4  0.80
      L1  C     5    25       P1  8028  0.89

> <Gold.PLP.Chemscore.Internal.Correction>
0.0042

> <Gold.Rescore>
     Score         DG    S(hbond)    S(metal)    S(lipo)     H(rot)  DE(clash)    DE(int)     intcor
     17.60     -20.70       2.38        0.00      89.36       1.25       1.95       1.15       ----

> <Gold.Chemscore.Fitness>
17.5953

> <Gold.Chemscore.DG>
-20.6975

> <Gold.Chemscore.ZeroCoef>
-5.4800

> <Gold.Chemscore.Hbond>
2.3821

> <Gold.Chemscore.Metal>
0.0000

> <Gold.Chemscore.Lipo>
89.3554

> <Gold.Chemscore.Internal_Hbond>
0.0000

> <Gold.Chemscore.DEClash>
1.9502

> <Gold.Chemscore.DEInternal>
1.1521

> <Gold.Chemscore.Rot>
1.2474

> <Gold.Chemscore.Internal.Correction>
   9.000000E+99

> <Gold.Chemscore.Hbonds>
donor molecule, donor type, donor heavy atom, donor atom, acceptor molecule, acceptor atom, score
      L1  H     9    28       P1  7948  1.00
      L1  H    12    29       P1  7948  0.63
      P1  H  7989  7998       L1     4  0.44

> <Gold.Chemscore.Hbond.Weighted>
-7.9564

> <Gold.Chemscore.Metal.Weighted>
-0.0000

> <Gold.Chemscore.Lipo.Weighted>
-10.4546

> <Gold.Chemscore.Internal_Hbond.Weighted>
0.0000

> <Gold.Chemscore.DEClash.Weighted>
1.9502

> <Gold.Chemscore.DEInternal.Weighted>
1.1521

> <Gold.Chemscore.Rot.Weighted>
3.1934

> <Gold.Chemscore.Internal.Correction.Weighted>
   9.000000E+99

> <Gold.Protein.RotatedTorsions>
[ 6907 6896 6895 6894 ] final  -97.94 input  -60.11 | X-H torsion
[ 7974 7965 7964 7962 ] final  135.64 input  175.53 | X-H torsion
[ 8008 7997 7996 7995 ] final   14.78 input   59.86 | X-H torsion
[ 10167 10162 10161 10158 ] final -108.22 input  -65.29 | X-H torsion
[ 10718 10713 10712 10709 ] final   71.13 input   66.30 | X-H torsion
[ 10763 10752 10751 10750 ] final -121.90 input  -60.55 | X-H torsion
[ 11005 11000 10999 10996 ] final  -90.22 input  -57.11 | X-H torsion

> <Gold.Protein.ActiveResidues>
 VAL166  LYS551  ARG553  GLY616  TRP617  ASP618  TYR619  PRO620  LYS621  CYS622 
 ASP623  PHE694  ASN695  SER759  ASP760  ASP761  ALA762  ILE779  LEU786  VAL792 
 PHE793  MET794  SER795  GLU796  ALA797  LYS798  CYS799  TRP800  GLU811  SER814 

> <Gold.Protein.RotatedAtoms>
  150.7031  134.1270  159.4055 H   0  0  0  0  0  0  0  0  0  0  0  0  # atno 6907 bound_to 6896
  151.9256  135.0277  160.0534 H   0  0  0  0  0  0  0  0  0  0  0  0  # atno 6908 bound_to 6896
  152.2219  133.4955  159.5204 H   0  0  0  0  0  0  0  0  0  0  0  0  # atno 6909 bound_to 6896
  144.9643  139.4675  143.5464 H   0  0  0  0  0  0  0  0  0  0  0  0  # atno 7974 bound_to 7965
  154.8533  140.2933  155.5584 H   0  0  0  0  0  0  0  0  0  0  0  0  # atno 8008 bound_to 7997
  156.3017  140.2492  156.3428 H   0  0  0  0  0  0  0  0  0  0  0  0  # atno 8009 bound_to 7997
  154.8997  140.0392  157.1875 H   0  0  0  0  0  0  0  0  0  0  0  0  # atno 8010 bound_to 7997
  140.1685  143.4062  152.1372 H   0  0  0  0  0  0  0  0  0  0  0  0  # atno 10167 bound_to 10162
  157.6436  130.9512  150.0746 H   0  0  0  0  0  0  0  0  0  0  0  0  # atno 10718 bound_to 10713
  154.8678  135.4152  154.2694 H   0  0  0  0  0  0  0  0  0  0  0  0  # atno 10763 bound_to 10752
  153.3607  135.7003  153.6720 H   0  0  0  0  0  0  0  0  0  0  0  0  # atno 10764 bound_to 10752
  153.5622  135.3607  155.2776 H   0  0  0  0  0  0  0  0  0  0  0  0  # atno 10765 bound_to 10752
  141.1570  133.7678  156.9706 H   0  0  0  0  0  0  0  0  0  0  0  0  # atno 11005 bound_to 11000
  146.3363  139.8813  142.8824 LP  0  0  0  0  0  0  0  0  0  0  0  0  # atno 17320 bound_to 7965
  145.2653  141.0091  143.3803 LP  0  0  0  0  0  0  0  0  0  0  0  0  # atno 17321 bound_to 7965
  139.5348  144.7198  151.4929 LP  0  0  0  0  0  0  0  0  0  0  0  0  # atno 17342 bound_to 10162
  140.6597  143.8524  150.6874 LP  0  0  0  0  0  0  0  0  0  0  0  0  # atno 17343 bound_to 10162
  156.1740  130.3647  149.9126 LP  0  0  0  0  0  0  0  0  0  0  0  0  # atno 17370 bound_to 10713
  156.7094  130.8964  151.3608 LP  0  0  0  0  0  0  0  0  0  0  0  0  # atno 17371 bound_to 10713
  140.1132  134.9464  157.2096 LP  0  0  0  0  0  0  0  0  0  0  0  0  # atno 17394 bound_to 11000
  140.3167  134.2962  155.7255 LP  0  0  0  0  0  0  0  0  0  0  0  0  # atno 17395 bound_to 11000

$$$$
