AV-unprocessed.smi:2238|AV-procd|sdf|9054|dock7
  -GOLD-   2272012263D 1   1.00000     0.00000
 Structure written by MMmdl.
 38 39  0  0  0  0  0  0  0  0  1 V2000
  151.2741  145.5950  160.1166 C   0  0  0  0  0  0  0  0  0  0  0  0
  151.9429  144.2491  160.3065 C   0  0  0  0  0  0  0  0  0  0  0  0
  152.4986  143.9012  161.5534 C   0  0  0  0  0  0  0  0  0  0  0  0
  153.1179  142.6495  161.7208 C   0  0  0  0  0  0  0  0  0  0  0  0
  153.1850  141.7430  160.6450 C   0  0  0  0  0  0  0  0  0  0  0  0
  153.9534  140.2133  160.8772 Cl  0  0  0  0  0  0  0  0  0  0  0  0
  152.6347  142.0773  159.3880 C   0  0  0  0  0  0  0  0  0  0  0  0
  152.7406  141.1404  158.3818 O   0  0  0  0  0  0  0  0  0  0  0  0
  151.7302  141.0973  157.3817 C   0  0  0  0  0  0  0  0  0  0  0  0
  151.7467  139.7266  156.6832 C   0  0  2  0  0  0  0  0  0  0  0  0
  153.0162  139.5727  156.0809 O   0  0  0  0  0  0  0  0  0  0  0  0
  150.6234  139.5668  155.6330 C   0  0  0  0  0  0  0  0  0  0  0  0
  150.2993  138.1534  155.3795 N   0  0  0  0  0  0  0  0  0  0  0  0
  151.3638  137.3259  154.9698 C   0  0  0  0  0  0  0  0  0  0  0  0
  151.1924  136.0664  154.7202 N   0  0  0  0  0  0  0  0  0  0  0  0
  149.9200  135.5027  154.8549 C   0  0  0  0  0  0  0  0  0  0  0  0
  149.7820  134.0252  154.5505 C   0  0  0  0  0  0  0  0  0  0  0  0
  148.8622  136.2566  155.2343 C   0  0  0  0  0  0  0  0  0  0  0  0
  149.0261  137.6823  155.5199 C   0  0  0  0  0  0  0  0  0  0  0  0
  148.0867  138.4022  155.8584 O   0  0  0  0  0  0  0  0  0  0  0  0
  152.0116  143.3417  159.2296 C   0  0  0  0  0  0  0  0  0  0  0  0
  151.0920  146.0863  161.0730 H   0  0  0  0  0  0  0  0  0  0  0  0
  150.3158  145.4761  159.6101 H   0  0  0  0  0  0  0  0  0  0  0  0
  151.9044  146.2471  159.5117 H   0  0  0  0  0  0  0  0  0  0  0  0
  152.4529  144.5905  162.3839 H   0  0  0  0  0  0  0  0  0  0  0  0
  153.5431  142.3850  162.6780 H   0  0  0  0  0  0  0  0  0  0  0  0
  150.7448  141.2986  157.8060 H   0  0  0  0  0  0  0  0  0  0  0  0
  151.9351  141.8697  156.6386 H   0  0  0  0  0  0  0  0  0  0  0  0
  151.6551  138.9582  157.4523 H   0  0  0  0  0  0  0  0  0  0  0  0
  153.1204  138.6690  155.8236 H   0  0  0  0  0  0  0  0  0  0  0  0
  149.7265  140.0801  155.9857 H   0  0  0  0  0  0  0  0  0  0  0  0
  150.8807  140.0887  154.7092 H   0  0  0  0  0  0  0  0  0  0  0  0
  152.3323  137.8199  154.8756 H   0  0  0  0  0  0  0  0  0  0  0  0
  148.9110  133.6009  155.0510 H   0  0  0  0  0  0  0  0  0  0  0  0
  150.6634  133.4782  154.8866 H   0  0  0  0  0  0  0  0  0  0  0  0
  149.6704  133.8706  153.4772 H   0  0  0  0  0  0  0  0  0  0  0  0
  147.8840  135.8086  155.3298 H   0  0  0  0  0  0  0  0  0  0  0  0
  151.5776  143.6388  158.2872 H   0  0  0  0  0  0  0  0  0  0  0  0
  1  2  1  0  0  0  0
  1 22  1  0  0  0  0
  1 23  1  0  0  0  0
  1 24  1  0  0  0  0
  2 21  1  0  0  0  0
  2  3  2  0  0  0  0
  3  4  1  0  0  0  0
  3 25  1  0  0  0  0
  4  5  2  0  0  0  0
  4 26  1  0  0  0  0
  5  6  1  0  0  0  0
  5  7  1  0  0  0  0
  7  8  1  0  0  0  0
  7 21  2  0  0  0  0
  8  9  1  0  0  0  0
  9 10  1  0  0  0  0
  9 27  1  0  0  0  0
  9 28  1  0  0  0  0
 10 11  1  0  0  0  0
 10 12  1  0  0  0  0
 10 29  1  0  0  0  0
 11 30  1  0  0  0  0
 12 13  1  0  0  0  0
 12 31  1  0  0  0  0
 12 32  1  0  0  0  0
 13 19  1  0  0  0  0
 13 14  1  0  0  0  0
 14 15  2  0  0  0  0
 14 33  1  0  0  0  0
 15 16  1  0  0  0  0
 16 17  1  0  0  0  0
 16 18  2  0  0  0  0
 17 34  1  0  0  0  0
 17 35  1  0  0  0  0
 17 36  1  0  0  0  0
 18 19  1  0  0  0  0
 18 37  1  0  0  0  0
 19 20  2  0  0  0  0
 21 38  1  0  0  0  0
M  END
> <s_m_source_file>
AV-unprocessed.smi

> <i_m_source_file_index>
2238

> <i_lp_mmshare_version>
43012

> <i_f3d_flags>
0

> <s_epik_input>
W0NIM11jMVtjSF1bY0hdYyhDbCljKFtjSF0xKU9bQ0gyXVtDQEhdKFtPSF0pW0NIMl1uMltjSF1uYyhbQ0gzXSlbY0hdYzI9Tw==

> <s_epik_cmdline>
J2VwaWtfcHl0aG9uJywgJy1waCcsICc3LjAnLCAnLXRuJywgJzgnLCAnLW1hJywgJzIwMCcsICctbWV0YWxfYmluZGluZycsICctaW1hZScsICc8aW5maWxlLm1hZT4nLCAnLW9tYWUnLCAnPG91dGZpbGUubWFlPic=

> <r_lp_tautomer_probability>
1

> <r_epik_Ionization_Penalty>
1.78029e-05

> <r_epik_Ionization_Penalty_Charging>
3.78421e-08

> <r_epik_Ionization_Penalty_Neutral>
1.7765e-05

> <r_epik_State_Penalty>
-0

> <r_epik_Charging_Adjusted_Penalty>
3.78421e-08

> <i_epik_Tot_Q>
0

> <i_epik_Tot_abs_Q>
0

> <r_epik_Metal_State_Penalty>
-0

> <b_epik_Metal_Only>
0

> <s_lp_Force_Field>
OPLS_2005

> <r_lp_Energy>
23.6885

> <b_lp_Chiralities_Consistent>
1

> <s_lp_Variant>
AV-unprocessed.smi:2238-1

> <Gold.Version>
5.8.1

> <Gold.Id.Protein>
6NUR|6NUR_protein|mol2

> <Gold.PLP.Fitness>
47.9411

> <Gold.PLP.PLP>
-43.6707

> <Gold.PLP.part.hbond>
-2.0367

> <Gold.PLP.part.metal>
0.0000

> <Gold.PLP.part.buried>
-3.7807

> <Gold.PLP.part.nonpolar>
-36.9198

> <Gold.PLP.part.repulsive>
0.1812

> <Gold.PLP.ligand.clash>
0.0000

> <Gold.PLP.ligand.torsion>
0.7281

> <Gold.PLP.Chemscore.Hbond>
1.9000

> <Gold.PLP.Chemscore.CHOScore>
0.0000

> <Gold.PLP.Chemscore.Metal>
0.0000

> <Gold.Chemscore.Hbonds>
donor molecule, donor type, donor heavy atom, donor atom, acceptor molecule, acceptor atom, score
      P1  H  7997  8008       L1    11  0.99
      P1  H 10752 10765       L1    15  0.90

> <Gold.PLP.Chemscore.Internal.Correction>
0.0265

> <Gold.Rescore>
     Score         DG    S(hbond)    S(metal)    S(lipo)     H(rot)  DE(clash)    DE(int)     intcor
     14.66     -16.53       1.01        0.00     119.81       2.47       0.02       1.84       ----

> <Gold.Chemscore.Fitness>
14.6632

> <Gold.Chemscore.DG>
-16.5318

> <Gold.Chemscore.ZeroCoef>
-5.4800

> <Gold.Chemscore.Hbond>
1.0064

> <Gold.Chemscore.Metal>
0.0000

> <Gold.Chemscore.Lipo>
119.8145

> <Gold.Chemscore.Internal_Hbond>
0.0000

> <Gold.Chemscore.DEClash>
0.0246

> <Gold.Chemscore.DEInternal>
1.8440

> <Gold.Chemscore.Rot>
2.4718

> <Gold.Chemscore.Internal.Correction>
   9.000000E+99

> <Gold.Chemscore.Hbonds>
donor molecule, donor type, donor heavy atom, donor atom, acceptor molecule, acceptor atom, score
      P1  H  7997  8008       L1    11  0.58
      P1  H 10752 10765       L1    15  0.18

> <Gold.Chemscore.Hbond.Weighted>
-3.3614

> <Gold.Chemscore.Metal.Weighted>
-0.0000

> <Gold.Chemscore.Lipo.Weighted>
-14.0183

> <Gold.Chemscore.Internal_Hbond.Weighted>
0.0000

> <Gold.Chemscore.DEClash.Weighted>
0.0246

> <Gold.Chemscore.DEInternal.Weighted>
1.8440

> <Gold.Chemscore.Rot.Weighted>
6.3279

> <Gold.Chemscore.Internal.Correction.Weighted>
   9.000000E+99

> <Gold.Protein.RotatedTorsions>
[ 6907 6896 6895 6894 ] final  -23.20 input  -60.11 | X-H torsion
[ 7974 7965 7964 7962 ] final  173.52 input  175.53 | X-H torsion
[ 8008 7997 7996 7995 ] final  -59.19 input   59.86 | X-H torsion
[ 10167 10162 10161 10158 ] final  117.95 input  -65.29 | X-H torsion
[ 10718 10713 10712 10709 ] final    6.67 input   66.30 | X-H torsion
[ 10763 10752 10751 10750 ] final -176.18 input  -60.55 | X-H torsion
[ 11005 11000 10999 10996 ] final  -33.81 input  -57.11 | X-H torsion

> <Gold.Protein.ActiveResidues>
 VAL166  LYS551  ARG553  GLY616  TRP617  ASP618  TYR619  PRO620  LYS621  CYS622 
 ASP623  PHE694  ASN695  SER759  ASP760  ASP761  ALA762  ILE779  LEU786  VAL792 
 PHE793  MET794  SER795  GLU796  ALA797  LYS798  CYS799  TRP800  GLU811  SER814 

> <Gold.Protein.RotatedAtoms>
  151.2075  135.0468  159.8897 H   0  0  0  0  0  0  0  0  0  0  0  0  # atno 6907 bound_to 6896
  152.5427  134.0782  159.8234 H   0  0  0  0  0  0  0  0  0  0  0  0  # atno 6908 bound_to 6896
  151.0931  133.5253  159.2646 H   0  0  0  0  0  0  0  0  0  0  0  0  # atno 6909 bound_to 6896
  144.7242  139.9660  143.6436 H   0  0  0  0  0  0  0  0  0  0  0  0  # atno 7974 bound_to 7965
  154.4341  140.1067  156.6077 H   0  0  0  0  0  0  0  0  0  0  0  0  # atno 8008 bound_to 7997
  155.5843  140.3491  155.4530 H   0  0  0  0  0  0  0  0  0  0  0  0  # atno 8009 bound_to 7997
  156.0295  140.1257  157.0263 H   0  0  0  0  0  0  0  0  0  0  0  0  # atno 8010 bound_to 7997
  139.6144  144.7089  151.2772 H   0  0  0  0  0  0  0  0  0  0  0  0  # atno 10167 bound_to 10162
  156.9255  130.5807  149.5648 H   0  0  0  0  0  0  0  0  0  0  0  0  # atno 10718 bound_to 10713
  154.5754  135.2831  155.0785 H   0  0  0  0  0  0  0  0  0  0  0  0  # atno 10763 bound_to 10752
  154.2142  135.6402  153.5128 H   0  0  0  0  0  0  0  0  0  0  0  0  # atno 10764 bound_to 10752
  153.0071  135.5499  154.6391 H   0  0  0  0  0  0  0  0  0  0  0  0  # atno 10765 bound_to 10752
  140.9665  133.7134  156.1454 H   0  0  0  0  0  0  0  0  0  0  0  0  # atno 11005 bound_to 11000
  146.0600  139.3594  143.0587 LP  0  0  0  0  0  0  0  0  0  0  0  0  # atno 17320 bound_to 7965
  145.8104  140.9728  143.0951 LP  0  0  0  0  0  0  0  0  0  0  0  0  # atno 17321 bound_to 7965
  140.7341  143.6776  150.8028 LP  0  0  0  0  0  0  0  0  0  0  0  0  # atno 17342 bound_to 10162
  140.0376  143.5379  152.2732 LP  0  0  0  0  0  0  0  0  0  0  0  0  # atno 17343 bound_to 10162
  156.0471  130.5546  150.8905 LP  0  0  0  0  0  0  0  0  0  0  0  0  # atno 17370 bound_to 10713
  157.5880  131.0945  150.9165 LP  0  0  0  0  0  0  0  0  0  0  0  0  # atno 17371 bound_to 10713
  140.7391  134.4170  157.5557 LP  0  0  0  0  0  0  0  0  0  0  0  0  # atno 17394 bound_to 11000
  139.8896  134.8825  156.2410 LP  0  0  0  0  0  0  0  0  0  0  0  0  # atno 17395 bound_to 11000

$$$$
