#       Name:                AV-unprocessed.smi:2190
#       Creating user name   scv26
#       Creation time:       Fri Mar 27 12:09:40 2020


#       File generated by GOLD software.
#

@<TRIPOS>MOLECULE
AV-unprocessed.smi:2190
    53    55     1
SMALL
NO_CHARGES


@<TRIPOS>ATOM
      1 ****        -6.1808  -0.6133   0.5248 C.3            1 S1                 0.0000
      2 ****        -5.2388   0.5146   0.1567 C.ar           1 S1                 0.0000
      3 ****        -5.7474   1.7849  -0.1748 C.ar           1 S1                 0.0000
      4 ****        -4.8666   2.8262  -0.5179 C.ar           1 S1                 0.0000
      5 ****        -3.4739   2.6047  -0.5330 C.ar           1 S1                 0.0000
      6 ****        -2.5391   3.7398  -0.9066 C.3            1 S1                 0.0000
      7 ****        -2.9493   1.3333  -0.2029 C.ar           1 S1                 0.0000
      8 ****        -1.5779   1.1833  -0.2371 O.3            1 S1                 0.0000
      9 ****        -1.0242  -0.0786   0.1111 C.3            1 S1                 0.0000
     10 ****         0.5065   0.0072   0.0088 C.3            1 S1                 0.0000
     11 ****         0.9994   0.6257   1.1810 O.3            1 S1                 0.0000
     12 ****         1.1490  -1.3865  -0.1372 C.3            1 S1                 0.0000
     13 ****         2.6166  -1.3321  -0.2520 N.pl3          1 S1                 0.0000
     14 ****         3.4044  -1.0894  -1.3398 C.2            1 S1                 0.0000
     15 ****         2.9531  -0.7979  -2.7333 C.3            1 S1                 0.0000
     16 ****         2.7639   0.5816  -2.9565 O.3            1 S1                 0.0000
     17 ****         4.6999  -1.1456  -0.9213 N.pl3          1 S1                 1.0000
     18 ****         4.7442  -1.4235   0.4450 C.ar           1 S1                 0.0000
     19 ****         5.8255  -1.5734   1.3079 C.ar           1 S1                 0.0000
     20 ****         5.5244  -1.8485   2.6577 C.ar           1 S1                 0.0000
     21 ****         4.1918  -1.9623   3.1036 C.ar           1 S1                 0.0000
     22 ****         3.1041  -1.8098   2.2188 C.ar           1 S1                 0.0000
     23 ****         3.4093  -1.5413   0.8842 C.ar           1 S1                 0.0000
     24 ****        -3.8474   0.2905   0.1409 C.ar           1 S1                 0.0000
     25 ****        -7.1799  -0.2380   0.7486 H              1 S1                 0.0000
     26 ****        -5.8152  -1.1457   1.4033 H              1 S1                 0.0000
     27 ****        -6.2580  -1.3223  -0.2996 H              1 S1                 0.0000
     28 ****        -6.8124   1.9654  -0.1681 H              1 S1                 0.0000
     29 ****        -5.2664   3.7974  -0.7702 H              1 S1                 0.0000
     30 ****        -1.8502   3.9484  -0.0875 H              1 S1                 0.0000
     31 ****        -3.0894   4.6548  -1.1273 H              1 S1                 0.0000
     32 ****        -1.9554   3.4750  -1.7885 H              1 S1                 0.0000
     33 ****        -1.3279  -0.3920   1.1118 H              1 S1                 0.0000
     34 ****        -1.3919  -0.8218  -0.5985 H              1 S1                 0.0000
     35 ****         0.7812   0.6159  -0.8534 H              1 S1                 0.0000
     36 ****         0.6127   1.4856   1.2485 H              1 S1                 0.0000
     37 ****         0.8724  -2.0364   0.6928 H              1 S1                 0.0000
     38 ****         0.7727  -1.8775  -1.0348 H              1 S1                 0.0000
     39 ****         3.6950  -1.1726  -3.4388 H              1 S1                 0.0000
     40 ****         2.0223  -1.3253  -2.9404 H              1 S1                 0.0000
     41 ****         2.4753   0.7059  -3.8480 H              1 S1                 0.0000
     42 ****         6.8471  -1.4827   0.9692 H              1 S1                 0.0000
     43 ****         6.3315  -1.9716   3.3655 H              1 S1                 0.0000
     44 ****         3.9988  -2.1690   4.1463 H              1 S1                 0.0000
     45 ****         2.0883  -1.8924   2.5755 H              1 S1                 0.0000
     46 ****        -3.4914  -0.6957   0.3968 H              1 S1                 0.0000
     47 ****         5.4950  -0.9966  -1.5291 H              1 S1                 0.0000
     48 ****        -1.1915   1.8586   0.3911 LP             1 S1                 0.0000
     49 ****        -1.2818   1.3882  -1.1701 LP             1 S1                 0.0000
     50 ****         1.9947   0.7059   1.1278 LP             1 S1                 0.0000
     51 ****         0.7512   0.0797   1.9811 LP             1 S1                 0.0000
     52 ****         3.6254   1.0679  -2.8104 LP             1 S1                 0.0000
     53 ****         2.0717   0.9331  -2.3262 LP             1 S1                 0.0000
@<TRIPOS>BOND
    1    1    2 1     
    2    1   25 1     
    3    1   26 1     
    4    1   27 1     
    5    2   24 ar    
    6    2    3 ar    
    7    3    4 ar    
    8    3   28 1     
    9    4    5 ar    
   10    4   29 1     
   11    5    6 1     
   12    5    7 ar    
   13    6   30 1     
   14    6   31 1     
   15    6   32 1     
   16    7    8 1     
   17    7   24 ar    
   18    8    9 1     
   19    9   10 1     
   20    9   33 1     
   21    9   34 1     
   22   10   11 1     
   23   10   12 1     
   24   10   35 1     
   25   11   36 1     
   26   12   13 1     
   27   12   37 1     
   28   12   38 1     
   29   13   23 1     
   30   13   14 1     
   31   14   15 1     
   32   14   17 2     
   33   15   16 1     
   34   15   39 1     
   35   15   40 1     
   36   16   41 1     
   37   17   18 1     
   38   17   47 1     
   39   18   23 ar    
   40   18   19 ar    
   41   19   20 ar    
   42   19   42 1     
   43   20   21 ar    
   44   20   43 1     
   45   21   22 ar    
   46   21   44 1     
   47   22   23 ar    
   48   22   45 1     
   49   24   46 1     
   50    8   48 1     
   51    8   49 1     
   52   11   50 1     
   53   11   51 1     
   54   16   52 1     
   55   16   53 1     
@<TRIPOS>SUBSTRUCTURE
      1 S1             1
@<TRIPOS>SET
LONE_PAIRS      STATIC     ATOMS    <user>   **** ""
6 48 49 50 51 52 53
DONOR_HYDROGENS      STATIC     ATOMS    <user>   **** ""
3 36 41 47
ATOM$BLUE        STATIC     ATOMS    COLORGROUP SYSTEM
6 48 49 50 51 52 53
ATOM$RED        STATIC     ATOMS    COLORGROUP SYSTEM
3 36 41 47
