AV-unprocessed.smi:525|AV-procd|sdf|2810|dock5
  -GOLD-   2262023293D 1   1.00000     0.00000
 Structure written by MMmdl.
 44 46  0  0  0  0  0  0  0  0  2 V2000
  151.9025  139.0726  155.8031 C   0  0  0  0  0  0  0  0  0  0  0  0
  152.7728  139.5289  156.8231 O   0  0  0  0  0  0  0  0  0  0  0  0
  152.4056  139.0470  158.1056 C   0  0  0  0  0  0  0  0  0  0  0  0
  151.0178  139.5823  158.4842 C   0  0  0  0  0  0  0  0  0  0  0  0
  150.7814  140.9271  157.9399 N   0  0  0  0  0  0  0  0  0  0  0  0
  149.9010  141.3430  156.9891 C   0  0  0  0  0  0  0  0  0  0  0  0
  148.7522  140.3257  156.1206 S   0  0  0  0  0  0  0  0  0  0  0  0
  147.8511  141.4492  155.0046 C   0  0  1  0  0  0  0  0  0  0  0  0
  147.2826  140.7688  153.7465 C   0  0  0  0  0  0  0  0  0  0  0  0
  147.6192  139.4918  153.5456 N   0  0  0  0  0  0  0  0  0  0  0  0
  146.5407  141.3716  152.9727 O   0  0  0  0  0  0  0  0  0  0  0  0
  146.7455  142.1519  155.7847 C   0  0  0  0  0  0  0  0  0  0  0  0
  146.6166  141.9703  157.1808 C   0  0  0  0  0  0  0  0  0  0  0  0
  145.5938  142.6268  157.8921 C   0  0  0  0  0  0  0  0  0  0  0  0
  144.6930  143.4697  157.2138 C   0  0  0  0  0  0  0  0  0  0  0  0
  144.8163  143.6562  155.8238 C   0  0  0  0  0  0  0  0  0  0  0  0
  145.8397  143.0009  155.1119 C   0  0  0  0  0  0  0  0  0  0  0  0
  150.0812  142.6807  156.8120 N   0  3  0  0  0  0  0  0  0  0  0  0
  151.0986  143.1276  157.6564 C   0  0  0  0  0  0  0  0  0  0  0  0
  151.6414  144.3965  157.8336 C   0  0  0  0  0  0  0  0  0  0  0  0
  152.6862  144.5121  158.7739 C   0  0  0  0  0  0  0  0  0  0  0  0
  153.1540  143.3931  159.4928 C   0  0  0  0  0  0  0  0  0  0  0  0
  152.5946  142.1119  159.3067 C   0  0  0  0  0  0  0  0  0  0  0  0
  151.5582  142.0058  158.3793 C   0  0  0  0  0  0  0  0  0  0  0  0
  152.2315  139.4620  154.8398 H   0  0  0  0  0  0  0  0  0  0  0  0
  150.8818  139.4172  155.9737 H   0  0  0  0  0  0  0  0  0  0  0  0
  151.9009  137.9836  155.7441 H   0  0  0  0  0  0  0  0  0  0  0  0
  152.3912  137.9560  158.1040 H   0  0  0  0  0  0  0  0  0  0  0  0
  153.1403  139.3608  158.8481 H   0  0  0  0  0  0  0  0  0  0  0  0
  150.2425  138.9240  158.0911 H   0  0  0  0  0  0  0  0  0  0  0  0
  150.8855  139.5985  159.5656 H   0  0  0  0  0  0  0  0  0  0  0  0
  148.5704  142.1977  154.6699 H   0  0  0  0  0  0  0  0  0  0  0  0
  147.2557  138.9924  152.7467 H   0  0  0  0  0  0  0  0  0  0  0  0
  148.2207  139.0224  154.2073 H   0  0  0  0  0  0  0  0  0  0  0  0
  147.3031  141.3258  157.7109 H   0  0  0  0  0  0  0  0  0  0  0  0
  145.5007  142.4837  158.9585 H   0  0  0  0  0  0  0  0  0  0  0  0
  143.9084  143.9732  157.7592 H   0  0  0  0  0  0  0  0  0  0  0  0
  144.1257  144.3034  155.3032 H   0  0  0  0  0  0  0  0  0  0  0  0
  145.9241  143.1536  154.0461 H   0  0  0  0  0  0  0  0  0  0  0  0
  151.2884  145.2545  157.2804 H   0  0  0  0  0  0  0  0  0  0  0  0
  153.1405  145.4774  158.9444 H   0  0  0  0  0  0  0  0  0  0  0  0
  153.9602  143.5188  160.2009 H   0  0  0  0  0  0  0  0  0  0  0  0
  152.9666  141.2617  159.8588 H   0  0  0  0  0  0  0  0  0  0  0  0
  149.5505  143.2425  156.1594 H   0  0  0  0  0  0  0  0  0  0  0  0
  1  2  1  0  0  0  0
  1 25  1  0  0  0  0
  1 26  1  0  0  0  0
  1 27  1  0  0  0  0
  2  3  1  0  0  0  0
  3  4  1  0  0  0  0
  3 28  1  0  0  0  0
  3 29  1  0  0  0  0
  4  5  1  0  0  0  0
  4 30  1  0  0  0  0
  4 31  1  0  0  0  0
  5 24  1  0  0  0  0
  5  6  1  0  0  0  0
  6  7  1  0  0  0  0
  6 18  2  0  0  0  0
  7  8  1  0  0  0  0
  8  9  1  0  0  0  0
  8 12  1  0  0  0  0
  8 32  1  0  0  0  0
  9 10  1  0  0  0  0
  9 11  2  0  0  0  0
 10 33  1  0  0  0  0
 10 34  1  0  0  0  0
 12 17  1  0  0  0  0
 12 13  2  0  0  0  0
 13 14  1  0  0  0  0
 13 35  1  0  0  0  0
 14 15  2  0  0  0  0
 14 36  1  0  0  0  0
 15 16  1  0  0  0  0
 15 37  1  0  0  0  0
 16 17  2  0  0  0  0
 16 38  1  0  0  0  0
 17 39  1  0  0  0  0
 18 19  1  0  0  0  0
 18 44  1  0  0  0  0
 19 24  2  0  0  0  0
 19 20  1  0  0  0  0
 20 21  2  0  0  0  0
 20 40  1  0  0  0  0
 21 22  1  0  0  0  0
 21 41  1  0  0  0  0
 22 23  2  0  0  0  0
 22 42  1  0  0  0  0
 23 24  1  0  0  0  0
 23 43  1  0  0  0  0
M  CHG  1  18   1
M  END
> <s_m_source_file>
AV-unprocessed.smi

> <i_m_source_file_index>
525

> <i_lp_mmshare_version>
43012

> <i_f3d_flags>
0

> <s_epik_input>
W2NIXTFbY0hdW2NIXVtjSF1jKGMxMiluKFtDSDJdW0NIMl1PW0NIM10pYyhuMilTW0NASF0oQyg9TylbTkgyXSljM1tjSF1bY0hdW2NIXVtjSF1bY0hdMw==

> <s_epik_cmdline>
J2VwaWtfcHl0aG9uJywgJy1waCcsICc3LjAnLCAnLXRuJywgJzgnLCAnLW1hJywgJzIwMCcsICctbWV0YWxfYmluZGluZycsICctaW1hZScsICc8aW5maWxlLm1hZT4nLCAnLW9tYWUnLCAnPG91dGZpbGUubWFlPic=

> <r_epik_Ionization_Penalty>
1.29485

> <r_epik_Ionization_Penalty_Charging>
1.29485

> <r_epik_Ionization_Penalty_Neutral>
1.02965e-06

> <r_epik_State_Penalty>
1.36828

> <r_epik_Charging_Adjusted_Penalty>
2.66313

> <i_epik_Tot_Q>
1

> <i_epik_Tot_abs_Q>
1

> <r_epik_Metal_State_Penalty>
1.43316

> <b_epik_Metal_Only>
0

> <s_lp_Force_Field>
OPLS_2005

> <r_lp_Energy>
11.9794

> <b_lp_Chiralities_Consistent>
1

> <s_lp_Variant>
AV-unprocessed.smi:525-4

> <Gold.Version>
5.8.1

> <Gold.Id.Protein>
6NUR|6NUR_protein|mol2

> <Gold.PLP.Fitness>
52.7899

> <Gold.PLP.PLP>
-45.1576

> <Gold.PLP.part.hbond>
-3.0000

> <Gold.PLP.part.metal>
0.0000

> <Gold.PLP.part.buried>
-3.6322

> <Gold.PLP.part.nonpolar>
-40.2400

> <Gold.PLP.part.repulsive>
0.3205

> <Gold.PLP.ligand.clash>
0.0000

> <Gold.PLP.ligand.torsion>
0.7537

> <Gold.PLP.Chemscore.Hbond>
2.9840

> <Gold.PLP.Chemscore.CHOScore>
0.0000

> <Gold.PLP.Chemscore.Metal>
0.0000

> <Gold.Chemscore.Hbonds>
donor molecule, donor type, donor heavy atom, donor atom, acceptor molecule, acceptor atom, score
      L1  H    18    44       P1  8028  2.00
      P1  H  7997  8008       L1     2  1.00

> <Gold.PLP.Chemscore.Internal.Correction>
0.1878

> <Gold.Rescore>
     Score         DG    S(hbond)    S(metal)    S(lipo)     H(rot)  DE(clash)    DE(int)     intcor
     16.33     -18.43       1.91        0.00     111.09       2.51       0.28       1.82       ----

> <Gold.Chemscore.Fitness>
16.3276

> <Gold.Chemscore.DG>
-18.4309

> <Gold.Chemscore.ZeroCoef>
-5.4800

> <Gold.Chemscore.Hbond>
1.9132

> <Gold.Chemscore.Metal>
0.0000

> <Gold.Chemscore.Lipo>
111.0948

> <Gold.Chemscore.Internal_Hbond>
0.0000

> <Gold.Chemscore.DEClash>
0.2822

> <Gold.Chemscore.DEInternal>
1.8211

> <Gold.Chemscore.Rot>
2.5145

> <Gold.Chemscore.Internal.Correction>
   9.000000E+99

> <Gold.Chemscore.Hbonds>
donor molecule, donor type, donor heavy atom, donor atom, acceptor molecule, acceptor atom, score
      L1  H    18    44       P1  8028  0.95
      P1  H  7997  8008       L1     2  0.98

> <Gold.Chemscore.Hbond.Weighted>
-6.3900

> <Gold.Chemscore.Metal.Weighted>
-0.0000

> <Gold.Chemscore.Lipo.Weighted>
-12.9981

> <Gold.Chemscore.Internal_Hbond.Weighted>
0.0000

> <Gold.Chemscore.DEClash.Weighted>
0.2822

> <Gold.Chemscore.DEInternal.Weighted>
1.8211

> <Gold.Chemscore.Rot.Weighted>
6.4372

> <Gold.Chemscore.Internal.Correction.Weighted>
   9.000000E+99

> <Gold.Protein.RotatedTorsions>
[ 6907 6896 6895 6894 ] final   -0.55 input  -60.11 | X-H torsion
[ 7974 7965 7964 7962 ] final -173.55 input  175.53 | X-H torsion
[ 8008 7997 7996 7995 ] final  -50.12 input   59.86 | X-H torsion
[ 10167 10162 10161 10158 ] final  -89.67 input  -65.29 | X-H torsion
[ 10718 10713 10712 10709 ] final   45.40 input   66.30 | X-H torsion
[ 10763 10752 10751 10750 ] final -152.59 input  -60.55 | X-H torsion
[ 11005 11000 10999 10996 ] final  -52.25 input  -57.11 | X-H torsion

> <Gold.Protein.ActiveResidues>
 VAL166  LYS551  ARG553  GLY616  TRP617  ASP618  TYR619  PRO620  LYS621  CYS622 
 ASP623  PHE694  ASN695  SER759  ASP760  ASP761  ALA762  ILE779  LEU786  VAL792 
 PHE793  MET794  SER795  GLU796  ALA797  LYS798  CYS799  TRP800  GLU811  SER814 

> <Gold.Protein.RotatedAtoms>
  151.5603  135.1065  159.9970 H   0  0  0  0  0  0  0  0  0  0  0  0  # atno 6907 bound_to 6896
  152.4449  133.7514  159.6707 H   0  0  0  0  0  0  0  0  0  0  0  0  # atno 6908 bound_to 6896
  150.8363  133.7940  159.3102 H   0  0  0  0  0  0  0  0  0  0  0  0  # atno 6909 bound_to 6896
  144.7137  140.1605  143.6376 H   0  0  0  0  0  0  0  0  0  0  0  0  # atno 7974 bound_to 7965
  154.4056  140.1280  156.4613 H   0  0  0  0  0  0  0  0  0  0  0  0  # atno 8008 bound_to 7997
  155.7270  140.3492  155.5022 H   0  0  0  0  0  0  0  0  0  0  0  0  # atno 8009 bound_to 7997
  155.9162  140.1044  157.1232 H   0  0  0  0  0  0  0  0  0  0  0  0  # atno 8010 bound_to 7997
  140.3625  143.2835  151.9597 H   0  0  0  0  0  0  0  0  0  0  0  0  # atno 10167 bound_to 10162
  157.4371  130.8059  149.7658 H   0  0  0  0  0  0  0  0  0  0  0  0  # atno 10718 bound_to 10713
  154.7984  135.3232  154.7610 H   0  0  0  0  0  0  0  0  0  0  0  0  # atno 10763 bound_to 10752
  153.8283  135.6881  153.4822 H   0  0  0  0  0  0  0  0  0  0  0  0  # atno 10764 bound_to 10752
  153.1688  135.4631  154.9816 H   0  0  0  0  0  0  0  0  0  0  0  0  # atno 10765 bound_to 10752
  141.0914  133.6632  156.3996 H   0  0  0  0  0  0  0  0  0  0  0  0  # atno 11005 bound_to 11000
  145.9035  139.2444  143.1480 LP  0  0  0  0  0  0  0  0  0  0  0  0  # atno 17320 bound_to 7965
  145.9787  140.8700  143.0125 LP  0  0  0  0  0  0  0  0  0  0  0  0  # atno 17321 bound_to 7965
  139.4812  144.5980  151.7656 LP  0  0  0  0  0  0  0  0  0  0  0  0  # atno 17342 bound_to 10162
  140.5113  144.1021  150.5996 LP  0  0  0  0  0  0  0  0  0  0  0  0  # atno 17343 bound_to 10162
  155.9934  130.3924  150.2899 LP  0  0  0  0  0  0  0  0  0  0  0  0  # atno 17370 bound_to 10713
  157.1061  131.0209  151.3066 LP  0  0  0  0  0  0  0  0  0  0  0  0  # atno 17371 bound_to 10713
  140.5242  134.6274  157.5328 LP  0  0  0  0  0  0  0  0  0  0  0  0  # atno 17394 bound_to 11000
  139.9741  134.7244  155.9984 LP  0  0  0  0  0  0  0  0  0  0  0  0  # atno 17395 bound_to 11000

$$$$
