AV-unprocessed.smi:1590|AV-procd|sdf|6396|dock1
  -GOLD-   22720 7 33D 1   1.00000     0.00000
 Structure written by MMmdl.
 34 35  0  0  0  0  0  0  0  0  2 V2000
  144.1634  145.1820  154.6407 C   0  0  0  0  0  0  0  0  0  0  0  0
  144.0735  143.6495  154.6653 C   0  0  0  0  0  0  0  0  0  0  0  0
  143.1996  143.1311  155.8167 C   0  0  0  0  0  0  0  0  0  0  0  0
  145.4286  143.0119  154.6608 C   0  0  0  0  0  0  0  0  0  0  0  0
  145.8263  142.1567  155.6071 N   0  0  0  0  0  0  0  0  0  0  0  0
  147.1160  141.6947  155.3898 N   0  0  0  0  0  0  0  0  0  0  0  0
  147.6744  142.1959  154.2793 C   0  0  0  0  0  0  0  0  0  0  0  0
  148.9195  141.8740  153.8913 N   0  5  0  0  0  0  0  0  0  0  0  0
  149.8031  141.3860  154.7918 C   0  0  0  0  0  0  0  0  0  0  0  0
  150.4195  140.3211  154.7085 O   0  0  0  0  0  0  0  0  0  0  0  0
  149.9865  142.1805  155.8547 N   0  0  0  0  0  0  0  0  0  0  0  0
  150.8792  141.8961  156.9702 C   0  0  0  0  0  0  0  0  0  0  0  0
  150.9564  143.0936  157.9095 C   0  0  0  0  0  0  0  0  0  0  0  0
  151.9117  144.2515  157.5848 C   0  0  0  0  0  0  0  0  0  0  0  0
  152.1485  144.4182  159.0884 C   0  0  0  0  0  0  0  0  0  0  0  0
  151.6912  142.9665  159.2529 C   0  0  0  0  0  0  0  0  0  0  0  0
  146.6291  143.3211  153.4139 S   0  0  0  0  0  0  0  0  0  0  0  0
  144.7306  145.5263  153.7755 H   0  0  0  0  0  0  0  0  0  0  0  0
  144.6540  145.5671  155.5353 H   0  0  0  0  0  0  0  0  0  0  0  0
  143.1721  145.6324  154.5863 H   0  0  0  0  0  0  0  0  0  0  0  0
  143.5786  143.3510  153.7398 H   0  0  0  0  0  0  0  0  0  0  0  0
  143.0957  142.0467  155.7715 H   0  0  0  0  0  0  0  0  0  0  0  0
  142.1984  143.5602  155.7727 H   0  0  0  0  0  0  0  0  0  0  0  0
  143.6267  143.3847  156.7874 H   0  0  0  0  0  0  0  0  0  0  0  0
  149.4647  143.0438  155.8905 H   0  0  0  0  0  0  0  0  0  0  0  0
  150.5204  141.0142  157.5028 H   0  0  0  0  0  0  0  0  0  0  0  0
  151.8702  141.6533  156.5844 H   0  0  0  0  0  0  0  0  0  0  0  0
  149.9615  143.5059  158.0921 H   0  0  0  0  0  0  0  0  0  0  0  0
  152.8068  143.9263  157.0519 H   0  0  0  0  0  0  0  0  0  0  0  0
  151.4429  145.1070  157.0974 H   0  0  0  0  0  0  0  0  0  0  0  0
  153.1847  144.6066  159.3703 H   0  0  0  0  0  0  0  0  0  0  0  0
  151.4641  145.1324  159.5491 H   0  0  0  0  0  0  0  0  0  0  0  0
  151.0438  142.7843  160.1110 H   0  0  0  0  0  0  0  0  0  0  0  0
  152.5195  142.2567  159.2175 H   0  0  0  0  0  0  0  0  0  0  0  0
  1  2  1  0  0  0  0
  1 18  1  0  0  0  0
  1 19  1  0  0  0  0
  1 20  1  0  0  0  0
  2  3  1  0  0  0  0
  2  4  1  0  0  0  0
  2 21  1  0  0  0  0
  3 22  1  0  0  0  0
  3 23  1  0  0  0  0
  3 24  1  0  0  0  0
  4 17  1  0  0  0  0
  4  5  2  0  0  0  0
  5  6  1  0  0  0  0
  6  7  2  0  0  0  0
  7  8  1  0  0  0  0
  7 17  1  0  0  0  0
  8  9  1  0  0  0  0
  9 10  2  0  0  0  0
  9 11  1  0  0  0  0
 11 12  1  0  0  0  0
 11 25  1  0  0  0  0
 12 13  1  0  0  0  0
 12 26  1  0  0  0  0
 12 27  1  0  0  0  0
 13 16  1  0  0  0  0
 13 14  1  0  0  0  0
 13 28  1  0  0  0  0
 14 15  1  0  0  0  0
 14 29  1  0  0  0  0
 14 30  1  0  0  0  0
 15 16  1  0  0  0  0
 15 31  1  0  0  0  0
 15 32  1  0  0  0  0
 16 33  1  0  0  0  0
 16 34  1  0  0  0  0
M  CHG  1   8  -1
M  END
> <s_m_source_file>
AV-unprocessed.smi

> <i_m_source_file_index>
1590

> <i_lp_mmshare_version>
43012

> <i_f3d_flags>
0

> <s_epik_input>
W0NIM11bQ0hdKFtDSDNdKWMxbm5jKHMxKVtOSF1DKD1PKVtOSF1bQ0gyXVtDSF0yW0NIMl1bQ0gyXVtDSDJdMg==

> <s_epik_cmdline>
J2VwaWtfcHl0aG9uJywgJy1waCcsICc3LjAnLCAnLXRuJywgJzgnLCAnLW1hJywgJzIwMCcsICctbWV0YWxfYmluZGluZycsICctaW1hZScsICc8aW5maWxlLm1hZT4nLCAnLW9tYWUnLCAnPG91dGZpbGUubWFlPic=

> <r_lp_tautomer_probability>
1

> <r_epik_Ionization_Penalty>
4.56565

> <r_epik_Ionization_Penalty_Charging>
4.40687

> <r_epik_Ionization_Penalty_Neutral>
0.158778

> <r_epik_State_Penalty>
4.40652

> <r_epik_Charging_Adjusted_Penalty>
8.8134

> <i_epik_Tot_Q>
-1

> <i_epik_Tot_abs_Q>
1

> <r_epik_Metal_State_Penalty>
0.774635

> <b_epik_Metal_Only>
1

> <s_lp_Force_Field>
OPLS_2005

> <r_lp_Energy>
4.00522

> <b_lp_Chiralities_Consistent>
1

> <s_lp_Variant>
AV-unprocessed.smi:1590-2

> <Gold.Version>
5.8.1

> <Gold.Id.Protein>
6NUR|6NUR_protein|mol2

> <Gold.PLP.Fitness>
42.2181

> <Gold.PLP.PLP>
-36.3804

> <Gold.PLP.part.hbond>
-3.0000

> <Gold.PLP.part.metal>
0.0000

> <Gold.PLP.part.buried>
-4.8687

> <Gold.PLP.part.nonpolar>
-27.8970

> <Gold.PLP.part.repulsive>
0.5749

> <Gold.PLP.ligand.clash>
0.0000

> <Gold.PLP.ligand.torsion>
0.7995

> <Gold.PLP.Chemscore.Hbond>
2.4204

> <Gold.PLP.Chemscore.CHOScore>
0.0000

> <Gold.PLP.Chemscore.Metal>
0.0000

> <Gold.Chemscore.Hbonds>
donor molecule, donor type, donor heavy atom, donor atom, acceptor molecule, acceptor atom, score
      L1  H    11    25       P1  8028  1.00
      P1  H  7989  7998       L1    10  0.80
      P1  H  8011  8017       L1     8  0.51

> <Gold.PLP.Chemscore.Internal.Correction>
0.1755

> <Gold.Rescore>
     Score         DG    S(hbond)    S(metal)    S(lipo)     H(rot)  DE(clash)    DE(int)     intcor
     13.05     -15.37       1.24        0.00      78.89       1.36       1.40       0.92       ----

> <Gold.Chemscore.Fitness>
13.0476

> <Gold.Chemscore.DG>
-15.3719

> <Gold.Chemscore.ZeroCoef>
-5.4800

> <Gold.Chemscore.Hbond>
1.2407

> <Gold.Chemscore.Metal>
0.0000

> <Gold.Chemscore.Lipo>
78.8936

> <Gold.Chemscore.Internal_Hbond>
0.0000

> <Gold.Chemscore.DEClash>
1.4018

> <Gold.Chemscore.DEInternal>
0.9224

> <Gold.Chemscore.Rot>
1.3604

> <Gold.Chemscore.Internal.Correction>
   9.000000E+99

> <Gold.Chemscore.Hbonds>
donor molecule, donor type, donor heavy atom, donor atom, acceptor molecule, acceptor atom, score
      L1  H    11    25       P1  8028  1.00
      P1  H  7989  7998       L1    10  0.12
      P1  H  8011  8017       L1     8  0.39

> <Gold.Chemscore.Hbond.Weighted>
-4.1439

> <Gold.Chemscore.Metal.Weighted>
-0.0000

> <Gold.Chemscore.Lipo.Weighted>
-9.2305

> <Gold.Chemscore.Internal_Hbond.Weighted>
0.0000

> <Gold.Chemscore.DEClash.Weighted>
1.4018

> <Gold.Chemscore.DEInternal.Weighted>
0.9224

> <Gold.Chemscore.Rot.Weighted>
3.4826

> <Gold.Chemscore.Internal.Correction.Weighted>
   9.000000E+99

> <Gold.Protein.RotatedTorsions>
[ 6907 6896 6895 6894 ] final -111.07 input  -60.11 | X-H torsion
[ 7974 7965 7964 7962 ] final  -42.09 input  175.53 | X-H torsion
[ 8008 7997 7996 7995 ] final    4.39 input   59.86 | X-H torsion
[ 10167 10162 10161 10158 ] final   98.91 input  -65.29 | X-H torsion
[ 10718 10713 10712 10709 ] final   23.76 input   66.30 | X-H torsion
[ 10763 10752 10751 10750 ] final  -41.29 input  -60.55 | X-H torsion
[ 11005 11000 10999 10996 ] final  111.37 input  -57.11 | X-H torsion

> <Gold.Protein.ActiveResidues>
 VAL166  LYS551  ARG553  GLY616  TRP617  ASP618  TYR619  PRO620  LYS621  CYS622 
 ASP623  PHE694  ASN695  SER759  ASP760  ASP761  ALA762  ILE779  LEU786  VAL792 
 PHE793  MET794  SER795  GLU796  ALA797  LYS798  CYS799  TRP800  GLU811  SER814 

> <Gold.Protein.RotatedAtoms>
  150.7666  133.9290  159.3420 H   0  0  0  0  0  0  0  0  0  0  0  0  # atno 6907 bound_to 6896
  151.7186  135.0897  160.0289 H   0  0  0  0  0  0  0  0  0  0  0  0  # atno 6908 bound_to 6896
  152.3664  133.6324  159.6089 H   0  0  0  0  0  0  0  0  0  0  0  0  # atno 6909 bound_to 6896
  146.0148  140.6920  142.9206 H   0  0  0  0  0  0  0  0  0  0  0  0  # atno 7974 bound_to 7965
  154.7153  140.2701  155.6591 H   0  0  0  0  0  0  0  0  0  0  0  0  # atno 8008 bound_to 7997
  156.2808  140.2745  156.1733 H   0  0  0  0  0  0  0  0  0  0  0  0  # atno 8009 bound_to 7997
  155.0579  140.0371  157.2556 H   0  0  0  0  0  0  0  0  0  0  0  0  # atno 8010 bound_to 7997
  139.7665  144.6937  151.0217 H   0  0  0  0  0  0  0  0  0  0  0  0  # atno 10167 bound_to 10162
  157.1705  130.6757  149.6076 H   0  0  0  0  0  0  0  0  0  0  0  0  # atno 10718 bound_to 10713
  153.9601  135.6740  153.4745 H   0  0  0  0  0  0  0  0  0  0  0  0  # atno 10763 bound_to 10752
  153.0842  135.4907  154.8561 H   0  0  0  0  0  0  0  0  0  0  0  0  # atno 10764 bound_to 10752
  154.7277  135.3131  154.8903 H   0  0  0  0  0  0  0  0  0  0  0  0  # atno 10765 bound_to 10752
  139.8902  134.9506  156.6421 H   0  0  0  0  0  0  0  0  0  0  0  0  # atno 11005 bound_to 11000
  144.6967  140.3463  143.7190 LP  0  0  0  0  0  0  0  0  0  0  0  0  # atno 17320 bound_to 7965
  145.7285  139.1729  143.2444 LP  0  0  0  0  0  0  0  0  0  0  0  0  # atno 17321 bound_to 7965
  140.7811  143.4637  151.0242 LP  0  0  0  0  0  0  0  0  0  0  0  0  # atno 17342 bound_to 10162
  139.8322  143.7676  152.3180 LP  0  0  0  0  0  0  0  0  0  0  0  0  # atno 17343 bound_to 10162
  155.9739  130.4681  150.6347 LP  0  0  0  0  0  0  0  0  0  0  0  0  # atno 17370 bound_to 10713
  157.4048  131.0815  151.1275 LP  0  0  0  0  0  0  0  0  0  0  0  0  # atno 17371 bound_to 10713
  140.7585  133.8837  155.8400 LP  0  0  0  0  0  0  0  0  0  0  0  0  # atno 17394 bound_to 11000
  140.9941  134.1238  157.4380 LP  0  0  0  0  0  0  0  0  0  0  0  0  # atno 17395 bound_to 11000

$$$$
