AV-unprocessed.smi:2974|AV-procd|sdf|11353|dock8
  -GOLD-   2272016273D 1   1.00000     0.00000
 Structure written by MMmdl.
 27 28  0  0  0  0  0  0  0  0  3 V2000
  151.4484  140.4437  155.5818 O   0  0  0  0  0  0  0  0  0  0  0  0
  150.6864  141.3792  155.9107 C   0  0  0  0  0  0  0  0  0  0  0  0
  149.6673  141.6867  155.2531 O   0  5  0  0  0  0  0  0  0  0  0  0
  151.0047  142.1687  157.1461 C   0  0  0  0  0  0  0  0  0  0  0  0
  151.6888  141.6005  158.2454 C   0  0  0  0  0  0  0  0  0  0  0  0
  151.9619  142.3895  159.3830 C   0  0  0  0  0  0  0  0  0  0  0  0
  152.6424  141.8168  160.4663 N   0  0  0  0  0  0  0  0  0  0  0  0
  153.7392  140.9442  160.0665 C   0  0  0  0  0  0  0  0  0  0  0  0
  154.3478  140.2627  161.3045 C   0  0  0  0  0  0  0  0  0  0  0  0
  154.7550  141.2543  162.2431 O   0  0  0  0  0  0  0  0  0  0  0  0
  153.6606  142.0513  162.6874 C   0  0  0  0  0  0  0  0  0  0  0  0
  153.0343  142.7813  161.4865 C   0  0  0  0  0  0  0  0  0  0  0  0
  151.5411  143.7405  159.3949 C   0  0  0  0  0  0  0  0  0  0  0  0
  150.8632  144.2590  158.2740 C   0  0  0  0  0  0  0  0  0  0  0  0
  150.6244  143.4656  157.2083 N   0  3  0  0  0  0  0  0  0  0  0  0
  152.0038  140.5667  158.2201 H   0  0  0  0  0  0  0  0  0  0  0  0
  153.3770  140.1909  159.3657 H   0  0  0  0  0  0  0  0  0  0  0  0
  154.5060  141.5240  159.5511 H   0  0  0  0  0  0  0  0  0  0  0  0
  153.6310  139.5819  161.7662 H   0  0  0  0  0  0  0  0  0  0  0  0
  155.2146  139.6668  161.0184 H   0  0  0  0  0  0  0  0  0  0  0  0
  152.9220  141.4257  163.1914 H   0  0  0  0  0  0  0  0  0  0  0  0
  154.0209  142.7727  163.4208 H   0  0  0  0  0  0  0  0  0  0  0  0
  153.7522  143.4904  161.0720 H   0  0  0  0  0  0  0  0  0  0  0  0
  152.1634  143.3533  161.8095 H   0  0  0  0  0  0  0  0  0  0  0  0
  151.7340  144.3736  160.2486 H   0  0  0  0  0  0  0  0  0  0  0  0
  150.5078  145.2760  158.1972 H   0  0  0  0  0  0  0  0  0  0  0  0
  150.1323  143.8553  156.4034 H   0  0  0  0  0  0  0  0  0  0  0  0
  1  2  2  0  0  0  0
  2  3  1  0  0  0  0
  2  4  1  0  0  0  0
  4 15  1  0  0  0  0
  4  5  2  0  0  0  0
  5  6  1  0  0  0  0
  5 16  1  0  0  0  0
  6  7  1  0  0  0  0
  6 13  2  0  0  0  0
  7 12  1  0  0  0  0
  7  8  1  0  0  0  0
  8  9  1  0  0  0  0
  8 17  1  0  0  0  0
  8 18  1  0  0  0  0
  9 10  1  0  0  0  0
  9 19  1  0  0  0  0
  9 20  1  0  0  0  0
 10 11  1  0  0  0  0
 11 12  1  0  0  0  0
 11 21  1  0  0  0  0
 11 22  1  0  0  0  0
 12 23  1  0  0  0  0
 12 24  1  0  0  0  0
 13 14  1  0  0  0  0
 13 25  1  0  0  0  0
 14 15  2  0  0  0  0
 14 26  1  0  0  0  0
 15 27  1  0  0  0  0
M  CHG  1   3  -1
M  CHG  1  15   1
M  END
> <s_m_source_file>
AV-unprocessed.smi

> <i_m_source_file_index>
2974

> <i_lp_mmshare_version>
43012

> <i_f3d_flags>
0

> <s_epik_input>
Tz1DKFtPSF0pYzFbY0hdYyhbY0hdW2NIXW4xKU4yW0NIMl1bQ0gyXU9bQ0gyXVtDSDJdMg==

> <s_epik_cmdline>
J2VwaWtfcHl0aG9uJywgJy1waCcsICc3LjAnLCAnLXRuJywgJzgnLCAnLW1hJywgJzIwMCcsICctbWV0YWxfYmluZGluZycsICctaW1hZScsICc8aW5maWxlLm1hZT4nLCAnLW9tYWUnLCAnPG91dGZpbGUubWFlPic=

> <r_epik_Ionization_Penalty>
0.0248724

> <r_epik_Ionization_Penalty_Charging>
0.0248724

> <r_epik_Ionization_Penalty_Neutral>
3.18831e-12

> <r_epik_State_Penalty>
0.0202062

> <r_epik_Charging_Adjusted_Penalty>
0.0450787

> <i_epik_Tot_Q>
0

> <i_epik_Tot_abs_Q>
2

> <r_epik_Metal_State_Penalty>
2.1181

> <b_epik_Metal_Only>
0

> <s_lp_Force_Field>
OPLS_2005

> <r_lp_Energy>
18.0137

> <b_lp_Chiralities_Consistent>
1

> <s_lp_Variant>
AV-unprocessed.smi:2974-1

> <Gold.Version>
5.8.1

> <Gold.Id.Protein>
6NUR|6NUR_protein|mol2

> <Gold.PLP.Fitness>
40.7008

> <Gold.PLP.PLP>
-34.0882

> <Gold.PLP.part.hbond>
-3.0554

> <Gold.PLP.part.metal>
0.0000

> <Gold.PLP.part.buried>
-5.1360

> <Gold.PLP.part.nonpolar>
-25.8615

> <Gold.PLP.part.repulsive>
0.1445

> <Gold.PLP.ligand.clash>
0.2508

> <Gold.PLP.ligand.torsion>
0.6964

> <Gold.PLP.Chemscore.Hbond>
2.7150

> <Gold.PLP.Chemscore.CHOScore>
0.0000

> <Gold.PLP.Chemscore.Metal>
0.0000

> <Gold.Chemscore.Hbonds>
donor molecule, donor type, donor heavy atom, donor atom, acceptor molecule, acceptor atom, score
      L1  H    15    27       P1  8028  2.00
      P1  H  7989  7998       L1     1  0.62

> <Gold.PLP.Chemscore.Internal.Correction>
0.1113

> <Gold.Rescore>
     Score         DG    S(hbond)    S(metal)    S(lipo)     H(rot)  DE(clash)    DE(int)     intcor
     17.52     -18.46       1.89        0.00      78.92       1.00       0.05       0.89       ----

> <Gold.Chemscore.Fitness>
17.5213

> <Gold.Chemscore.DG>
-18.4645

> <Gold.Chemscore.ZeroCoef>
-5.4800

> <Gold.Chemscore.Hbond>
1.8895

> <Gold.Chemscore.Metal>
0.0000

> <Gold.Chemscore.Lipo>
78.9185

> <Gold.Chemscore.Internal_Hbond>
0.0000

> <Gold.Chemscore.DEClash>
0.0515

> <Gold.Chemscore.DEInternal>
0.8917

> <Gold.Chemscore.Rot>
1.0000

> <Gold.Chemscore.Internal.Correction>
   9.000000E+99

> <Gold.Chemscore.Hbonds>
donor molecule, donor type, donor heavy atom, donor atom, acceptor molecule, acceptor atom, score
      L1  H    15    27       P1  8028  0.97
      P1  H  7989  7998       L1     1  0.14

> <Gold.Chemscore.Hbond.Weighted>
-6.3111

> <Gold.Chemscore.Metal.Weighted>
-0.0000

> <Gold.Chemscore.Lipo.Weighted>
-9.2335

> <Gold.Chemscore.Internal_Hbond.Weighted>
0.0000

> <Gold.Chemscore.DEClash.Weighted>
0.0515

> <Gold.Chemscore.DEInternal.Weighted>
0.8917

> <Gold.Chemscore.Rot.Weighted>
2.5600

> <Gold.Chemscore.Internal.Correction.Weighted>
   9.000000E+99

> <Gold.Protein.RotatedTorsions>
[ 6907 6896 6895 6894 ] final  -80.77 input  -60.11 | X-H torsion
[ 7974 7965 7964 7962 ] final  136.13 input  175.53 | X-H torsion
[ 8008 7997 7996 7995 ] final  111.47 input   59.86 | X-H torsion
[ 10167 10162 10161 10158 ] final -122.77 input  -65.29 | X-H torsion
[ 10718 10713 10712 10709 ] final   99.30 input   66.30 | X-H torsion
[ 10763 10752 10751 10750 ] final -111.74 input  -60.55 | X-H torsion
[ 11005 11000 10999 10996 ] final  123.91 input  -57.11 | X-H torsion

> <Gold.Protein.ActiveResidues>
 VAL166  LYS551  ARG553  GLY616  TRP617  ASP618  TYR619  PRO620  LYS621  CYS622 
 ASP623  PHE694  ASN695  SER759  ASP760  ASP761  ALA762  ILE779  LEU786  VAL792 
 PHE793  MET794  SER795  GLU796  ALA797  LYS798  CYS799  TRP800  GLU811  SER814 

> <Gold.Protein.RotatedAtoms>
  150.6923  134.3919  159.5079 H   0  0  0  0  0  0  0  0  0  0  0  0  # atno 6907 bound_to 6896
  152.1706  134.8834  160.0544 H   0  0  0  0  0  0  0  0  0  0  0  0  # atno 6908 bound_to 6896
  151.9862  133.3740  159.4163 H   0  0  0  0  0  0  0  0  0  0  0  0  # atno 6909 bound_to 6896
  144.9595  139.4726  143.5486 H   0  0  0  0  0  0  0  0  0  0  0  0  # atno 7974 bound_to 7965
  156.2126  140.3018  155.9767 H   0  0  0  0  0  0  0  0  0  0  0  0  # atno 8008 bound_to 7997
  155.2686  140.0432  157.3022 H   0  0  0  0  0  0  0  0  0  0  0  0  # atno 8009 bound_to 7997
  154.5721  140.2351  155.8184 H   0  0  0  0  0  0  0  0  0  0  0  0  # atno 8010 bound_to 7997
  140.0107  143.5444  152.2264 H   0  0  0  0  0  0  0  0  0  0  0  0  # atno 10167 bound_to 10162
  157.6879  131.0665  150.4927 H   0  0  0  0  0  0  0  0  0  0  0  0  # atno 10718 bound_to 10713
  154.8315  135.4516  154.1085 H   0  0  0  0  0  0  0  0  0  0  0  0  # atno 10763 bound_to 10752
  153.2354  135.6910  153.7849 H   0  0  0  0  0  0  0  0  0  0  0  0  # atno 10764 bound_to 10752
  153.7216  135.3341  155.3244 H   0  0  0  0  0  0  0  0  0  0  0  0  # atno 10765 bound_to 10752
  139.9334  134.9640  156.8330 H   0  0  0  0  0  0  0  0  0  0  0  0  # atno 11005 bound_to 11000
  146.3348  139.8736  142.8836 LP  0  0  0  0  0  0  0  0  0  0  0  0  # atno 17320 bound_to 7965
  145.2721  141.0112  143.3766 LP  0  0  0  0  0  0  0  0  0  0  0  0  # atno 17321 bound_to 7965
  139.6207  144.7628  151.2747 LP  0  0  0  0  0  0  0  0  0  0  0  0  # atno 17342 bound_to 10162
  140.7382  143.6654  150.8128 LP  0  0  0  0  0  0  0  0  0  0  0  0  # atno 17343 bound_to 10162
  156.5253  130.4171  149.6229 LP  0  0  0  0  0  0  0  0  0  0  0  0  # atno 17370 bound_to 10713
  156.3118  130.7233  151.2127 LP  0  0  0  0  0  0  0  0  0  0  0  0  # atno 17371 bound_to 10713
  140.6140  134.0055  155.7589 LP  0  0  0  0  0  0  0  0  0  0  0  0  # atno 17394 bound_to 11000
  141.0935  133.9879  157.3198 LP  0  0  0  0  0  0  0  0  0  0  0  0  # atno 17395 bound_to 11000

$$$$
