AV-unprocessed.smi:625|AV-procd|sdf|3106|dock3
  -GOLD-   22720 0 23D 1   1.00000     0.00000
 Structure written by MMmdl.
 49 51  0  0  0  0  0  0  0  0  1 V2000
  145.9236  137.7130  152.5181 C   0  0  0  0  0  0  0  0  0  0  0  0
  147.1055  137.3233  153.2722 N   0  0  0  0  0  0  0  0  0  0  0  0
  147.2785  137.5455  154.5868 C   0  0  0  0  0  0  0  0  0  0  0  0
  146.4189  138.1116  155.2635 O   0  0  0  0  0  0  0  0  0  0  0  0
  148.5570  137.0627  155.1171 C   0  0  0  0  0  0  0  0  0  0  0  0
  148.7598  135.6363  155.2842 C   0  0  0  0  0  0  0  0  0  0  0  0
  149.9151  135.1574  155.7855 C   0  0  0  0  0  0  0  0  0  0  0  0
  151.0104  136.0470  156.1798 C   0  0  0  0  0  0  0  0  0  0  0  0
  152.0602  135.6177  156.6586 O   0  0  0  0  0  0  0  0  0  0  0  0
  150.7873  137.3836  155.9923 N   0  0  0  0  0  0  0  0  0  0  0  0
  151.8090  138.3793  156.3672 C   0  0  0  0  0  0  0  0  0  0  0  0
  151.3584  139.8437  156.2253 C   0  0  0  0  0  0  0  0  0  0  0  0
  151.3114  140.3512  155.1056 O   0  0  0  0  0  0  0  0  0  0  0  0
  151.0407  140.5150  157.3452 N   0  0  0  0  0  0  0  0  0  0  0  0
  150.6682  141.9232  157.4310 C   0  0  1  0  0  0  0  0  0  0  0  0
  149.1750  142.0746  157.0905 C   0  0  0  0  0  0  0  0  0  0  0  0
  151.0061  142.4562  158.8446 C   0  0  2  0  0  0  0  0  0  0  0  0
  150.4996  143.8958  159.1032 C   0  0  0  0  0  0  0  0  0  0  0  0
  151.7643  144.6380  159.5705 C   0  0  1  0  0  0  0  0  0  0  0  0
  152.1780  144.1291  160.9636 C   0  0  0  0  0  0  0  0  0  0  0  0
  152.7304  142.7241  160.6596 C   0  0  0  0  0  0  0  0  0  0  0  0
  152.5232  142.6003  159.1381 C   0  0  2  0  0  0  0  0  0  0  0  0
  152.8294  144.0204  158.6746 C   0  0  0  0  0  0  0  0  0  0  0  0
  149.5743  137.8782  155.4727 C   0  0  0  0  0  0  0  0  0  0  0  0
  146.0420  137.4340  151.4711 H   0  0  0  0  0  0  0  0  0  0  0  0
  145.7689  138.7918  152.5679 H   0  0  0  0  0  0  0  0  0  0  0  0
  145.0341  137.2145  152.9057 H   0  0  0  0  0  0  0  0  0  0  0  0
  147.8429  136.8555  152.7651 H   0  0  0  0  0  0  0  0  0  0  0  0
  147.9830  134.9375  155.0083 H   0  0  0  0  0  0  0  0  0  0  0  0
  150.0386  134.0905  155.9005 H   0  0  0  0  0  0  0  0  0  0  0  0
  152.1385  138.2165  157.3950 H   0  0  0  0  0  0  0  0  0  0  0  0
  152.7065  138.2437  155.7622 H   0  0  0  0  0  0  0  0  0  0  0  0
  151.1013  140.0152  158.2205 H   0  0  0  0  0  0  0  0  0  0  0  0
  151.2495  142.4870  156.6995 H   0  0  0  0  0  0  0  0  0  0  0  0
  148.8627  143.1184  157.1114 H   0  0  0  0  0  0  0  0  0  0  0  0
  148.5499  141.5276  157.7972 H   0  0  0  0  0  0  0  0  0  0  0  0
  148.9583  141.6940  156.0919 H   0  0  0  0  0  0  0  0  0  0  0  0
  150.5641  141.7750  159.5741 H   0  0  0  0  0  0  0  0  0  0  0  0
  150.1199  144.3565  158.1903 H   0  0  0  0  0  0  0  0  0  0  0  0
  149.7006  143.9273  159.8447 H   0  0  0  0  0  0  0  0  0  0  0  0
  151.6818  145.7235  159.5074 H   0  0  0  0  0  0  0  0  0  0  0  0
  152.9552  144.7611  161.3952 H   0  0  0  0  0  0  0  0  0  0  0  0
  151.3391  144.1052  161.6600 H   0  0  0  0  0  0  0  0  0  0  0  0
  153.7906  142.6676  160.9098 H   0  0  0  0  0  0  0  0  0  0  0  0
  152.2156  141.9413  161.2181 H   0  0  0  0  0  0  0  0  0  0  0  0
  153.1536  141.8314  158.6910 H   0  0  0  0  0  0  0  0  0  0  0  0
  152.6495  144.1814  157.6105 H   0  0  0  0  0  0  0  0  0  0  0  0
  153.8422  144.3467  158.9179 H   0  0  0  0  0  0  0  0  0  0  0  0
  149.5405  138.9559  155.4023 H   0  0  0  0  0  0  0  0  0  0  0  0
  1  2  1  0  0  0  0
  1 25  1  0  0  0  0
  1 26  1  0  0  0  0
  1 27  1  0  0  0  0
  2  3  1  0  0  0  0
  2 28  1  0  0  0  0
  3  4  2  0  0  0  0
  3  5  1  0  0  0  0
  5 24  2  0  0  0  0
  5  6  1  0  0  0  0
  6  7  2  0  0  0  0
  6 29  1  0  0  0  0
  7  8  1  0  0  0  0
  7 30  1  0  0  0  0
  8  9  2  0  0  0  0
  8 10  1  0  0  0  0
 10 11  1  0  0  0  0
 10 24  1  0  0  0  0
 11 12  1  0  0  0  0
 11 31  1  0  0  0  0
 11 32  1  0  0  0  0
 12 13  2  0  0  0  0
 12 14  1  0  0  0  0
 14 15  1  0  0  0  0
 14 33  1  0  0  0  0
 15 16  1  0  0  0  0
 15 17  1  0  0  0  0
 15 34  1  0  0  0  0
 16 35  1  0  0  0  0
 16 36  1  0  0  0  0
 16 37  1  0  0  0  0
 17 22  1  0  0  0  0
 17 18  1  0  0  0  0
 17 38  1  0  0  0  0
 18 19  1  0  0  0  0
 18 39  1  0  0  0  0
 18 40  1  0  0  0  0
 19 23  1  0  0  0  0
 19 20  1  0  0  0  0
 19 41  1  0  0  0  0
 20 21  1  0  0  0  0
 20 42  1  0  0  0  0
 20 43  1  0  0  0  0
 21 22  1  0  0  0  0
 21 44  1  0  0  0  0
 21 45  1  0  0  0  0
 22 23  1  0  0  0  0
 22 46  1  0  0  0  0
 23 47  1  0  0  0  0
 23 48  1  0  0  0  0
 24 49  1  0  0  0  0
M  END
> <s_m_source_file>
AV-unprocessed.smi

> <i_m_source_file_index>
625

> <i_lp_mmshare_version>
43012

> <i_f3d_flags>
0

> <s_epik_input>
W0NIM11bTkhdQyg9TyljMVtjSF1bY0hdYyg9TyluKFtjSF0xKVtDSDJdQyg9TylbTkhdW0NASF0oW0NIM10pW0NASF0oW0NIMl1bQ0BIXTIzKVtDQEhdKFtDSDJdMylbQ0gyXVtDSDJdMg==

> <s_epik_cmdline>
J2VwaWtfcHl0aG9uJywgJy1waCcsICc3LjAnLCAnLXRuJywgJzgnLCAnLW1hJywgJzIwMCcsICctbWV0YWxfYmluZGluZycsICctaW1hZScsICc8aW5maWxlLm1hZT4nLCAnLW9tYWUnLCAnPG91dGZpbGUubWFlPic=

> <r_lp_tautomer_probability>
1

> <r_epik_Ionization_Penalty>
3.7129e-07

> <r_epik_Ionization_Penalty_Charging>
5.04114e-08

> <r_epik_Ionization_Penalty_Neutral>
3.20879e-07

> <r_epik_State_Penalty>
-0

> <r_epik_Charging_Adjusted_Penalty>
5.04114e-08

> <i_epik_Tot_Q>
0

> <i_epik_Tot_abs_Q>
0

> <r_epik_Metal_State_Penalty>
-0

> <b_epik_Metal_Only>
0

> <s_lp_Force_Field>
OPLS_2005

> <r_lp_Energy>
63.073

> <b_lp_Chiralities_Consistent>
1

> <s_lp_Variant>
AV-unprocessed.smi:625-6

> <Gold.Version>
5.8.1

> <Gold.Id.Protein>
6NUR|6NUR_protein|mol2

> <Gold.PLP.Fitness>
45.9746

> <Gold.PLP.PLP>
-41.0178

> <Gold.PLP.part.hbond>
-3.0000

> <Gold.PLP.part.metal>
0.0000

> <Gold.PLP.part.buried>
-4.9708

> <Gold.PLP.part.nonpolar>
-33.8004

> <Gold.PLP.part.repulsive>
0.1362

> <Gold.PLP.ligand.clash>
0.0000

> <Gold.PLP.ligand.torsion>
2.0368

> <Gold.PLP.Chemscore.Hbond>
3.0000

> <Gold.PLP.Chemscore.CHOScore>
0.0000

> <Gold.PLP.Chemscore.Metal>
0.0000

> <Gold.Chemscore.Hbonds>
donor molecule, donor type, donor heavy atom, donor atom, acceptor molecule, acceptor atom, score
      L1  H     2    28       P1  7948  1.00
      P1  H  7989  7998       L1    13  1.00
      P1  H 10752 10765       L1     9  1.00

> <Gold.PLP.Chemscore.Internal.Correction>
0.0305

> <Gold.Rescore>
     Score         DG    S(hbond)    S(metal)    S(lipo)     H(rot)  DE(clash)    DE(int)     intcor
     21.28     -24.17       2.92        0.00     112.98       1.67       0.10       2.79       ----

> <Gold.Chemscore.Fitness>
21.2771

> <Gold.Chemscore.DG>
-24.1662

> <Gold.Chemscore.ZeroCoef>
-5.4800

> <Gold.Chemscore.Hbond>
2.9175

> <Gold.Chemscore.Metal>
0.0000

> <Gold.Chemscore.Lipo>
112.9827

> <Gold.Chemscore.Internal_Hbond>
0.0000

> <Gold.Chemscore.DEClash>
0.1020

> <Gold.Chemscore.DEInternal>
2.7871

> <Gold.Chemscore.Rot>
1.6709

> <Gold.Chemscore.Internal.Correction>
   9.000000E+99

> <Gold.Chemscore.Hbonds>
donor molecule, donor type, donor heavy atom, donor atom, acceptor molecule, acceptor atom, score
      L1  H     2    28       P1  7948  0.96
      P1  H  7989  7998       L1    13  0.95
      P1  H 10752 10765       L1     9  0.70

> <Gold.Chemscore.Hbond.Weighted>
-9.7446

> <Gold.Chemscore.Metal.Weighted>
-0.0000

> <Gold.Chemscore.Lipo.Weighted>
-13.2190

> <Gold.Chemscore.Internal_Hbond.Weighted>
0.0000

> <Gold.Chemscore.DEClash.Weighted>
0.1020

> <Gold.Chemscore.DEInternal.Weighted>
2.7871

> <Gold.Chemscore.Rot.Weighted>
4.2774

> <Gold.Chemscore.Internal.Correction.Weighted>
   9.000000E+99

> <Gold.Protein.RotatedTorsions>
[ 6907 6896 6895 6894 ] final  130.85 input  -60.11 | X-H torsion
[ 7974 7965 7964 7962 ] final  168.78 input  175.53 | X-H torsion
[ 8008 7997 7996 7995 ] final  -54.48 input   59.86 | X-H torsion
[ 10167 10162 10161 10158 ] final  120.17 input  -65.29 | X-H torsion
[ 10718 10713 10712 10709 ] final   60.65 input   66.30 | X-H torsion
[ 10763 10752 10751 10750 ] final -133.24 input  -60.55 | X-H torsion
[ 11005 11000 10999 10996 ] final -123.01 input  -57.11 | X-H torsion

> <Gold.Protein.ActiveResidues>
 VAL166  LYS551  ARG553  GLY616  TRP617  ASP618  TYR619  PRO620  LYS621  CYS622 
 ASP623  PHE694  ASN695  SER759  ASP760  ASP761  ALA762  ILE779  LEU786  VAL792 
 PHE793  MET794  SER795  GLU796  ALA797  LYS798  CYS799  TRP800  GLU811  SER814 

> <Gold.Protein.RotatedAtoms>
  152.3485  133.6151  159.5927 H   0  0  0  0  0  0  0  0  0  0  0  0  # atno 6907 bound_to 6896
  150.7522  133.9612  159.3525 H   0  0  0  0  0  0  0  0  0  0  0  0  # atno 6908 bound_to 6896
  151.7467  135.0843  160.0375 H   0  0  0  0  0  0  0  0  0  0  0  0  # atno 6909 bound_to 6896
  144.7377  139.8957  143.6406 H   0  0  0  0  0  0  0  0  0  0  0  0  # atno 7974 bound_to 7965
  154.4164  140.1175  156.5322 H   0  0  0  0  0  0  0  0  0  0  0  0  # atno 8008 bound_to 7997
  155.6594  140.3496  155.4758 H   0  0  0  0  0  0  0  0  0  0  0  0  # atno 8009 bound_to 7997
  155.9726  140.1144  157.0788 H   0  0  0  0  0  0  0  0  0  0  0  0  # atno 8010 bound_to 7997
  139.5999  144.7053  151.3087 H   0  0  0  0  0  0  0  0  0  0  0  0  # atno 10167 bound_to 10162
  157.5769  130.8950  149.9362 H   0  0  0  0  0  0  0  0  0  0  0  0  # atno 10718 bound_to 10713
  154.8735  135.3772  154.4540 H   0  0  0  0  0  0  0  0  0  0  0  0  # atno 10763 bound_to 10752
  153.5214  135.7029  153.5735 H   0  0  0  0  0  0  0  0  0  0  0  0  # atno 10764 bound_to 10752
  153.3980  135.3955  155.1934 H   0  0  0  0  0  0  0  0  0  0  0  0  # atno 10765 bound_to 10752
  140.9951  134.0483  157.3607 H   0  0  0  0  0  0  0  0  0  0  0  0  # atno 11005 bound_to 11000
  146.1109  139.4113  143.0288 LP  0  0  0  0  0  0  0  0  0  0  0  0  # atno 17320 bound_to 7965
  145.7445  140.9996  143.1283 LP  0  0  0  0  0  0  0  0  0  0  0  0  # atno 17321 bound_to 7965
  140.7241  143.7052  150.7813 LP  0  0  0  0  0  0  0  0  0  0  0  0  # atno 17342 bound_to 10162
  140.0626  143.5140  152.2620 LP  0  0  0  0  0  0  0  0  0  0  0  0  # atno 17343 bound_to 10162
  156.0813  130.3673  150.0574 LP  0  0  0  0  0  0  0  0  0  0  0  0  # atno 17370 bound_to 10713
  156.8719  130.9527  151.3608 LP  0  0  0  0  0  0  0  0  0  0  0  0  # atno 17371 bound_to 10713
  139.9011  135.0164  156.7271 LP  0  0  0  0  0  0  0  0  0  0  0  0  # atno 17394 bound_to 11000
  140.6978  133.9333  155.8005 LP  0  0  0  0  0  0  0  0  0  0  0  0  # atno 17395 bound_to 11000

$$$$
