AV-unprocessed.smi:3266|AV-procd|sdf|12503|dock5
  -GOLD-   2272018403D 1   1.00000     0.00000
 Structure written by MMmdl.
 39 40  0  0  0  0  0  0  0  0  2 V2000
  151.8654  139.7826  154.9069 O   0  0  0  0  0  0  0  0  0  0  0  0
  151.0240  140.1321  155.7349 C   0  0  0  0  0  0  0  0  0  0  0  0
  151.1273  141.4869  156.4412 C   0  0  0  0  0  0  0  0  0  0  0  0
  151.4632  141.3775  157.9400 C   0  0  0  0  0  0  0  0  0  0  0  0
  152.0093  142.6925  158.5155 C   0  0  1  0  0  0  0  0  0  0  0  0
  151.6563  143.9260  157.6862 C   0  0  0  0  0  0  0  0  0  0  0  0
  151.7456  145.0214  158.7238 C   0  0  0  0  0  0  0  0  0  0  0  0
  151.1531  144.3326  159.9495 C   0  0  0  0  0  0  0  0  0  0  0  0
  151.4604  142.9477  159.8069 O   0  0  0  0  0  0  0  0  0  0  0  0
  149.9623  139.3809  156.0633 N   0  0  0  0  0  0  0  0  0  0  0  0
  149.6578  138.0636  155.5117 C   0  0  0  0  0  0  0  0  0  0  0  0
  150.8955  137.1540  155.3607 C   0  0  0  0  0  0  0  0  0  0  0  0
  150.5755  135.6686  155.3670 C   0  0  0  0  0  0  0  0  0  0  0  0
  151.0863  134.7962  156.3525 C   0  0  0  0  0  0  0  0  0  0  0  0
  150.7417  133.4290  156.3080 C   0  0  0  0  0  0  0  0  0  0  0  0
  149.8938  132.9634  155.2816 C   0  0  0  0  0  0  0  0  0  0  0  0
  149.4106  133.8783  154.3241 C   0  0  0  0  0  0  0  0  0  0  0  0
  149.7643  135.1798  154.4003 N   0  3  0  0  0  0  0  0  0  0  0  0
  151.8892  142.0781  155.9317 H   0  0  0  0  0  0  0  0  0  0  0  0
  150.1830  142.0193  156.3186 H   0  0  0  0  0  0  0  0  0  0  0  0
  150.5654  141.0952  158.4920 H   0  0  0  0  0  0  0  0  0  0  0  0
  152.1914  140.5821  158.1043 H   0  0  0  0  0  0  0  0  0  0  0  0
  153.0942  142.6361  158.6182 H   0  0  0  0  0  0  0  0  0  0  0  0
  152.3289  144.0784  156.8416 H   0  0  0  0  0  0  0  0  0  0  0  0
  150.6364  143.8575  157.3044 H   0  0  0  0  0  0  0  0  0  0  0  0
  152.7896  145.2811  158.9053 H   0  0  0  0  0  0  0  0  0  0  0  0
  151.2098  145.9281  158.4420 H   0  0  0  0  0  0  0  0  0  0  0  0
  151.5457  144.7348  160.8835 H   0  0  0  0  0  0  0  0  0  0  0  0
  150.0686  144.4455  159.9617 H   0  0  0  0  0  0  0  0  0  0  0  0
  149.3225  139.7443  156.7551 H   0  0  0  0  0  0  0  0  0  0  0  0
  148.8985  137.5710  156.1210 H   0  0  0  0  0  0  0  0  0  0  0  0
  149.2078  138.2223  154.5313 H   0  0  0  0  0  0  0  0  0  0  0  0
  151.4186  137.3935  154.4338 H   0  0  0  0  0  0  0  0  0  0  0  0
  151.6026  137.3667  156.1631 H   0  0  0  0  0  0  0  0  0  0  0  0
  151.7318  135.1691  157.1344 H   0  0  0  0  0  0  0  0  0  0  0  0
  151.1227  132.7460  157.0529 H   0  0  0  0  0  0  0  0  0  0  0  0
  149.6183  131.9201  155.2299 H   0  0  0  0  0  0  0  0  0  0  0  0
  148.7573  133.6115  153.5063 H   0  0  0  0  0  0  0  0  0  0  0  0
  149.4021  135.8255  153.6977 H   0  0  0  0  0  0  0  0  0  0  0  0
  1  2  2  0  0  0  0
  2  3  1  0  0  0  0
  2 10  1  0  0  0  0
  3  4  1  0  0  0  0
  3 19  1  0  0  0  0
  3 20  1  0  0  0  0
  4  5  1  0  0  0  0
  4 21  1  0  0  0  0
  4 22  1  0  0  0  0
  5  9  1  0  0  0  0
  5  6  1  0  0  0  0
  5 23  1  0  0  0  0
  6  7  1  0  0  0  0
  6 24  1  0  0  0  0
  6 25  1  0  0  0  0
  7  8  1  0  0  0  0
  7 26  1  0  0  0  0
  7 27  1  0  0  0  0
  8  9  1  0  0  0  0
  8 28  1  0  0  0  0
  8 29  1  0  0  0  0
 10 11  1  0  0  0  0
 10 30  1  0  0  0  0
 11 12  1  0  0  0  0
 11 31  1  0  0  0  0
 11 32  1  0  0  0  0
 12 13  1  0  0  0  0
 12 33  1  0  0  0  0
 12 34  1  0  0  0  0
 13 18  1  0  0  0  0
 13 14  2  0  0  0  0
 14 15  1  0  0  0  0
 14 35  1  0  0  0  0
 15 16  2  0  0  0  0
 15 36  1  0  0  0  0
 16 17  1  0  0  0  0
 16 37  1  0  0  0  0
 17 18  2  0  0  0  0
 17 38  1  0  0  0  0
 18 39  1  0  0  0  0
M  CHG  1  18   1
M  END
> <s_m_source_file>
AV-unprocessed.smi

> <i_m_source_file_index>
3266

> <i_lp_mmshare_version>
43012

> <i_f3d_flags>
0

> <s_epik_input>
TzFbQ0gyXVtDSDJdW0NIMl1bQ0BIXTFbQ0gyXVtDSDJdQyg9TylbTkhdW0NIMl1bQ0gyXWMyW2NIXVtjSF1bY0hdW2NIXW4y

> <s_epik_cmdline>
J2VwaWtfcHl0aG9uJywgJy1waCcsICc3LjAnLCAnLXRuJywgJzgnLCAnLW1hJywgJzIwMCcsICctbWV0YWxfYmluZGluZycsICctaW1hZScsICc8aW5maWxlLm1hZT4nLCAnLW9tYWUnLCAnPG91dGZpbGUubWFlPic=

> <r_epik_Ionization_Penalty>
1.8495

> <r_epik_Ionization_Penalty_Charging>
1.8495

> <r_epik_Ionization_Penalty_Neutral>
1.53068e-08

> <r_epik_State_Penalty>
1.96688

> <r_epik_Charging_Adjusted_Penalty>
3.81638

> <i_epik_Tot_Q>
1

> <i_epik_Tot_abs_Q>
1

> <r_epik_Metal_State_Penalty>
1.99263

> <b_epik_Metal_Only>
0

> <s_lp_Force_Field>
OPLS_2005

> <r_lp_Energy>
22.1722

> <b_lp_Chiralities_Consistent>
1

> <s_lp_Variant>
AV-unprocessed.smi:3266-4

> <Gold.Version>
5.8.1

> <Gold.Id.Protein>
6NUR|6NUR_protein|mol2

> <Gold.PLP.Fitness>
43.6906

> <Gold.PLP.PLP>
-36.7453

> <Gold.PLP.part.hbond>
-2.3678

> <Gold.PLP.part.metal>
0.0000

> <Gold.PLP.part.buried>
-5.8463

> <Gold.PLP.part.nonpolar>
-29.3608

> <Gold.PLP.part.repulsive>
0.1369

> <Gold.PLP.ligand.clash>
0.0000

> <Gold.PLP.ligand.torsion>
1.0066

> <Gold.PLP.Chemscore.Hbond>
2.9600

> <Gold.PLP.Chemscore.CHOScore>
0.0000

> <Gold.PLP.Chemscore.Metal>
0.0000

> <Gold.Chemscore.Hbonds>
donor molecule, donor type, donor heavy atom, donor atom, acceptor molecule, acceptor atom, score
      L1  H    18    39       P1  7948  1.95
      P1  H  7989  7998       L1     1  0.98

> <Gold.PLP.Chemscore.Internal.Correction>
0.0786

> <Gold.Rescore>
     Score         DG    S(hbond)    S(metal)    S(lipo)     H(rot)  DE(clash)    DE(int)     intcor
     15.06     -17.42       1.63        0.00      95.62       1.84       0.00       2.36       ----

> <Gold.Chemscore.Fitness>
15.0553

> <Gold.Chemscore.DG>
-17.4169

> <Gold.Chemscore.ZeroCoef>
-5.4800

> <Gold.Chemscore.Hbond>
1.6331

> <Gold.Chemscore.Metal>
0.0000

> <Gold.Chemscore.Lipo>
95.6246

> <Gold.Chemscore.Internal_Hbond>
0.0000

> <Gold.Chemscore.DEClash>
0.0000

> <Gold.Chemscore.DEInternal>
2.3616

> <Gold.Chemscore.Rot>
1.8382

> <Gold.Chemscore.Internal.Correction>
   9.000000E+99

> <Gold.Chemscore.Hbonds>
donor molecule, donor type, donor heavy atom, donor atom, acceptor molecule, acceptor atom, score
      L1  H    18    39       P1  7948  0.47
      P1  H  7989  7998       L1     1  0.56

> <Gold.Chemscore.Hbond.Weighted>
-5.4546

> <Gold.Chemscore.Metal.Weighted>
-0.0000

> <Gold.Chemscore.Lipo.Weighted>
-11.1881

> <Gold.Chemscore.Internal_Hbond.Weighted>
0.0000

> <Gold.Chemscore.DEClash.Weighted>
0.0000

> <Gold.Chemscore.DEInternal.Weighted>
2.3616

> <Gold.Chemscore.Rot.Weighted>
4.7058

> <Gold.Chemscore.Internal.Correction.Weighted>
   9.000000E+99

> <Gold.Protein.RotatedTorsions>
[ 6907 6896 6895 6894 ] final   92.28 input  -60.11 | X-H torsion
[ 7974 7965 7964 7962 ] final -143.29 input  175.53 | X-H torsion
[ 8008 7997 7996 7995 ] final  -28.44 input   59.86 | X-H torsion
[ 10167 10162 10161 10158 ] final   22.34 input  -65.29 | X-H torsion
[ 10718 10713 10712 10709 ] final -175.59 input   66.30 | X-H torsion
[ 10763 10752 10751 10750 ] final  -73.17 input  -60.55 | X-H torsion
[ 11005 11000 10999 10996 ] final   70.35 input  -57.11 | X-H torsion

> <Gold.Protein.ActiveResidues>
 VAL166  LYS551  ARG553  GLY616  TRP617  ASP618  TYR619  PRO620  LYS621  CYS622 
 ASP623  PHE694  ASN695  SER759  ASP760  ASP761  ALA762  ILE779  LEU786  VAL792 
 PHE793  MET794  SER795  GLU796  ALA797  LYS798  CYS799  TRP800  GLU811  SER814 

> <Gold.Protein.RotatedAtoms>
  152.5452  134.1527  159.8524 H   0  0  0  0  0  0  0  0  0  0  0  0  # atno 6907 bound_to 6896
  151.1552  133.4874  159.2602 H   0  0  0  0  0  0  0  0  0  0  0  0  # atno 6908 bound_to 6896
  151.1430  135.0200  159.8689 H   0  0  0  0  0  0  0  0  0  0  0  0  # atno 6909 bound_to 6896
  144.8380  140.5853  143.5471 H   0  0  0  0  0  0  0  0  0  0  0  0  # atno 7974 bound_to 7965
  154.4332  140.1845  156.1090 H   0  0  0  0  0  0  0  0  0  0  0  0  # atno 8008 bound_to 7997
  156.0233  140.3338  155.7036 H   0  0  0  0  0  0  0  0  0  0  0  0  # atno 8009 bound_to 7997
  155.5945  140.0634  157.2740 H   0  0  0  0  0  0  0  0  0  0  0  0  # atno 8010 bound_to 7997
  140.5356  143.9766  150.6490 H   0  0  0  0  0  0  0  0  0  0  0  0  # atno 10167 bound_to 10162
  156.8021  130.9556  151.3118 H   0  0  0  0  0  0  0  0  0  0  0  0  # atno 10718 bound_to 10713
  154.4558  135.5906  153.6222 H   0  0  0  0  0  0  0  0  0  0  0  0  # atno 10763 bound_to 10752
  152.9818  135.6032  154.3548 H   0  0  0  0  0  0  0  0  0  0  0  0  # atno 10764 bound_to 10752
  154.3415  135.2841  155.2399 H   0  0  0  0  0  0  0  0  0  0  0  0  # atno 10765 bound_to 10752
  139.9602  134.7074  156.0662 H   0  0  0  0  0  0  0  0  0  0  0  0  # atno 11005 bound_to 11000
  145.4753  139.1500  143.3791 LP  0  0  0  0  0  0  0  0  0  0  0  0  # atno 17320 bound_to 7965
  146.2676  140.4888  142.8827 LP  0  0  0  0  0  0  0  0  0  0  0  0  # atno 17321 bound_to 7965
  140.3153  143.3172  152.0838 LP  0  0  0  0  0  0  0  0  0  0  0  0  # atno 17342 bound_to 10162
  139.4970  144.6610  151.6465 LP  0  0  0  0  0  0  0  0  0  0  0  0  # atno 17343 bound_to 10162
  157.6548  130.8915  149.9707 LP  0  0  0  0  0  0  0  0  0  0  0  0  # atno 17370 bound_to 10713
  156.1095  130.3651  150.0074 LP  0  0  0  0  0  0  0  0  0  0  0  0  # atno 17371 bound_to 10713
  141.1278  133.6594  156.3384 LP  0  0  0  0  0  0  0  0  0  0  0  0  # atno 17394 bound_to 11000
  140.5517  134.6021  157.5409 LP  0  0  0  0  0  0  0  0  0  0  0  0  # atno 17395 bound_to 11000

$$$$
