AV-unprocessed.smi:771|AV-procd|sdf|3684|dock3
  -GOLD-   22720 1103D 1   1.00000     0.00000
 Structure written by MMmdl.
 41 42  0  0  0  0  0  0  0  0  3 V2000
  145.8414  139.1954  154.4159 O   0  0  0  0  0  0  0  0  0  0  0  0
  146.7328  138.6904  153.7316 C   0  0  0  0  0  0  0  0  0  0  0  0
  147.8536  139.5493  153.1283 C   0  0  0  0  0  0  0  0  0  0  0  0
  148.9587  139.8101  154.0658 N   0  0  0  0  0  0  0  0  0  0  0  0
  150.0746  138.9541  153.9837 C   0  0  0  0  0  0  0  0  0  0  0  0
  151.1500  139.1002  154.7822 C   0  0  0  0  0  0  0  0  0  0  0  0
  152.2892  138.2149  154.6797 N   0  3  0  0  0  0  0  0  0  0  0  0
  153.3680  138.5896  155.1277 O   0  0  0  0  0  0  0  0  0  0  0  0
  152.1443  137.1174  154.1491 O   0  5  0  0  0  0  0  0  0  0  0  0
  151.1293  140.1808  155.7489 C   0  0  0  0  0  0  0  0  0  0  0  0
  150.0670  141.0062  155.8292 C   0  0  0  0  0  0  0  0  0  0  0  0
  148.9004  140.8488  154.9544 C   0  0  0  0  0  0  0  0  0  0  0  0
  147.9313  141.6056  155.0162 O   0  0  0  0  0  0  0  0  0  0  0  0
  146.7943  137.3779  153.4620 N   0  0  0  0  0  0  0  0  0  0  0  0
  145.8248  136.3824  153.9095 C   0  0  0  0  0  0  0  0  0  0  0  0
  144.8700  135.9196  152.7810 C   0  0  1  0  0  0  0  0  0  0  0  0
  145.5897  135.8705  151.4124 C   0  0  0  0  0  0  0  0  0  0  0  0
  144.6623  135.3870  150.2873 C   0  0  0  0  0  0  0  0  0  0  0  0
  144.0597  134.0155  150.6181 C   0  0  0  0  0  0  0  0  0  0  0  0
  143.3172  134.0568  151.9605 C   0  0  0  0  0  0  0  0  0  0  0  0
  144.2356  134.5426  153.0974 C   0  0  2  0  0  0  0  0  0  0  0  0
  143.4608  134.6167  154.2774 O   0  0  0  0  0  0  0  0  0  0  0  0
  148.2166  139.0628  152.2214 H   0  0  0  0  0  0  0  0  0  0  0  0
  147.4263  140.4948  152.7899 H   0  0  0  0  0  0  0  0  0  0  0  0
  149.9940  138.1863  153.2273 H   0  0  0  0  0  0  0  0  0  0  0  0
  151.9653  140.3370  156.4148 H   0  0  0  0  0  0  0  0  0  0  0  0
  150.0735  141.8050  156.5563 H   0  0  0  0  0  0  0  0  0  0  0  0
  147.5628  137.0440  152.8982 H   0  0  0  0  0  0  0  0  0  0  0  0
  146.3778  135.5276  154.3000 H   0  0  0  0  0  0  0  0  0  0  0  0
  145.2634  136.7913  154.7510 H   0  0  0  0  0  0  0  0  0  0  0  0
  144.0593  136.6457  152.7002 H   0  0  0  0  0  0  0  0  0  0  0  0
  145.9762  136.8552  151.1485 H   0  0  0  0  0  0  0  0  0  0  0  0
  146.4543  135.2085  151.4772 H   0  0  0  0  0  0  0  0  0  0  0  0
  143.8623  136.1129  150.1348 H   0  0  0  0  0  0  0  0  0  0  0  0
  145.2146  135.3336  149.3486 H   0  0  0  0  0  0  0  0  0  0  0  0
  143.3790  133.7062  149.8246 H   0  0  0  0  0  0  0  0  0  0  0  0
  144.8511  133.2659  150.6584 H   0  0  0  0  0  0  0  0  0  0  0  0
  142.4538  134.7183  151.8724 H   0  0  0  0  0  0  0  0  0  0  0  0
  142.9249  133.0661  152.1933 H   0  0  0  0  0  0  0  0  0  0  0  0
  145.0248  133.8070  153.2587 H   0  0  0  0  0  0  0  0  0  0  0  0
  143.1413  133.7511  154.4828 H   0  0  0  0  0  0  0  0  0  0  0  0
  1  2  2  0  0  0  0
  2  3  1  0  0  0  0
  2 14  1  0  0  0  0
  3  4  1  0  0  0  0
  3 23  1  0  0  0  0
  3 24  1  0  0  0  0
  4 12  1  0  0  0  0
  4  5  1  0  0  0  0
  5  6  2  0  0  0  0
  5 25  1  0  0  0  0
  6  7  1  0  0  0  0
  6 10  1  0  0  0  0
  7  8  2  0  0  0  0
  7  9  1  0  0  0  0
 10 11  2  0  0  0  0
 10 26  1  0  0  0  0
 11 12  1  0  0  0  0
 11 27  1  0  0  0  0
 12 13  2  0  0  0  0
 14 15  1  0  0  0  0
 14 28  1  0  0  0  0
 15 16  1  0  0  0  0
 15 29  1  0  0  0  0
 15 30  1  0  0  0  0
 16 21  1  0  0  0  0
 16 17  1  0  0  0  0
 16 31  1  0  0  0  0
 17 18  1  0  0  0  0
 17 32  1  0  0  0  0
 17 33  1  0  0  0  0
 18 19  1  0  0  0  0
 18 34  1  0  0  0  0
 18 35  1  0  0  0  0
 19 20  1  0  0  0  0
 19 36  1  0  0  0  0
 19 37  1  0  0  0  0
 20 21  1  0  0  0  0
 20 38  1  0  0  0  0
 20 39  1  0  0  0  0
 21 22  1  0  0  0  0
 21 40  1  0  0  0  0
 22 41  1  0  0  0  0
M  CHG  1   7   1
M  CHG  1   9  -1
M  END
> <s_m_source_file>
AV-unprocessed.smi

> <i_m_source_file_index>
771

> <i_lp_mmshare_version>
43012

> <i_f3d_flags>
0

> <s_epik_input>
Tz1jMVtjSF1bY0hdYyhbTitdKD1PKVtPLV0pW2NIXW4xW0NIMl1DKD1PKVtOSF1bQ0gyXVtDQEBIXTJbQ0gyXVtDSDJdW0NIMl1bQ0gyXVtDQEhdMltPSF0=

> <s_epik_cmdline>
J2VwaWtfcHl0aG9uJywgJy1waCcsICc3LjAnLCAnLXRuJywgJzgnLCAnLW1hJywgJzIwMCcsICctbWV0YWxfYmluZGluZycsICctaW1hZScsICc8aW5maWxlLm1hZT4nLCAnLW9tYWUnLCAnPG91dGZpbGUubWFlPic=

> <r_lp_tautomer_probability>
1

> <r_epik_Ionization_Penalty>
3.77175e-07

> <r_epik_Ionization_Penalty_Charging>
7.70067e-11

> <r_epik_Ionization_Penalty_Neutral>
3.77098e-07

> <r_epik_State_Penalty>
-0

> <r_epik_Charging_Adjusted_Penalty>
7.70067e-11

> <i_epik_Tot_Q>
0

> <i_epik_Tot_abs_Q>
2

> <r_epik_Metal_State_Penalty>
-0

> <b_epik_Metal_Only>
0

> <s_lp_Force_Field>
OPLS_2005

> <r_lp_Energy>
22.9473

> <b_lp_Chiralities_Consistent>
1

> <s_lp_Variant>
AV-unprocessed.smi:771-4

> <Gold.Version>
5.8.1

> <Gold.Id.Protein>
6NUR|6NUR_protein|mol2

> <Gold.PLP.Fitness>
47.9414

> <Gold.PLP.PLP>
-35.5237

> <Gold.PLP.part.hbond>
-4.0000

> <Gold.PLP.part.metal>
0.0000

> <Gold.PLP.part.buried>
1.7913

> <Gold.PLP.part.nonpolar>
-33.8836

> <Gold.PLP.part.repulsive>
0.7912

> <Gold.PLP.ligand.clash>
0.0000

> <Gold.PLP.ligand.torsion>
1.2098

> <Gold.PLP.Chemscore.Hbond>
3.9280

> <Gold.PLP.Chemscore.CHOScore>
1.0012

> <Gold.PLP.Chemscore.Metal>
0.0000

> <Gold.Chemscore.Hbonds>
donor molecule, donor type, donor heavy atom, donor atom, acceptor molecule, acceptor atom, score
      L1  H    14    28       P1  7948  1.00
      L1  H    22    41       P1 10957  0.91
      P1  H  7997  8009       L1     8  0.87
      P1  H 10752 10765       L1     9  0.94
      L1  C     5    25       P1  7948  0.94
      L1  C     5    25       P1  7957  0.10

> <Gold.PLP.Chemscore.Internal.Correction>
0.0495

> <Gold.Rescore>
     Score         DG    S(hbond)    S(metal)    S(lipo)     H(rot)  DE(clash)    DE(int)     intcor
     18.12     -19.29       3.73        0.00      65.69       2.48       0.10       1.07       ----

> <Gold.Chemscore.Fitness>
18.1236

> <Gold.Chemscore.DG>
-19.2948

> <Gold.Chemscore.ZeroCoef>
-5.4800

> <Gold.Chemscore.Hbond>
3.7325

> <Gold.Chemscore.Metal>
0.0000

> <Gold.Chemscore.Lipo>
65.6861

> <Gold.Chemscore.Internal_Hbond>
0.0000

> <Gold.Chemscore.DEClash>
0.1042

> <Gold.Chemscore.DEInternal>
1.0671

> <Gold.Chemscore.Rot>
2.4753

> <Gold.Chemscore.Internal.Correction>
   9.000000E+99

> <Gold.Chemscore.Hbonds>
donor molecule, donor type, donor heavy atom, donor atom, acceptor molecule, acceptor atom, score
      L1  H    14    28       P1  7948  1.00
      L1  H    22    41       P1 10957  0.89
      P1  H  7997  8009       L1     8  0.80
      P1  H 10752 10765       L1     9  0.92

> <Gold.Chemscore.Hbond.Weighted>
-12.4665

> <Gold.Chemscore.Metal.Weighted>
-0.0000

> <Gold.Chemscore.Lipo.Weighted>
-7.6853

> <Gold.Chemscore.Internal_Hbond.Weighted>
0.0000

> <Gold.Chemscore.DEClash.Weighted>
0.1042

> <Gold.Chemscore.DEInternal.Weighted>
1.0671

> <Gold.Chemscore.Rot.Weighted>
6.3369

> <Gold.Chemscore.Internal.Correction.Weighted>
   9.000000E+99

> <Gold.Protein.RotatedTorsions>
[ 6907 6896 6895 6894 ] final   23.61 input  -60.11 | X-H torsion
[ 7974 7965 7964 7962 ] final  127.67 input  175.53 | X-H torsion
[ 8008 7997 7996 7995 ] final -138.48 input   59.86 | X-H torsion
[ 10167 10162 10161 10158 ] final   90.76 input  -65.29 | X-H torsion
[ 10718 10713 10712 10709 ] final   63.62 input   66.30 | X-H torsion
[ 10763 10752 10751 10750 ] final  148.84 input  -60.55 | X-H torsion
[ 11005 11000 10999 10996 ] final    7.43 input  -57.11 | X-H torsion

> <Gold.Protein.ActiveResidues>
 VAL166  LYS551  ARG553  GLY616  TRP617  ASP618  TYR619  PRO620  LYS621  CYS622 
 ASP623  PHE694  ASN695  SER759  ASP760  ASP761  ALA762  ILE779  LEU786  VAL792 
 PHE793  MET794  SER795  GLU796  ALA797  LYS798  CYS799  TRP800  GLU811  SER814 

> <Gold.Protein.RotatedAtoms>
  151.9450  135.0195  160.0538 H   0  0  0  0  0  0  0  0  0  0  0  0  # atno 6907 bound_to 6896
  152.2003  133.4831  159.5063 H   0  0  0  0  0  0  0  0  0  0  0  0  # atno 6908 bound_to 6896
  150.6953  134.1516  159.4185 H   0  0  0  0  0  0  0  0  0  0  0  0  # atno 6909 bound_to 6896
  145.0479  139.3907  143.5068 H   0  0  0  0  0  0  0  0  0  0  0  0  # atno 7974 bound_to 7965
  155.4290  140.0524  157.3020 H   0  0  0  0  0  0  0  0  0  0  0  0  # atno 8008 bound_to 7997
  154.4868  140.2104  155.9595 H   0  0  0  0  0  0  0  0  0  0  0  0  # atno 8009 bound_to 7997
  156.1286  140.3176  155.8320 H   0  0  0  0  0  0  0  0  0  0  0  0  # atno 8010 bound_to 7997
  139.8441  144.6626  150.9248 H   0  0  0  0  0  0  0  0  0  0  0  0  # atno 10167 bound_to 10162
  157.5984  130.9115  149.9740 H   0  0  0  0  0  0  0  0  0  0  0  0  # atno 10718 bound_to 10713
  154.0613  135.2874  155.3324 H   0  0  0  0  0  0  0  0  0  0  0  0  # atno 10763 bound_to 10752
  154.6806  135.5265  153.8261 H   0  0  0  0  0  0  0  0  0  0  0  0  # atno 10764 bound_to 10752
  153.0521  135.6580  154.0802 H   0  0  0  0  0  0  0  0  0  0  0  0  # atno 10765 bound_to 10752
  140.5483  134.0308  155.7928 H   0  0  0  0  0  0  0  0  0  0  0  0  # atno 11005 bound_to 11000
  146.3515  140.0115  142.8666 LP  0  0  0  0  0  0  0  0  0  0  0  0  # atno 17320 bound_to 7965
  145.1564  140.9650  143.4403 LP  0  0  0  0  0  0  0  0  0  0  0  0  # atno 17321 bound_to 7965
  140.7795  143.3886  151.1350 LP  0  0  0  0  0  0  0  0  0  0  0  0  # atno 17342 bound_to 10162
  139.7530  143.8750  152.3081 LP  0  0  0  0  0  0  0  0  0  0  0  0  # atno 17343 bound_to 10162
  156.1052  130.3653  150.0147 LP  0  0  0  0  0  0  0  0  0  0  0  0  # atno 17370 bound_to 10713
  156.8255  130.9374  151.3639 LP  0  0  0  0  0  0  0  0  0  0  0  0  # atno 17371 bound_to 10713
  141.1187  133.9498  157.2773 LP  0  0  0  0  0  0  0  0  0  0  0  0  # atno 17394 bound_to 11000
  139.9468  135.0182  156.8877 LP  0  0  0  0  0  0  0  0  0  0  0  0  # atno 17395 bound_to 11000

$$$$
