AV-unprocessed.smi:1803|AV-procd|sdf|7281|dock3
  -GOLD-   22720 8543D 1   1.00000     0.00000
 Structure written by MMmdl.
 36 38  0  0  0  0  0  0  0  0  2 V2000
  146.7587  138.7128  155.2185 O   0  0  0  0  0  0  0  0  0  0  0  0
  145.9005  139.2607  154.5294 C   0  0  0  0  0  0  0  0  0  0  0  0
  144.8073  138.5862  154.1130 N   0  0  0  0  0  0  0  0  0  0  0  0
  144.3893  137.2381  154.3175 C   0  0  0  0  0  0  0  0  0  0  0  0
  145.0316  136.3502  155.0943 N   0  0  0  0  0  0  0  0  0  0  0  0
  144.3944  135.1170  155.1175 N   0  0  0  0  0  0  0  0  0  0  0  0
  143.2919  135.1217  154.3635 C   0  0  0  0  0  0  0  0  0  0  0  0
  142.9264  136.6336  153.5511 S   0  0  0  0  0  0  0  0  0  0  0  0
  145.9885  140.5467  154.1520 N   0  0  0  0  0  0  0  0  0  0  0  0
  147.0824  141.4562  154.4764 C   0  0  2  0  0  0  0  0  0  0  0  0
  148.4316  140.9974  153.8956 C   0  0  0  0  0  0  0  0  0  0  0  0
  149.4789  141.3358  154.9748 C   0  0  0  0  0  0  0  0  0  0  0  0
  148.7338  142.0421  156.0340 N   0  3  2  0  0  0  0  0  0  0  0  0
  149.3088  142.0124  157.3965 C   0  0  0  0  0  0  0  0  0  0  0  0
  148.4364  142.8704  158.3348 C   0  0  0  0  0  0  0  0  0  0  0  0
  146.9539  142.4483  158.2822 C   0  0  0  0  0  0  0  0  0  0  0  0
  146.4381  142.4064  156.8309 C   0  0  0  0  0  0  0  0  0  0  0  0
  147.3612  141.5170  155.9806 C   0  0  1  0  0  0  0  0  0  0  0  0
  144.1537  139.1444  153.5826 H   0  0  0  0  0  0  0  0  0  0  0  0
  142.6890  134.2289  154.2860 H   0  0  0  0  0  0  0  0  0  0  0  0
  145.2371  140.9201  153.5890 H   0  0  0  0  0  0  0  0  0  0  0  0
  146.8717  142.4607  154.1029 H   0  0  0  0  0  0  0  0  0  0  0  0
  148.4383  139.9237  153.7009 H   0  0  0  0  0  0  0  0  0  0  0  0
  148.6433  141.5015  152.9520 H   0  0  0  0  0  0  0  0  0  0  0  0
  149.9161  140.4182  155.3718 H   0  0  0  0  0  0  0  0  0  0  0  0
  150.2875  141.9578  154.5900 H   0  0  0  0  0  0  0  0  0  0  0  0
  149.3607  140.9836  157.7563 H   0  0  0  0  0  0  0  0  0  0  0  0
  150.3284  142.3985  157.3727 H   0  0  0  0  0  0  0  0  0  0  0  0
  148.8087  142.8032  159.3574 H   0  0  0  0  0  0  0  0  0  0  0  0
  148.5206  143.9190  158.0455 H   0  0  0  0  0  0  0  0  0  0  0  0
  146.8419  141.4624  158.7351 H   0  0  0  0  0  0  0  0  0  0  0  0
  146.3472  143.1319  158.8770 H   0  0  0  0  0  0  0  0  0  0  0  0
  145.4174  142.0238  156.8118 H   0  0  0  0  0  0  0  0  0  0  0  0
  146.4031  143.4158  156.4185 H   0  0  0  0  0  0  0  0  0  0  0  0
  147.3617  140.5021  156.3856 H   0  0  0  0  0  0  0  0  0  0  0  0
  148.6797  143.0101  155.7505 H   0  0  0  0  0  0  0  0  0  0  0  0
  1  2  2  0  0  0  0
  2  3  1  0  0  0  0
  2  9  1  0  0  0  0
  3  4  1  0  0  0  0
  3 19  1  0  0  0  0
  4  8  1  0  0  0  0
  4  5  2  0  0  0  0
  5  6  1  0  0  0  0
  6  7  2  0  0  0  0
  7  8  1  0  0  0  0
  7 20  1  0  0  0  0
  9 10  1  0  0  0  0
  9 21  1  0  0  0  0
 10 18  1  0  0  0  0
 10 11  1  0  0  0  0
 10 22  1  0  0  0  0
 11 12  1  0  0  0  0
 11 23  1  0  0  0  0
 11 24  1  0  0  0  0
 12 13  1  0  0  0  0
 12 25  1  0  0  0  0
 12 26  1  0  0  0  0
 13 18  1  0  0  0  0
 13 14  1  0  0  0  0
 13 36  1  0  0  0  0
 14 15  1  0  0  0  0
 14 27  1  0  0  0  0
 14 28  1  0  0  0  0
 15 16  1  0  0  0  0
 15 29  1  0  0  0  0
 15 30  1  0  0  0  0
 16 17  1  0  0  0  0
 16 31  1  0  0  0  0
 16 32  1  0  0  0  0
 17 18  1  0  0  0  0
 17 33  1  0  0  0  0
 17 34  1  0  0  0  0
 18 35  1  0  0  0  0
M  CHG  1  13   1
M  END
> <s_m_source_file>
AV-unprocessed.smi

> <i_m_source_file_index>
1803

> <i_lp_mmshare_version>
43012

> <i_f3d_flags>
0

> <s_epik_input>
czFbY0hdbm5jMVtOSF1DKD1PKVtOSF1bQ0BIXShbQ0gyXVtDSDJdMilbQ0BASF0oTjIzKVtDSDJdW0NIMl1bQ0gyXVtDSDJdMw==

> <s_epik_cmdline>
J2VwaWtfcHl0aG9uJywgJy1waCcsICc3LjAnLCAnLXRuJywgJzgnLCAnLW1hJywgJzIwMCcsICctbWV0YWxfYmluZGluZycsICctaW1hZScsICc8aW5maWxlLm1hZT4nLCAnLW9tYWUnLCAnPG91dGZpbGUubWFlPic=

> <r_lp_tautomer_probability>
1

> <r_epik_Ionization_Penalty>
0.00213286

> <r_epik_Ionization_Penalty_Charging>
0.00107044

> <r_epik_Ionization_Penalty_Neutral>
0.00106242

> <r_epik_State_Penalty>
-0

> <r_epik_Charging_Adjusted_Penalty>
0.00107044

> <i_epik_Tot_Q>
1

> <i_epik_Tot_abs_Q>
1

> <r_epik_Metal_State_Penalty>
0.292783

> <b_epik_Metal_Only>
0

> <s_lp_Force_Field>
OPLS_2005

> <r_lp_Energy>
35.8307

> <b_lp_Chiralities_Consistent>
1

> <s_lp_Variant>
AV-unprocessed.smi:1803-3

> <Gold.Version>
5.8.1

> <Gold.Id.Protein>
6NUR|6NUR_protein|mol2

> <Gold.PLP.Fitness>
35.2222

> <Gold.PLP.PLP>
-20.4897

> <Gold.PLP.part.hbond>
-3.0000

> <Gold.PLP.part.metal>
0.0000

> <Gold.PLP.part.buried>
-1.5868

> <Gold.PLP.part.nonpolar>
-15.8227

> <Gold.PLP.part.repulsive>
0.1724

> <Gold.PLP.ligand.clash>
0.0000

> <Gold.PLP.ligand.torsion>
0.0276

> <Gold.PLP.Chemscore.Hbond>
3.9280

> <Gold.PLP.Chemscore.CHOScore>
0.9980

> <Gold.PLP.Chemscore.Metal>
0.0000

> <Gold.Chemscore.Hbonds>
donor molecule, donor type, donor heavy atom, donor atom, acceptor molecule, acceptor atom, score
      L1  H     3    19       P1 10175  1.00
      L1  H     9    21       P1 10175  0.93
      L1  H    13    36       P1  8028  2.00
      L1  C     7    20       P1 10957  1.00

> <Gold.PLP.Chemscore.Internal.Correction>
0.0096

> <Gold.Rescore>
     Score         DG    S(hbond)    S(metal)    S(lipo)     H(rot)  DE(clash)    DE(int)     intcor
     14.56     -17.03       2.84        0.00      39.60       1.00       0.05       2.42       ----

> <Gold.Chemscore.Fitness>
14.5612

> <Gold.Chemscore.DG>
-17.0312

> <Gold.Chemscore.ZeroCoef>
-5.4800

> <Gold.Chemscore.Hbond>
2.8378

> <Gold.Chemscore.Metal>
0.0000

> <Gold.Chemscore.Lipo>
39.5981

> <Gold.Chemscore.Internal_Hbond>
0.0000

> <Gold.Chemscore.DEClash>
0.0484

> <Gold.Chemscore.DEInternal>
2.4217

> <Gold.Chemscore.Rot>
1.0000

> <Gold.Chemscore.Internal.Correction>
   9.000000E+99

> <Gold.Chemscore.Hbonds>
donor molecule, donor type, donor heavy atom, donor atom, acceptor molecule, acceptor atom, score
      L1  H     3    19       P1 10175  0.99
      L1  H     9    21       P1 10175  0.70
      L1  H    13    36       P1  8028  1.00

> <Gold.Chemscore.Hbond.Weighted>
-9.4782

> <Gold.Chemscore.Metal.Weighted>
-0.0000

> <Gold.Chemscore.Lipo.Weighted>
-4.6330

> <Gold.Chemscore.Internal_Hbond.Weighted>
0.0000

> <Gold.Chemscore.DEClash.Weighted>
0.0484

> <Gold.Chemscore.DEInternal.Weighted>
2.4217

> <Gold.Chemscore.Rot.Weighted>
2.5600

> <Gold.Chemscore.Internal.Correction.Weighted>
   9.000000E+99

> <Gold.Protein.RotatedTorsions>
[ 6907 6896 6895 6894 ] final -119.80 input  -60.11 | X-H torsion
[ 7974 7965 7964 7962 ] final  -80.21 input  175.53 | X-H torsion
[ 8008 7997 7996 7995 ] final  -61.42 input   59.86 | X-H torsion
[ 10167 10162 10161 10158 ] final  -48.43 input  -65.29 | X-H torsion
[ 10718 10713 10712 10709 ] final  -46.79 input   66.30 | X-H torsion
[ 10763 10752 10751 10750 ] final  170.68 input  -60.55 | X-H torsion
[ 11005 11000 10999 10996 ] final  -62.24 input  -57.11 | X-H torsion

> <Gold.Protein.ActiveResidues>
 VAL166  LYS551  ARG553  GLY616  TRP617  ASP618  TYR619  PRO620  LYS621  CYS622 
 ASP623  PHE694  ASN695  SER759  ASP760  ASP761  ALA762  ILE779  LEU786  VAL792 
 PHE793  MET794  SER795  GLU796  ALA797  LYS798  CYS799  TRP800  GLU811  SER814 

> <Gold.Protein.RotatedAtoms>
  150.8337  133.8049  159.3088 H   0  0  0  0  0  0  0  0  0  0  0  0  # atno 6907 bound_to 6896
  151.5771  135.1058  160.0018 H   0  0  0  0  0  0  0  0  0  0  0  0  # atno 6908 bound_to 6896
  152.4413  133.7411  159.6697 H   0  0  0  0  0  0  0  0  0  0  0  0  # atno 6909 bound_to 6896
  145.5630  140.9479  143.1437 H   0  0  0  0  0  0  0  0  0  0  0  0  # atno 7974 bound_to 7965
  154.4447  140.1018  156.6427 H   0  0  0  0  0  0  0  0  0  0  0  0  # atno 8008 bound_to 7997
  155.5483  140.3485  155.4444 H   0  0  0  0  0  0  0  0  0  0  0  0  # atno 8009 bound_to 7997
  156.0547  140.1312  156.9999 H   0  0  0  0  0  0  0  0  0  0  0  0  # atno 8010 bound_to 7997
  140.6731  143.2740  151.4070 H   0  0  0  0  0  0  0  0  0  0  0  0  # atno 10167 bound_to 10162
  156.2148  130.4162  149.9068 H   0  0  0  0  0  0  0  0  0  0  0  0  # atno 10718 bound_to 10713
  154.4010  135.2755  155.2096 H   0  0  0  0  0  0  0  0  0  0  0  0  # atno 10763 bound_to 10752
  154.4122  135.6020  153.5963 H   0  0  0  0  0  0  0  0  0  0  0  0  # atno 10764 bound_to 10752
  152.9831  135.5952  154.4278 H   0  0  0  0  0  0  0  0  0  0  0  0  # atno 10765 bound_to 10752
  141.1352  133.6638  156.5497 H   0  0  0  0  0  0  0  0  0  0  0  0  # atno 11005 bound_to 11000
  144.7474  139.7284  143.7287 LP  0  0  0  0  0  0  0  0  0  0  0  0  # atno 17320 bound_to 7965
  146.1838  139.5043  142.9849 LP  0  0  0  0  0  0  0  0  0  0  0  0  # atno 17321 bound_to 7965
  139.6009  144.1297  152.2197 LP  0  0  0  0  0  0  0  0  0  0  0  0  # atno 17342 bound_to 10162
  140.0681  144.5802  150.7212 LP  0  0  0  0  0  0  0  0  0  0  0  0  # atno 17343 bound_to 10162
  156.6734  130.8829  151.3565 LP  0  0  0  0  0  0  0  0  0  0  0  0  # atno 17370 bound_to 10713
  157.7057  130.9383  150.0925 LP  0  0  0  0  0  0  0  0  0  0  0  0  # atno 17371 bound_to 10713
  140.4074  134.7303  157.4816 LP  0  0  0  0  0  0  0  0  0  0  0  0  # atno 17394 bound_to 11000
  140.0452  134.6210  155.8930 LP  0  0  0  0  0  0  0  0  0  0  0  0  # atno 17395 bound_to 11000

$$$$
