#       Name:                AV-unprocessed.smi:36
#       Creating user name   scv26
#       Creation time:       Thu Mar 26 16:05:22 2020


#       File generated by GOLD software.
#

@<TRIPOS>MOLECULE
AV-unprocessed.smi:36
    73    76     1
SMALL
NO_CHARGES


@<TRIPOS>ATOM
      1 ****        -5.9376   2.2434  -0.2487 C.3            1 S1                 0.0000
      2 ****        -5.2041   0.8941  -0.3316 C.3            1 S1                 0.0000
      3 ****        -4.1418   0.8180   0.7781 C.3            1 S1                 0.0000
      4 ****        -6.2123  -0.2545  -0.1629 C.3            1 S1                 0.0000
      5 ****        -4.3636   0.7440  -2.0455 Si             1 S1                 0.0000
      6 ****        -5.6679   0.7667  -3.4266 C.3            1 S1                 0.0000
      7 ****        -3.1156   2.1539  -2.3149 C.3            1 S1                 0.0000
      8 ****        -3.5449  -0.7360  -2.1379 O.3            1 S1                 0.0000
      9 ****        -2.1801  -0.8910  -1.8065 C.3            1 S1                 0.0000
     10 ****        -1.7918  -2.3817  -1.8046 C.3            1 S1                 0.0000
     11 ****        -0.3663  -2.4515  -1.8561 O.3            1 S1                 0.0000
     12 ****         0.1497  -2.8807  -0.6301 C.3            1 S1                 0.0000
     13 ****         1.2154  -1.9269  -0.2080 N.pl3          1 S1                 0.0000
     14 ****         1.2679  -0.5600  -0.3762 C.2            1 S1                 0.0000
     15 ****         2.3382   0.0197   0.0979 N.2            1 S1                 0.0000
     16 ****         3.0761  -1.0267   0.6366 C.ar           1 S1                 0.0000
     17 ****         4.3284  -1.1080   1.2981 C.ar           1 S1                 0.0000
     18 ****         5.0616   0.0114   1.5003 N.am           1 S1                 0.0000
     19 ****         6.3685   0.1280   2.1226 C.2            1 S1                 0.0000
     20 ****         6.9321  -0.8320   2.6490 O.2            1 S1                 0.0000
     21 ****         6.9575   1.5080   2.1628 C.ar           1 S1                 0.0000
     22 ****         7.8302   1.8747   3.2121 C.ar           1 S1                 0.0000
     23 ****         8.4056   3.1599   3.2447 C.ar           1 S1                 0.0000
     24 ****         8.1197   4.0864   2.2243 C.ar           1 S1                 0.0000
     25 ****         7.2602   3.7260   1.1695 C.ar           1 S1                 0.0000
     26 ****         6.6829   2.4417   1.1366 C.ar           1 S1                 0.0000
     27 ****         4.7453  -2.3381   1.6993 N.ar           1 S1                 0.0000
     28 ****         3.9863  -3.4141   1.4692 C.ar           1 S1                 0.0000
     29 ****         2.7995  -3.4839   0.8618 N.ar           1 S1                 0.0000
     30 ****         2.3780  -2.2522   0.4545 C.ar           1 S1                 0.0000
     31 ****        -0.9989  -2.8745   0.3750 C.3            1 S1                 0.0000
     32 ****        -2.1655  -3.1712  -0.5402 C.3            1 S1                 0.0000
     33 ****        -3.3997  -2.8034   0.0399 O.3            1 S1                 0.0000
     34 ****        -6.4401   2.3628   0.7117 H              1 S1                 0.0000
     35 ****        -6.6952   2.3335  -1.0274 H              1 S1                 0.0000
     36 ****        -5.2466   3.0790  -0.3629 H              1 S1                 0.0000
     37 ****        -3.3934   1.6029   0.6688 H              1 S1                 0.0000
     38 ****        -3.6215  -0.1388   0.7686 H              1 S1                 0.0000
     39 ****        -4.5930   0.9293   1.7647 H              1 S1                 0.0000
     40 ****        -6.7002  -0.2141   0.8116 H              1 S1                 0.0000
     41 ****        -5.7253  -1.2259  -0.2471 H              1 S1                 0.0000
     42 ****        -6.9941  -0.2123  -0.9215 H              1 S1                 0.0000
     43 ****        -6.2487   1.6887  -3.4161 H              1 S1                 0.0000
     44 ****        -6.3699  -0.0612  -3.3307 H              1 S1                 0.0000
     45 ****        -5.2059   0.6865  -4.4103 H              1 S1                 0.0000
     46 ****        -3.6012   3.1290  -2.2858 H              1 S1                 0.0000
     47 ****        -2.6206   2.0684  -3.2820 H              1 S1                 0.0000
     48 ****        -2.3379   2.1564  -1.5514 H              1 S1                 0.0000
     49 ****        -1.5974  -0.3665  -2.5644 H              1 S1                 0.0000
     50 ****        -1.9571  -0.4151  -0.8524 H              1 S1                 0.0000
     51 ****        -2.2002  -2.8600  -2.6955 H              1 S1                 0.0000
     52 ****         0.6337  -3.8516  -0.7423 H              1 S1                 0.0000
     53 ****         0.4860  -0.0005  -0.8673 H              1 S1                 0.0000
     54 ****         4.6629   0.8685   1.1454 H              1 S1                 0.0000
     55 ****         8.0620   1.1739   4.0014 H              1 S1                 0.0000
     56 ****         9.0685   3.4335   4.0522 H              1 S1                 0.0000
     57 ****         8.5627   5.0710   2.2482 H              1 S1                 0.0000
     58 ****         7.0456   4.4339   0.3823 H              1 S1                 0.0000
     59 ****         6.0334   2.1832   0.3129 H              1 S1                 0.0000
     60 ****         4.3890  -4.3528   1.8199 H              1 S1                 0.0000
     61 ****        -0.8452  -3.6181   1.1576 H              1 S1                 0.0000
     62 ****        -1.0940  -1.8870   0.8301 H              1 S1                 0.0000
     63 ****        -2.1841  -4.2378  -0.7687 H              1 S1                 0.0000
     64 ****        -4.0853  -2.9502  -0.5941 H              1 S1                 0.0000
     65 ****        -0.0003  -1.5452  -2.0675 LP             1 S1                 0.0000
     66 ****        -0.0944  -3.0959  -2.5708 LP             1 S1                 0.0000
     67 ****         2.5722   0.9918   0.0777 LP             1 S1                 0.0000
     68 ****         6.4895  -1.7287   2.6572 LP             1 S1                 0.0000
     69 ****         7.8324  -0.7149   3.0683 LP             1 S1                 0.0000
     70 ****         5.6228  -2.4384   2.1682 LP             1 S1                 0.0000
     71 ****         2.2855  -4.3304   0.7233 LP             1 S1                 0.0000
     72 ****        -3.3776  -1.8367   0.2950 LP             1 S1                 0.0000
     73 ****        -3.5686  -3.3591   0.8540 LP             1 S1                 0.0000
@<TRIPOS>BOND
    1    1    2 1     
    2    1   34 1     
    3    1   35 1     
    4    1   36 1     
    5    2    3 1     
    6    2    4 1     
    7    2    5 1     
    8    3   37 1     
    9    3   38 1     
   10    3   39 1     
   11    4   40 1     
   12    4   41 1     
   13    4   42 1     
   14    5    6 1     
   15    5    7 1     
   16    5    8 1     
   17    6   43 1     
   18    6   44 1     
   19    6   45 1     
   20    7   46 1     
   21    7   47 1     
   22    7   48 1     
   23    8    9 1     
   24    9   10 1     
   25    9   49 1     
   26    9   50 1     
   27   10   32 1     
   28   10   11 1     
   29   10   51 1     
   30   11   12 1     
   31   12   13 1     
   32   12   31 1     
   33   12   52 1     
   34   13   30 1     
   35   13   14 1     
   36   14   15 2     
   37   14   53 1     
   38   15   16 1     
   39   16   30 ar    
   40   16   17 ar    
   41   17   18 1     
   42   17   27 ar    
   43   18   19 am    
   44   18   54 1     
   45   19   20 2     
   46   19   21 1     
   47   21   26 ar    
   48   21   22 ar    
   49   22   23 ar    
   50   22   55 1     
   51   23   24 ar    
   52   23   56 1     
   53   24   25 ar    
   54   24   57 1     
   55   25   26 ar    
   56   25   58 1     
   57   26   59 1     
   58   27   28 ar    
   59   28   29 ar    
   60   28   60 1     
   61   29   30 ar    
   62   31   32 1     
   63   31   61 1     
   64   31   62 1     
   65   32   33 1     
   66   32   63 1     
   67   33   64 1     
   68   11   65 1     
   69   11   66 1     
   70   15   67 1     
   71   20   68 1     
   72   20   69 1     
   73   27   70 1     
   74   29   71 1     
   75   33   72 1     
   76   33   73 1     
@<TRIPOS>SUBSTRUCTURE
      1 S1             1
@<TRIPOS>SET
LONE_PAIRS      STATIC     ATOMS    <user>   **** ""
9 65 66 67 68 69 70 71 72 73
DONOR_HYDROGENS      STATIC     ATOMS    <user>   **** ""
2 54 64
ATOM$BLUE        STATIC     ATOMS    COLORGROUP SYSTEM
9 65 66 67 68 69 70 71 72 73
ATOM$RED        STATIC     ATOMS    COLORGROUP SYSTEM
2 54 64
