#       Name:                AV-unprocessed.smi:2180
#       Creating user name   scv26
#       Creation time:       Fri Mar 27 12:05:40 2020


#       File generated by GOLD software.
#

@<TRIPOS>MOLECULE
AV-unprocessed.smi:2180
    44    45     1
SMALL
NO_CHARGES


@<TRIPOS>ATOM
      1 ****        -4.1514   0.6800   2.3953 C.3            1 S1                 0.0000
      2 ****        -3.0405  -0.3269   2.3435 C.2            1 S1                 0.0000
      3 ****        -3.1264  -1.7233   2.0836 C.2            1 S1                 0.0000
      4 ****        -1.8328  -2.1590   2.1471 C.2            1 S1                 0.0000
      5 ****        -1.2660  -3.5278   1.9571 C.3            1 S1                 0.0000
      6 ****        -1.0508  -1.0537   2.4321 N.pl3          1 S1                 0.0000
      7 ****         0.3936  -0.9662   2.5902 C.3            1 S1                 0.0000
      8 ****         1.1022  -0.8732   1.2370 C.2            1 S1                 0.0000
      9 ****         1.9181  -1.7343   0.9089 O.2            1 S1                 0.0000
     10 ****         0.7851   0.1795   0.4654 N.am           1 S1                 0.0000
     11 ****         1.3377   0.4675  -0.8588 C.3            1 S1                 0.0000
     12 ****         0.2776   1.2861  -1.6305 C.3            1 S1                 0.0000
     13 ****         0.4372   1.2257  -3.1594 C.3            1 S1                 0.0000
     14 ****         1.7239   1.8651  -3.7025 C.3            1 S1                 0.0000
     15 ****         3.0105   1.1794  -3.2121 C.3            1 S1                 0.0000
     16 ****         3.3482   1.5568  -1.8458 N.am           1 S1                 0.0000
     17 ****         2.6357   1.2996  -0.7383 C.2            1 S1                 0.0000
     18 ****         3.0117   1.7245   0.3542 O.2            1 S1                 0.0000
     19 ****        -1.7957   0.0674   2.5533 N.2            1 S1                 0.0000
     20 ****        -5.1256   0.1964   2.3212 H              1 S1                 0.0000
     21 ****        -4.0716   1.3928   1.5742 H              1 S1                 0.0000
     22 ****        -4.1309   1.2423   3.3292 H              1 S1                 0.0000
     23 ****        -4.0059  -2.3154   1.8779 H              1 S1                 0.0000
     24 ****        -2.0561  -4.2532   1.7621 H              1 S1                 0.0000
     25 ****        -0.7257  -3.8526   2.8463 H              1 S1                 0.0000
     26 ****        -0.5761  -3.5497   1.1132 H              1 S1                 0.0000
     27 ****         0.6428  -0.0916   3.1932 H              1 S1                 0.0000
     28 ****         0.7443  -1.8403   3.1399 H              1 S1                 0.0000
     29 ****         0.1089   0.8372   0.8260 H              1 S1                 0.0000
     30 ****         1.5400  -0.4717  -1.3767 H              1 S1                 0.0000
     31 ****        -0.7128   0.8901  -1.3991 H              1 S1                 0.0000
     32 ****         0.2612   2.3238  -1.2923 H              1 S1                 0.0000
     33 ****         0.3810   0.1874  -3.4884 H              1 S1                 0.0000
     34 ****        -0.4166   1.7272  -3.6162 H              1 S1                 0.0000
     35 ****         1.6958   1.8071  -4.7911 H              1 S1                 0.0000
     36 ****         1.7476   2.9285  -3.4606 H              1 S1                 0.0000
     37 ****         2.9417   0.0946  -3.3046 H              1 S1                 0.0000
     38 ****         3.8434   1.4886  -3.8440 H              1 S1                 0.0000
     39 ****         4.1961   2.0928  -1.7293 H              1 S1                 0.0000
     40 ****         2.1181  -2.4949   1.5266 LP             1 S1                 0.0000
     41 ****         2.3811  -1.6734   0.0246 LP             1 S1                 0.0000
     42 ****         2.4760   1.5327   1.1765 LP             1 S1                 0.0000
     43 ****         3.8528   2.2614   0.4193 LP             1 S1                 0.0000
     44 ****        -1.4757   0.9926   2.7570 LP             1 S1                 0.0000
@<TRIPOS>BOND
    1    1    2 1     
    2    1   20 1     
    3    1   21 1     
    4    1   22 1     
    5    2   19 2     
    6    2    3 1     
    7    3    4 2     
    8    3   23 1     
    9    4    5 1     
   10    4    6 1     
   11    5   24 1     
   12    5   25 1     
   13    5   26 1     
   14    6    7 1     
   15    6   19 1     
   16    7    8 1     
   17    7   27 1     
   18    7   28 1     
   19    8    9 2     
   20    8   10 am    
   21   10   11 1     
   22   10   29 1     
   23   11   17 1     
   24   11   12 1     
   25   11   30 1     
   26   12   13 1     
   27   12   31 1     
   28   12   32 1     
   29   13   14 1     
   30   13   33 1     
   31   13   34 1     
   32   14   15 1     
   33   14   35 1     
   34   14   36 1     
   35   15   16 1     
   36   15   37 1     
   37   15   38 1     
   38   16   17 am    
   39   16   39 1     
   40   17   18 2     
   41    9   40 1     
   42    9   41 1     
   43   18   42 1     
   44   18   43 1     
   45   19   44 1     
@<TRIPOS>SUBSTRUCTURE
      1 S1             1
@<TRIPOS>SET
LONE_PAIRS      STATIC     ATOMS    <user>   **** ""
5 40 41 42 43 44
DONOR_HYDROGENS      STATIC     ATOMS    <user>   **** ""
2 29 39
ATOM$BLUE        STATIC     ATOMS    COLORGROUP SYSTEM
5 40 41 42 43 44
ATOM$RED        STATIC     ATOMS    COLORGROUP SYSTEM
2 29 39
