AV-unprocessed.smi:2655|AV-procd|sdf|10299|dock2
  -GOLD-   2272014313D 1   1.00000     0.00000
 Structure written by MMmdl.
 34 35  0  0  0  0  0  0  0  0  1 V2000
  148.0766  141.3572  154.4236 C   0  0  0  0  0  0  0  0  0  0  0  0
  149.3996  141.2163  155.1453 C   0  0  0  0  0  0  0  0  0  0  0  0
  149.9526  142.2552  155.8358 N   0  0  0  0  0  0  0  0  0  0  0  0
  151.1553  141.8453  156.3531 N   0  0  0  0  0  0  0  0  0  0  0  0
  151.3799  140.5633  156.0207 C   0  0  0  0  0  0  0  0  0  0  0  0
  152.3647  139.8980  156.3345 O   0  0  0  0  0  0  0  0  0  0  0  0
  150.2254  140.1648  155.2231 C   0  0  0  0  0  0  0  0  0  0  0  0
  150.0414  138.7837  154.6243 C   0  0  0  0  0  0  0  0  0  0  0  0
  148.7665  138.0976  155.1406 C   0  0  0  0  0  0  0  0  0  0  0  0
  148.2664  137.1122  154.1899 N   0  0  0  0  0  0  0  0  0  0  0  0
  147.0181  136.6225  154.1766 C   0  0  0  0  0  0  0  0  0  0  0  0
  146.1499  136.9591  154.9820 O   0  0  0  0  0  0  0  0  0  0  0  0
  146.8556  135.7333  153.1823 N   0  0  0  0  0  0  0  0  0  0  0  0
  145.6868  135.0119  152.8263 C   0  0  0  0  0  0  0  0  0  0  0  0
  145.5635  134.0781  151.7564 C   0  0  0  0  0  0  0  0  0  0  0  0
  144.2604  133.6780  151.8477 C   0  0  0  0  0  0  0  0  0  0  0  0
  143.4361  132.7210  151.0567 C   0  0  0  0  0  0  0  0  0  0  0  0
  143.6410  134.3116  152.8795 O   0  0  0  0  0  0  0  0  0  0  0  0
  144.5615  135.1644  153.4999 N   0  0  0  0  0  0  0  0  0  0  0  0
  148.2014  141.1331  153.3639 H   0  0  0  0  0  0  0  0  0  0  0  0
  147.6831  142.3698  154.5170 H   0  0  0  0  0  0  0  0  0  0  0  0
  147.3449  140.6633  154.8380 H   0  0  0  0  0  0  0  0  0  0  0  0
  151.7136  142.4841  156.9008 H   0  0  0  0  0  0  0  0  0  0  0  0
  150.9159  138.1793  154.8676 H   0  0  0  0  0  0  0  0  0  0  0  0
  150.0167  138.8660  153.5369 H   0  0  0  0  0  0  0  0  0  0  0  0
  148.9524  137.6251  156.1070 H   0  0  0  0  0  0  0  0  0  0  0  0
  147.9832  138.8384  155.3039 H   0  0  0  0  0  0  0  0  0  0  0  0
  148.9174  136.7818  153.4925 H   0  0  0  0  0  0  0  0  0  0  0  0
  147.6627  135.5584  152.6021 H   0  0  0  0  0  0  0  0  0  0  0  0
  146.2948  133.7459  151.0353 H   0  0  0  0  0  0  0  0  0  0  0  0
  144.0649  132.1024  150.4162 H   0  0  0  0  0  0  0  0  0  0  0  0
  142.7281  133.2546  150.4227 H   0  0  0  0  0  0  0  0  0  0  0  0
  142.8708  132.0604  151.7143 H   0  0  0  0  0  0  0  0  0  0  0  0
  149.6250  143.2088  155.8964 H   0  0  0  0  0  0  0  0  0  0  0  0
  1 20  1  0  0  0  0
  1 21  1  0  0  0  0
  1 22  1  0  0  0  0
  1  2  1  0  0  0  0
  2  7  2  0  0  0  0
  2  3  1  0  0  0  0
  3  4  1  0  0  0  0
  3 34  1  0  0  0  0
  4 23  1  0  0  0  0
  4  5  1  0  0  0  0
  5  7  1  0  0  0  0
  5  6  2  0  0  0  0
  7  8  1  0  0  0  0
  8  9  1  0  0  0  0
  8 24  1  0  0  0  0
  8 25  1  0  0  0  0
  9 10  1  0  0  0  0
  9 26  1  0  0  0  0
  9 27  1  0  0  0  0
 10 11  1  0  0  0  0
 10 28  1  0  0  0  0
 11 12  2  0  0  0  0
 11 13  1  0  0  0  0
 13 14  1  0  0  0  0
 13 29  1  0  0  0  0
 14 19  2  0  0  0  0
 14 15  1  0  0  0  0
 15 16  2  0  0  0  0
 15 30  1  0  0  0  0
 16 17  1  0  0  0  0
 16 18  1  0  0  0  0
 17 31  1  0  0  0  0
 17 32  1  0  0  0  0
 17 33  1  0  0  0  0
 18 19  1  0  0  0  0
M  END
> <s_m_source_file>
AV-unprocessed.smi

> <i_m_source_file_index>
2655

> <i_lp_mmshare_version>
43012

> <i_f3d_flags>
0

> <s_epik_input>
W0NIM11DMT1OW05IXUMoPU8pW0NASF0xW0NIMl1bQ0gyXVtOSF1DKD1PKVtOSF1jMltjSF1jKFtDSDNdKW9uMg==

> <s_epik_cmdline>
J2VwaWtfcHl0aG9uJywgJy1waCcsICc3LjAnLCAnLXRuJywgJzgnLCAnLW1hJywgJzIwMCcsICctbWV0YWxfYmluZGluZycsICctaW1hZScsICc8aW5maWxlLm1hZT4nLCAnLW9tYWUnLCAnPG91dGZpbGUubWFlPic=

> <r_lp_tautomer_probability>
0.00220696

> <r_epik_Ionization_Penalty>
0.0273702

> <r_epik_Ionization_Penalty_Charging>
8.84748e-06

> <r_epik_Ionization_Penalty_Neutral>
0.0273613

> <r_epik_State_Penalty>
0.626781

> <r_epik_Charging_Adjusted_Penalty>
0.626789

> <i_epik_Tot_Q>
0

> <i_epik_Tot_abs_Q>
0

> <r_epik_Metal_State_Penalty>
2.03048

> <b_epik_Metal_Only>
0

> <s_lp_Force_Field>
OPLS_2005

> <r_lp_Energy>
17.132

> <b_lp_Chiralities_Consistent>
1

> <s_lp_Variant>
AV-unprocessed.smi:2655-2

> <Gold.Version>
5.8.1

> <Gold.Id.Protein>
6NUR|6NUR_protein|mol2

> <Gold.PLP.Fitness>
36.8113

> <Gold.PLP.PLP>
-26.5287

> <Gold.PLP.part.hbond>
-3.8116

> <Gold.PLP.part.metal>
0.0000

> <Gold.PLP.part.buried>
-1.6421

> <Gold.PLP.part.nonpolar>
-21.0443

> <Gold.PLP.part.repulsive>
0.5338

> <Gold.PLP.ligand.clash>
0.0000

> <Gold.PLP.ligand.torsion>
0.2763

> <Gold.PLP.Chemscore.Hbond>
3.6058

> <Gold.PLP.Chemscore.CHOScore>
0.0000

> <Gold.PLP.Chemscore.Metal>
0.0000

> <Gold.Chemscore.Hbonds>
donor molecule, donor type, donor heavy atom, donor atom, acceptor molecule, acceptor atom, score
      L1  H     3    34       P1  8028  1.00
      L1  H    10    28       P1  7948  0.83
      L1  H    13    29       P1  7948  0.93
      P1  H  7997  8010       L1     6  1.00

> <Gold.PLP.Chemscore.Internal.Correction>
0.0180

> <Gold.Rescore>
     Score         DG    S(hbond)    S(metal)    S(lipo)     H(rot)  DE(clash)    DE(int)     intcor
     16.66     -18.57       3.71        0.00      47.27       1.89       0.30       1.61       ----

> <Gold.Chemscore.Fitness>
16.6586

> <Gold.Chemscore.DG>
-18.5711

> <Gold.Chemscore.ZeroCoef>
-5.4800

> <Gold.Chemscore.Hbond>
3.7144

> <Gold.Chemscore.Metal>
0.0000

> <Gold.Chemscore.Lipo>
47.2728

> <Gold.Chemscore.Internal_Hbond>
0.0000

> <Gold.Chemscore.DEClash>
0.2987

> <Gold.Chemscore.DEInternal>
1.6139

> <Gold.Chemscore.Rot>
1.8929

> <Gold.Chemscore.Internal.Correction>
   9.000000E+99

> <Gold.Chemscore.Hbonds>
donor molecule, donor type, donor heavy atom, donor atom, acceptor molecule, acceptor atom, score
      L1  H     3    34       P1  8028  1.00
      L1  H    10    28       P1  7948  0.83
      L1  H    13    29       P1  7948  0.90
      P1  H  7997  8010       L1     6  0.97

> <Gold.Chemscore.Hbond.Weighted>
-12.4060

> <Gold.Chemscore.Metal.Weighted>
-0.0000

> <Gold.Chemscore.Lipo.Weighted>
-5.5309

> <Gold.Chemscore.Internal_Hbond.Weighted>
0.0000

> <Gold.Chemscore.DEClash.Weighted>
0.2987

> <Gold.Chemscore.DEInternal.Weighted>
1.6139

> <Gold.Chemscore.Rot.Weighted>
4.8457

> <Gold.Chemscore.Internal.Correction.Weighted>
   9.000000E+99

> <Gold.Protein.RotatedTorsions>
[ 6907 6896 6895 6894 ] final  -14.29 input  -60.11 | X-H torsion
[ 7974 7965 7964 7962 ] final   78.31 input  175.53 | X-H torsion
[ 8008 7997 7996 7995 ] final   75.99 input   59.86 | X-H torsion
[ 10167 10162 10161 10158 ] final  102.80 input  -65.29 | X-H torsion
[ 10718 10713 10712 10709 ] final   -3.84 input   66.30 | X-H torsion
[ 10763 10752 10751 10750 ] final   35.06 input  -60.55 | X-H torsion
[ 11005 11000 10999 10996 ] final  -86.64 input  -57.11 | X-H torsion

> <Gold.Protein.ActiveResidues>
 VAL166  LYS551  ARG553  GLY616  TRP617  ASP618  TYR619  PRO620  LYS621  CYS622 
 ASP623  PHE694  ASN695  SER759  ASP760  ASP761  ALA762  ILE779  LEU786  VAL792 
 PHE793  MET794  SER795  GLU796  ALA797  LYS798  CYS799  TRP800  GLU811  SER814 

> <Gold.Protein.RotatedAtoms>
  151.3416  135.0865  159.9372 H   0  0  0  0  0  0  0  0  0  0  0  0  # atno 6907 bound_to 6896
  152.5210  133.9441  159.7651 H   0  0  0  0  0  0  0  0  0  0  0  0  # atno 6908 bound_to 6896
  150.9799  133.6203  159.2754 H   0  0  0  0  0  0  0  0  0  0  0  0  # atno 6909 bound_to 6896
  145.6788  139.2517  143.1826 H   0  0  0  0  0  0  0  0  0  0  0  0  # atno 7974 bound_to 7965
  155.8210  140.3470  155.5514 H   0  0  0  0  0  0  0  0  0  0  0  0  # atno 8008 bound_to 7997
  155.8342  140.0932  157.1794 H   0  0  0  0  0  0  0  0  0  0  0  0  # atno 8009 bound_to 7997
  154.4004  140.1406  156.3638 H   0  0  0  0  0  0  0  0  0  0  0  0  # atno 8010 bound_to 7997
  139.7318  144.7034  151.0710 H   0  0  0  0  0  0  0  0  0  0  0  0  # atno 10167 bound_to 10162
  156.7700  130.5297  149.5769 H   0  0  0  0  0  0  0  0  0  0  0  0  # atno 10718 bound_to 10713
  153.0136  135.6343  154.1768 H   0  0  0  0  0  0  0  0  0  0  0  0  # atno 10763 bound_to 10752
  154.1508  135.2829  155.3137 H   0  0  0  0  0  0  0  0  0  0  0  0  # atno 10764 bound_to 10752
  154.6055  135.5573  153.7479 H   0  0  0  0  0  0  0  0  0  0  0  0  # atno 10765 bound_to 10752
  141.1627  133.7466  156.9190 H   0  0  0  0  0  0  0  0  0  0  0  0  # atno 11005 bound_to 11000
  146.0982  140.7575  142.9562 LP  0  0  0  0  0  0  0  0  0  0  0  0  # atno 17320 bound_to 7965
  144.7033  140.3746  143.7138 LP  0  0  0  0  0  0  0  0  0  0  0  0  # atno 17321 bound_to 7965
  140.7772  143.5033  150.9744 LP  0  0  0  0  0  0  0  0  0  0  0  0  # atno 17342 bound_to 10162
  139.8721  143.7179  152.3165 LP  0  0  0  0  0  0  0  0  0  0  0  0  # atno 17343 bound_to 10162
  156.1284  130.6160  151.0297 LP  0  0  0  0  0  0  0  0  0  0  0  0  # atno 17370 bound_to 10713
  157.6695  131.0864  150.7647 LP  0  0  0  0  0  0  0  0  0  0  0  0  # atno 17371 bound_to 10713
  140.1464  134.9259  157.2535 LP  0  0  0  0  0  0  0  0  0  0  0  0  # atno 17394 bound_to 11000
  140.2775  134.3389  155.7353 LP  0  0  0  0  0  0  0  0  0  0  0  0  # atno 17395 bound_to 11000

$$$$
