AV-unprocessed.smi:3164|AV-procd|sdf|12079|dock6
  -GOLD-   2272017503D 1   1.00000     0.00000
 Structure written by MMmdl.
 40 41  0  0  0  0  0  0  0  0  3 V2000
  149.1733  136.5394  155.1184 C   0  0  0  0  0  0  0  0  0  0  0  0
  150.0682  137.6797  155.4113 N   0  3  1  0  0  0  0  0  0  0  0  0
  151.3440  137.6103  154.6638 C   0  0  0  0  0  0  0  0  0  0  0  0
  152.2445  138.7994  155.0360 C   0  0  0  0  0  0  0  0  0  0  0  0
  151.5513  140.0176  154.7885 O   0  0  0  0  0  0  0  0  0  0  0  0
  150.3702  140.1425  155.5753 C   0  0  1  0  0  0  0  0  0  0  0  0
  149.7500  141.5193  155.2906 C   0  0  0  0  0  0  0  0  0  0  0  0
  148.9542  141.9985  156.4391 N   0  3  0  0  0  0  0  0  0  0  0  0
  149.6562  141.9137  157.7346 C   0  0  0  0  0  0  0  0  0  0  0  0
  151.0647  142.5159  157.6388 C   0  0  0  0  0  0  0  0  0  0  0  0
  151.7529  142.5809  158.9886 C   0  0  0  0  0  0  0  0  0  0  0  0
  152.8699  141.7653  159.2687 C   0  0  0  0  0  0  0  0  0  0  0  0
  153.4685  141.8618  160.5400 C   0  0  0  0  0  0  0  0  0  0  0  0
  152.9285  142.7641  161.4767 C   0  0  0  0  0  0  0  0  0  0  0  0
  151.8097  143.5332  161.0995 C   0  0  0  0  0  0  0  0  0  0  0  0
  151.2279  143.4476  159.8833 N   0  0  0  0  0  0  0  0  0  0  0  0
  149.4103  138.9916  155.2091 C   0  0  0  0  0  0  0  0  0  0  0  0
  148.8745  136.5334  154.0693 H   0  0  0  0  0  0  0  0  0  0  0  0
  148.2725  136.5898  155.7310 H   0  0  0  0  0  0  0  0  0  0  0  0
  149.6716  135.5944  155.3373 H   0  0  0  0  0  0  0  0  0  0  0  0
  151.8537  136.6726  154.8893 H   0  0  0  0  0  0  0  0  0  0  0  0
  151.1421  137.6167  153.5914 H   0  0  0  0  0  0  0  0  0  0  0  0
  152.5502  138.7459  156.0822 H   0  0  0  0  0  0  0  0  0  0  0  0
  153.1553  138.7831  154.4373 H   0  0  0  0  0  0  0  0  0  0  0  0
  150.6266  140.0778  156.6347 H   0  0  0  0  0  0  0  0  0  0  0  0
  150.5305  142.2446  155.0555 H   0  0  0  0  0  0  0  0  0  0  0  0
  149.0969  141.4567  154.4190 H   0  0  0  0  0  0  0  0  0  0  0  0
  148.6979  142.9621  156.2776 H   0  0  0  0  0  0  0  0  0  0  0  0
  149.0741  142.4407  158.4922 H   0  0  0  0  0  0  0  0  0  0  0  0
  149.7186  140.8692  158.0432 H   0  0  0  0  0  0  0  0  0  0  0  0
  151.6767  141.9287  156.9527 H   0  0  0  0  0  0  0  0  0  0  0  0
  151.0150  143.5224  157.2204 H   0  0  0  0  0  0  0  0  0  0  0  0
  153.2616  141.0813  158.5301 H   0  0  0  0  0  0  0  0  0  0  0  0
  154.3254  141.2546  160.7920 H   0  0  0  0  0  0  0  0  0  0  0  0
  153.3620  142.8643  162.4608 H   0  0  0  0  0  0  0  0  0  0  0  0
  151.3702  144.2350  161.7927 H   0  0  0  0  0  0  0  0  0  0  0  0
  149.0927  139.0824  154.1687 H   0  0  0  0  0  0  0  0  0  0  0  0
  148.5112  139.0455  155.8245 H   0  0  0  0  0  0  0  0  0  0  0  0
  148.1110  141.4448  156.4975 H   0  0  0  0  0  0  0  0  0  0  0  0
  150.3024  137.6172  156.3922 H   0  0  0  0  0  0  0  0  0  0  0  0
  1  2  1  0  0  0  0
  1 18  1  0  0  0  0
  1 19  1  0  0  0  0
  1 20  1  0  0  0  0
  2 17  1  0  0  0  0
  2  3  1  0  0  0  0
  2 40  1  0  0  0  0
  3  4  1  0  0  0  0
  3 21  1  0  0  0  0
  3 22  1  0  0  0  0
  4  5  1  0  0  0  0
  4 23  1  0  0  0  0
  4 24  1  0  0  0  0
  5  6  1  0  0  0  0
  6  7  1  0  0  0  0
  6 17  1  0  0  0  0
  6 25  1  0  0  0  0
  7  8  1  0  0  0  0
  7 26  1  0  0  0  0
  7 27  1  0  0  0  0
  8  9  1  0  0  0  0
  8 28  1  0  0  0  0
  8 39  1  0  0  0  0
  9 10  1  0  0  0  0
  9 29  1  0  0  0  0
  9 30  1  0  0  0  0
 10 11  1  0  0  0  0
 10 31  1  0  0  0  0
 10 32  1  0  0  0  0
 11 16  1  0  0  0  0
 11 12  2  0  0  0  0
 12 13  1  0  0  0  0
 12 33  1  0  0  0  0
 13 14  2  0  0  0  0
 13 34  1  0  0  0  0
 14 15  1  0  0  0  0
 14 35  1  0  0  0  0
 15 16  2  0  0  0  0
 15 36  1  0  0  0  0
 17 37  1  0  0  0  0
 17 38  1  0  0  0  0
M  CHG  1   2   1
M  CHG  1   8   1
M  END
> <s_m_source_file>
AV-unprocessed.smi

> <i_m_source_file_index>
3164

> <i_lp_mmshare_version>
43012

> <i_f3d_flags>
0

> <s_epik_input>
W0NIM11OMVtDSDJdW0NIMl1PW0NASF0oW0NIMl0xKVtDSDJdW05IXVtDSDJdW0NIMl1jMltjSF1bY0hdW2NIXVtjSF1uMg==

> <s_epik_cmdline>
J2VwaWtfcHl0aG9uJywgJy1waCcsICc3LjAnLCAnLXRuJywgJzgnLCAnLW1hJywgJzIwMCcsICctbWV0YWxfYmluZGluZycsICctaW1hZScsICc8aW5maWxlLm1hZT4nLCAnLW9tYWUnLCAnPG91dGZpbGUubWFlPic=

> <r_epik_Ionization_Penalty>
0.294944

> <r_epik_Ionization_Penalty_Charging>
0.29381

> <r_epik_Ionization_Penalty_Neutral>
0.00113372

> <r_epik_State_Penalty>
0.271365

> <r_epik_Charging_Adjusted_Penalty>
0.565175

> <i_epik_Tot_Q>
2

> <i_epik_Tot_abs_Q>
2

> <r_epik_Metal_State_Penalty>
0.271365

> <b_epik_Metal_Only>
0

> <s_lp_Force_Field>
OPLS_2005

> <r_lp_Energy>
20.3644

> <b_lp_Chiralities_Consistent>
1

> <s_lp_Variant>
AV-unprocessed.smi:3164-1

> <Gold.Version>
5.8.1

> <Gold.Id.Protein>
6NUR|6NUR_protein|mol2

> <Gold.PLP.Fitness>
44.6231

> <Gold.PLP.PLP>
-36.5079

> <Gold.PLP.part.hbond>
-1.8097

> <Gold.PLP.part.metal>
0.0000

> <Gold.PLP.part.buried>
-5.1831

> <Gold.PLP.part.nonpolar>
-30.3647

> <Gold.PLP.part.repulsive>
0.1752

> <Gold.PLP.ligand.clash>
0.0000

> <Gold.PLP.ligand.torsion>
0.4497

> <Gold.PLP.Chemscore.Hbond>
2.9920

> <Gold.PLP.Chemscore.CHOScore>
0.0000

> <Gold.PLP.Chemscore.Metal>
0.0000

> <Gold.Chemscore.Hbonds>
donor molecule, donor type, donor heavy atom, donor atom, acceptor molecule, acceptor atom, score
      L1  H     8    28       P1  8028  2.00
      P1  H  7989  7998       L1     5  1.00

> <Gold.PLP.Chemscore.Internal.Correction>
0.0386

> <Gold.Rescore>
     Score         DG    S(hbond)    S(metal)    S(lipo)     H(rot)  DE(clash)    DE(int)     intcor
     19.38     -19.84       1.90        0.00     104.52       1.65       0.03       0.43       ----

> <Gold.Chemscore.Fitness>
19.3783

> <Gold.Chemscore.DG>
-19.8378

> <Gold.Chemscore.ZeroCoef>
-5.4800

> <Gold.Chemscore.Hbond>
1.8985

> <Gold.Chemscore.Metal>
0.0000

> <Gold.Chemscore.Lipo>
104.5218

> <Gold.Chemscore.Internal_Hbond>
0.0000

> <Gold.Chemscore.DEClash>
0.0270

> <Gold.Chemscore.DEInternal>
0.4325

> <Gold.Chemscore.Rot>
1.6454

> <Gold.Chemscore.Internal.Correction>
   9.000000E+99

> <Gold.Chemscore.Hbonds>
donor molecule, donor type, donor heavy atom, donor atom, acceptor molecule, acceptor atom, score
      L1  H     8    28       P1  8028  0.97
      P1  H  7989  7998       L1     5  0.89

> <Gold.Chemscore.Hbond.Weighted>
-6.3410

> <Gold.Chemscore.Metal.Weighted>
-0.0000

> <Gold.Chemscore.Lipo.Weighted>
-12.2291

> <Gold.Chemscore.Internal_Hbond.Weighted>
0.0000

> <Gold.Chemscore.DEClash.Weighted>
0.0270

> <Gold.Chemscore.DEInternal.Weighted>
0.4325

> <Gold.Chemscore.Rot.Weighted>
4.2122

> <Gold.Chemscore.Internal.Correction.Weighted>
   9.000000E+99

> <Gold.Protein.RotatedTorsions>
[ 6907 6896 6895 6894 ] final -136.56 input  -60.11 | X-H torsion
[ 7974 7965 7964 7962 ] final  -89.40 input  175.53 | X-H torsion
[ 8008 7997 7996 7995 ] final  -62.70 input   59.86 | X-H torsion
[ 10167 10162 10161 10158 ] final -162.18 input  -65.29 | X-H torsion
[ 10718 10713 10712 10709 ] final  -73.85 input   66.30 | X-H torsion
[ 10763 10752 10751 10750 ] final  -99.18 input  -60.55 | X-H torsion
[ 11005 11000 10999 10996 ] final    2.37 input  -57.11 | X-H torsion

> <Gold.Protein.ActiveResidues>
 VAL166  LYS551  ARG553  GLY616  TRP617  ASP618  TYR619  PRO620  LYS621  CYS622 
 ASP623  PHE694  ASN695  SER759  ASP760  ASP761  ALA762  ILE779  LEU786  VAL792 
 PHE793  MET794  SER795  GLU796  ALA797  LYS798  CYS799  TRP800  GLU811  SER814 

> <Gold.Protein.RotatedAtoms>
  151.0115  133.5960  159.2681 H   0  0  0  0  0  0  0  0  0  0  0  0  # atno 6907 bound_to 6896
  151.3110  135.0793  159.9282 H   0  0  0  0  0  0  0  0  0  0  0  0  # atno 6908 bound_to 6896
  152.5301  133.9780  159.7847 H   0  0  0  0  0  0  0  0  0  0  0  0  # atno 6909 bound_to 6896
  145.4403  140.9559  143.2079 H   0  0  0  0  0  0  0  0  0  0  0  0  # atno 7974 bound_to 7965
  154.4514  140.0990  156.6627 H   0  0  0  0  0  0  0  0  0  0  0  0  # atno 8008 bound_to 7997
  155.5275  140.3480  155.4401 H   0  0  0  0  0  0  0  0  0  0  0  0  # atno 8009 bound_to 7997
  156.0687  140.1344  156.9843 H   0  0  0  0  0  0  0  0  0  0  0  0  # atno 8010 bound_to 7997
  139.6410  144.0259  152.2092 H   0  0  0  0  0  0  0  0  0  0  0  0  # atno 10167 bound_to 10162
  156.0264  130.4403  150.2804 H   0  0  0  0  0  0  0  0  0  0  0  0  # atno 10718 bound_to 10713
  154.7476  135.4982  153.9232 H   0  0  0  0  0  0  0  0  0  0  0  0  # atno 10763 bound_to 10752
  153.1109  135.6709  153.9510 H   0  0  0  0  0  0  0  0  0  0  0  0  # atno 10764 bound_to 10752
  153.9270  135.3082  155.3425 H   0  0  0  0  0  0  0  0  0  0  0  0  # atno 10765 bound_to 10752
  140.6050  133.9800  155.8150 H   0  0  0  0  0  0  0  0  0  0  0  0  # atno 11005 bound_to 11000
  144.8126  139.5934  143.7023 LP  0  0  0  0  0  0  0  0  0  0  0  0  # atno 17320 bound_to 7965
  146.2560  139.6303  142.9394 LP  0  0  0  0  0  0  0  0  0  0  0  0  # atno 17321 bound_to 7965
  139.9948  144.6335  150.7782 LP  0  0  0  0  0  0  0  0  0  0  0  0  # atno 17342 bound_to 10162
  140.7491  143.2933  151.3272 LP  0  0  0  0  0  0  0  0  0  0  0  0  # atno 17343 bound_to 10162
  157.0907  131.0169  151.3122 LP  0  0  0  0  0  0  0  0  0  0  0  0  # atno 17370 bound_to 10713
  157.4856  130.7791  149.7457 LP  0  0  0  0  0  0  0  0  0  0  0  0  # atno 17371 bound_to 10713
  141.0846  134.0010  157.3333 LP  0  0  0  0  0  0  0  0  0  0  0  0  # atno 17394 bound_to 11000
  139.9216  135.0200  156.8084 LP  0  0  0  0  0  0  0  0  0  0  0  0  # atno 17395 bound_to 11000

$$$$
