#       Name:                AV-unprocessed.smi:2637
#       Creating user name   scv26
#       Creation time:       Fri Mar 27 14:27:16 2020


#       File generated by GOLD software.
#

@<TRIPOS>MOLECULE
AV-unprocessed.smi:2637
    47    48     1
SMALL
NO_CHARGES


@<TRIPOS>ATOM
      1 ****        -4.2744   4.2808   1.1875 C.3            1 S1                 0.0000
      2 ****        -3.7399   2.8924   1.3814 C.2            1 S1                 0.0000
      3 ****        -2.3783   2.4722   1.4091 C.2            1 S1                 0.0000
      4 ****        -2.4833   1.1234   1.6138 C.2            1 S1                 0.0000
      5 ****        -1.4955   0.1962   1.7286 N.am           1 S1                 0.0000
      6 ****        -0.1642   0.3739   1.6699 C.2            1 S1                 0.0000
      7 ****         0.4058   1.4532   1.5080 O.2            1 S1                 0.0000
      8 ****         0.4843  -0.7922   1.8047 N.am           1 S1                 0.0000
      9 ****         1.9337  -0.9656   1.7725 C.3            1 S1                 0.0000
     10 ****         2.4241  -1.4799   0.4080 C.3            1 S1                 0.0000
     11 ****         2.2341  -0.4757  -0.7450 C.3            1 S1                 0.0000
     12 ****         2.7432  -1.0098  -2.0118 N.am           1 S1                 0.0000
     13 ****         3.9958  -0.8324  -2.4549 C.2            1 S1                 0.0000
     14 ****         4.8893  -0.2064  -1.8854 O.2            1 S1                 0.0000
     15 ****         4.2045  -1.5260  -3.7945 C.3            1 S1                 0.0000
     16 ****         2.8410  -2.1687  -4.0680 C.3            1 S1                 0.0000
     17 ****         2.0181  -1.7597  -2.8539 C.2            1 S1                 0.0000
     18 ****         0.8453  -2.1005  -2.7013 O.2            1 S1                 0.0000
     19 ****        -3.8167   0.7884   1.6956 N.pl3          1 S1                 0.0000
     20 ****        -4.4309  -0.5079   1.9074 C.3            1 S1                 0.0000
     21 ****        -4.5902   1.8864   1.5533 N.2            1 S1                 0.0000
     22 ****        -3.4652   5.0072   1.1095 H              1 S1                 0.0000
     23 ****        -4.9079   4.5788   2.0234 H              1 S1                 0.0000
     24 ****        -4.8693   4.3479   0.2763 H              1 S1                 0.0000
     25 ****        -1.4906   3.0760   1.2958 H              1 S1                 0.0000
     26 ****        -1.8113  -0.7521   1.8686 H              1 S1                 0.0000
     27 ****        -0.0671  -1.6284   1.9315 H              1 S1                 0.0000
     28 ****         2.4512  -0.0428   2.0400 H              1 S1                 0.0000
     29 ****         2.1938  -1.6908   2.5438 H              1 S1                 0.0000
     30 ****         3.4832  -1.7271   0.4924 H              1 S1                 0.0000
     31 ****         1.9143  -2.4146   0.1704 H              1 S1                 0.0000
     32 ****         1.1794  -0.2221  -0.8590 H              1 S1                 0.0000
     33 ****         2.7351   0.4634  -0.5036 H              1 S1                 0.0000
     34 ****         4.4727  -0.7998  -4.5625 H              1 S1                 0.0000
     35 ****         4.9978  -2.2708  -3.7204 H              1 S1                 0.0000
     36 ****         2.3880  -1.7872  -4.9836 H              1 S1                 0.0000
     37 ****         2.9099  -3.2549  -4.1346 H              1 S1                 0.0000
     38 ****        -3.9570  -1.2508   1.2651 H              1 S1                 0.0000
     39 ****        -5.4956  -0.4702   1.6728 H              1 S1                 0.0000
     40 ****        -4.3062  -0.8046   2.9492 H              1 S1                 0.0000
     41 ****        -0.1301   2.2915   1.4076 LP             1 S1                 0.0000
     42 ****         1.4046   1.4915   1.4769 LP             1 S1                 0.0000
     43 ****         4.7102   0.2299  -1.0036 LP             1 S1                 0.0000
     44 ****         5.7943  -0.1340  -2.3045 LP             1 S1                 0.0000
     45 ****         0.3435  -1.8140  -1.8851 LP             1 S1                 0.0000
     46 ****         0.3942  -2.6639  -3.3935 LP             1 S1                 0.0000
     47 ****        -5.5890   1.9322   1.5731 LP             1 S1                 0.0000
@<TRIPOS>BOND
    1    1    2 1     
    2    1   22 1     
    3    1   23 1     
    4    1   24 1     
    5    2   21 2     
    6    2    3 1     
    7    3    4 2     
    8    3   25 1     
    9    4    5 1     
   10    4   19 1     
   11    5    6 am    
   12    5   26 1     
   13    6    7 2     
   14    6    8 am    
   15    8    9 1     
   16    8   27 1     
   17    9   10 1     
   18    9   28 1     
   19    9   29 1     
   20   10   11 1     
   21   10   30 1     
   22   10   31 1     
   23   11   12 1     
   24   11   32 1     
   25   11   33 1     
   26   12   17 am    
   27   12   13 am    
   28   13   14 2     
   29   13   15 1     
   30   15   16 1     
   31   15   34 1     
   32   15   35 1     
   33   16   17 1     
   34   16   36 1     
   35   16   37 1     
   36   17   18 2     
   37   19   20 1     
   38   19   21 1     
   39   20   38 1     
   40   20   39 1     
   41   20   40 1     
   42    7   41 1     
   43    7   42 1     
   44   14   43 1     
   45   14   44 1     
   46   18   45 1     
   47   18   46 1     
   48   21   47 1     
@<TRIPOS>SUBSTRUCTURE
      1 S1             1
@<TRIPOS>SET
LONE_PAIRS      STATIC     ATOMS    <user>   **** ""
7 41 42 43 44 45 46 47
DONOR_HYDROGENS      STATIC     ATOMS    <user>   **** ""
2 26 27
ATOM$BLUE        STATIC     ATOMS    COLORGROUP SYSTEM
7 41 42 43 44 45 46 47
ATOM$RED        STATIC     ATOMS    COLORGROUP SYSTEM
2 26 27
