AV-unprocessed.smi:1080|AV-procd|sdf|4708|dock4
  -GOLD-   22720 3233D 1   1.00000     0.00000
 Structure written by MMmdl.
 49 51  0  0  0  0  0  0  0  0  2 V2000
  150.8723  136.5700  156.1080 O   0  0  0  0  0  0  0  0  0  0  0  0
  150.3738  136.5504  154.9830 C   0  0  0  0  0  0  0  0  0  0  0  0
  149.9975  135.4438  154.3185 N   0  0  0  0  0  0  0  0  0  0  0  0
  150.1102  134.0841  154.7192 C   0  0  0  0  0  0  0  0  0  0  0  0
  149.5839  133.1032  153.8492 C   0  0  0  0  0  0  0  0  0  0  0  0
  149.6845  131.7400  154.1942 C   0  0  0  0  0  0  0  0  0  0  0  0
  150.2892  131.3810  155.3467 N   0  3  0  0  0  0  0  0  0  0  0  0
  150.8191  132.2800  156.2034 C   0  0  0  0  0  0  0  0  0  0  0  0
  150.7493  133.6576  155.9117 C   0  0  0  0  0  0  0  0  0  0  0  0
  150.1184  137.6560  154.2681 N   0  0  0  0  0  0  0  0  0  0  0  0
  150.4060  139.0219  154.6963 C   0  0  2  0  0  0  0  0  0  0  0  0
  151.7532  139.0895  155.4441 C   0  0  0  0  0  0  0  0  0  0  0  0
  152.0332  140.5060  155.9720 C   0  0  0  0  0  0  0  0  0  0  0  0
  150.8898  141.0077  156.8782 C   0  0  1  0  0  0  0  0  0  0  0  0
  151.1948  142.4284  157.4023 C   0  0  0  0  0  0  0  0  0  0  0  0
  150.4927  143.3592  157.0034 O   0  0  0  0  0  0  0  0  0  0  0  0
  152.1921  142.6212  158.3026 N   0  0  0  0  0  0  0  0  0  0  0  0
  152.3810  143.8994  159.0000 C   0  0  0  0  0  0  0  0  0  0  0  0
  151.7973  143.7828  160.4189 C   0  0  0  0  0  0  0  0  0  0  0  0
  152.6642  142.5051  161.3853 S   0  0  0  0  0  0  0  0  0  0  0  0
  152.6192  141.1292  160.1933 C   0  0  0  0  0  0  0  0  0  0  0  0
  153.1060  141.5907  158.8102 C   0  0  0  0  0  0  0  0  0  0  0  0
  149.5504  140.9526  156.1087 C   0  0  0  0  0  0  0  0  0  0  0  0
  149.2621  139.5346  155.5903 C   0  0  0  0  0  0  0  0  0  0  0  0
  149.5288  135.5973  153.4377 H   0  0  0  0  0  0  0  0  0  0  0  0
  149.1016  133.3896  152.9256 H   0  0  0  0  0  0  0  0  0  0  0  0
  149.3036  130.9321  153.5866 H   0  0  0  0  0  0  0  0  0  0  0  0
  151.2861  131.8735  157.0887 H   0  0  0  0  0  0  0  0  0  0  0  0
  151.1975  134.3550  156.6024 H   0  0  0  0  0  0  0  0  0  0  0  0
  149.7009  137.5478  153.3553 H   0  0  0  0  0  0  0  0  0  0  0  0
  150.4595  139.6653  153.8157 H   0  0  0  0  0  0  0  0  0  0  0  0
  151.7493  138.3873  156.2789 H   0  0  0  0  0  0  0  0  0  0  0  0
  152.5660  138.7810  154.7856 H   0  0  0  0  0  0  0  0  0  0  0  0
  152.9781  140.5075  156.5167 H   0  0  0  0  0  0  0  0  0  0  0  0
  152.1658  141.1853  155.1283 H   0  0  0  0  0  0  0  0  0  0  0  0
  150.7723  140.3254  157.7188 H   0  0  0  0  0  0  0  0  0  0  0  0
  153.4412  144.1523  159.0473 H   0  0  0  0  0  0  0  0  0  0  0  0
  151.9101  144.7319  158.4757 H   0  0  0  0  0  0  0  0  0  0  0  0
  151.8795  144.7346  160.9439 H   0  0  0  0  0  0  0  0  0  0  0  0
  150.7364  143.5343  160.3728 H   0  0  0  0  0  0  0  0  0  0  0  0
  153.2468  140.3210  160.5687 H   0  0  0  0  0  0  0  0  0  0  0  0
  151.6012  140.7428  160.1318 H   0  0  0  0  0  0  0  0  0  0  0  0
  153.2100  140.7449  158.1324 H   0  0  0  0  0  0  0  0  0  0  0  0
  154.1150  141.9976  158.8925 H   0  0  0  0  0  0  0  0  0  0  0  0
  148.7333  141.2773  156.7544 H   0  0  0  0  0  0  0  0  0  0  0  0
  149.5670  141.6399  155.2611 H   0  0  0  0  0  0  0  0  0  0  0  0
  148.3238  139.5324  155.0345 H   0  0  0  0  0  0  0  0  0  0  0  0
  149.1214  138.8616  156.4374 H   0  0  0  0  0  0  0  0  0  0  0  0
  150.3528  130.3890  155.5776 H   0  0  0  0  0  0  0  0  0  0  0  0
  1  2  2  0  0  0  0
  2  3  1  0  0  0  0
  2 10  1  0  0  0  0
  3  4  1  0  0  0  0
  3 25  1  0  0  0  0
  4  9  1  0  0  0  0
  4  5  2  0  0  0  0
  5  6  1  0  0  0  0
  5 26  1  0  0  0  0
  6  7  2  0  0  0  0
  6 27  1  0  0  0  0
  7  8  1  0  0  0  0
  7 49  1  0  0  0  0
  8  9  2  0  0  0  0
  8 28  1  0  0  0  0
  9 29  1  0  0  0  0
 10 11  1  0  0  0  0
 10 30  1  0  0  0  0
 11 24  1  0  0  0  0
 11 12  1  0  0  0  0
 11 31  1  0  0  0  0
 12 13  1  0  0  0  0
 12 32  1  0  0  0  0
 12 33  1  0  0  0  0
 13 14  1  0  0  0  0
 13 34  1  0  0  0  0
 13 35  1  0  0  0  0
 14 15  1  0  0  0  0
 14 23  1  0  0  0  0
 14 36  1  0  0  0  0
 15 16  2  0  0  0  0
 15 17  1  0  0  0  0
 17 22  1  0  0  0  0
 17 18  1  0  0  0  0
 18 19  1  0  0  0  0
 18 37  1  0  0  0  0
 18 38  1  0  0  0  0
 19 20  1  0  0  0  0
 19 39  1  0  0  0  0
 19 40  1  0  0  0  0
 20 21  1  0  0  0  0
 21 22  1  0  0  0  0
 21 41  1  0  0  0  0
 21 42  1  0  0  0  0
 22 43  1  0  0  0  0
 22 44  1  0  0  0  0
 23 24  1  0  0  0  0
 23 45  1  0  0  0  0
 23 46  1  0  0  0  0
 24 47  1  0  0  0  0
 24 48  1  0  0  0  0
M  CHG  1   7   1
M  END
> <s_m_source_file>
AV-unprocessed.smi

> <i_m_source_file_index>
1080

> <i_lp_mmshare_version>
43012

> <i_f3d_flags>
0

> <s_epik_input>
W2NIXTFbY0hdbltjSF1bY0hdYzFbTkhdQyg9TylbTkhdW0NAQEhdMltDSDJdW0NIMl1bQ0BIXShbQ0gyXVtDSDJdMilDKD1PKU4zW0NIMl1bQ0gyXVNbQ0gyXVtDSDJdMw==

> <s_epik_cmdline>
J2VwaWtfcHl0aG9uJywgJy1waCcsICc3LjAnLCAnLXRuJywgJzgnLCAnLW1hJywgJzIwMCcsICctbWV0YWxfYmluZGluZycsICctaW1hZScsICc8aW5maWxlLm1hZT4nLCAnLW9tYWUnLCAnPG91dGZpbGUubWFlPic=

> <r_epik_Ionization_Penalty>
1.01281

> <r_epik_Ionization_Penalty_Charging>
1.01278

> <r_epik_Ionization_Penalty_Neutral>
2.07681e-05

> <r_epik_State_Penalty>
1.06237

> <r_epik_Charging_Adjusted_Penalty>
2.07515

> <i_epik_Tot_Q>
1

> <i_epik_Tot_abs_Q>
1

> <r_epik_Metal_State_Penalty>
1.16243

> <b_epik_Metal_Only>
0

> <s_lp_Force_Field>
OPLS_2005

> <r_lp_Energy>
38.1228

> <b_lp_Chiralities_Consistent>
1

> <s_lp_Variant>
AV-unprocessed.smi:1080-3

> <Gold.Version>
5.8.1

> <Gold.Id.Protein>
6NUR|6NUR_protein|mol2

> <Gold.PLP.Fitness>
45.6871

> <Gold.PLP.PLP>
-41.2576

> <Gold.PLP.part.hbond>
-2.4410

> <Gold.PLP.part.metal>
0.0000

> <Gold.PLP.part.buried>
-6.6119

> <Gold.PLP.part.nonpolar>
-36.7009

> <Gold.PLP.part.repulsive>
4.3387

> <Gold.PLP.ligand.clash>
0.0000

> <Gold.PLP.ligand.torsion>
0.5324

> <Gold.PLP.Chemscore.Hbond>
1.8112

> <Gold.PLP.Chemscore.CHOScore>
0.0000

> <Gold.PLP.Chemscore.Metal>
0.0000

> <Gold.Chemscore.Hbonds>
donor molecule, donor type, donor heavy atom, donor atom, acceptor molecule, acceptor atom, score
      L1  H     3    25       P1  7948  0.85
      L1  H    10    30       P1  7948  0.81

> <Gold.PLP.Chemscore.Internal.Correction>
0.0607

> <Gold.Rescore>
     Score         DG    S(hbond)    S(metal)    S(lipo)     H(rot)  DE(clash)    DE(int)     intcor
     16.65     -20.53       1.60        0.00     110.30       1.25       0.73       3.15       ----

> <Gold.Chemscore.Fitness>
16.6479

> <Gold.Chemscore.DG>
-20.5305

> <Gold.Chemscore.ZeroCoef>
-5.4800

> <Gold.Chemscore.Hbond>
1.5992

> <Gold.Chemscore.Metal>
0.0000

> <Gold.Chemscore.Lipo>
110.3028

> <Gold.Chemscore.Internal_Hbond>
0.0000

> <Gold.Chemscore.DEClash>
0.7350

> <Gold.Chemscore.DEInternal>
3.1477

> <Gold.Chemscore.Rot>
1.2486

> <Gold.Chemscore.Internal.Correction>
   9.000000E+99

> <Gold.Chemscore.Hbonds>
donor molecule, donor type, donor heavy atom, donor atom, acceptor molecule, acceptor atom, score
      L1  H     3    25       P1  7948  0.15
      L1  H    10    30       P1  7948  0.58

> <Gold.Chemscore.Hbond.Weighted>
-5.3414

> <Gold.Chemscore.Metal.Weighted>
-0.0000

> <Gold.Chemscore.Lipo.Weighted>
-12.9054

> <Gold.Chemscore.Internal_Hbond.Weighted>
0.0000

> <Gold.Chemscore.DEClash.Weighted>
0.7350

> <Gold.Chemscore.DEInternal.Weighted>
3.1477

> <Gold.Chemscore.Rot.Weighted>
3.1963

> <Gold.Chemscore.Internal.Correction.Weighted>
   9.000000E+99

> <Gold.Protein.RotatedTorsions>
[ 6907 6896 6895 6894 ] final  143.32 input  -60.11 | X-H torsion
[ 7974 7965 7964 7962 ] final   66.23 input  175.53 | X-H torsion
[ 8008 7997 7996 7995 ] final  130.68 input   59.86 | X-H torsion
[ 10167 10162 10161 10158 ] final  -87.97 input  -65.29 | X-H torsion
[ 10718 10713 10712 10709 ] final  116.98 input   66.30 | X-H torsion
[ 10763 10752 10751 10750 ] final  -39.86 input  -60.55 | X-H torsion
[ 11005 11000 10999 10996 ] final -109.76 input  -57.11 | X-H torsion

> <Gold.Protein.ActiveResidues>
 VAL166  LYS551  ARG553  GLY616  TRP617  ASP618  TYR619  PRO620  LYS621  CYS622 
 ASP623  PHE694  ASN695  SER759  ASP760  ASP761  ALA762  ILE779  LEU786  VAL792 
 PHE793  MET794  SER795  GLU796  ALA797  LYS798  CYS799  TRP800  GLU811  SER814 

> <Gold.Protein.RotatedAtoms>
  152.2077  133.4887  159.5092 H   0  0  0  0  0  0  0  0  0  0  0  0  # atno 6907 bound_to 6896
  150.6983  134.1508  159.4149 H   0  0  0  0  0  0  0  0  0  0  0  0  # atno 6908 bound_to 6896
  151.9427  135.0206  160.0587 H   0  0  0  0  0  0  0  0  0  0  0  0  # atno 6909 bound_to 6896
  145.8291  139.3128  143.0998 H   0  0  0  0  0  0  0  0  0  0  0  0  # atno 7974 bound_to 7965
  156.2958  140.2590  156.2801 H   0  0  0  0  0  0  0  0  0  0  0  0  # atno 8008 bound_to 7997
  154.9610  140.0392  157.2208 H   0  0  0  0  0  0  0  0  0  0  0  0  # atno 8009 bound_to 7997
  154.7947  140.2818  155.5970 H   0  0  0  0  0  0  0  0  0  0  0  0  # atno 8010 bound_to 7997
  140.3792  143.2756  151.9404 H   0  0  0  0  0  0  0  0  0  0  0  0  # atno 10167 bound_to 10162
  157.6126  131.1032  150.7551 H   0  0  0  0  0  0  0  0  0  0  0  0  # atno 10718 bound_to 10713
  153.9363  135.6766  153.4745 H   0  0  0  0  0  0  0  0  0  0  0  0  # atno 10763 bound_to 10752
  153.0954  135.4854  154.8765 H   0  0  0  0  0  0  0  0  0  0  0  0  # atno 10764 bound_to 10752
  154.7401  135.3158  154.8701 H   0  0  0  0  0  0  0  0  0  0  0  0  # atno 10765 bound_to 10752
  141.0829  133.9188  157.2248 H   0  0  0  0  0  0  0  0  0  0  0  0  # atno 11005 bound_to 11000
  145.9591  140.8850  143.0220 LP  0  0  0  0  0  0  0  0  0  0  0  0  # atno 17320 bound_to 7965
  144.6741  140.1787  143.7408 LP  0  0  0  0  0  0  0  0  0  0  0  0  # atno 17321 bound_to 7965
  139.4797  144.5834  151.7894 LP  0  0  0  0  0  0  0  0  0  0  0  0  # atno 17342 bound_to 10162
  140.4954  144.1248  150.5959 LP  0  0  0  0  0  0  0  0  0  0  0  0  # atno 17343 bound_to 10162
  156.7925  130.4894  149.5382 LP  0  0  0  0  0  0  0  0  0  0  0  0  # atno 17370 bound_to 10713
  156.1234  130.6126  151.0228 LP  0  0  0  0  0  0  0  0  0  0  0  0  # atno 17371 bound_to 10713
  139.9645  135.0145  156.9350 LP  0  0  0  0  0  0  0  0  0  0  0  0  # atno 17394 bound_to 11000
  140.5427  134.0704  155.7346 LP  0  0  0  0  0  0  0  0  0  0  0  0  # atno 17395 bound_to 11000

$$$$
