#       Name:                AV-unprocessed.smi:2449
#       Creating user name   scv26
#       Creation time:       Fri Mar 27 13:30:12 2020


#       File generated by GOLD software.
#

@<TRIPOS>MOLECULE
AV-unprocessed.smi:2449
    43    43     1
SMALL
NO_CHARGES


@<TRIPOS>ATOM
      1 ****        -3.5571   0.4785   0.9544 C.3            1 S1                 0.0000
      2 ****        -2.1035   0.8098   1.3077 C.3            1 S1                 0.0000
      3 ****        -1.3966  -0.3548   2.0314 C.3            1 S1                 0.0000
      4 ****         0.0970  -0.1218   2.3954 C.3            1 S1                 0.0000
      5 ****         0.2209   0.9946   3.4510 C.3            1 S1                 0.0000
      6 ****         0.6964  -1.4129   2.9945 C.3            1 S1                 0.0000
      7 ****         0.8798   0.3036   1.2276 N.am           1 S1                 0.0000
      8 ****         1.0583  -0.3427   0.0616 C.2            1 S1                 0.0000
      9 ****         0.5946  -1.4570  -0.1824 O.2            1 S1                 0.0000
     10 ****         1.9065   0.3887  -0.9879 C.3            1 S1                 0.0000
     11 ****         1.4772   0.0977  -2.3636 N.am           1 S1                 0.0000
     12 ****         2.1790  -0.8125  -3.1412 C.2            1 S1                 0.0000
     13 ****         1.8292  -1.1354  -4.4090 C.2            1 S1                 0.0000
     14 ****         0.6616  -0.5218  -5.0326 C.2            1 S1                 0.0000
     15 ****         0.2659  -0.7479  -6.1738 O.2            1 S1                 0.0000
     16 ****        -0.0192   0.3867  -4.2177 N.am           1 S1                 0.0000
     17 ****         0.3355   0.7238  -2.9107 C.2            1 S1                 0.0000
     18 ****        -0.3369   1.5373  -2.2777 O.2            1 S1                 0.0000
     19 ****        -0.8367   0.8345  -4.6060 H              1 S1                 0.0000
     20 ****        -4.0338   1.3185   0.4486 H              1 S1                 0.0000
     21 ****        -4.1388   0.2541   1.8489 H              1 S1                 0.0000
     22 ****        -3.6138  -0.3848   0.2908 H              1 S1                 0.0000
     23 ****        -1.5730   1.0648   0.3903 H              1 S1                 0.0000
     24 ****        -2.0904   1.7035   1.9307 H              1 S1                 0.0000
     25 ****        -1.9503  -0.5890   2.9417 H              1 S1                 0.0000
     26 ****        -1.4838  -1.2468   1.4104 H              1 S1                 0.0000
     27 ****        -0.3699   0.7689   4.3395 H              1 S1                 0.0000
     28 ****        -0.1148   1.9585   3.0685 H              1 S1                 0.0000
     29 ****         1.2557   1.1217   3.7716 H              1 S1                 0.0000
     30 ****         0.1877  -1.6888   3.9189 H              1 S1                 0.0000
     31 ****         1.7545  -1.2896   3.2286 H              1 S1                 0.0000
     32 ****         0.6069  -2.2621   2.3170 H              1 S1                 0.0000
     33 ****         1.3188   1.2092   1.3094 H              1 S1                 0.0000
     34 ****         1.8801   1.4661  -0.8115 H              1 S1                 0.0000
     35 ****         2.9475   0.0973  -0.8419 H              1 S1                 0.0000
     36 ****         3.0486  -1.2959  -2.7192 H              1 S1                 0.0000
     37 ****         2.4159  -1.8528  -4.9644 H              1 S1                 0.0000
     38 ****         0.0495  -1.9337   0.5073 LP             1 S1                 0.0000
     39 ****         0.7632  -1.8853  -1.0702 LP             1 S1                 0.0000
     40 ****         0.7565  -1.3986  -6.7534 LP             1 S1                 0.0000
     41 ****        -0.5467  -0.2812  -6.5229 LP             1 S1                 0.0000
     42 ****        -0.0811   1.7761  -1.3409 LP             1 S1                 0.0000
     43 ****        -1.1390   1.9594  -2.7001 LP             1 S1                 0.0000
@<TRIPOS>BOND
    1    1    2 1     
    2    1   20 1     
    3    1   21 1     
    4    1   22 1     
    5    2    3 1     
    6    2   23 1     
    7    2   24 1     
    8    3    4 1     
    9    3   25 1     
   10    3   26 1     
   11    4    5 1     
   12    4    6 1     
   13    4    7 1     
   14    5   27 1     
   15    5   28 1     
   16    5   29 1     
   17    6   30 1     
   18    6   31 1     
   19    6   32 1     
   20    7    8 am    
   21    7   33 1     
   22    8    9 2     
   23    8   10 1     
   24   10   11 1     
   25   10   34 1     
   26   10   35 1     
   27   11   17 1     
   28   11   12 1     
   29   12   13 2     
   30   12   36 1     
   31   13   14 1     
   32   13   37 1     
   33   14   15 2     
   34   14   16 1     
   35   16   19 1     
   36   16   17 1     
   37   17   18 2     
   38    9   38 1     
   39    9   39 1     
   40   15   40 1     
   41   15   41 1     
   42   18   42 1     
   43   18   43 1     
@<TRIPOS>SUBSTRUCTURE
      1 S1             1
@<TRIPOS>SET
LONE_PAIRS      STATIC     ATOMS    <user>   **** ""
6 38 39 40 41 42 43
DONOR_HYDROGENS      STATIC     ATOMS    <user>   **** ""
2 33 19
ATOM$BLUE        STATIC     ATOMS    COLORGROUP SYSTEM
6 38 39 40 41 42 43
ATOM$RED        STATIC     ATOMS    COLORGROUP SYSTEM
2 33 19
