#       Name:                AV-unprocessed.smi:2032
#       Creating user name   scv26
#       Creation time:       Fri Mar 27 10:50:42 2020


#       File generated by GOLD software.
#

@<TRIPOS>MOLECULE
AV-unprocessed.smi:2032
    48    49     1
SMALL
NO_CHARGES


@<TRIPOS>ATOM
      1 ****        -2.9970   3.0485   1.4999 C.3            1 S1                 0.0000
      2 ****        -2.3792   1.6483   1.4241 C.3            1 S1                 0.0000
      3 ****        -0.8426   1.6914   1.4922 C.3            1 S1                 0.0000
      4 ****        -0.2432   0.3556   1.4993 N.3            1 S1                 0.0000
      5 ****         1.2357   0.3960   1.5258 C.3            1 S1                 0.0000
      6 ****         1.8898  -1.0032   1.5816 C.3            1 S1                 0.0000
      7 ****         1.8660   1.1857   0.3481 C.3            1 S1                 0.0000
      8 ****         1.3944   0.7158  -0.9533 N.am           1 S1                 0.0000
      9 ****         2.0618  -0.1025  -1.7790 C.2            1 S1                 0.0000
     10 ****         3.1878  -0.5406  -1.5407 O.2            1 S1                 0.0000
     11 ****         1.3378  -0.3756  -2.8785 N.am           1 S1                 0.0000
     12 ****         1.6840  -1.2112  -3.9726 C.2            1 S1                 0.0000
     13 ****         2.8409  -1.8752  -4.0787 N.2            1 S1                 0.0000
     14 ****         2.9117  -2.6200  -5.2587 C.2            1 S1                 0.0000
     15 ****         1.7915  -2.5114  -6.0446 C.2            1 S1                 0.0000
     16 ****         0.5959  -1.4625  -5.3300 S.3            1 S1                 0.0000
     17 ****        -0.8066  -0.3895   2.6285 C.3            1 S1                 0.0000
     18 ****        -2.3478  -0.4333   2.6243 C.3            1 S1                 0.0000
     19 ****        -2.9273  -1.3762   1.5559 C.3            1 S1                 0.0000
     20 ****        -2.8827   0.8846   2.5157 O.3            1 S1                 0.0000
     21 ****        -2.6465   3.6773   0.6812 H              1 S1                 0.0000
     22 ****        -2.7391   3.5432   2.4367 H              1 S1                 0.0000
     23 ****        -4.0843   2.9980   1.4378 H              1 S1                 0.0000
     24 ****        -2.6884   1.1886   0.4849 H              1 S1                 0.0000
     25 ****        -0.4967   2.2616   0.6318 H              1 S1                 0.0000
     26 ****        -0.5290   2.2412   2.3811 H              1 S1                 0.0000
     27 ****         1.5405   0.9126   2.4372 H              1 S1                 0.0000
     28 ****         2.9726  -0.9383   1.4711 H              1 S1                 0.0000
     29 ****         1.5169  -1.6523   0.7887 H              1 S1                 0.0000
     30 ****         1.7129  -1.5010   2.5344 H              1 S1                 0.0000
     31 ****         1.6359   2.2475   0.4278 H              1 S1                 0.0000
     32 ****         2.9550   1.1419   0.4044 H              1 S1                 0.0000
     33 ****         0.4722   1.0181  -1.2312 H              1 S1                 0.0000
     34 ****         0.4283   0.0582  -2.9358 H              1 S1                 0.0000
     35 ****         3.7999  -3.2006  -5.4600 H              1 S1                 0.0000
     36 ****         1.5985  -2.9829  -6.9967 H              1 S1                 0.0000
     37 ****        -0.4456  -1.4169   2.6330 H              1 S1                 0.0000
     38 ****        -0.4686   0.0618   3.5626 H              1 S1                 0.0000
     39 ****        -2.6734  -0.8143   3.5926 H              1 S1                 0.0000
     40 ****        -2.6016  -2.4024   1.7278 H              1 S1                 0.0000
     41 ****        -2.6123  -1.1003   0.5497 H              1 S1                 0.0000
     42 ****        -4.0170  -1.3677   1.5799 H              1 S1                 0.0000
     43 ****        -0.4673  -0.1142   0.6455 LP             1 S1                 0.0000
     44 ****         3.6532  -0.2884  -0.6922 LP             1 S1                 0.0000
     45 ****         3.6367  -1.1485  -2.1956 LP             1 S1                 0.0000
     46 ****         3.5690  -1.8422  -3.3940 LP             1 S1                 0.0000
     47 ****        -3.8744   0.8097   2.4111 LP             1 S1                 0.0000
     48 ****        -2.6729   1.3757   3.3613 LP             1 S1                 0.0000
@<TRIPOS>BOND
    1    1    2 1     
    2    1   21 1     
    3    1   22 1     
    4    1   23 1     
    5    2   20 1     
    6    2    3 1     
    7    2   24 1     
    8    3    4 1     
    9    3   25 1     
   10    3   26 1     
   11    4    5 1     
   12    4   17 1     
   13    5    6 1     
   14    5    7 1     
   15    5   27 1     
   16    6   28 1     
   17    6   29 1     
   18    6   30 1     
   19    7    8 1     
   20    7   31 1     
   21    7   32 1     
   22    8    9 am    
   23    8   33 1     
   24    9   10 2     
   25    9   11 am    
   26   11   12 1     
   27   11   34 1     
   28   12   16 1     
   29   12   13 2     
   30   13   14 1     
   31   14   15 2     
   32   14   35 1     
   33   15   16 1     
   34   15   36 1     
   35   17   18 1     
   36   17   37 1     
   37   17   38 1     
   38   18   19 1     
   39   18   20 1     
   40   18   39 1     
   41   19   40 1     
   42   19   41 1     
   43   19   42 1     
   44    4   43 1     
   45   10   44 1     
   46   10   45 1     
   47   13   46 1     
   48   20   47 1     
   49   20   48 1     
@<TRIPOS>SUBSTRUCTURE
      1 S1             1
@<TRIPOS>SET
LONE_PAIRS      STATIC     ATOMS    <user>   **** ""
6 43 44 45 46 47 48
DONOR_HYDROGENS      STATIC     ATOMS    <user>   **** ""
2 33 34
ATOM$BLUE        STATIC     ATOMS    COLORGROUP SYSTEM
6 43 44 45 46 47 48
ATOM$RED        STATIC     ATOMS    COLORGROUP SYSTEM
2 33 34
