AV-unprocessed.smi:1748|AV-procd|sdf|7037|dock3
  -GOLD-   22720 8253D 1   1.00000     0.00000
 Structure written by MMmdl.
 40 41  0  0  0  0  0  0  0  0  2 V2000
  149.8753  138.8120  154.3365 C   0  0  0  0  0  0  0  0  0  0  0  0
  148.6159  138.3027  153.7531 N   0  3  2  0  0  0  0  0  0  0  0  0
  147.9548  139.2995  152.8737 C   0  0  0  0  0  0  0  0  0  0  0  0
  146.7203  138.6958  152.1819 C   0  0  0  0  0  0  0  0  0  0  0  0
  145.7401  138.0996  153.2069 C   0  0  0  0  0  0  0  0  0  0  0  0
  146.4535  137.1037  154.1397 C   0  0  1  0  0  0  0  0  0  0  0  0
  146.8181  135.8983  153.3947 N   0  0  0  0  0  0  0  0  0  0  0  0
  146.0976  134.7688  153.3445 C   0  0  0  0  0  0  0  0  0  0  0  0
  145.0408  134.6182  153.9563 O   0  0  0  0  0  0  0  0  0  0  0  0
  146.6992  133.8508  152.5661 N   0  0  0  0  0  0  0  0  0  0  0  0
  146.2813  132.5513  152.2321 C   0  0  0  0  0  0  0  0  0  0  0  0
  146.9244  131.4086  152.5891 C   0  0  0  0  0  0  0  0  0  0  0  0
  146.4256  130.0945  152.2190 C   0  0  0  0  0  0  0  0  0  0  0  0
  147.1979  128.8282  152.5549 C   0  0  0  0  0  0  0  0  0  0  0  0
  146.4674  128.0507  153.3526 F   0  0  0  0  0  0  0  0  0  0  0  0
  147.4947  128.1340  151.4553 F   0  0  0  0  0  0  0  0  0  0  0  0
  148.3355  129.1176  153.1866 F   0  0  0  0  0  0  0  0  0  0  0  0
  145.2920  130.0650  151.4943 C   0  0  0  0  0  0  0  0  0  0  0  0
  144.6135  131.2336  151.1413 N   0  0  0  0  0  0  0  0  0  0  0  0
  145.0293  132.4795  151.4605 C   0  0  0  0  0  0  0  0  0  0  0  0
  144.3767  133.4619  151.1088 O   0  0  0  0  0  0  0  0  0  0  0  0
  147.6864  137.7766  154.7842 C   0  0  0  0  0  0  0  0  0  0  0  0
  143.7611  131.1265  150.6104 H   0  0  0  0  0  0  0  0  0  0  0  0
  149.6871  139.6640  154.9910 H   0  0  0  0  0  0  0  0  0  0  0  0
  150.5633  139.1278  153.5517 H   0  0  0  0  0  0  0  0  0  0  0  0
  150.3713  138.0350  154.9192 H   0  0  0  0  0  0  0  0  0  0  0  0
  147.6657  140.1713  153.4628 H   0  0  0  0  0  0  0  0  0  0  0  0
  148.6611  139.6472  152.1185 H   0  0  0  0  0  0  0  0  0  0  0  0
  146.2169  139.4592  151.5881 H   0  0  0  0  0  0  0  0  0  0  0  0
  147.0370  137.9235  151.4797 H   0  0  0  0  0  0  0  0  0  0  0  0
  145.3093  138.9058  153.8023 H   0  0  0  0  0  0  0  0  0  0  0  0
  144.9053  137.6173  152.6968 H   0  0  0  0  0  0  0  0  0  0  0  0
  145.7552  136.8152  154.9277 H   0  0  0  0  0  0  0  0  0  0  0  0
  147.6721  135.9373  152.8574 H   0  0  0  0  0  0  0  0  0  0  0  0
  147.5956  134.1095  152.1797 H   0  0  0  0  0  0  0  0  0  0  0  0
  147.8233  131.4368  153.1824 H   0  0  0  0  0  0  0  0  0  0  0  0
  144.8264  129.1614  151.1289 H   0  0  0  0  0  0  0  0  0  0  0  0
  148.2122  137.0669  155.4243 H   0  0  0  0  0  0  0  0  0  0  0  0
  147.3668  138.5947  155.4317 H   0  0  0  0  0  0  0  0  0  0  0  0
  148.8681  137.5198  153.1668 H   0  0  0  0  0  0  0  0  0  0  0  0
  1  2  1  0  0  0  0
  1 24  1  0  0  0  0
  1 25  1  0  0  0  0
  1 26  1  0  0  0  0
  2 22  1  0  0  0  0
  2  3  1  0  0  0  0
  2 40  1  0  0  0  0
  3  4  1  0  0  0  0
  3 27  1  0  0  0  0
  3 28  1  0  0  0  0
  4  5  1  0  0  0  0
  4 29  1  0  0  0  0
  4 30  1  0  0  0  0
  5  6  1  0  0  0  0
  5 31  1  0  0  0  0
  5 32  1  0  0  0  0
  6  7  1  0  0  0  0
  6 22  1  0  0  0  0
  6 33  1  0  0  0  0
  7  8  1  0  0  0  0
  7 34  1  0  0  0  0
  8  9  2  0  0  0  0
  8 10  1  0  0  0  0
 10 11  1  0  0  0  0
 10 35  1  0  0  0  0
 11 20  1  0  0  0  0
 11 12  2  0  0  0  0
 12 13  1  0  0  0  0
 12 36  1  0  0  0  0
 13 14  1  0  0  0  0
 13 18  2  0  0  0  0
 14 15  1  0  0  0  0
 14 16  1  0  0  0  0
 14 17  1  0  0  0  0
 18 19  1  0  0  0  0
 18 37  1  0  0  0  0
 19 23  1  0  0  0  0
 19 20  1  0  0  0  0
 20 21  2  0  0  0  0
 22 38  1  0  0  0  0
 22 39  1  0  0  0  0
M  CHG  1   2   1
M  END
> <s_m_source_file>
AV-unprocessed.smi

> <i_m_source_file_index>
1748

> <i_lp_mmshare_version>
43012

> <i_f3d_flags>
0

> <s_epik_input>
W0NIM11OMVtDSDJdW0NIMl1bQ0gyXVtDQEhdKFtDSDJdMSlbTkhdQyg9TylbTkhdYzJbY0hdYyhDKEYpKEYpRilbY0hdW25IXWMyPU8=

> <s_epik_cmdline>
J2VwaWtfcHl0aG9uJywgJy1waCcsICc3LjAnLCAnLXRuJywgJzgnLCAnLW1hJywgJzIwMCcsICctbWV0YWxfYmluZGluZycsICctaW1hZScsICc8aW5maWxlLm1hZT4nLCAnLW9tYWUnLCAnPG91dGZpbGUubWFlPic=

> <r_lp_tautomer_probability>
1

> <r_epik_Ionization_Penalty>
0.00746315

> <r_epik_Ionization_Penalty_Charging>
0.00744398

> <r_epik_Ionization_Penalty_Neutral>
1.91704e-05

> <r_epik_State_Penalty>
-0

> <r_epik_Charging_Adjusted_Penalty>
0.00744398

> <i_epik_Tot_Q>
1

> <i_epik_Tot_abs_Q>
1

> <r_epik_Metal_State_Penalty>
0.379332

> <b_epik_Metal_Only>
0

> <s_lp_Force_Field>
OPLS_2005

> <r_lp_Energy>
33.6429

> <b_lp_Chiralities_Consistent>
1

> <s_lp_Variant>
AV-unprocessed.smi:1748-2

> <Gold.Version>
5.8.1

> <Gold.Id.Protein>
6NUR|6NUR_protein|mol2

> <Gold.PLP.Fitness>
38.0862

> <Gold.PLP.PLP>
-31.0141

> <Gold.PLP.part.hbond>
-2.1866

> <Gold.PLP.part.metal>
0.0000

> <Gold.PLP.part.buried>
0.3206

> <Gold.PLP.part.nonpolar>
-29.0798

> <Gold.PLP.part.repulsive>
0.3085

> <Gold.PLP.ligand.clash>
0.0000

> <Gold.PLP.ligand.torsion>
0.9799

> <Gold.PLP.Chemscore.Hbond>
3.0000

> <Gold.PLP.Chemscore.CHOScore>
0.0000

> <Gold.PLP.Chemscore.Metal>
0.0000

> <Gold.Chemscore.Hbonds>
donor molecule, donor type, donor heavy atom, donor atom, acceptor molecule, acceptor atom, score
      L1  H     2    40       P1  7948  2.00
      L1  H     7    34       P1  7948  1.00

> <Gold.PLP.Chemscore.Internal.Correction>
0.0319

> <Gold.Rescore>
     Score         DG    S(hbond)    S(metal)    S(lipo)     H(rot)  DE(clash)    DE(int)     intcor
     15.28     -17.93       2.03        0.00      70.48       1.00       1.65       1.00       ----

> <Gold.Chemscore.Fitness>
15.2767

> <Gold.Chemscore.DG>
-17.9302

> <Gold.Chemscore.ZeroCoef>
-5.4800

> <Gold.Chemscore.Hbond>
2.0252

> <Gold.Chemscore.Metal>
0.0000

> <Gold.Chemscore.Lipo>
70.4788

> <Gold.Chemscore.Internal_Hbond>
0.0000

> <Gold.Chemscore.DEClash>
1.6507

> <Gold.Chemscore.DEInternal>
1.0028

> <Gold.Chemscore.Rot>
1.0000

> <Gold.Chemscore.Internal.Correction>
   9.000000E+99

> <Gold.Chemscore.Hbonds>
donor molecule, donor type, donor heavy atom, donor atom, acceptor molecule, acceptor atom, score
      L1  H     2    40       P1  7948  1.00
      L1  H     7    34       P1  7948  1.00

> <Gold.Chemscore.Hbond.Weighted>
-6.7642

> <Gold.Chemscore.Metal.Weighted>
-0.0000

> <Gold.Chemscore.Lipo.Weighted>
-8.2460

> <Gold.Chemscore.Internal_Hbond.Weighted>
0.0000

> <Gold.Chemscore.DEClash.Weighted>
1.6507

> <Gold.Chemscore.DEInternal.Weighted>
1.0028

> <Gold.Chemscore.Rot.Weighted>
2.5600

> <Gold.Chemscore.Internal.Correction.Weighted>
   9.000000E+99

> <Gold.Protein.RotatedTorsions>
[ 6907 6896 6895 6894 ] final  151.37 input  -60.11 | X-H torsion
[ 7974 7965 7964 7962 ] final   -6.26 input  175.53 | X-H torsion
[ 8008 7997 7996 7995 ] final  -78.11 input   59.86 | X-H torsion
[ 10167 10162 10161 10158 ] final -157.34 input  -65.29 | X-H torsion
[ 10718 10713 10712 10709 ] final   77.22 input   66.30 | X-H torsion
[ 10763 10752 10751 10750 ] final   48.03 input  -60.55 | X-H torsion
[ 11005 11000 10999 10996 ] final    8.12 input  -57.11 | X-H torsion

> <Gold.Protein.ActiveResidues>
 VAL166  LYS551  ARG553  GLY616  TRP617  ASP618  TYR619  PRO620  LYS621  CYS622 
 ASP623  PHE694  ASN695  SER759  ASP760  ASP761  ALA762  ILE779  LEU786  VAL792 
 PHE793  MET794  SER795  GLU796  ALA797  LYS798  CYS799  TRP800  GLU811  SER814 

> <Gold.Protein.RotatedAtoms>
  152.1015  133.4252  159.4589 H   0  0  0  0  0  0  0  0  0  0  0  0  # atno 6907 bound_to 6896
  150.6864  134.2754  159.4614 H   0  0  0  0  0  0  0  0  0  0  0  0  # atno 6908 bound_to 6896
  152.0615  134.9591  160.0625 H   0  0  0  0  0  0  0  0  0  0  0  0  # atno 6909 bound_to 6896
  146.2335  140.2145  142.8336 H   0  0  0  0  0  0  0  0  0  0  0  0  # atno 7974 bound_to 7965
  154.5659  140.0699  156.8890 H   0  0  0  0  0  0  0  0  0  0  0  0  # atno 8008 bound_to 7997
  155.2725  140.3366  155.4246 H   0  0  0  0  0  0  0  0  0  0  0  0  # atno 8009 bound_to 7997
  156.2080  140.1747  156.7744 H   0  0  0  0  0  0  0  0  0  0  0  0  # atno 8010 bound_to 7997
  139.6778  143.9633  152.2320 H   0  0  0  0  0  0  0  0  0  0  0  0  # atno 10167 bound_to 10162
  157.6702  130.9811  150.1610 H   0  0  0  0  0  0  0  0  0  0  0  0  # atno 10718 bound_to 10713
  152.9795  135.5957  154.3859 H   0  0  0  0  0  0  0  0  0  0  0  0  # atno 10763 bound_to 10752
  154.3519  135.2767  155.2369 H   0  0  0  0  0  0  0  0  0  0  0  0  # atno 10764 bound_to 10752
  154.4405  135.6014  153.6181 H   0  0  0  0  0  0  0  0  0  0  0  0  # atno 10765 bound_to 10752
  140.5406  134.0378  155.7903 H   0  0  0  0  0  0  0  0  0  0  0  0  # atno 11005 bound_to 11000
  144.9681  140.8341  143.5472 LP  0  0  0  0  0  0  0  0  0  0  0  0  # atno 17320 bound_to 7965
  145.2123  139.2199  143.5136 LP  0  0  0  0  0  0  0  0  0  0  0  0  # atno 17321 bound_to 7965
  139.9415  144.6678  150.8261 LP  0  0  0  0  0  0  0  0  0  0  0  0  # atno 17342 bound_to 10162
  140.7641  143.3241  151.2555 LP  0  0  0  0  0  0  0  0  0  0  0  0  # atno 17343 bound_to 10162
  156.2386  130.3689  149.8363 LP  0  0  0  0  0  0  0  0  0  0  0  0  # atno 17370 bound_to 10713
  156.6169  130.8610  151.3467 LP  0  0  0  0  0  0  0  0  0  0  0  0  # atno 17371 bound_to 10713
  141.1229  133.9431  157.2693 LP  0  0  0  0  0  0  0  0  0  0  0  0  # atno 17394 bound_to 11000
  139.9506  135.0176  156.8983 LP  0  0  0  0  0  0  0  0  0  0  0  0  # atno 17395 bound_to 11000

$$$$
