AV-unprocessed.smi:1005|AV-procd|sdf|4387|dock7
  -GOLD-   22720 2313D 1   1.00000     0.00000
 Structure written by MMmdl.
 55 57  0  0  0  0  0  0  0  0  1 V2000
  152.4290  143.3334  160.7422 C   0  0  0  0  0  0  0  0  0  0  0  0
  152.0554  142.5085  159.5233 C   0  0  0  0  0  0  0  0  0  0  0  0
  152.1681  141.1011  159.5857 C   0  0  0  0  0  0  0  0  0  0  0  0
  151.8306  140.2974  158.4747 C   0  0  0  0  0  0  0  0  0  0  0  0
  151.8642  138.9226  158.3157 N   0  0  0  0  0  0  0  0  0  0  0  0
  151.4341  138.7867  157.0645 C   0  0  0  0  0  0  0  0  0  0  0  0
  151.1258  139.9130  156.3931 N   0  0  0  0  0  0  0  0  0  0  0  0
  150.6403  140.0185  155.0289 C   0  0  0  0  0  0  0  0  0  0  0  0
  149.5770  141.1210  154.8685 C   0  0  1  0  0  0  0  0  0  0  0  0
  149.2067  141.2145  153.5062 O   0  0  0  0  0  0  0  0  0  0  0  0
  148.3182  140.8192  155.7075 C   0  0  0  0  0  0  0  0  0  0  0  0
  147.3923  141.9388  155.8872 N   0  0  0  0  0  0  0  0  0  0  0  0
  146.4272  141.9960  154.7954 C   0  0  0  0  0  0  0  0  0  0  0  0
  145.4377  143.1603  154.9633 C   0  0  0  0  0  0  0  0  0  0  0  0
  144.7858  143.0468  156.2240 O   0  0  0  0  0  0  0  0  0  0  0  0
  145.6919  143.0632  157.3251 C   0  0  1  0  0  0  0  0  0  0  0  0
  144.8603  142.9766  158.6220 C   0  0  0  0  0  0  0  0  0  0  0  0
  145.6265  142.8050  159.8579 N   0  0  0  0  0  0  0  0  0  0  0  0
  144.7883  142.4500  160.9962 C   0  0  0  0  0  0  0  0  0  0  0  0
  146.3995  144.0029  160.1546 C   0  0  0  0  0  0  0  0  0  0  0  0
  146.6645  141.8753  157.1536 C   0  0  0  0  0  0  0  0  0  0  0  0
  151.3727  140.9456  157.2906 C   0  0  0  0  0  0  0  0  0  0  0  0
  151.2560  142.3448  157.2162 C   0  0  0  0  0  0  0  0  0  0  0  0
  151.5975  143.1329  158.3350 C   0  0  0  0  0  0  0  0  0  0  0  0
  151.4698  144.6433  158.2429 C   0  0  0  0  0  0  0  0  0  0  0  0
  152.8188  142.7054  161.5440 H   0  0  0  0  0  0  0  0  0  0  0  0
  151.5562  143.8628  161.1254 H   0  0  0  0  0  0  0  0  0  0  0  0
  153.1960  144.0659  160.4897 H   0  0  0  0  0  0  0  0  0  0  0  0
  152.5161  140.6249  160.4906 H   0  0  0  0  0  0  0  0  0  0  0  0
  151.3396  137.8122  156.6079 H   0  0  0  0  0  0  0  0  0  0  0  0
  151.4875  140.2014  154.3663 H   0  0  0  0  0  0  0  0  0  0  0  0
  150.2244  139.0513  154.7442 H   0  0  0  0  0  0  0  0  0  0  0  0
  150.0240  142.0681  155.1663 H   0  0  0  0  0  0  0  0  0  0  0  0
  149.4736  140.4222  153.0664 H   0  0  0  0  0  0  0  0  0  0  0  0
  147.7910  139.9876  155.2370 H   0  0  0  0  0  0  0  0  0  0  0  0
  148.6236  140.4539  156.6893 H   0  0  0  0  0  0  0  0  0  0  0  0
  146.9491  142.1025  153.8437 H   0  0  0  0  0  0  0  0  0  0  0  0
  145.8719  141.0580  154.7433 H   0  0  0  0  0  0  0  0  0  0  0  0
  145.9524  144.1199  154.8947 H   0  0  0  0  0  0  0  0  0  0  0  0
  144.6890  143.1402  154.1714 H   0  0  0  0  0  0  0  0  0  0  0  0
  146.2374  144.0088  157.3009 H   0  0  0  0  0  0  0  0  0  0  0  0
  144.3033  143.9107  158.7091 H   0  0  0  0  0  0  0  0  0  0  0  0
  144.1020  142.1972  158.5330 H   0  0  0  0  0  0  0  0  0  0  0  0
  145.3829  142.3820  161.9078 H   0  0  0  0  0  0  0  0  0  0  0  0
  144.3197  141.4773  160.8500 H   0  0  0  0  0  0  0  0  0  0  0  0
  144.0053  143.1922  161.1573 H   0  0  0  0  0  0  0  0  0  0  0  0
  147.0146  143.8568  161.0431 H   0  0  0  0  0  0  0  0  0  0  0  0
  145.7473  144.8595  160.3299 H   0  0  0  0  0  0  0  0  0  0  0  0
  147.0687  144.2482  159.3291 H   0  0  0  0  0  0  0  0  0  0  0  0
  146.1073  140.9388  157.2100 H   0  0  0  0  0  0  0  0  0  0  0  0
  147.3616  141.8671  157.9875 H   0  0  0  0  0  0  0  0  0  0  0  0
  150.9071  142.8064  156.3042 H   0  0  0  0  0  0  0  0  0  0  0  0
  151.0397  144.9482  157.2883 H   0  0  0  0  0  0  0  0  0  0  0  0
  152.4487  145.1145  158.3356 H   0  0  0  0  0  0  0  0  0  0  0  0
  150.8249  145.0240  159.0354 H   0  0  0  0  0  0  0  0  0  0  0  0
  1  2  1  0  0  0  0
  1 26  1  0  0  0  0
  1 27  1  0  0  0  0
  1 28  1  0  0  0  0
  2 24  1  0  0  0  0
  2  3  2  0  0  0  0
  3  4  1  0  0  0  0
  3 29  1  0  0  0  0
  4 22  2  0  0  0  0
  4  5  1  0  0  0  0
  5  6  2  0  0  0  0
  6  7  1  0  0  0  0
  6 30  1  0  0  0  0
  7  8  1  0  0  0  0
  7 22  1  0  0  0  0
  8  9  1  0  0  0  0
  8 31  1  0  0  0  0
  8 32  1  0  0  0  0
  9 10  1  0  0  0  0
  9 11  1  0  0  0  0
  9 33  1  0  0  0  0
 10 34  1  0  0  0  0
 11 12  1  0  0  0  0
 11 35  1  0  0  0  0
 11 36  1  0  0  0  0
 12 21  1  0  0  0  0
 12 13  1  0  0  0  0
 13 14  1  0  0  0  0
 13 37  1  0  0  0  0
 13 38  1  0  0  0  0
 14 15  1  0  0  0  0
 14 39  1  0  0  0  0
 14 40  1  0  0  0  0
 15 16  1  0  0  0  0
 16 17  1  0  0  0  0
 16 21  1  0  0  0  0
 16 41  1  0  0  0  0
 17 18  1  0  0  0  0
 17 42  1  0  0  0  0
 17 43  1  0  0  0  0
 18 19  1  0  0  0  0
 18 20  1  0  0  0  0
 19 44  1  0  0  0  0
 19 45  1  0  0  0  0
 19 46  1  0  0  0  0
 20 47  1  0  0  0  0
 20 48  1  0  0  0  0
 20 49  1  0  0  0  0
 21 50  1  0  0  0  0
 21 51  1  0  0  0  0
 22 23  1  0  0  0  0
 23 24  2  0  0  0  0
 23 52  1  0  0  0  0
 24 25  1  0  0  0  0
 25 53  1  0  0  0  0
 25 54  1  0  0  0  0
 25 55  1  0  0  0  0
M  END
> <s_m_source_file>
AV-unprocessed.smi

> <i_m_source_file_index>
1005

> <i_lp_mmshare_version>
43012

> <i_f3d_flags>
0

> <s_epik_input>
W0NIM11jKFtjSF0xKWMoW0NIM10pW2NIXWMoYzEyKW4oW2NIXW4yKVtDSDJdW0NASF0oW09IXSlbQ0gyXU4zW0NIMl1bQ0gyXU9bQ0BIXShbQ0gyXTMpW0NIMl1OKFtDSDNdKVtDSDNd

> <s_epik_cmdline>
J2VwaWtfcHl0aG9uJywgJy1waCcsICc3LjAnLCAnLXRuJywgJzgnLCAnLW1hJywgJzIwMCcsICctbWV0YWxfYmluZGluZycsICctaW1hZScsICc8aW5maWxlLm1hZT4nLCAnLW9tYWUnLCAnPG91dGZpbGUubWFlPic=

> <r_epik_Ionization_Penalty>
2.78613

> <r_epik_Ionization_Penalty_Charging>
0

> <r_epik_Ionization_Penalty_Neutral>
2.78613

> <r_epik_State_Penalty>
2.57336

> <r_epik_Charging_Adjusted_Penalty>
2.57336

> <i_epik_Tot_Q>
0

> <i_epik_Tot_abs_Q>
0

> <r_epik_Metal_State_Penalty>
2.49087

> <b_epik_Metal_Only>
0

> <s_lp_Force_Field>
OPLS_2005

> <r_lp_Energy>
38.3146

> <b_lp_Chiralities_Consistent>
1

> <s_lp_Variant>
AV-unprocessed.smi:1005-26

> <Gold.Version>
5.8.1

> <Gold.Id.Protein>
6NUR|6NUR_protein|mol2

> <Gold.PLP.Fitness>
48.8431

> <Gold.PLP.PLP>
-45.7045

> <Gold.PLP.part.hbond>
-3.0000

> <Gold.PLP.part.metal>
0.0000

> <Gold.PLP.part.buried>
-5.9636

> <Gold.PLP.part.nonpolar>
-37.0537

> <Gold.PLP.part.repulsive>
0.7011

> <Gold.PLP.ligand.clash>
0.0000

> <Gold.PLP.ligand.torsion>
0.8471

> <Gold.PLP.Chemscore.Hbond>
1.5840

> <Gold.PLP.Chemscore.CHOScore>
0.0000

> <Gold.PLP.Chemscore.Metal>
0.0000

> <Gold.Chemscore.Hbonds>
donor molecule, donor type, donor heavy atom, donor atom, acceptor molecule, acceptor atom, score
      L1  H    10    34       P1  7957  0.59
      P1  H  8011  8017       L1    10  0.94

> <Gold.PLP.Chemscore.Internal.Correction>
0.0808

> <Gold.Rescore>
     Score         DG    S(hbond)    S(metal)    S(lipo)     H(rot)  DE(clash)    DE(int)     intcor
     15.86     -16.93       1.17        0.00     114.56       2.29       0.18       0.89       ----

> <Gold.Chemscore.Fitness>
15.8611

> <Gold.Chemscore.DG>
-16.9271

> <Gold.Chemscore.ZeroCoef>
-5.4800

> <Gold.Chemscore.Hbond>
1.1690

> <Gold.Chemscore.Metal>
0.0000

> <Gold.Chemscore.Lipo>
114.5624

> <Gold.Chemscore.Internal_Hbond>
0.0000

> <Gold.Chemscore.DEClash>
0.1775

> <Gold.Chemscore.DEInternal>
0.8886

> <Gold.Chemscore.Rot>
2.2895

> <Gold.Chemscore.Internal.Correction>
   9.000000E+99

> <Gold.Chemscore.Hbonds>
donor molecule, donor type, donor heavy atom, donor atom, acceptor molecule, acceptor atom, score
      L1  H    10    34       P1  7957  0.57
      P1  H  8011  8017       L1    10  0.20

> <Gold.Chemscore.Hbond.Weighted>
-3.9045

> <Gold.Chemscore.Metal.Weighted>
-0.0000

> <Gold.Chemscore.Lipo.Weighted>
-13.4038

> <Gold.Chemscore.Internal_Hbond.Weighted>
0.0000

> <Gold.Chemscore.DEClash.Weighted>
0.1775

> <Gold.Chemscore.DEInternal.Weighted>
0.8886

> <Gold.Chemscore.Rot.Weighted>
5.8612

> <Gold.Chemscore.Internal.Correction.Weighted>
   9.000000E+99

> <Gold.Protein.RotatedTorsions>
[ 6907 6896 6895 6894 ] final  -69.42 input  -60.11 | X-H torsion
[ 7974 7965 7964 7962 ] final  -49.34 input  175.53 | X-H torsion
[ 8008 7997 7996 7995 ] final   51.65 input   59.86 | X-H torsion
[ 10167 10162 10161 10158 ] final  -14.29 input  -65.29 | X-H torsion
[ 10718 10713 10712 10709 ] final   90.42 input   66.30 | X-H torsion
[ 10763 10752 10751 10750 ] final  -32.34 input  -60.55 | X-H torsion
[ 11005 11000 10999 10996 ] final -102.94 input  -57.11 | X-H torsion

> <Gold.Protein.ActiveResidues>
 VAL166  LYS551  ARG553  GLY616  TRP617  ASP618  TYR619  PRO620  LYS621  CYS622 
 ASP623  PHE694  ASN695  SER759  ASP760  ASP761  ALA762  ILE779  LEU786  VAL792 
 PHE793  MET794  SER795  GLU796  ALA797  LYS798  CYS799  TRP800  GLU811  SER814 

> <Gold.Protein.RotatedAtoms>
  150.7306  134.5599  159.5836 H   0  0  0  0  0  0  0  0  0  0  0  0  # atno 6907 bound_to 6896
  152.3065  134.7546  160.0355 H   0  0  0  0  0  0  0  0  0  0  0  0  # atno 6908 bound_to 6896
  151.8108  133.3346  159.3591 H   0  0  0  0  0  0  0  0  0  0  0  0  # atno 6909 bound_to 6896
  145.9416  140.7657  142.9549 H   0  0  0  0  0  0  0  0  0  0  0  0  # atno 7974 bound_to 7965
  155.4387  140.3453  155.4287 H   0  0  0  0  0  0  0  0  0  0  0  0  # atno 8008 bound_to 7997
  156.1292  140.1509  156.9121 H   0  0  0  0  0  0  0  0  0  0  0  0  # atno 8009 bound_to 7997
  154.4881  140.0849  156.7513 H   0  0  0  0  0  0  0  0  0  0  0  0  # atno 8010 bound_to 7997
  140.7198  143.5337  150.9490 H   0  0  0  0  0  0  0  0  0  0  0  0  # atno 10167 bound_to 10162
  157.6959  131.0370  150.3574 H   0  0  0  0  0  0  0  0  0  0  0  0  # atno 10718 bound_to 10713
  153.8122  135.6881  153.4839 H   0  0  0  0  0  0  0  0  0  0  0  0  # atno 10763 bound_to 10752
  153.1621  135.4575  154.9785 H   0  0  0  0  0  0  0  0  0  0  0  0  # atno 10764 bound_to 10752
  154.7963  135.3320  154.7601 H   0  0  0  0  0  0  0  0  0  0  0  0  # atno 10765 bound_to 10752
  141.1167  133.8600  157.1424 H   0  0  0  0  0  0  0  0  0  0  0  0  # atno 11005 bound_to 11000
  144.6780  140.2289  143.7357 LP  0  0  0  0  0  0  0  0  0  0  0  0  # atno 17320 bound_to 7965
  145.8292  139.2078  143.1892 LP  0  0  0  0  0  0  0  0  0  0  0  0  # atno 17321 bound_to 7965
  139.9058  143.6780  152.3124 LP  0  0  0  0  0  0  0  0  0  0  0  0  # atno 17342 bound_to 10162
  139.7146  144.7614  151.1055 LP  0  0  0  0  0  0  0  0  0  0  0  0  # atno 17343 bound_to 10162
  156.4015  130.3916  149.6956 LP  0  0  0  0  0  0  0  0  0  0  0  0  # atno 17370 bound_to 10713
  156.4272  130.7797  151.2816 LP  0  0  0  0  0  0  0  0  0  0  0  0  # atno 17371 bound_to 10713
  140.0095  134.9994  157.0364 LP  0  0  0  0  0  0  0  0  0  0  0  0  # atno 17394 bound_to 11000
  140.4625  134.1470  155.7193 LP  0  0  0  0  0  0  0  0  0  0  0  0  # atno 17395 bound_to 11000

$$$$
