AV-unprocessed.smi:1087|AV-procd|sdf|4727|dock8
  -GOLD-   22720 3253D 1   1.00000     0.00000
 Structure written by MMmdl.
 46 47  0  0  0  0  0  0  0  0  1 V2000
  143.7934  132.5426  149.6469 C   0  0  0  0  0  0  0  0  0  0  0  0
  144.9447  131.9267  150.2023 O   0  0  0  0  0  0  0  0  0  0  0  0
  144.6860  131.1378  151.3569 C   0  0  0  0  0  0  0  0  0  0  0  0
  145.9495  130.4937  151.9661 C   0  0  0  0  0  0  0  0  0  0  0  0
  146.7460  131.3545  152.8430 N   0  0  0  0  0  0  0  0  0  0  0  0
  147.0005  132.6747  152.2610 C   0  0  0  0  0  0  0  0  0  0  0  0
  147.8040  133.5914  153.1994 C   0  0  0  0  0  0  0  0  0  0  0  0
  149.1416  132.9433  153.5991 C   0  0  0  0  0  0  0  0  0  0  0  0
  149.9233  133.8360  154.5862 C   0  0  0  0  0  0  0  0  0  0  0  0
  149.9097  135.2417  154.1962 N   0  0  0  0  0  0  0  0  0  0  0  0
  150.3708  136.2549  154.9443 C   0  0  0  0  0  0  0  0  0  0  0  0
  150.9029  136.0954  156.0435 O   0  0  0  0  0  0  0  0  0  0  0  0
  150.2150  137.6592  154.3445 C   0  0  0  0  0  0  0  0  0  0  0  0
  150.9172  138.6979  155.1159 N   0  0  0  0  0  0  0  0  0  0  0  0
  150.2139  139.8787  155.4086 C   0  0  0  0  0  0  0  0  0  0  0  0
  150.7907  140.8682  156.1055 C   0  0  0  0  0  0  0  0  0  0  0  0
  152.1773  140.6428  156.5344 C   0  0  0  0  0  0  0  0  0  0  0  0
  152.8220  139.5689  156.2671 N   0  0  0  0  0  0  0  0  0  0  0  0
  152.2152  138.5324  155.5325 C   0  0  0  0  0  0  0  0  0  0  0  0
  152.8305  137.4990  155.2678 O   0  0  0  0  0  0  0  0  0  0  0  0
  148.8675  131.5309  154.1547 C   0  0  0  0  0  0  0  0  0  0  0  0
  148.0194  130.7111  153.1685 C   0  0  0  0  0  0  0  0  0  0  0  0
  144.0881  133.1605  148.7988 H   0  0  0  0  0  0  0  0  0  0  0  0
  143.3009  133.1890  150.3746 H   0  0  0  0  0  0  0  0  0  0  0  0
  143.0732  131.8092  149.2847 H   0  0  0  0  0  0  0  0  0  0  0  0
  144.2109  131.7741  152.1045 H   0  0  0  0  0  0  0  0  0  0  0  0
  143.9540  130.3668  151.1120 H   0  0  0  0  0  0  0  0  0  0  0  0
  145.6027  129.6448  152.5568 H   0  0  0  0  0  0  0  0  0  0  0  0
  146.5798  130.0620  151.1889 H   0  0  0  0  0  0  0  0  0  0  0  0
  147.5278  132.5674  151.3118 H   0  0  0  0  0  0  0  0  0  0  0  0
  146.0596  133.1753  152.0398 H   0  0  0  0  0  0  0  0  0  0  0  0
  147.9827  134.5505  152.7123 H   0  0  0  0  0  0  0  0  0  0  0  0
  147.2126  133.8024  154.0915 H   0  0  0  0  0  0  0  0  0  0  0  0
  149.7381  132.8356  152.6917 H   0  0  0  0  0  0  0  0  0  0  0  0
  149.5197  133.7312  155.5947 H   0  0  0  0  0  0  0  0  0  0  0  0
  150.9632  133.5119  154.6379 H   0  0  0  0  0  0  0  0  0  0  0  0
  149.4952  135.4625  153.3024 H   0  0  0  0  0  0  0  0  0  0  0  0
  150.5796  137.6301  153.3169 H   0  0  0  0  0  0  0  0  0  0  0  0
  149.1554  137.9110  154.2671 H   0  0  0  0  0  0  0  0  0  0  0  0
  149.2022  139.9261  155.0329 H   0  0  0  0  0  0  0  0  0  0  0  0
  150.3090  141.8001  156.3624 H   0  0  0  0  0  0  0  0  0  0  0  0
  152.6295  141.4596  157.1027 H   0  0  0  0  0  0  0  0  0  0  0  0
  149.8040  131.0064  154.3458 H   0  0  0  0  0  0  0  0  0  0  0  0
  148.3485  131.6010  155.1117 H   0  0  0  0  0  0  0  0  0  0  0  0
  147.8334  129.7284  153.6038 H   0  0  0  0  0  0  0  0  0  0  0  0
  148.5912  130.5391  152.2551 H   0  0  0  0  0  0  0  0  0  0  0  0
  1  2  1  0  0  0  0
  1 23  1  0  0  0  0
  1 24  1  0  0  0  0
  1 25  1  0  0  0  0
  2  3  1  0  0  0  0
  3  4  1  0  0  0  0
  3 26  1  0  0  0  0
  3 27  1  0  0  0  0
  4  5  1  0  0  0  0
  4 28  1  0  0  0  0
  4 29  1  0  0  0  0
  5 22  1  0  0  0  0
  5  6  1  0  0  0  0
  6  7  1  0  0  0  0
  6 30  1  0  0  0  0
  6 31  1  0  0  0  0
  7  8  1  0  0  0  0
  7 32  1  0  0  0  0
  7 33  1  0  0  0  0
  8  9  1  0  0  0  0
  8 21  1  0  0  0  0
  8 34  1  0  0  0  0
  9 10  1  0  0  0  0
  9 35  1  0  0  0  0
  9 36  1  0  0  0  0
 10 11  1  0  0  0  0
 10 37  1  0  0  0  0
 11 12  2  0  0  0  0
 11 13  1  0  0  0  0
 13 14  1  0  0  0  0
 13 38  1  0  0  0  0
 13 39  1  0  0  0  0
 14 19  1  0  0  0  0
 14 15  1  0  0  0  0
 15 16  2  0  0  0  0
 15 40  1  0  0  0  0
 16 17  1  0  0  0  0
 16 41  1  0  0  0  0
 17 18  2  0  0  0  0
 17 42  1  0  0  0  0
 18 19  1  0  0  0  0
 19 20  2  0  0  0  0
 21 22  1  0  0  0  0
 21 43  1  0  0  0  0
 21 44  1  0  0  0  0
 22 45  1  0  0  0  0
 22 46  1  0  0  0  0
M  END
> <s_m_source_file>
AV-unprocessed.smi

> <i_m_source_file_index>
1087

> <i_lp_mmshare_version>
43012

> <i_f3d_flags>
0

> <s_epik_input>
W0NIM11PW0NIMl1bQ0gyXU4xW0NIMl1bQ0gyXVtDSF0oW0NIMl1bQ0gyXTEpW0NIMl1bTkhdQyg9TylbQ0gyXW4yW2NIXVtjSF1bY0hdbmMyPU8=

> <s_epik_cmdline>
J2VwaWtfcHl0aG9uJywgJy1waCcsICc3LjAnLCAnLXRuJywgJzgnLCAnLW1hJywgJzIwMCcsICctbWV0YWxfYmluZGluZycsICctaW1hZScsICc8aW5maWxlLm1hZT4nLCAnLW9tYWUnLCAnPG91dGZpbGUubWFlPic=

> <r_lp_tautomer_probability>
1

> <r_epik_Ionization_Penalty>
2.43401

> <r_epik_Ionization_Penalty_Charging>
1.64716e-08

> <r_epik_Ionization_Penalty_Neutral>
2.43401

> <r_epik_State_Penalty>
2.59428

> <r_epik_Charging_Adjusted_Penalty>
2.59428

> <i_epik_Tot_Q>
0

> <i_epik_Tot_abs_Q>
0

> <r_epik_Metal_State_Penalty>
2.59427

> <b_epik_Metal_Only>
0

> <s_lp_Force_Field>
OPLS_2005

> <r_lp_Energy>
30.2677

> <b_lp_Chiralities_Consistent>
1

> <s_lp_Variant>
AV-unprocessed.smi:1087-3

> <Gold.Version>
5.8.1

> <Gold.Id.Protein>
6NUR|6NUR_protein|mol2

> <Gold.PLP.Fitness>
43.8343

> <Gold.PLP.PLP>
-37.7792

> <Gold.PLP.part.hbond>
-3.3784

> <Gold.PLP.part.metal>
0.0000

> <Gold.PLP.part.buried>
-3.2801

> <Gold.PLP.part.nonpolar>
-32.1413

> <Gold.PLP.part.repulsive>
0.3738

> <Gold.PLP.ligand.clash>
0.0000

> <Gold.PLP.ligand.torsion>
0.5256

> <Gold.PLP.Chemscore.Hbond>
2.3368

> <Gold.PLP.Chemscore.CHOScore>
0.0000

> <Gold.PLP.Chemscore.Metal>
0.0000

> <Gold.Chemscore.Hbonds>
donor molecule, donor type, donor heavy atom, donor atom, acceptor molecule, acceptor atom, score
      L1  H    10    37       P1  7948  0.70
      P1  H  7997  8010       L1    18  1.00
      P1  H 10752 10763       L1    20  0.43

> <Gold.PLP.Chemscore.Internal.Correction>
0.0959

> <Gold.Rescore>
     Score         DG    S(hbond)    S(metal)    S(lipo)     H(rot)  DE(clash)    DE(int)     intcor
     12.96     -13.46       1.30        0.00      83.06       2.37       0.00       0.49       ----

> <Gold.Chemscore.Fitness>
12.9580

> <Gold.Chemscore.DG>
-13.4566

> <Gold.Chemscore.ZeroCoef>
-5.4800

> <Gold.Chemscore.Hbond>
1.2969

> <Gold.Chemscore.Metal>
0.0000

> <Gold.Chemscore.Lipo>
83.0605

> <Gold.Chemscore.Internal_Hbond>
0.0000

> <Gold.Chemscore.DEClash>
0.0048

> <Gold.Chemscore.DEInternal>
0.4938

> <Gold.Chemscore.Rot>
2.3723

> <Gold.Chemscore.Internal.Correction>
   9.000000E+99

> <Gold.Chemscore.Hbonds>
donor molecule, donor type, donor heavy atom, donor atom, acceptor molecule, acceptor atom, score
      L1  H    10    37       P1  7948  0.07
      P1  H  7997  8010       L1    18  0.25
      P1  H 10752 10763       L1    20  0.41

> <Gold.Chemscore.Hbond.Weighted>
-4.3316

> <Gold.Chemscore.Metal.Weighted>
-0.0000

> <Gold.Chemscore.Lipo.Weighted>
-9.7181

> <Gold.Chemscore.Internal_Hbond.Weighted>
0.0000

> <Gold.Chemscore.DEClash.Weighted>
0.0048

> <Gold.Chemscore.DEInternal.Weighted>
0.4938

> <Gold.Chemscore.Rot.Weighted>
6.0731

> <Gold.Chemscore.Internal.Correction.Weighted>
   9.000000E+99

> <Gold.Protein.RotatedTorsions>
[ 6907 6896 6895 6894 ] final   33.81 input  -60.11 | X-H torsion
[ 7974 7965 7964 7962 ] final   21.16 input  175.53 | X-H torsion
[ 8008 7997 7996 7995 ] final   68.37 input   59.86 | X-H torsion
[ 10167 10162 10161 10158 ] final  -46.31 input  -65.29 | X-H torsion
[ 10718 10713 10712 10709 ] final -122.80 input   66.30 | X-H torsion
[ 10763 10752 10751 10750 ] final   66.43 input  -60.55 | X-H torsion
[ 11005 11000 10999 10996 ] final  -67.78 input  -57.11 | X-H torsion

> <Gold.Protein.ActiveResidues>
 VAL166  LYS551  ARG553  GLY616  TRP617  ASP618  TYR619  PRO620  LYS621  CYS622 
 ASP623  PHE694  ASN695  SER759  ASP760  ASP761  ALA762  ILE779  LEU786  VAL792 
 PHE793  MET794  SER795  GLU796  ALA797  LYS798  CYS799  TRP800  GLU811  SER814 

> <Gold.Protein.RotatedAtoms>
  152.0936  134.9390  160.0571 H   0  0  0  0  0  0  0  0  0  0  0  0  # atno 6907 bound_to 6896
  152.0632  133.4067  159.4435 H   0  0  0  0  0  0  0  0  0  0  0  0  # atno 6908 bound_to 6896
  150.6837  134.3097  159.4784 H   0  0  0  0  0  0  0  0  0  0  0  0  # atno 6909 bound_to 6896
  146.2082  139.8066  142.8709 H   0  0  0  0  0  0  0  0  0  0  0  0  # atno 7974 bound_to 7965
  155.7072  140.3495  155.4958 H   0  0  0  0  0  0  0  0  0  0  0  0  # atno 8008 bound_to 7997
  155.9388  140.1098  157.1094 H   0  0  0  0  0  0  0  0  0  0  0  0  # atno 8009 bound_to 7997
  154.4099  140.1217  156.4886 H   0  0  0  0  0  0  0  0  0  0  0  0  # atno 8010 bound_to 7997
  140.6822  143.2837  151.3765 H   0  0  0  0  0  0  0  0  0  0  0  0  # atno 10167 bound_to 10162
  156.1449  130.6492  150.9827 H   0  0  0  0  0  0  0  0  0  0  0  0  # atno 10718 bound_to 10713
  153.0140  135.5320  154.6823 H   0  0  0  0  0  0  0  0  0  0  0  0  # atno 10763 bound_to 10752
  154.5980  135.2865  155.0568 H   0  0  0  0  0  0  0  0  0  0  0  0  # atno 10764 bound_to 10752
  154.1636  135.6543  153.5044 H   0  0  0  0  0  0  0  0  0  0  0  0  # atno 10765 bound_to 10752
  141.1516  133.6726  156.6345 H   0  0  0  0  0  0  0  0  0  0  0  0  # atno 11005 bound_to 11000
  145.3240  141.0250  143.3484 LP  0  0  0  0  0  0  0  0  0  0  0  0  # atno 17320 bound_to 7965
  144.8846  139.4856  143.6706 LP  0  0  0  0  0  0  0  0  0  0  0  0  # atno 17321 bound_to 7965
  139.6153  144.1015  152.2340 LP  0  0  0  0  0  0  0  0  0  0  0  0  # atno 17342 bound_to 10162
  140.0442  144.5984  150.7387 LP  0  0  0  0  0  0  0  0  0  0  0  0  # atno 17343 bound_to 10162
  157.6608  131.0881  150.7843 LP  0  0  0  0  0  0  0  0  0  0  0  0  # atno 17370 bound_to 10713
  156.7916  130.4892  149.5384 LP  0  0  0  0  0  0  0  0  0  0  0  0  # atno 17371 bound_to 10713
  140.3441  134.7824  157.4419 LP  0  0  0  0  0  0  0  0  0  0  0  0  # atno 17394 bound_to 11000
  140.0914  134.5596  155.8440 LP  0  0  0  0  0  0  0  0  0  0  0  0  # atno 17395 bound_to 11000

$$$$
