AV-unprocessed.smi:1797|AV-procd|sdf|7256|dock9
  -GOLD-   22720 8513D 1   1.00000     0.00000
 Structure written by MMmdl.
 30 31  0  0  0  0  0  0  0  0  1 V2000
  148.2951  136.1152  159.2034 C   0  0  0  0  0  0  0  0  0  0  0  0
  147.7934  135.7630  157.8448 C   0  0  0  0  0  0  0  0  0  0  0  0
  146.6961  135.0224  157.6509 N   0  0  0  0  0  0  0  0  0  0  0  0
  146.4271  134.8239  156.3044 N   0  0  0  0  0  0  0  0  0  0  0  0
  147.3305  135.4239  155.5158 C   0  0  0  0  0  0  0  0  0  0  0  0
  147.3167  135.3872  154.0907 N   0  0  0  0  0  0  0  0  0  0  0  0
  146.5263  134.7306  153.2146 C   0  0  0  0  0  0  0  0  0  0  0  0
  145.6227  133.9949  153.6077 O   0  0  0  0  0  0  0  0  0  0  0  0
  146.7897  134.9208  151.9113 N   0  0  0  0  0  0  0  0  0  0  0  0
  146.0682  134.3071  150.8015 C   0  0  1  0  0  0  0  0  0  0  0  0
  146.1344  132.7796  150.9223 C   0  0  0  0  0  0  0  0  0  0  0  0
  145.4024  132.1011  149.7537 C   0  0  0  0  0  0  0  0  0  0  0  0
  144.0246  132.7127  149.4589 C   0  0  0  0  0  0  0  0  0  0  0  0
  143.2118  132.0772  148.7913 O   0  0  0  0  0  0  0  0  0  0  0  0
  143.7498  133.9494  149.9095 N   0  0  0  0  0  0  0  0  0  0  0  0
  144.5959  134.7652  150.7801 C   0  0  0  0  0  0  0  0  0  0  0  0
  148.6025  136.2810  156.3711 S   0  0  0  0  0  0  0  0  0  0  0  0
  147.4691  136.4334  159.8399 H   0  0  0  0  0  0  0  0  0  0  0  0
  149.0195  136.9276  159.1415 H   0  0  0  0  0  0  0  0  0  0  0  0
  148.7774  135.2499  159.6583 H   0  0  0  0  0  0  0  0  0  0  0  0
  148.0299  135.9555  153.6575 H   0  0  0  0  0  0  0  0  0  0  0  0
  147.5500  135.5414  151.6717 H   0  0  0  0  0  0  0  0  0  0  0  0
  146.5473  134.5950  149.8634 H   0  0  0  0  0  0  0  0  0  0  0  0
  147.1736  132.4492  150.9420 H   0  0  0  0  0  0  0  0  0  0  0  0
  145.6913  132.4602  151.8671 H   0  0  0  0  0  0  0  0  0  0  0  0
  146.0026  132.1910  148.8478 H   0  0  0  0  0  0  0  0  0  0  0  0
  145.2930  131.0340  149.9502 H   0  0  0  0  0  0  0  0  0  0  0  0
  142.8483  134.3371  149.6712 H   0  0  0  0  0  0  0  0  0  0  0  0
  144.1739  134.7118  151.7846 H   0  0  0  0  0  0  0  0  0  0  0  0
  144.5254  135.8071  150.4664 H   0  0  0  0  0  0  0  0  0  0  0  0
  1  2  1  0  0  0  0
  1 18  1  0  0  0  0
  1 19  1  0  0  0  0
  1 20  1  0  0  0  0
  2 17  1  0  0  0  0
  2  3  2  0  0  0  0
  3  4  1  0  0  0  0
  4  5  2  0  0  0  0
  5  6  1  0  0  0  0
  5 17  1  0  0  0  0
  6  7  1  0  0  0  0
  6 21  1  0  0  0  0
  7  8  2  0  0  0  0
  7  9  1  0  0  0  0
  9 10  1  0  0  0  0
  9 22  1  0  0  0  0
 10 16  1  0  0  0  0
 10 11  1  0  0  0  0
 10 23  1  0  0  0  0
 11 12  1  0  0  0  0
 11 24  1  0  0  0  0
 11 25  1  0  0  0  0
 12 13  1  0  0  0  0
 12 26  1  0  0  0  0
 12 27  1  0  0  0  0
 13 14  2  0  0  0  0
 13 15  1  0  0  0  0
 15 16  1  0  0  0  0
 15 28  1  0  0  0  0
 16 29  1  0  0  0  0
 16 30  1  0  0  0  0
M  END
> <s_m_source_file>
AV-unprocessed.smi

> <i_m_source_file_index>
1797

> <i_lp_mmshare_version>
43012

> <i_f3d_flags>
0

> <s_epik_input>
W0NIM11jMW5uYyhzMSlbTkhdQyg9TylbTkhdW0NAQEhdMltDSDJdW0NIMl1DKD1PKVtOSF1bQ0gyXTI=

> <s_epik_cmdline>
J2VwaWtfcHl0aG9uJywgJy1waCcsICc3LjAnLCAnLXRuJywgJzgnLCAnLW1hJywgJzIwMCcsICctbWV0YWxfYmluZGluZycsICctaW1hZScsICc8aW5maWxlLm1hZT4nLCAnLW9tYWUnLCAnPG91dGZpbGUubWFlPic=

> <r_lp_tautomer_probability>
1

> <r_epik_Ionization_Penalty>
0.00282347

> <r_epik_Ionization_Penalty_Charging>
0

> <r_epik_Ionization_Penalty_Neutral>
0.00282347

> <r_epik_State_Penalty>
-0

> <r_epik_Charging_Adjusted_Penalty>
0

> <i_epik_Tot_Q>
0

> <i_epik_Tot_abs_Q>
0

> <r_epik_Metal_State_Penalty>
0.357935

> <b_epik_Metal_Only>
0

> <s_lp_Force_Field>
OPLS_2005

> <r_lp_Energy>
10.7191

> <b_lp_Chiralities_Consistent>
1

> <s_lp_Variant>
AV-unprocessed.smi:1797-2

> <Gold.Version>
5.8.1

> <Gold.Id.Protein>
6NUR|6NUR_protein|mol2

> <Gold.PLP.Fitness>
33.1069

> <Gold.PLP.PLP>
-21.8537

> <Gold.PLP.part.hbond>
-3.8698

> <Gold.PLP.part.metal>
0.0000

> <Gold.PLP.part.buried>
-3.5798

> <Gold.PLP.part.nonpolar>
-14.8059

> <Gold.PLP.part.repulsive>
1.0158

> <Gold.PLP.ligand.clash>
0.0000

> <Gold.PLP.ligand.torsion>
0.0140

> <Gold.PLP.Chemscore.Hbond>
3.7600

> <Gold.PLP.Chemscore.CHOScore>
0.0000

> <Gold.PLP.Chemscore.Metal>
0.0000

> <Gold.Chemscore.Hbonds>
donor molecule, donor type, donor heavy atom, donor atom, acceptor molecule, acceptor atom, score
      L1  H     6    21       P1  7948  0.81
      L1  H     9    22       P1  7948  1.00
      L1  H    15    28       P1 10186  1.00
      P1  H 10785 10796       L1    14  0.94

> <Gold.PLP.Chemscore.Internal.Correction>
0.0012

> <Gold.Rescore>
     Score         DG    S(hbond)    S(metal)    S(lipo)     H(rot)  DE(clash)    DE(int)     intcor
     16.90     -19.32       3.56        0.00      38.49       1.00       0.10       2.32       ----

> <Gold.Chemscore.Fitness>
16.9025

> <Gold.Chemscore.DG>
-19.3210

> <Gold.Chemscore.ZeroCoef>
-5.4800

> <Gold.Chemscore.Hbond>
3.5622

> <Gold.Chemscore.Metal>
0.0000

> <Gold.Chemscore.Lipo>
38.4897

> <Gold.Chemscore.Internal_Hbond>
0.0000

> <Gold.Chemscore.DEClash>
0.0959

> <Gold.Chemscore.DEInternal>
2.3226

> <Gold.Chemscore.Rot>
1.0000

> <Gold.Chemscore.Internal.Correction>
   9.000000E+99

> <Gold.Chemscore.Hbonds>
donor molecule, donor type, donor heavy atom, donor atom, acceptor molecule, acceptor atom, score
      L1  H     6    21       P1  7948  0.75
      L1  H     9    22       P1  7948  0.90
      L1  H    15    28       P1 10186  0.98
      P1  H 10785 10796       L1    14  0.90

> <Gold.Chemscore.Hbond.Weighted>
-11.8977

> <Gold.Chemscore.Metal.Weighted>
-0.0000

> <Gold.Chemscore.Lipo.Weighted>
-4.5033

> <Gold.Chemscore.Internal_Hbond.Weighted>
0.0000

> <Gold.Chemscore.DEClash.Weighted>
0.0959

> <Gold.Chemscore.DEInternal.Weighted>
2.3226

> <Gold.Chemscore.Rot.Weighted>
2.5600

> <Gold.Chemscore.Internal.Correction.Weighted>
   9.000000E+99

> <Gold.Protein.RotatedTorsions>
[ 6907 6896 6895 6894 ] final -115.75 input  -60.11 | X-H torsion
[ 7974 7965 7964 7962 ] final  176.96 input  175.53 | X-H torsion
[ 8008 7997 7996 7995 ] final    5.06 input   59.86 | X-H torsion
[ 10167 10162 10161 10158 ] final -118.71 input  -65.29 | X-H torsion
[ 10718 10713 10712 10709 ] final   -2.25 input   66.30 | X-H torsion
[ 10763 10752 10751 10750 ] final   -2.23 input  -60.55 | X-H torsion
[ 11005 11000 10999 10996 ] final -103.37 input  -57.11 | X-H torsion

> <Gold.Protein.ActiveResidues>
 VAL166  LYS551  ARG553  GLY616  TRP617  ASP618  TYR619  PRO620  LYS621  CYS622 
 ASP623  PHE694  ASN695  SER759  ASP760  ASP761  ALA762  ILE779  LEU786  VAL792 
 PHE793  MET794  SER795  GLU796  ALA797  LYS798  CYS799  TRP800  GLU811  SER814 

> <Gold.Protein.RotatedAtoms>
  150.8002  133.8614  159.3232 H   0  0  0  0  0  0  0  0  0  0  0  0  # atno 6907 bound_to 6896
  151.6428  135.1009  160.0154 H   0  0  0  0  0  0  0  0  0  0  0  0  # atno 6908 bound_to 6896
  152.4088  133.6892  159.6415 H   0  0  0  0  0  0  0  0  0  0  0  0  # atno 6909 bound_to 6896
  144.7176  140.0175  143.6440 H   0  0  0  0  0  0  0  0  0  0  0  0  # atno 7974 bound_to 7965
  154.7237  140.2717  155.6518 H   0  0  0  0  0  0  0  0  0  0  0  0  # atno 8008 bound_to 7997
  156.2831  140.2729  156.1841 H   0  0  0  0  0  0  0  0  0  0  0  0  # atno 8009 bound_to 7997
  155.0473  140.0371  157.2521 H   0  0  0  0  0  0  0  0  0  0  0  0  # atno 8010 bound_to 7997
  140.0546  143.5027  152.2064 H   0  0  0  0  0  0  0  0  0  0  0  0  # atno 10167 bound_to 10162
  156.7936  130.5370  149.5732 H   0  0  0  0  0  0  0  0  0  0  0  0  # atno 10718 bound_to 10713
  153.3553  135.6987  153.6756 H   0  0  0  0  0  0  0  0  0  0  0  0  # atno 10763 bound_to 10752
  153.5466  135.3562  155.2742 H   0  0  0  0  0  0  0  0  0  0  0  0  # atno 10764 bound_to 10752
  154.8660  135.4216  154.2798 H   0  0  0  0  0  0  0  0  0  0  0  0  # atno 10765 bound_to 10752
  141.1149  133.8634  157.1477 H   0  0  0  0  0  0  0  0  0  0  0  0  # atno 11005 bound_to 11000
  146.0208  139.3249  143.0814 LP  0  0  0  0  0  0  0  0  0  0  0  0  # atno 17320 bound_to 7965
  145.8570  140.9496  143.0719 LP  0  0  0  0  0  0  0  0  0  0  0  0  # atno 17321 bound_to 7965
  139.5932  144.7557  151.3351 LP  0  0  0  0  0  0  0  0  0  0  0  0  # atno 17342 bound_to 10162
  140.7201  143.7160  150.7732 LP  0  0  0  0  0  0  0  0  0  0  0  0  # atno 17343 bound_to 10162
  156.1144  130.6064  151.0097 LP  0  0  0  0  0  0  0  0  0  0  0  0  # atno 17370 bound_to 10713
  157.6588  131.0884  150.7885 LP  0  0  0  0  0  0  0  0  0  0  0  0  # atno 17371 bound_to 10713
  140.0065  135.0006  157.0303 LP  0  0  0  0  0  0  0  0  0  0  0  0  # atno 17394 bound_to 11000
  140.4674  134.1422  155.7198 LP  0  0  0  0  0  0  0  0  0  0  0  0  # atno 17395 bound_to 11000

$$$$
