AV-unprocessed.smi:3036|AV-procd|sdf|11584|dock1
  -GOLD-   2272016553D 1   1.00000     0.00000
 Structure written by MMmdl.
 41 42  0  0  0  0  0  0  0  0  1 V2000
  145.9715  133.4644  154.4849 C   0  0  0  0  0  0  0  0  0  0  0  0
  146.7119  134.4036  153.5165 C   0  0  2  0  0  0  0  0  0  0  0  0
  147.1145  133.6588  152.2274 C   0  0  0  0  0  0  0  0  0  0  0  0
  145.9719  133.1338  151.4995 N   0  0  0  0  0  0  0  0  0  0  0  0
  145.7827  131.8599  151.0058 C   0  0  0  0  0  0  0  0  0  0  0  0
  144.5568  131.8346  150.4051 C   0  0  0  0  0  0  0  0  0  0  0  0
  144.0625  133.1561  150.5904 C   0  0  0  0  0  0  0  0  0  0  0  0
  144.9098  133.9301  151.2490 N   0  0  0  0  0  0  0  0  0  0  0  0
  147.9154  134.9263  154.1551 N   0  0  0  0  0  0  0  0  0  0  0  0
  147.6067  135.9751  155.1206 C   0  0  0  0  0  0  0  0  0  0  0  0
  148.7118  136.0969  156.1904 C   0  0  0  0  0  0  0  0  0  0  0  0
  150.1276  136.3718  155.6437 C   0  0  0  0  0  0  0  0  0  0  0  0
  151.0263  135.5599  155.8716 O   0  0  0  0  0  0  0  0  0  0  0  0
  150.3482  137.5035  154.9317 N   0  0  0  0  0  0  0  0  0  0  0  0
  151.6584  137.8572  154.3764 C   0  0  0  0  0  0  0  0  0  0  0  0
  152.1603  139.1300  155.0810 C   0  0  0  0  0  0  0  0  0  0  0  0
  151.2130  140.1797  154.9018 O   0  0  0  0  0  0  0  0  0  0  0  0
  149.9211  139.8576  155.4103 C   0  0  0  0  0  0  0  0  0  0  0  0
  149.3876  138.5911  154.7159 C   0  0  0  0  0  0  0  0  0  0  0  0
  145.0984  133.0230  154.0039 H   0  0  0  0  0  0  0  0  0  0  0  0
  145.6160  133.9868  155.3726 H   0  0  0  0  0  0  0  0  0  0  0  0
  146.6145  132.6473  154.8150 H   0  0  0  0  0  0  0  0  0  0  0  0
  146.0541  135.2307  153.2452 H   0  0  0  0  0  0  0  0  0  0  0  0
  147.6828  134.3141  151.5655 H   0  0  0  0  0  0  0  0  0  0  0  0
  147.7692  132.8199  152.4684 H   0  0  0  0  0  0  0  0  0  0  0  0
  146.5283  131.0867  151.1207 H   0  0  0  0  0  0  0  0  0  0  0  0
  144.0838  130.9992  149.9108 H   0  0  0  0  0  0  0  0  0  0  0  0
  143.1189  133.5727  150.2700 H   0  0  0  0  0  0  0  0  0  0  0  0
  148.5235  135.3113  153.4466 H   0  0  0  0  0  0  0  0  0  0  0  0
  147.5067  136.9239  154.5920 H   0  0  0  0  0  0  0  0  0  0  0  0
  146.6503  135.7821  155.6059 H   0  0  0  0  0  0  0  0  0  0  0  0
  148.4341  136.8928  156.8824 H   0  0  0  0  0  0  0  0  0  0  0  0
  148.7454  135.1714  156.7663 H   0  0  0  0  0  0  0  0  0  0  0  0
  152.3965  137.0614  154.4833 H   0  0  0  0  0  0  0  0  0  0  0  0
  151.5603  138.0340  153.3043 H   0  0  0  0  0  0  0  0  0  0  0  0
  152.3203  138.9485  156.1451 H   0  0  0  0  0  0  0  0  0  0  0  0
  153.1170  139.4422  154.6623 H   0  0  0  0  0  0  0  0  0  0  0  0
  149.9705  139.7164  156.4914 H   0  0  0  0  0  0  0  0  0  0  0  0
  149.2517  140.6985  155.2285 H   0  0  0  0  0  0  0  0  0  0  0  0
  149.2813  138.7678  153.6446 H   0  0  0  0  0  0  0  0  0  0  0  0
  148.3860  138.3772  155.0835 H   0  0  0  0  0  0  0  0  0  0  0  0
  1  2  1  0  0  0  0
  1 20  1  0  0  0  0
  1 21  1  0  0  0  0
  1 22  1  0  0  0  0
  2  3  1  0  0  0  0
  2  9  1  0  0  0  0
  2 23  1  0  0  0  0
  3  4  1  0  0  0  0
  3 24  1  0  0  0  0
  3 25  1  0  0  0  0
  4  8  1  0  0  0  0
  4  5  1  0  0  0  0
  5  6  2  0  0  0  0
  5 26  1  0  0  0  0
  6  7  1  0  0  0  0
  6 27  1  0  0  0  0
  7  8  2  0  0  0  0
  7 28  1  0  0  0  0
  9 10  1  0  0  0  0
  9 29  1  0  0  0  0
 10 11  1  0  0  0  0
 10 30  1  0  0  0  0
 10 31  1  0  0  0  0
 11 12  1  0  0  0  0
 11 32  1  0  0  0  0
 11 33  1  0  0  0  0
 12 13  2  0  0  0  0
 12 14  1  0  0  0  0
 14 19  1  0  0  0  0
 14 15  1  0  0  0  0
 15 16  1  0  0  0  0
 15 34  1  0  0  0  0
 15 35  1  0  0  0  0
 16 17  1  0  0  0  0
 16 36  1  0  0  0  0
 16 37  1  0  0  0  0
 17 18  1  0  0  0  0
 18 19  1  0  0  0  0
 18 38  1  0  0  0  0
 18 39  1  0  0  0  0
 19 40  1  0  0  0  0
 19 41  1  0  0  0  0
M  END
> <s_m_source_file>
AV-unprocessed.smi

> <i_m_source_file_index>
3036

> <i_lp_mmshare_version>
43012

> <i_f3d_flags>
0

> <s_epik_input>
bjFbY0hdW2NIXVtjSF1uMVtDSDJdW0NAQEhdKFtDSDNdKVtOSF1bQ0gyXVtDSDJdQyg9TylOMltDSDJdW0NIMl1PW0NIMl1bQ0gyXTI=

> <s_epik_cmdline>
J2VwaWtfcHl0aG9uJywgJy1waCcsICc3LjAnLCAnLXRuJywgJzgnLCAnLW1hJywgJzIwMCcsICctbWV0YWxfYmluZGluZycsICctaW1hZScsICc8aW5maWxlLm1hZT4nLCAnLW9tYWUnLCAnPG91dGZpbGUubWFlPic=

> <r_lp_tautomer_probability>
1

> <r_epik_Ionization_Penalty>
2.55703

> <r_epik_Ionization_Penalty_Charging>
0

> <r_epik_Ionization_Penalty_Neutral>
2.55703

> <r_epik_State_Penalty>
2.726

> <r_epik_Charging_Adjusted_Penalty>
2.726

> <i_epik_Tot_Q>
0

> <i_epik_Tot_abs_Q>
0

> <r_epik_Metal_State_Penalty>
2.72597

> <b_epik_Metal_Only>
0

> <s_lp_Force_Field>
OPLS_2005

> <r_lp_Energy>
22.7119

> <b_lp_Chiralities_Consistent>
1

> <s_lp_Variant>
AV-unprocessed.smi:3036-3

> <Gold.Version>
5.8.1

> <Gold.Id.Protein>
6NUR|6NUR_protein|mol2

> <Gold.PLP.Fitness>
46.8469

> <Gold.PLP.PLP>
-32.5103

> <Gold.PLP.part.hbond>
-2.9316

> <Gold.PLP.part.metal>
0.0000

> <Gold.PLP.part.buried>
-3.6915

> <Gold.PLP.part.nonpolar>
-25.5554

> <Gold.PLP.part.repulsive>
0.2573

> <Gold.PLP.ligand.clash>
0.0000

> <Gold.PLP.ligand.torsion>
0.3958

> <Gold.PLP.Chemscore.Hbond>
3.0000

> <Gold.PLP.Chemscore.CHOScore>
2.0000

> <Gold.PLP.Chemscore.Metal>
0.0000

> <Gold.Chemscore.Hbonds>
donor molecule, donor type, donor heavy atom, donor atom, acceptor molecule, acceptor atom, score
      L1  H     9    29       P1  7948  1.00
      P1  H  7989  7998       L1    17  1.00
      P1  H 10752 10765       L1    13  0.50
      L1  C     5    26       P1 10747  0.83
      L1  C     7    28       P1 10186  1.00

> <Gold.PLP.Chemscore.Internal.Correction>
0.1283

> <Gold.Rescore>
     Score         DG    S(hbond)    S(metal)    S(lipo)     H(rot)  DE(clash)    DE(int)     intcor
     17.35     -17.69       2.75        0.00      69.28       1.99       0.05       0.29       ----

> <Gold.Chemscore.Fitness>
17.3536

> <Gold.Chemscore.DG>
-17.6933

> <Gold.Chemscore.ZeroCoef>
-5.4800

> <Gold.Chemscore.Hbond>
2.7549

> <Gold.Chemscore.Metal>
0.0000

> <Gold.Chemscore.Lipo>
69.2846

> <Gold.Chemscore.Internal_Hbond>
0.0000

> <Gold.Chemscore.DEClash>
0.0486

> <Gold.Chemscore.DEInternal>
0.2911

> <Gold.Chemscore.Rot>
1.9900

> <Gold.Chemscore.Internal.Correction>
   9.000000E+99

> <Gold.Chemscore.Hbonds>
donor molecule, donor type, donor heavy atom, donor atom, acceptor molecule, acceptor atom, score
      L1  H     9    29       P1  7948  0.93
      P1  H  7989  7998       L1    17  0.44
      P1  H 10752 10765       L1    13  0.50

> <Gold.Chemscore.Hbond.Weighted>
-9.2014

> <Gold.Chemscore.Metal.Weighted>
-0.0000

> <Gold.Chemscore.Lipo.Weighted>
-8.1063

> <Gold.Chemscore.Internal_Hbond.Weighted>
0.0000

> <Gold.Chemscore.DEClash.Weighted>
0.0486

> <Gold.Chemscore.DEInternal.Weighted>
0.2911

> <Gold.Chemscore.Rot.Weighted>
5.0944

> <Gold.Chemscore.Internal.Correction.Weighted>
   9.000000E+99

> <Gold.Protein.RotatedTorsions>
[ 6907 6896 6895 6894 ] final   21.13 input  -60.11 | X-H torsion
[ 7974 7965 7964 7962 ] final -120.52 input  175.53 | X-H torsion
[ 8008 7997 7996 7995 ] final  -40.89 input   59.86 | X-H torsion
[ 10167 10162 10161 10158 ] final  172.70 input  -65.29 | X-H torsion
[ 10718 10713 10712 10709 ] final   31.16 input   66.30 | X-H torsion
[ 10763 10752 10751 10750 ] final -163.87 input  -60.55 | X-H torsion
[ 11005 11000 10999 10996 ] final  169.05 input  -57.11 | X-H torsion

> <Gold.Protein.ActiveResidues>
 VAL166  LYS551  ARG553  GLY616  TRP617  ASP618  TYR619  PRO620  LYS621  CYS622 
 ASP623  PHE694  ASN695  SER759  ASP760  ASP761  ALA762  ILE779  LEU786  VAL792 
 PHE793  MET794  SER795  GLU796  ALA797  LYS798  CYS799  TRP800  GLU811  SER814 

> <Gold.Protein.RotatedAtoms>
  151.9070  135.0354  160.0511 H   0  0  0  0  0  0  0  0  0  0  0  0  # atno 6907 bound_to 6896
  152.2311  133.5054  159.5224 H   0  0  0  0  0  0  0  0  0  0  0  0  # atno 6908 bound_to 6896
  150.7026  134.1132  159.4050 H   0  0  0  0  0  0  0  0  0  0  0  0  # atno 6909 bound_to 6896
  145.0505  140.8214  143.4212 H   0  0  0  0  0  0  0  0  0  0  0  0  # atno 7974 bound_to 7965
  154.4008  140.1514  156.3100 H   0  0  0  0  0  0  0  0  0  0  0  0  # atno 8008 bound_to 7997
  155.8624  140.3453  155.5743 H   0  0  0  0  0  0  0  0  0  0  0  0  # atno 8009 bound_to 7997
  155.7866  140.0851  157.2022 H   0  0  0  0  0  0  0  0  0  0  0  0  # atno 8010 bound_to 7997
  139.5085  144.3344  152.0079 H   0  0  0  0  0  0  0  0  0  0  0  0  # atno 10167 bound_to 10162
  157.2689  130.7198  149.6493 H   0  0  0  0  0  0  0  0  0  0  0  0  # atno 10718 bound_to 10713
  154.7082  135.3001  154.9238 H   0  0  0  0  0  0  0  0  0  0  0  0  # atno 10763 bound_to 10752
  154.0148  135.6690  153.4772 H   0  0  0  0  0  0  0  0  0  0  0  0  # atno 10764 bound_to 10752
  153.0734  135.5048  154.8264 H   0  0  0  0  0  0  0  0  0  0  0  0  # atno 10765 bound_to 10752
  140.2937  134.7652  157.3859 H   0  0  0  0  0  0  0  0  0  0  0  0  # atno 11005 bound_to 11000
  145.1533  139.2501  143.5429 LP  0  0  0  0  0  0  0  0  0  0  0  0  # atno 17320 bound_to 7965
  146.3517  140.1242  142.8599 LP  0  0  0  0  0  0  0  0  0  0  0  0  # atno 17321 bound_to 7965
  140.2783  144.3887  150.6127 LP  0  0  0  0  0  0  0  0  0  0  0  0  # atno 17342 bound_to 10162
  140.6037  143.2167  151.7023 LP  0  0  0  0  0  0  0  0  0  0  0  0  # atno 17343 bound_to 10162
  155.9663  130.4374  150.5173 LP  0  0  0  0  0  0  0  0  0  0  0  0  # atno 17370 bound_to 10713
  157.3094  131.0660  151.2012 LP  0  0  0  0  0  0  0  0  0  0  0  0  # atno 17371 bound_to 10713
  140.1172  134.5267  155.8215 LP  0  0  0  0  0  0  0  0  0  0  0  0  # atno 17394 bound_to 11000
  141.2141  133.6744  156.6799 LP  0  0  0  0  0  0  0  0  0  0  0  0  # atno 17395 bound_to 11000

$$$$
