#       Name:                AV-unprocessed.smi:1833
#       Creating user name   scv26
#       Creation time:       Fri Mar 27 09:16:11 2020


#       File generated by GOLD software.
#

@<TRIPOS>MOLECULE
AV-unprocessed.smi:1833
    45    46     1
SMALL
NO_CHARGES


@<TRIPOS>ATOM
      1 ****        -1.3890  -0.8006   3.8051 C.3            1 S1                 0.0000
      2 ****        -2.2635  -1.6518   2.8727 C.3            1 S1                 0.0000
      3 ****        -1.7516  -1.6699   1.4797 N.4            1 S1                 1.0000
      4 ****        -2.2277  -2.8531   0.7164 C.3            1 S1                 0.0000
      5 ****        -1.5632  -2.9271  -0.6695 C.3            1 S1                 0.0000
      6 ****        -1.7663  -1.6235  -1.4598 C.3            1 S1                 0.0000
      7 ****        -1.3159  -0.4042  -0.6359 C.3            1 S1                 0.0000
      8 ****         0.1409  -0.4061  -0.4994 N.am           1 S1                 0.0000
      9 ****         0.8819   0.6429  -0.1169 C.2            1 S1                 0.0000
     10 ****         0.4127   1.7352   0.2016 O.2            1 S1                 0.0000
     11 ****         2.1925   0.3605  -0.1364 N.am           1 S1                 0.0000
     12 ****         3.2636   1.2989   0.1909 C.3            1 S1                 0.0000
     13 ****         3.9032   1.9273  -1.0622 C.3            1 S1                 0.0000
     14 ****         2.9448   2.6817  -1.9270 C.2            1 S1                 0.0000
     15 ****         2.5650   3.9383  -1.6793 N.2            1 S1                 0.0000
     16 ****         1.6316   4.4073  -2.6067 C.2            1 S1                 0.0000
     17 ****         1.3003   3.4840  -3.5655 C.2            1 S1                 0.0000
     18 ****         2.1540   1.9828  -3.3378 S.3            1 S1                 0.0000
     19 ****        -2.0226  -0.4097   0.7378 C.3            1 S1                 0.0000
     20 ****        -1.7415  -0.8749   4.8340 H              1 S1                 0.0000
     21 ****        -1.4050   0.2548   3.5352 H              1 S1                 0.0000
     22 ****        -0.3518  -1.1364   3.7874 H              1 S1                 0.0000
     23 ****        -2.2729  -2.6689   3.2665 H              1 S1                 0.0000
     24 ****        -3.2980  -1.3055   2.8882 H              1 S1                 0.0000
     25 ****        -2.0010  -3.7661   1.2685 H              1 S1                 0.0000
     26 ****        -3.3130  -2.8071   0.6124 H              1 S1                 0.0000
     27 ****        -0.4973  -3.1263  -0.5521 H              1 S1                 0.0000
     28 ****        -1.9699  -3.7682  -1.2318 H              1 S1                 0.0000
     29 ****        -1.2284  -1.6667  -2.4079 H              1 S1                 0.0000
     30 ****        -2.8222  -1.5176  -1.7121 H              1 S1                 0.0000
     31 ****        -1.6018   0.4989  -1.1783 H              1 S1                 0.0000
     32 ****         0.6209  -1.2573  -0.7533 H              1 S1                 0.0000
     33 ****         2.4753  -0.5671  -0.4174 H              1 S1                 0.0000
     34 ****         2.8995   2.0832   0.8565 H              1 S1                 0.0000
     35 ****         4.0250   0.7572   0.7521 H              1 S1                 0.0000
     36 ****         4.7056   2.6027  -0.7631 H              1 S1                 0.0000
     37 ****         4.3700   1.1487  -1.6662 H              1 S1                 0.0000
     38 ****         1.2531   5.4140  -2.5082 H              1 S1                 0.0000
     39 ****         0.6089   3.5958  -4.3873 H              1 S1                 0.0000
     40 ****        -3.0994  -0.2969   0.6014 H              1 S1                 0.0000
     41 ****        -1.7004   0.4529   1.3194 H              1 S1                 0.0000
     42 ****        -0.7480  -1.7615   1.5467 H              1 S1                 0.0000
     43 ****        -0.5767   1.8787   0.1838 LP             1 S1                 0.0000
     44 ****         1.0210   2.4792   0.4782 LP             1 S1                 0.0000
     45 ****         2.9105   4.4827  -0.9149 LP             1 S1                 0.0000
@<TRIPOS>BOND
    1    1    2 1     
    2    1   20 1     
    3    1   21 1     
    4    1   22 1     
    5    2    3 1     
    6    2   23 1     
    7    2   24 1     
    8    3   19 1     
    9    3    4 1     
   10    3   42 1     
   11    4    5 1     
   12    4   25 1     
   13    4   26 1     
   14    5    6 1     
   15    5   27 1     
   16    5   28 1     
   17    6    7 1     
   18    6   29 1     
   19    6   30 1     
   20    7    8 1     
   21    7   19 1     
   22    7   31 1     
   23    8    9 am    
   24    8   32 1     
   25    9   10 2     
   26    9   11 am    
   27   11   12 1     
   28   11   33 1     
   29   12   13 1     
   30   12   34 1     
   31   12   35 1     
   32   13   14 1     
   33   13   36 1     
   34   13   37 1     
   35   14   18 1     
   36   14   15 2     
   37   15   16 1     
   38   16   17 2     
   39   16   38 1     
   40   17   18 1     
   41   17   39 1     
   42   19   40 1     
   43   19   41 1     
   44   10   43 1     
   45   10   44 1     
   46   15   45 1     
@<TRIPOS>SUBSTRUCTURE
      1 S1             1
@<TRIPOS>SET
LONE_PAIRS      STATIC     ATOMS    <user>   **** ""
3 43 44 45
DONOR_HYDROGENS      STATIC     ATOMS    <user>   **** ""
3 42 32 33
ATOM$BLUE        STATIC     ATOMS    COLORGROUP SYSTEM
3 43 44 45
ATOM$RED        STATIC     ATOMS    COLORGROUP SYSTEM
3 42 32 33
