#       Name:                AV-unprocessed.smi:720
#       Creating user name   scv26
#       Creation time:       Fri Mar 27 00:49:29 2020


#       File generated by GOLD software.
#

@<TRIPOS>MOLECULE
AV-unprocessed.smi:720
    50    52     1
SMALL
NO_CHARGES


@<TRIPOS>ATOM
      1 ****        -3.7339  -1.2355  -1.4577 C.3            1 S1                 0.0000
      2 ****        -3.7079  -2.2973  -2.4573 N.3            1 S1                 0.0000
      3 ****        -5.0783  -2.5443  -2.8869 C.3            1 S1                 0.0000
      4 ****        -3.1478  -3.5402  -1.9227 C.3            1 S1                 0.0000
      5 ****        -1.6114  -3.5146  -1.7741 C.3            1 S1                 0.0000
      6 ****        -1.1586  -2.9290  -0.5241 N.pl3          1 S1                 0.0000
      7 ****        -1.4486  -3.3288   0.7653 C.2            1 S1                 0.0000
      8 ****        -0.7861  -2.4908   1.6159 C.2            1 S1                 0.0000
      9 ****        -0.1009  -1.6049   0.7318 C.2            1 S1                 0.0000
     10 ****         0.7434  -0.5319   1.1138 N.am           1 S1                 0.0000
     11 ****         0.9367  -0.0109   2.3411 C.2            1 S1                 0.0000
     12 ****         0.4111  -0.4275   3.3714 O.2            1 S1                 0.0000
     13 ****         1.7688   1.0458   2.3636 N.am           1 S1                 0.0000
     14 ****         2.1882   1.8372   3.5228 C.3            1 S1                 0.0000
     15 ****         3.2123   1.1058   4.4238 C.3            1 S1                 0.0000
     16 ****         4.4094   2.0738   4.4376 C.3            1 S1                 0.0000
     17 ****         4.0351   3.3465   5.2222 C.3            1 S1                 0.0000
     18 ****         3.0634   4.0657   4.2656 C.3            1 S1                 0.0000
     19 ****         2.9775   3.0884   3.0788 C.3            1 S1                 0.0000
     20 ****         4.4131   2.5771   3.0010 C.3            1 S1                 0.0000
     21 ****        -0.3065  -1.8807  -0.5442 N.2            1 S1                 0.0000
     22 ****        -2.7280  -0.9301  -1.1771 H              1 S1                 0.0000
     23 ****        -4.2644  -1.5478  -0.5570 H              1 S1                 0.0000
     24 ****        -4.2315  -0.3498  -1.8545 H              1 S1                 0.0000
     25 ****        -5.1078  -3.3084  -3.6645 H              1 S1                 0.0000
     26 ****        -5.5202  -1.6382  -3.3030 H              1 S1                 0.0000
     27 ****        -5.7013  -2.8780  -2.0557 H              1 S1                 0.0000
     28 ****        -3.6371  -3.8197  -0.9883 H              1 S1                 0.0000
     29 ****        -3.3790  -4.3355  -2.6326 H              1 S1                 0.0000
     30 ****        -1.2356  -4.5379  -1.7986 H              1 S1                 0.0000
     31 ****        -1.1486  -2.9991  -2.6176 H              1 S1                 0.0000
     32 ****        -2.0992  -4.1664   0.9685 H              1 S1                 0.0000
     33 ****        -0.7982  -2.5225   2.6949 H              1 S1                 0.0000
     34 ****         1.2259  -0.0725   0.3556 H              1 S1                 0.0000
     35 ****         2.1443   1.3407   1.4738 H              1 S1                 0.0000
     36 ****         1.3034   2.1351   4.0887 H              1 S1                 0.0000
     37 ****         2.8215   0.9171   5.4245 H              1 S1                 0.0000
     38 ****         3.5086   0.1453   3.9990 H              1 S1                 0.0000
     39 ****         5.3406   1.6126   4.7676 H              1 S1                 0.0000
     40 ****         3.5767   3.1161   6.1845 H              1 S1                 0.0000
     41 ****         4.9151   3.9632   5.4092 H              1 S1                 0.0000
     42 ****         2.0919   4.2585   4.7222 H              1 S1                 0.0000
     43 ****         3.4782   5.0232   3.9481 H              1 S1                 0.0000
     44 ****         2.6019   3.5522   2.1658 H              1 S1                 0.0000
     45 ****         5.1451   3.3663   2.8205 H              1 S1                 0.0000
     46 ****         4.5534   1.7836   2.2646 H              1 S1                 0.0000
     47 ****        -3.1283  -2.0050  -3.2180 LP             1 S1                 0.0000
     48 ****        -0.2116  -1.2090   3.3343 LP             1 S1                 0.0000
     49 ****         0.6063   0.0152   4.2466 LP             1 S1                 0.0000
     50 ****         0.0803  -1.4189  -1.3424 LP             1 S1                 0.0000
@<TRIPOS>BOND
    1    1    2 1     
    2    1   22 1     
    3    1   23 1     
    4    1   24 1     
    5    2    3 1     
    6    2    4 1     
    7    3   25 1     
    8    3   26 1     
    9    3   27 1     
   10    4    5 1     
   11    4   28 1     
   12    4   29 1     
   13    5    6 1     
   14    5   30 1     
   15    5   31 1     
   16    6   21 1     
   17    6    7 1     
   18    7    8 2     
   19    7   32 1     
   20    8    9 1     
   21    8   33 1     
   22    9   10 1     
   23    9   21 2     
   24   10   11 am    
   25   10   34 1     
   26   11   12 2     
   27   11   13 am    
   28   13   14 1     
   29   13   35 1     
   30   14   19 1     
   31   14   15 1     
   32   14   36 1     
   33   15   16 1     
   34   15   37 1     
   35   15   38 1     
   36   16   20 1     
   37   16   17 1     
   38   16   39 1     
   39   17   18 1     
   40   17   40 1     
   41   17   41 1     
   42   18   19 1     
   43   18   42 1     
   44   18   43 1     
   45   19   20 1     
   46   19   44 1     
   47   20   45 1     
   48   20   46 1     
   49    2   47 1     
   50   12   48 1     
   51   12   49 1     
   52   21   50 1     
@<TRIPOS>SUBSTRUCTURE
      1 S1             1
@<TRIPOS>SET
LONE_PAIRS      STATIC     ATOMS    <user>   **** ""
4 47 48 49 50
DONOR_HYDROGENS      STATIC     ATOMS    <user>   **** ""
2 34 35
ATOM$BLUE        STATIC     ATOMS    COLORGROUP SYSTEM
4 47 48 49 50
ATOM$RED        STATIC     ATOMS    COLORGROUP SYSTEM
2 34 35
