AV-unprocessed.smi:2327|AV-procd|sdf|9299|dock6
  -GOLD-   2272012523D 1   1.00000     0.00000
 Structure written by MMmdl.
 40 41  0  0  0  0  0  0  0  0  1 V2000
  144.4640  132.0249  150.1916 C   0  0  0  0  0  0  0  0  0  0  0  0
  145.2783  131.6332  151.3839 C   0  0  0  0  0  0  0  0  0  0  0  0
  145.7202  130.3747  151.7073 C   0  0  0  0  0  0  0  0  0  0  0  0
  146.6345  130.3688  153.1902 S   0  0  0  0  0  0  0  0  0  0  0  0
  146.3807  132.1062  153.3185 C   0  0  0  0  0  0  0  0  0  0  0  0
  146.8861  132.9266  154.4659 C   0  0  1  0  0  0  0  0  0  0  0  0
  146.3021  132.4618  155.8078 C   0  0  0  0  0  0  0  0  0  0  0  0
  148.4238  133.0510  154.4914 C   0  0  0  0  0  0  0  0  0  0  0  0
  148.8666  134.4086  154.1819 N   0  0  0  0  0  0  0  0  0  0  0  0
  149.4414  135.2655  155.0434 C   0  0  0  0  0  0  0  0  0  0  0  0
  149.6258  135.0150  156.2327 O   0  0  0  0  0  0  0  0  0  0  0  0
  149.8044  136.4432  154.5047 N   0  0  0  0  0  0  0  0  0  0  0  0
  150.4477  137.5823  155.1625 C   0  0  0  0  0  0  0  0  0  0  0  0
  149.6089  138.8488  154.9326 C   0  0  0  0  0  0  0  0  0  0  0  0
  150.3315  140.0908  155.4796 C   0  0  0  0  0  0  0  0  0  0  0  0
  151.6189  140.2082  154.8841 O   0  0  0  0  0  0  0  0  0  0  0  0
  152.4691  139.1062  155.1817 C   0  0  0  0  0  0  0  0  0  0  0  0
  151.8680  137.8101  154.6145 C   0  0  0  0  0  0  0  0  0  0  0  0
  145.6632  132.6073  152.3084 N   0  0  0  0  0  0  0  0  0  0  0  0
  144.2527  131.1672  149.5527 H   0  0  0  0  0  0  0  0  0  0  0  0
  144.9853  132.7664  149.5859 H   0  0  0  0  0  0  0  0  0  0  0  0
  143.5086  132.4554  150.4927 H   0  0  0  0  0  0  0  0  0  0  0  0
  145.5622  129.4533  151.1667 H   0  0  0  0  0  0  0  0  0  0  0  0
  146.5016  133.9349  154.3053 H   0  0  0  0  0  0  0  0  0  0  0  0
  145.2118  132.4757  155.7876 H   0  0  0  0  0  0  0  0  0  0  0  0
  146.6257  133.1101  156.6223 H   0  0  0  0  0  0  0  0  0  0  0  0
  146.6184  131.4461  156.0471 H   0  0  0  0  0  0  0  0  0  0  0  0
  148.7995  132.7915  155.4812 H   0  0  0  0  0  0  0  0  0  0  0  0
  148.8673  132.3313  153.8011 H   0  0  0  0  0  0  0  0  0  0  0  0
  148.7514  134.7134  153.2265 H   0  0  0  0  0  0  0  0  0  0  0  0
  149.5691  136.5789  153.5319 H   0  0  0  0  0  0  0  0  0  0  0  0
  150.4982  137.4051  156.2387 H   0  0  0  0  0  0  0  0  0  0  0  0
  149.4258  138.9847  153.8656 H   0  0  0  0  0  0  0  0  0  0  0  0
  148.6321  138.7467  155.4066 H   0  0  0  0  0  0  0  0  0  0  0  0
  149.7565  140.9883  155.2516 H   0  0  0  0  0  0  0  0  0  0  0  0
  150.4247  140.0403  156.5656 H   0  0  0  0  0  0  0  0  0  0  0  0
  153.4489  139.2883  154.7400 H   0  0  0  0  0  0  0  0  0  0  0  0
  152.6159  139.0271  156.2600 H   0  0  0  0  0  0  0  0  0  0  0  0
  152.5152  136.9669  154.8568 H   0  0  0  0  0  0  0  0  0  0  0  0
  151.8384  137.8766  153.5260 H   0  0  0  0  0  0  0  0  0  0  0  0
  1  2  1  0  0  0  0
  1 20  1  0  0  0  0
  1 21  1  0  0  0  0
  1 22  1  0  0  0  0
  2 19  1  0  0  0  0
  2  3  2  0  0  0  0
  3  4  1  0  0  0  0
  3 23  1  0  0  0  0
  4  5  1  0  0  0  0
  5  6  1  0  0  0  0
  5 19  2  0  0  0  0
  6  7  1  0  0  0  0
  6  8  1  0  0  0  0
  6 24  1  0  0  0  0
  7 25  1  0  0  0  0
  7 26  1  0  0  0  0
  7 27  1  0  0  0  0
  8  9  1  0  0  0  0
  8 28  1  0  0  0  0
  8 29  1  0  0  0  0
  9 10  1  0  0  0  0
  9 30  1  0  0  0  0
 10 11  2  0  0  0  0
 10 12  1  0  0  0  0
 12 13  1  0  0  0  0
 12 31  1  0  0  0  0
 13 18  1  0  0  0  0
 13 14  1  0  0  0  0
 13 32  1  0  0  0  0
 14 15  1  0  0  0  0
 14 33  1  0  0  0  0
 14 34  1  0  0  0  0
 15 16  1  0  0  0  0
 15 35  1  0  0  0  0
 15 36  1  0  0  0  0
 16 17  1  0  0  0  0
 17 18  1  0  0  0  0
 17 37  1  0  0  0  0
 17 38  1  0  0  0  0
 18 39  1  0  0  0  0
 18 40  1  0  0  0  0
M  END
> <s_m_source_file>
AV-unprocessed.smi

> <i_m_source_file_index>
2327

> <i_lp_mmshare_version>
43012

> <i_f3d_flags>
0

> <s_epik_input>
W0NIM11jMVtjSF1zYyhuMSlbQ0BIXShbQ0gzXSlbQ0gyXVtOSF1DKD1PKVtOSF1bQ0hdMltDSDJdW0NIMl1PW0NIMl1bQ0gyXTI=

> <s_epik_cmdline>
J2VwaWtfcHl0aG9uJywgJy1waCcsICc3LjAnLCAnLXRuJywgJzgnLCAnLW1hJywgJzIwMCcsICctbWV0YWxfYmluZGluZycsICctaW1hZScsICc8aW5maWxlLm1hZT4nLCAnLW9tYWUnLCAnPG91dGZpbGUubWFlPic=

> <r_epik_Ionization_Penalty>
0.0015425

> <r_epik_Ionization_Penalty_Charging>
0

> <r_epik_Ionization_Penalty_Neutral>
0.0015425

> <r_epik_State_Penalty>
0.000998134

> <r_epik_Charging_Adjusted_Penalty>
0.000998134

> <i_epik_Tot_Q>
0

> <i_epik_Tot_abs_Q>
0

> <r_epik_Metal_State_Penalty>
-0

> <b_epik_Metal_Only>
0

> <s_lp_Force_Field>
OPLS_2005

> <r_lp_Energy>
7.91954

> <b_lp_Chiralities_Consistent>
1

> <s_lp_Variant>
AV-unprocessed.smi:2327-2

> <Gold.Version>
5.8.1

> <Gold.Id.Protein>
6NUR|6NUR_protein|mol2

> <Gold.PLP.Fitness>
39.0837

> <Gold.PLP.PLP>
-31.9467

> <Gold.PLP.part.hbond>
-3.1483

> <Gold.PLP.part.metal>
0.0000

> <Gold.PLP.part.buried>
-4.7740

> <Gold.PLP.part.nonpolar>
-25.2139

> <Gold.PLP.part.repulsive>
0.2248

> <Gold.PLP.ligand.clash>
0.0000

> <Gold.PLP.ligand.torsion>
0.8632

> <Gold.PLP.Chemscore.Hbond>
2.9192

> <Gold.PLP.Chemscore.CHOScore>
0.0000

> <Gold.PLP.Chemscore.Metal>
0.0000

> <Gold.Chemscore.Hbonds>
donor molecule, donor type, donor heavy atom, donor atom, acceptor molecule, acceptor atom, score
      L1  H     9    30       P1  7948  0.96
      L1  H    12    31       P1  7948  1.00
      P1  H  7989  7998       L1    16  0.99

> <Gold.PLP.Chemscore.Internal.Correction>
0.1058

> <Gold.Rescore>
     Score         DG    S(hbond)    S(metal)    S(lipo)     H(rot)  DE(clash)    DE(int)     intcor
     16.63     -17.55       1.96        0.00      80.62       1.53       0.00       0.91       ----

> <Gold.Chemscore.Fitness>
16.6306

> <Gold.Chemscore.DG>
-17.5468

> <Gold.Chemscore.ZeroCoef>
-5.4800

> <Gold.Chemscore.Hbond>
1.9635

> <Gold.Chemscore.Metal>
0.0000

> <Gold.Chemscore.Lipo>
80.6159

> <Gold.Chemscore.Internal_Hbond>
0.0000

> <Gold.Chemscore.DEClash>
0.0029

> <Gold.Chemscore.DEInternal>
0.9132

> <Gold.Chemscore.Rot>
1.5325

> <Gold.Chemscore.Internal.Correction>
   9.000000E+99

> <Gold.Chemscore.Hbonds>
donor molecule, donor type, donor heavy atom, donor atom, acceptor molecule, acceptor atom, score
      L1  H     9    30       P1  7948  0.22
      L1  H    12    31       P1  7948  0.65
      P1  H  7989  7998       L1    16  0.80

> <Gold.Chemscore.Hbond.Weighted>
-6.5581

> <Gold.Chemscore.Metal.Weighted>
-0.0000

> <Gold.Chemscore.Lipo.Weighted>
-9.4321

> <Gold.Chemscore.Internal_Hbond.Weighted>
0.0000

> <Gold.Chemscore.DEClash.Weighted>
0.0029

> <Gold.Chemscore.DEInternal.Weighted>
0.9132

> <Gold.Chemscore.Rot.Weighted>
3.9233

> <Gold.Chemscore.Internal.Correction.Weighted>
   9.000000E+99

> <Gold.Protein.RotatedTorsions>
[ 6907 6896 6895 6894 ] final  -35.22 input  -60.11 | X-H torsion
[ 7974 7965 7964 7962 ] final  138.00 input  175.53 | X-H torsion
[ 8008 7997 7996 7995 ] final -112.72 input   59.86 | X-H torsion
[ 10167 10162 10161 10158 ] final -170.11 input  -65.29 | X-H torsion
[ 10718 10713 10712 10709 ] final  -85.20 input   66.30 | X-H torsion
[ 10763 10752 10751 10750 ] final   -4.65 input  -60.55 | X-H torsion
[ 11005 11000 10999 10996 ] final -165.71 input  -57.11 | X-H torsion

> <Gold.Protein.ActiveResidues>
 VAL166  LYS551  ARG553  GLY616  TRP617  ASP618  TYR619  PRO620  LYS621  CYS622 
 ASP623  PHE694  ASN695  SER759  ASP760  ASP761  ALA762  ILE779  LEU786  VAL792 
 PHE793  MET794  SER795  GLU796  ALA797  LYS798  CYS799  TRP800  GLU811  SER814 

> <Gold.Protein.RotatedAtoms>
  151.0426  134.9618  159.8169 H   0  0  0  0  0  0  0  0  0  0  0  0  # atno 6907 bound_to 6896
  152.5367  134.2639  159.8955 H   0  0  0  0  0  0  0  0  0  0  0  0  # atno 6908 bound_to 6896
  151.2651  133.4240  159.2652 H   0  0  0  0  0  0  0  0  0  0  0  0  # atno 6909 bound_to 6896
  144.9414  139.4927  143.5570 H   0  0  0  0  0  0  0  0  0  0  0  0  # atno 7974 bound_to 7965
  155.0096  140.0393  157.2394 H   0  0  0  0  0  0  0  0  0  0  0  0  # atno 8008 bound_to 7997
  154.7472  140.2760  155.6300 H   0  0  0  0  0  0  0  0  0  0  0  0  # atno 8009 bound_to 7997
  156.2877  140.2654  156.2216 H   0  0  0  0  0  0  0  0  0  0  0  0  # atno 8010 bound_to 7997
  139.5882  144.1272  152.1601 H   0  0  0  0  0  0  0  0  0  0  0  0  # atno 10167 bound_to 10162
  155.9999  130.4723  150.4526 H   0  0  0  0  0  0  0  0  0  0  0  0  # atno 10718 bound_to 10713
  153.3878  135.7001  153.6517 H   0  0  0  0  0  0  0  0  0  0  0  0  # atno 10763 bound_to 10752
  153.5102  135.3633  155.2583 H   0  0  0  0  0  0  0  0  0  0  0  0  # atno 10764 bound_to 10752
  154.8699  135.4133  154.3189 H   0  0  0  0  0  0  0  0  0  0  0  0  # atno 10765 bound_to 10752
  140.5727  134.5222  157.5164 H   0  0  0  0  0  0  0  0  0  0  0  0  # atno 11005 bound_to 11000
  146.3287  139.8435  142.8886 LP  0  0  0  0  0  0  0  0  0  0  0  0  # atno 17320 bound_to 7965
  145.2986  141.0188  143.3622 LP  0  0  0  0  0  0  0  0  0  0  0  0  # atno 17321 bound_to 7965
  140.0840  144.5676  150.7102 LP  0  0  0  0  0  0  0  0  0  0  0  0  # atno 17342 bound_to 10162
  140.7150  143.2536  151.4463 LP  0  0  0  0  0  0  0  0  0  0  0  0  # atno 17343 bound_to 10162
  157.2558  131.0556  151.2351 LP  0  0  0  0  0  0  0  0  0  0  0  0  # atno 17370 bound_to 10713
  157.3484  130.7069  149.6425 LP  0  0  0  0  0  0  0  0  0  0  0  0  # atno 17371 bound_to 10713
  139.9354  134.7885  156.0817 LP  0  0  0  0  0  0  0  0  0  0  0  0  # atno 17394 bound_to 11000
  141.1046  133.6664  156.2834 LP  0  0  0  0  0  0  0  0  0  0  0  0  # atno 17395 bound_to 11000

$$$$
