AV-unprocessed.smi:1496|AV-procd|sdf|6057|dock2
  -GOLD-   22720 6173D 1   1.00000     0.00000
 Structure written by MMmdl.
 43 44  0  0  0  0  0  0  0  0  2 V2000
  149.9732  135.5868  156.7757 C   0  0  0  0  0  0  0  0  0  0  0  0
  149.9211  136.1721  155.3553 C   0  0  0  0  0  0  0  0  0  0  0  0
  150.0902  135.0289  154.3315 C   0  0  0  0  0  0  0  0  0  0  0  0
  148.5927  136.9387  155.1528 C   0  0  0  0  0  0  0  0  0  0  0  0
  148.6117  137.7484  153.9109 N   0  3  1  0  0  0  0  0  0  0  0  0
  147.3187  138.4330  153.6628 C   0  0  0  0  0  0  0  0  0  0  0  0
  146.4644  137.7090  152.6046 C   0  0  0  0  0  0  0  0  0  0  0  0
  145.0717  138.1385  152.6570 N   0  0  0  0  0  0  0  0  0  0  0  0
  144.0488  137.3698  153.0574 C   0  0  0  0  0  0  0  0  0  0  0  0
  144.1855  136.2037  153.4270 O   0  0  0  0  0  0  0  0  0  0  0  0
  142.8861  138.0427  153.0132 N   0  0  0  0  0  0  0  0  0  0  0  0
  141.5835  137.5801  153.3433 C   0  0  0  0  0  0  0  0  0  0  0  0
  140.4122  138.3725  153.2671 C   0  0  0  0  0  0  0  0  0  0  0  0
  139.1803  137.8027  153.6421 C   0  0  0  0  0  0  0  0  0  0  0  0
  139.1641  136.4659  154.0849 C   0  0  0  0  0  0  0  0  0  0  0  0
  140.2739  135.7032  154.1752 N   0  0  0  0  0  0  0  0  0  0  0  0
  141.4516  136.2566  153.8152 C   0  0  0  0  0  0  0  0  0  0  0  0
  149.7742  138.6679  153.9190 C   0  0  0  0  0  0  0  0  0  0  0  0
  151.0772  137.8766  154.0993 C   0  0  0  0  0  0  0  0  0  0  0  0
  151.0139  137.0920  155.2866 O   0  0  0  0  0  0  0  0  0  0  0  0
  149.1659  134.8726  156.9410 H   0  0  0  0  0  0  0  0  0  0  0  0
  149.8823  136.3689  157.5303 H   0  0  0  0  0  0  0  0  0  0  0  0
  150.9158  135.0682  156.9547 H   0  0  0  0  0  0  0  0  0  0  0  0
  149.3164  134.2718  154.4621 H   0  0  0  0  0  0  0  0  0  0  0  0
  151.0552  134.5349  154.4501 H   0  0  0  0  0  0  0  0  0  0  0  0
  150.0215  135.3762  153.3011 H   0  0  0  0  0  0  0  0  0  0  0  0
  147.7607  136.2333  155.1250 H   0  0  0  0  0  0  0  0  0  0  0  0
  148.4102  137.6051  155.9977 H   0  0  0  0  0  0  0  0  0  0  0  0
  146.7469  138.4656  154.5915 H   0  0  0  0  0  0  0  0  0  0  0  0
  147.5039  139.4704  153.3796 H   0  0  0  0  0  0  0  0  0  0  0  0
  146.8495  137.8728  151.5978 H   0  0  0  0  0  0  0  0  0  0  0  0
  146.4945  136.6327  152.7765 H   0  0  0  0  0  0  0  0  0  0  0  0
  144.8737  139.0877  152.3746 H   0  0  0  0  0  0  0  0  0  0  0  0
  142.9467  139.0197  152.7659 H   0  0  0  0  0  0  0  0  0  0  0  0
  140.4345  139.4022  152.9460 H   0  0  0  0  0  0  0  0  0  0  0  0
  138.2683  138.3794  153.5953 H   0  0  0  0  0  0  0  0  0  0  0  0
  138.2360  135.9989  154.3797 H   0  0  0  0  0  0  0  0  0  0  0  0
  142.3183  135.6179  153.9029 H   0  0  0  0  0  0  0  0  0  0  0  0
  149.8255  139.2338  152.9898 H   0  0  0  0  0  0  0  0  0  0  0  0
  149.6636  139.3927  154.7273 H   0  0  0  0  0  0  0  0  0  0  0  0
  151.2795  137.2510  153.2301 H   0  0  0  0  0  0  0  0  0  0  0  0
  151.9189  138.5641  154.1842 H   0  0  0  0  0  0  0  0  0  0  0  0
  148.7478  137.0983  153.1498 H   0  0  0  0  0  0  0  0  0  0  0  0
  1  2  1  0  0  0  0
  1 21  1  0  0  0  0
  1 22  1  0  0  0  0
  1 23  1  0  0  0  0
  2 20  1  0  0  0  0
  2  3  1  0  0  0  0
  2  4  1  0  0  0  0
  3 24  1  0  0  0  0
  3 25  1  0  0  0  0
  3 26  1  0  0  0  0
  4  5  1  0  0  0  0
  4 27  1  0  0  0  0
  4 28  1  0  0  0  0
  5  6  1  0  0  0  0
  5 18  1  0  0  0  0
  5 43  1  0  0  0  0
  6  7  1  0  0  0  0
  6 29  1  0  0  0  0
  6 30  1  0  0  0  0
  7  8  1  0  0  0  0
  7 31  1  0  0  0  0
  7 32  1  0  0  0  0
  8  9  1  0  0  0  0
  8 33  1  0  0  0  0
  9 10  2  0  0  0  0
  9 11  1  0  0  0  0
 11 12  1  0  0  0  0
 11 34  1  0  0  0  0
 12 17  1  0  0  0  0
 12 13  2  0  0  0  0
 13 14  1  0  0  0  0
 13 35  1  0  0  0  0
 14 15  2  0  0  0  0
 14 36  1  0  0  0  0
 15 16  1  0  0  0  0
 15 37  1  0  0  0  0
 16 17  2  0  0  0  0
 17 38  1  0  0  0  0
 18 19  1  0  0  0  0
 18 39  1  0  0  0  0
 18 40  1  0  0  0  0
 19 20  1  0  0  0  0
 19 41  1  0  0  0  0
 19 42  1  0  0  0  0
M  CHG  1   5   1
M  END
> <s_m_source_file>
AV-unprocessed.smi

> <i_m_source_file_index>
1496

> <i_lp_mmshare_version>
43012

> <i_f3d_flags>
0

> <s_epik_input>
W0NIM11DMShbQ0gzXSlbQ0gyXU4oW0NIMl1bQ0gyXU8xKVtDSDJdW0NIMl1bTkhdQyg9TylbTkhdYzJbY0hdW2NIXVtjSF1uW2NIXTI=

> <s_epik_cmdline>
J2VwaWtfcHl0aG9uJywgJy1waCcsICc3LjAnLCAnLXRuJywgJzgnLCAnLW1hJywgJzIwMCcsICctbWV0YWxfYmluZGluZycsICctaW1hZScsICc8aW5maWxlLm1hZT4nLCAnLW9tYWUnLCAnPG91dGZpbGUubWFlPic=

> <r_epik_Ionization_Penalty>
0.606681

> <r_epik_Ionization_Penalty_Charging>
0.602531

> <r_epik_Ionization_Penalty_Neutral>
0.00415082

> <r_epik_State_Penalty>
0.607427

> <r_epik_Charging_Adjusted_Penalty>
1.20996

> <i_epik_Tot_Q>
1

> <i_epik_Tot_abs_Q>
1

> <r_epik_Metal_State_Penalty>
0.604583

> <b_epik_Metal_Only>
0

> <s_lp_Force_Field>
OPLS_2005

> <r_lp_Energy>
21.2927

> <b_lp_Chiralities_Consistent>
1

> <s_lp_Variant>
AV-unprocessed.smi:1496-3

> <Gold.Version>
5.8.1

> <Gold.Id.Protein>
6NUR|6NUR_protein|mol2

> <Gold.PLP.Fitness>
44.8476

> <Gold.PLP.PLP>
-31.5933

> <Gold.PLP.part.hbond>
-4.4974

> <Gold.PLP.part.metal>
0.0000

> <Gold.PLP.part.buried>
-2.1181

> <Gold.PLP.part.nonpolar>
-24.8275

> <Gold.PLP.part.repulsive>
0.2837

> <Gold.PLP.ligand.clash>
0.0000

> <Gold.PLP.ligand.torsion>
0.7296

> <Gold.PLP.Chemscore.Hbond>
4.8960

> <Gold.PLP.Chemscore.CHOScore>
0.0000

> <Gold.PLP.Chemscore.Metal>
0.0000

> <Gold.Chemscore.Hbonds>
donor molecule, donor type, donor heavy atom, donor atom, acceptor molecule, acceptor atom, score
      L1  H     5    43       P1  7948  2.00
      L1  H     8    33       P1 10175  0.91
      L1  H    11    34       P1 10175  1.00
      P1  H 11000 11005       L1    16  1.00

> <Gold.PLP.Chemscore.Internal.Correction>
0.0255

> <Gold.Rescore>
     Score         DG    S(hbond)    S(metal)    S(lipo)     H(rot)  DE(clash)    DE(int)     intcor
     20.27     -22.61       3.78        0.00      71.24       1.50       0.12       2.22       ----

> <Gold.Chemscore.Fitness>
20.2675

> <Gold.Chemscore.DG>
-22.6108

> <Gold.Chemscore.ZeroCoef>
-5.4800

> <Gold.Chemscore.Hbond>
3.7839

> <Gold.Chemscore.Metal>
0.0000

> <Gold.Chemscore.Lipo>
71.2407

> <Gold.Chemscore.Internal_Hbond>
0.0000

> <Gold.Chemscore.DEClash>
0.1183

> <Gold.Chemscore.DEInternal>
2.2250

> <Gold.Chemscore.Rot>
1.5010

> <Gold.Chemscore.Internal.Correction>
   9.000000E+99

> <Gold.Chemscore.Hbonds>
donor molecule, donor type, donor heavy atom, donor atom, acceptor molecule, acceptor atom, score
      L1  H     5    43       P1  7948  0.95
      L1  H     8    33       P1 10175  0.88
      L1  H    11    34       P1 10175  0.98
      P1  H 11000 11005       L1    16  0.65

> <Gold.Chemscore.Hbond.Weighted>
-12.6383

> <Gold.Chemscore.Metal.Weighted>
-0.0000

> <Gold.Chemscore.Lipo.Weighted>
-8.3352

> <Gold.Chemscore.Internal_Hbond.Weighted>
0.0000

> <Gold.Chemscore.DEClash.Weighted>
0.1183

> <Gold.Chemscore.DEInternal.Weighted>
2.2250

> <Gold.Chemscore.Rot.Weighted>
3.8426

> <Gold.Chemscore.Internal.Correction.Weighted>
   9.000000E+99

> <Gold.Protein.RotatedTorsions>
[ 6907 6896 6895 6894 ] final  -25.59 input  -60.11 | X-H torsion
[ 7974 7965 7964 7962 ] final  174.72 input  175.53 | X-H torsion
[ 8008 7997 7996 7995 ] final   23.14 input   59.86 | X-H torsion
[ 10167 10162 10161 10158 ] final   94.74 input  -65.29 | X-H torsion
[ 10718 10713 10712 10709 ] final  100.92 input   66.30 | X-H torsion
[ 10763 10752 10751 10750 ] final  -61.77 input  -60.55 | X-H torsion
[ 11005 11000 10999 10996 ] final   49.11 input  -57.11 | X-H torsion

> <Gold.Protein.ActiveResidues>
 VAL166  LYS551  ARG553  GLY616  TRP617  ASP618  TYR619  PRO620  LYS621  CYS622 
 ASP623  PHE694  ASN695  SER759  ASP760  ASP761  ALA762  ILE779  LEU786  VAL792 
 PHE793  MET794  SER795  GLU796  ALA797  LYS798  CYS799  TRP800  GLU811  SER814 

> <Gold.Protein.RotatedAtoms>
  151.1730  135.0326  159.8759 H   0  0  0  0  0  0  0  0  0  0  0  0  # atno 6907 bound_to 6896
  152.5448  134.1149  159.8384 H   0  0  0  0  0  0  0  0  0  0  0  0  # atno 6908 bound_to 6896
  151.1257  133.5026  159.2633 H   0  0  0  0  0  0  0  0  0  0  0  0  # atno 6909 bound_to 6896
  144.7216  139.9839  143.6439 H   0  0  0  0  0  0  0  0  0  0  0  0  # atno 7974 bound_to 7965
  154.9764  140.3096  155.4965 H   0  0  0  0  0  0  0  0  0  0  0  0  # atno 8008 bound_to 7997
  156.2959  140.2274  156.4800 H   0  0  0  0  0  0  0  0  0  0  0  0  # atno 8009 bound_to 7997
  154.7829  140.0445  157.1130 H   0  0  0  0  0  0  0  0  0  0  0  0  # atno 8010 bound_to 7997
  139.8055  144.6796  150.9709 H   0  0  0  0  0  0  0  0  0  0  0  0  # atno 10167 bound_to 10162
  157.6842  131.0712  150.5174 H   0  0  0  0  0  0  0  0  0  0  0  0  # atno 10718 bound_to 10713
  154.2897  135.6256  153.5380 H   0  0  0  0  0  0  0  0  0  0  0  0  # atno 10763 bound_to 10752
  152.9854  135.5653  154.5403 H   0  0  0  0  0  0  0  0  0  0  0  0  # atno 10764 bound_to 10752
  154.5012  135.2872  155.1395 H   0  0  0  0  0  0  0  0  0  0  0  0  # atno 10765 bound_to 10752
  140.1131  134.4928  155.8660 H   0  0  0  0  0  0  0  0  0  0  0  0  # atno 11005 bound_to 11000
  146.0466  139.3471  143.0665 LP  0  0  0  0  0  0  0  0  0  0  0  0  # atno 17320 bound_to 7965
  145.8268  140.9651  143.0870 LP  0  0  0  0  0  0  0  0  0  0  0  0  # atno 17321 bound_to 7965
  140.7819  143.4238  151.0800 LP  0  0  0  0  0  0  0  0  0  0  0  0  # atno 17342 bound_to 10162
  139.7908  143.8222  152.3151 LP  0  0  0  0  0  0  0  0  0  0  0  0  # atno 17343 bound_to 10162
  156.5489  130.4226  149.6117 LP  0  0  0  0  0  0  0  0  0  0  0  0  # atno 17370 bound_to 10713
  156.2920  130.7129  151.1980 LP  0  0  0  0  0  0  0  0  0  0  0  0  # atno 17371 bound_to 10713
  141.2135  133.6734  156.6744 LP  0  0  0  0  0  0  0  0  0  0  0  0  # atno 17394 bound_to 11000
  140.3064  134.8122  157.4140 LP  0  0  0  0  0  0  0  0  0  0  0  0  # atno 17395 bound_to 11000

$$$$
