#       Name:                AV-unprocessed.smi:275
#       Creating user name   scv26
#       Creation time:       Thu Mar 26 21:31:35 2020


#       File generated by GOLD software.
#

@<TRIPOS>MOLECULE
AV-unprocessed.smi:275
    73    77     1
SMALL
NO_CHARGES


@<TRIPOS>ATOM
      1 ****        -4.5925  -1.6022   0.1730 C.3            1 S1                 0.0000
      2 ****        -3.8690  -0.9243  -1.0025 C.3            1 S1                 0.0000
      3 ****        -3.3293  -2.0298  -1.9305 C.3            1 S1                 0.0000
      4 ****        -2.7454   0.0505  -0.5613 C.3            1 S1                 0.0000
      5 ****        -2.3105   0.7857  -1.7529 N.3            1 S1                 0.0000
      6 ****        -0.8971   0.8905  -1.9698 C.ar           1 S1                 0.0000
      7 ****        -0.3783   2.0745  -2.3960 N.ar           1 S1                 0.0000
      8 ****         0.9316   2.2311  -2.6013 C.ar           1 S1                 0.0000
      9 ****         1.9081   1.3376  -2.4554 N.ar           1 S1                 0.0000
     10 ****         1.4082   0.1324  -2.0650 C.ar           1 S1                 0.0000
     11 ****         0.0392  -0.1766  -1.8153 C.ar           1 S1                 0.0000
     12 ****        -0.0723  -1.5152  -1.4550 N.2            1 S1                 0.0000
     13 ****         1.1522  -1.9628  -1.4688 C.2            1 S1                 0.0000
     14 ****         2.1076  -1.0317  -1.8001 N.pl3          1 S1                 0.0000
     15 ****         3.5397  -1.2513  -1.8757 C.3            1 S1                 0.0000
     16 ****         4.2232  -1.4991  -0.5024 C.3            1 S1                 0.0000
     17 ****         5.7138  -1.8445  -0.7380 C.3            1 S1                 0.0000
     18 ****         5.8512  -3.0451  -1.4702 O.3            1 S1                 0.0000
     19 ****         4.0546  -0.3047   0.4867 C.3            1 S1                 0.0000
     20 ****         4.9043  -0.3790   1.7480 C.3            1 S1                 0.0000
     21 ****         4.1834   0.5777   2.6844 C.3            1 S1                 0.0000
     22 ****         2.8135   0.3097   2.4426 O.3            1 S1                 0.0000
     23 ****         2.6500  -0.1343   1.0991 C.3            1 S1                 0.0000
     24 ****        -3.0064   1.9932  -1.3233 C.3            1 S1                 0.0000
     25 ****        -2.9871   1.4402   0.1091 C.3            1 S1                 0.0000
     26 ****        -1.8308   1.9931   0.9789 C.3            1 S1                 0.0000
     27 ****        -1.7686   1.3878   2.3881 C.3            1 S1                 0.0000
     28 ****        -3.0723   1.6518   3.1443 C.3            1 S1                 0.0000
     29 ****        -4.2645   1.1237   2.3440 C.3            1 S1                 0.0000
     30 ****        -4.2834   1.6879   0.9075 C.3            1 S1                 0.0000
     31 ****        -3.8851  -1.9901   0.9065 H              1 S1                 0.0000
     32 ****        -5.2012  -2.4397  -0.1693 H              1 S1                 0.0000
     33 ****        -5.2794  -0.9262   0.6755 H              1 S1                 0.0000
     34 ****        -4.6263  -0.3762  -1.5654 H              1 S1                 0.0000
     35 ****        -2.6047  -2.6601  -1.4147 H              1 S1                 0.0000
     36 ****        -2.8438  -1.6183  -2.8155 H              1 S1                 0.0000
     37 ****        -4.1337  -2.6762  -2.2827 H              1 S1                 0.0000
     38 ****        -1.9363  -0.4661  -0.0468 H              1 S1                 0.0000
     39 ****         1.2405   3.2143  -2.9242 H              1 S1                 0.0000
     40 ****         1.3958  -2.9857  -1.2213 H              1 S1                 0.0000
     41 ****         3.6930  -2.1014  -2.5407 H              1 S1                 0.0000
     42 ****         4.0002  -0.3955  -2.3701 H              1 S1                 0.0000
     43 ****         3.7628  -2.3745  -0.0414 H              1 S1                 0.0000
     44 ****         6.2212  -1.0371  -1.2672 H              1 S1                 0.0000
     45 ****         6.2447  -1.9963   0.2005 H              1 S1                 0.0000
     46 ****         6.7721  -3.2277  -1.5794 H              1 S1                 0.0000
     47 ****         4.3179   0.6202  -0.0295 H              1 S1                 0.0000
     48 ****         4.8891  -1.3873   2.1643 H              1 S1                 0.0000
     49 ****         5.9424  -0.0885   1.5842 H              1 S1                 0.0000
     50 ****         4.4451   0.4253   3.7315 H              1 S1                 0.0000
     51 ****         4.4002   1.6139   2.4207 H              1 S1                 0.0000
     52 ****         2.0539   0.5914   0.5474 H              1 S1                 0.0000
     53 ****         2.1009  -1.0758   1.1215 H              1 S1                 0.0000
     54 ****        -2.4881   2.9442  -1.4454 H              1 S1                 0.0000
     55 ****        -4.0097   2.0388  -1.7494 H              1 S1                 0.0000
     56 ****        -0.8656   1.8261   0.5030 H              1 S1                 0.0000
     57 ****        -1.9204   3.0769   1.0642 H              1 S1                 0.0000
     58 ****        -1.5864   0.3146   2.3215 H              1 S1                 0.0000
     59 ****        -0.9282   1.8116   2.9384 H              1 S1                 0.0000
     60 ****        -3.0406   1.1818   4.1277 H              1 S1                 0.0000
     61 ****        -3.1886   2.7230   3.3135 H              1 S1                 0.0000
     62 ****        -4.2072   0.0377   2.3313 H              1 S1                 0.0000
     63 ****        -5.1948   1.3759   2.8537 H              1 S1                 0.0000
     64 ****        -4.4647   2.7618   0.9681 H              1 S1                 0.0000
     65 ****        -5.1453   1.2952   0.3695 H              1 S1                 0.0000
     66 ****        -2.5110   0.4079  -2.6569 LP             1 S1                 0.0000
     67 ****        -0.9933   2.8460  -2.5594 LP             1 S1                 0.0000
     68 ****         2.8777   1.5262  -2.6115 LP             1 S1                 0.0000
     69 ****        -0.9060  -2.0216  -1.2345 LP             1 S1                 0.0000
     70 ****         5.4190  -2.9445  -2.3664 LP             1 S1                 0.0000
     71 ****         5.4156  -3.7951  -0.9724 LP             1 S1                 0.0000
     72 ****         2.2797   1.1431   2.5861 LP             1 S1                 0.0000
     73 ****         2.4965  -0.4013   3.0702 LP             1 S1                 0.0000
@<TRIPOS>BOND
    1    1    2 1     
    2    1   31 1     
    3    1   32 1     
    4    1   33 1     
    5    2    3 1     
    6    2    4 1     
    7    2   34 1     
    8    3   35 1     
    9    3   36 1     
   10    3   37 1     
   11    4   25 1     
   12    4    5 1     
   13    4   38 1     
   14    5    6 1     
   15    5   24 1     
   16    6   11 ar    
   17    6    7 ar    
   18    7    8 ar    
   19    8    9 ar    
   20    8   39 1     
   21    9   10 ar    
   22   10   14 1     
   23   10   11 ar    
   24   11   12 1     
   25   12   13 2     
   26   13   14 1     
   27   13   40 1     
   28   14   15 1     
   29   15   16 1     
   30   15   41 1     
   31   15   42 1     
   32   16   17 1     
   33   16   19 1     
   34   16   43 1     
   35   17   18 1     
   36   17   44 1     
   37   17   45 1     
   38   18   46 1     
   39   19   23 1     
   40   19   20 1     
   41   19   47 1     
   42   20   21 1     
   43   20   48 1     
   44   20   49 1     
   45   21   22 1     
   46   21   50 1     
   47   21   51 1     
   48   22   23 1     
   49   23   52 1     
   50   23   53 1     
   51   24   25 1     
   52   24   54 1     
   53   24   55 1     
   54   25   30 1     
   55   25   26 1     
   56   26   27 1     
   57   26   56 1     
   58   26   57 1     
   59   27   28 1     
   60   27   58 1     
   61   27   59 1     
   62   28   29 1     
   63   28   60 1     
   64   28   61 1     
   65   29   30 1     
   66   29   62 1     
   67   29   63 1     
   68   30   64 1     
   69   30   65 1     
   70    5   66 1     
   71    7   67 1     
   72    9   68 1     
   73   12   69 1     
   74   18   70 1     
   75   18   71 1     
   76   22   72 1     
   77   22   73 1     
@<TRIPOS>SUBSTRUCTURE
      1 S1             1
@<TRIPOS>SET
LONE_PAIRS      STATIC     ATOMS    <user>   **** ""
8 66 67 68 69 70 71 72 73
DONOR_HYDROGENS      STATIC     ATOMS    <user>   **** ""
1 46
ATOM$BLUE        STATIC     ATOMS    COLORGROUP SYSTEM
8 66 67 68 69 70 71 72 73
ATOM$RED        STATIC     ATOMS    COLORGROUP SYSTEM
1 46
