AV-unprocessed.smi:754|AV-procd|sdf|3609|dock2
  -GOLD-   22720 1 03D 1   1.00000     0.00000
 Structure written by MMmdl.
 37 38  0  0  0  0  0  0  0  0  1 V2000
  147.8810  141.5826  154.1910 C   0  0  0  0  0  0  0  0  0  0  0  0
  148.9810  140.5261  154.3134 C   0  0  0  0  0  0  0  0  0  0  0  0
  150.1315  141.1274  154.8827 O   0  0  0  0  0  0  0  0  0  0  0  0
  149.9922  141.3807  156.2718 C   0  0  2  0  0  0  0  0  0  0  0  0
  150.9786  142.4090  156.8339 C   0  0  0  0  0  0  0  0  0  0  0  0
  151.0513  141.5045  158.0649 C   0  0  2  0  0  0  0  0  0  0  0  0
  152.3947  141.4260  158.6246 N   0  0  0  0  0  0  0  0  0  0  0  0
  152.9025  142.3046  159.5017 C   0  0  0  0  0  0  0  0  0  0  0  0
  152.3193  143.3310  159.8489 O   0  0  0  0  0  0  0  0  0  0  0  0
  154.2648  141.9568  160.1011 C   0  0  0  0  0  0  0  0  0  0  0  0
  154.5130  140.5295  160.0132 N   0  0  0  0  0  0  0  0  0  0  0  0
  154.7301  139.6168  160.9626 C   0  0  0  0  0  0  0  0  0  0  0  0
  154.9453  138.4163  160.4471 N   0  0  0  0  0  0  0  0  0  0  0  0
  154.8457  138.6373  159.0835 N   0  0  0  0  0  0  0  0  0  0  0  0
  154.5893  139.8891  158.8198 N   0  0  0  0  0  0  0  0  0  0  0  0
  150.6653  140.3041  157.1581 C   0  0  0  0  0  0  0  0  0  0  0  0
  149.7211  139.2760  157.7808 C   0  0  0  0  0  0  0  0  0  0  0  0
  151.8168  139.5156  156.5071 C   0  0  0  0  0  0  0  0  0  0  0  0
  146.9783  141.1564  153.7532 H   0  0  0  0  0  0  0  0  0  0  0  0
  148.2023  142.4099  153.5578 H   0  0  0  0  0  0  0  0  0  0  0  0
  147.6194  141.9896  155.1681 H   0  0  0  0  0  0  0  0  0  0  0  0
  148.6347  139.7006  154.9365 H   0  0  0  0  0  0  0  0  0  0  0  0
  149.2179  140.1204  153.3289 H   0  0  0  0  0  0  0  0  0  0  0  0
  148.9602  141.5773  156.5725 H   0  0  0  0  0  0  0  0  0  0  0  0
  151.9098  142.4670  156.2674 H   0  0  0  0  0  0  0  0  0  0  0  0
  150.5524  143.3959  157.0159 H   0  0  0  0  0  0  0  0  0  0  0  0
  150.2764  141.7537  158.7940 H   0  0  0  0  0  0  0  0  0  0  0  0
  152.9443  140.6138  158.3847 H   0  0  0  0  0  0  0  0  0  0  0  0
  155.0547  142.4892  159.5697 H   0  0  0  0  0  0  0  0  0  0  0  0
  154.3101  142.2658  161.1465 H   0  0  0  0  0  0  0  0  0  0  0  0
  154.7405  139.8318  162.0209 H   0  0  0  0  0  0  0  0  0  0  0  0
  150.2286  138.6712  158.5329 H   0  0  0  0  0  0  0  0  0  0  0  0
  149.3167  138.5980  157.0286 H   0  0  0  0  0  0  0  0  0  0  0  0
  148.8742  139.7558  158.2720 H   0  0  0  0  0  0  0  0  0  0  0  0
  152.3456  138.8994  157.2354 H   0  0  0  0  0  0  0  0  0  0  0  0
  152.5557  140.1711  156.0460 H   0  0  0  0  0  0  0  0  0  0  0  0
  151.4506  138.8497  155.7254 H   0  0  0  0  0  0  0  0  0  0  0  0
  1  2  1  0  0  0  0
  1 19  1  0  0  0  0
  1 20  1  0  0  0  0
  1 21  1  0  0  0  0
  2  3  1  0  0  0  0
  2 22  1  0  0  0  0
  2 23  1  0  0  0  0
  3  4  1  0  0  0  0
  4 16  1  0  0  0  0
  4  5  1  0  0  0  0
  4 24  1  0  0  0  0
  5  6  1  0  0  0  0
  5 25  1  0  0  0  0
  5 26  1  0  0  0  0
  6  7  1  0  0  0  0
  6 16  1  0  0  0  0
  6 27  1  0  0  0  0
  7  8  1  0  0  0  0
  7 28  1  0  0  0  0
  8  9  2  0  0  0  0
  8 10  1  0  0  0  0
 10 11  1  0  0  0  0
 10 29  1  0  0  0  0
 10 30  1  0  0  0  0
 11 15  1  0  0  0  0
 11 12  1  0  0  0  0
 12 13  2  0  0  0  0
 12 31  1  0  0  0  0
 13 14  1  0  0  0  0
 14 15  2  0  0  0  0
 16 17  1  0  0  0  0
 16 18  1  0  0  0  0
 17 32  1  0  0  0  0
 17 33  1  0  0  0  0
 17 34  1  0  0  0  0
 18 35  1  0  0  0  0
 18 36  1  0  0  0  0
 18 37  1  0  0  0  0
M  END
> <s_m_source_file>
AV-unprocessed.smi

> <i_m_source_file_index>
754

> <i_lp_mmshare_version>
43012

> <i_f3d_flags>
0

> <s_epik_input>
W0NIM11bQ0gyXU9bQ0BASF0oQzEoW0NIM10pW0NIM10pW0NIMl1bQ0BIXTFbTkhdQyg9TylbQ0gyXW4yW2NIXW5ubjI=

> <s_epik_cmdline>
J2VwaWtfcHl0aG9uJywgJy1waCcsICc3LjAnLCAnLXRuJywgJzgnLCAnLW1hJywgJzIwMCcsICctbWV0YWxfYmluZGluZycsICctaW1hZScsICc8aW5maWxlLm1hZT4nLCAnLW9tYWUnLCAnPG91dGZpbGUubWFlPic=

> <r_lp_tautomer_probability>
1

> <r_epik_Ionization_Penalty>
8.28422e-07

> <r_epik_Ionization_Penalty_Charging>
0

> <r_epik_Ionization_Penalty_Neutral>
8.28422e-07

> <r_epik_State_Penalty>
-0

> <r_epik_Charging_Adjusted_Penalty>
0

> <i_epik_Tot_Q>
0

> <i_epik_Tot_abs_Q>
0

> <r_epik_Metal_State_Penalty>
-0

> <b_epik_Metal_Only>
0

> <s_lp_Force_Field>
OPLS_2005

> <r_lp_Energy>
20.4803

> <b_lp_Chiralities_Consistent>
1

> <s_lp_Variant>
AV-unprocessed.smi:754-3

> <Gold.Version>
5.8.1

> <Gold.Id.Protein>
6NUR|6NUR_protein|mol2

> <Gold.PLP.Fitness>
34.3872

> <Gold.PLP.PLP>
-30.9881

> <Gold.PLP.part.hbond>
-2.0000

> <Gold.PLP.part.metal>
0.0000

> <Gold.PLP.part.buried>
-4.4640

> <Gold.PLP.part.nonpolar>
-24.8271

> <Gold.PLP.part.repulsive>
0.2161

> <Gold.PLP.ligand.clash>
0.0000

> <Gold.PLP.ligand.torsion>
0.9233

> <Gold.PLP.Chemscore.Hbond>
1.6344

> <Gold.PLP.Chemscore.CHOScore>
0.0000

> <Gold.PLP.Chemscore.Metal>
0.0000

> <Gold.Chemscore.Hbonds>
donor molecule, donor type, donor heavy atom, donor atom, acceptor molecule, acceptor atom, score
      P1  H  7989  7998       L1     3  0.61
      P1  H  7997  8009       L1    15  1.00

> <Gold.PLP.Chemscore.Internal.Correction>
0.3424

> <Gold.Rescore>
     Score         DG    S(hbond)    S(metal)    S(lipo)     H(rot)  DE(clash)    DE(int)     intcor
      9.64     -12.17       1.91        0.00      56.49       2.46       0.19       2.35       ----

> <Gold.Chemscore.Fitness>
9.6354

> <Gold.Chemscore.DG>
-12.1743

> <Gold.Chemscore.ZeroCoef>
-5.4800

> <Gold.Chemscore.Hbond>
1.9123

> <Gold.Chemscore.Metal>
0.0000

> <Gold.Chemscore.Lipo>
56.4854

> <Gold.Chemscore.Internal_Hbond>
0.0000

> <Gold.Chemscore.DEClash>
0.1926

> <Gold.Chemscore.DEInternal>
2.3463

> <Gold.Chemscore.Rot>
2.4616

> <Gold.Chemscore.Internal.Correction>
   9.000000E+99

> <Gold.Chemscore.Hbonds>
donor molecule, donor type, donor heavy atom, donor atom, acceptor molecule, acceptor atom, score
      P1  H  7989  7998       L1     3  0.31
      P1  H  7997  8009       L1    15  0.33

> <Gold.Chemscore.Hbond.Weighted>
-6.3871

> <Gold.Chemscore.Metal.Weighted>
-0.0000

> <Gold.Chemscore.Lipo.Weighted>
-6.6088

> <Gold.Chemscore.Internal_Hbond.Weighted>
0.0000

> <Gold.Chemscore.DEClash.Weighted>
0.1926

> <Gold.Chemscore.DEInternal.Weighted>
2.3463

> <Gold.Chemscore.Rot.Weighted>
6.3016

> <Gold.Chemscore.Internal.Correction.Weighted>
   9.000000E+99

> <Gold.Protein.RotatedTorsions>
[ 6907 6896 6895 6894 ] final  171.77 input  -60.11 | X-H torsion
[ 7974 7965 7964 7962 ] final   28.46 input  175.53 | X-H torsion
[ 8008 7997 7996 7995 ] final  118.63 input   59.86 | X-H torsion
[ 10167 10162 10161 10158 ] final  -15.45 input  -65.29 | X-H torsion
[ 10718 10713 10712 10709 ] final -134.76 input   66.30 | X-H torsion
[ 10763 10752 10751 10750 ] final  -16.84 input  -60.55 | X-H torsion
[ 11005 11000 10999 10996 ] final -167.78 input  -57.11 | X-H torsion

> <Gold.Protein.ActiveResidues>
 VAL166  LYS551  ARG553  GLY616  TRP617  ASP618  TYR619  PRO620  LYS621  CYS622 
 ASP623  PHE694  ASN695  SER759  ASP760  ASP761  ALA762  ILE779  LEU786  VAL792 
 PHE793  MET794  SER795  GLU796  ALA797  LYS798  CYS799  TRP800  GLU811  SER814 

> <Gold.Protein.RotatedAtoms>
  151.7949  133.3363  159.3509 H   0  0  0  0  0  0  0  0  0  0  0  0  # atno 6907 bound_to 6896
  150.7379  134.5808  159.5947 H   0  0  0  0  0  0  0  0  0  0  0  0  # atno 6908 bound_to 6896
  152.3184  134.7412  160.0371 H   0  0  0  0  0  0  0  0  0  0  0  0  # atno 6909 bound_to 6896
  146.1727  139.7053  142.8956 H   0  0  0  0  0  0  0  0  0  0  0  0  # atno 7974 bound_to 7965
  156.2556  140.2870  156.0865 H   0  0  0  0  0  0  0  0  0  0  0  0  # atno 8008 bound_to 7997
  155.1509  140.0397  157.2838 H   0  0  0  0  0  0  0  0  0  0  0  0  # atno 8009 bound_to 7997
  154.6461  140.2534  155.7273 H   0  0  0  0  0  0  0  0  0  0  0  0  # atno 8010 bound_to 7997
  140.7218  143.5217  150.9625 H   0  0  0  0  0  0  0  0  0  0  0  0  # atno 10167 bound_to 10162
  156.2589  130.7198  151.1125 H   0  0  0  0  0  0  0  0  0  0  0  0  # atno 10718 bound_to 10713
  153.5646  135.7009  153.5532 H   0  0  0  0  0  0  0  0  0  0  0  0  # atno 10763 bound_to 10752
  153.3398  135.4024  155.1563 H   0  0  0  0  0  0  0  0  0  0  0  0  # atno 10764 bound_to 10752
  154.8642  135.3739  154.5166 H   0  0  0  0  0  0  0  0  0  0  0  0  # atno 10765 bound_to 10752
  140.5494  134.5443  157.5119 H   0  0  0  0  0  0  0  0  0  0  0  0  # atno 11005 bound_to 11000
  145.4295  141.0414  143.2918 LP  0  0  0  0  0  0  0  0  0  0  0  0  # atno 17320 bound_to 7965
  144.8188  139.5828  143.6996 LP  0  0  0  0  0  0  0  0  0  0  0  0  # atno 17321 bound_to 7965
  139.8935  143.6924  152.3142 LP  0  0  0  0  0  0  0  0  0  0  0  0  # atno 17342 bound_to 10162
  139.7248  144.7595  151.0896 LP  0  0  0  0  0  0  0  0  0  0  0  0  # atno 17343 bound_to 10162
  157.7243  131.0660  150.6000 LP  0  0  0  0  0  0  0  0  0  0  0  0  # atno 17370 bound_to 10713
  156.6086  130.4374  149.5868 LP  0  0  0  0  0  0  0  0  0  0  0  0  # atno 17371 bound_to 10713
  139.9463  134.7696  156.0555 LP  0  0  0  0  0  0  0  0  0  0  0  0  # atno 17394 bound_to 11000
  141.1180  133.6621  156.3144 LP  0  0  0  0  0  0  0  0  0  0  0  0  # atno 17395 bound_to 11000

$$$$
