AV-unprocessed.smi:1314|AV-procd|sdf|5453|dock2
  -GOLD-   22720 5 23D 1   1.00000     0.00000
 Structure written by MMmdl.
 41 42  0  0  0  0  0  0  0  0  1 V2000
  148.5683  142.3291  156.4294 C   0  0  0  0  0  0  0  0  0  0  0  0
  149.2966  141.2256  155.7170 C   0  0  0  0  0  0  0  0  0  0  0  0
  149.5814  141.3525  154.4317 N   0  0  0  0  0  0  0  0  0  0  0  0
  150.2533  140.1804  154.0711 O   0  0  0  0  0  0  0  0  0  0  0  0
  150.3464  139.3843  155.1666 C   0  0  0  0  0  0  0  0  0  0  0  0
  151.0404  138.0765  154.9885 C   0  0  0  0  0  0  0  0  0  0  0  0
  149.7562  139.9850  156.2445 C   0  0  0  0  0  0  0  0  0  0  0  0
  149.6220  139.4712  157.6551 C   0  0  0  0  0  0  0  0  0  0  0  0
  151.0034  139.1387  158.2227 C   0  0  0  0  0  0  0  0  0  0  0  0
  151.9896  139.1429  157.4858 O   0  0  0  0  0  0  0  0  0  0  0  0
  151.0574  138.8490  159.5321 N   0  0  0  0  0  0  0  0  0  0  0  0
  152.2604  138.4833  160.2739 C   0  0  0  0  0  0  0  0  0  0  0  0
  153.2965  139.6187  160.2899 C   0  0  0  0  0  0  0  0  0  0  0  0
  152.9648  140.8494  161.5841 S   0  0  0  0  0  0  0  0  0  0  0  0
  152.0443  142.0919  160.6320 C   0  0  0  0  0  0  0  0  0  0  0  0
  152.8410  142.6215  159.4404 C   0  0  0  0  0  0  0  0  0  0  0  0
  152.1656  143.9491  159.0888 C   0  0  0  0  0  0  0  0  0  0  0  0
  151.5444  144.4688  160.3945 C   0  0  0  0  0  0  0  0  0  0  0  0
  151.7224  143.3551  161.4353 C   0  0  0  0  0  0  0  0  0  0  0  0
  149.0362  142.5485  157.3891 H   0  0  0  0  0  0  0  0  0  0  0  0
  147.5322  142.0504  156.6211 H   0  0  0  0  0  0  0  0  0  0  0  0
  148.5628  143.2514  155.8474 H   0  0  0  0  0  0  0  0  0  0  0  0
  151.7093  137.8769  155.8258 H   0  0  0  0  0  0  0  0  0  0  0  0
  151.6350  138.0689  154.0746 H   0  0  0  0  0  0  0  0  0  0  0  0
  150.3184  137.2622  154.9300 H   0  0  0  0  0  0  0  0  0  0  0  0
  149.1538  140.2114  158.3047 H   0  0  0  0  0  0  0  0  0  0  0  0
  148.9806  138.5895  157.6921 H   0  0  0  0  0  0  0  0  0  0  0  0
  150.1941  138.8756  160.0550 H   0  0  0  0  0  0  0  0  0  0  0  0
  151.9528  138.2684  161.2975 H   0  0  0  0  0  0  0  0  0  0  0  0
  152.7045  137.5620  159.8930 H   0  0  0  0  0  0  0  0  0  0  0  0
  154.3024  139.2176  160.4193 H   0  0  0  0  0  0  0  0  0  0  0  0
  153.2812  140.1287  159.3268 H   0  0  0  0  0  0  0  0  0  0  0  0
  151.1178  141.6455  160.2681 H   0  0  0  0  0  0  0  0  0  0  0  0
  153.8747  142.8077  159.7359 H   0  0  0  0  0  0  0  0  0  0  0  0
  152.8560  141.9248  158.6018 H   0  0  0  0  0  0  0  0  0  0  0  0
  152.8686  144.6602  158.6538 H   0  0  0  0  0  0  0  0  0  0  0  0
  151.3783  143.7773  158.3537 H   0  0  0  0  0  0  0  0  0  0  0  0
  152.0242  145.3896  160.7276 H   0  0  0  0  0  0  0  0  0  0  0  0
  150.4871  144.6895  160.2429 H   0  0  0  0  0  0  0  0  0  0  0  0
  150.8404  143.2351  162.0650 H   0  0  0  0  0  0  0  0  0  0  0  0
  152.5607  143.6031  162.0878 H   0  0  0  0  0  0  0  0  0  0  0  0
  1  2  1  0  0  0  0
  1 20  1  0  0  0  0
  1 21  1  0  0  0  0
  1 22  1  0  0  0  0
  2  7  1  0  0  0  0
  2  3  2  0  0  0  0
  3  4  1  0  0  0  0
  4  5  1  0  0  0  0
  5  6  1  0  0  0  0
  5  7  2  0  0  0  0
  6 23  1  0  0  0  0
  6 24  1  0  0  0  0
  6 25  1  0  0  0  0
  7  8  1  0  0  0  0
  8  9  1  0  0  0  0
  8 26  1  0  0  0  0
  8 27  1  0  0  0  0
  9 10  2  0  0  0  0
  9 11  1  0  0  0  0
 11 12  1  0  0  0  0
 11 28  1  0  0  0  0
 12 13  1  0  0  0  0
 12 29  1  0  0  0  0
 12 30  1  0  0  0  0
 13 14  1  0  0  0  0
 13 31  1  0  0  0  0
 13 32  1  0  0  0  0
 14 15  1  0  0  0  0
 15 19  1  0  0  0  0
 15 16  1  0  0  0  0
 15 33  1  0  0  0  0
 16 17  1  0  0  0  0
 16 34  1  0  0  0  0
 16 35  1  0  0  0  0
 17 18  1  0  0  0  0
 17 36  1  0  0  0  0
 17 37  1  0  0  0  0
 18 19  1  0  0  0  0
 18 38  1  0  0  0  0
 18 39  1  0  0  0  0
 19 40  1  0  0  0  0
 19 41  1  0  0  0  0
M  END
> <s_m_source_file>
AV-unprocessed.smi

> <i_m_source_file_index>
1314

> <i_lp_mmshare_version>
43012

> <i_f3d_flags>
0

> <s_epik_input>
W0NIM11jMW5vYyhbQ0gzXSljMVtDSDJdQyg9TylbTkhdW0NIMl1bQ0gyXVNbQ0hdMltDSDJdW0NIMl1bQ0gyXVtDSDJdMg==

> <s_epik_cmdline>
J2VwaWtfcHl0aG9uJywgJy1waCcsICc3LjAnLCAnLXRuJywgJzgnLCAnLW1hJywgJzIwMCcsICctbWV0YWxfYmluZGluZycsICctaW1hZScsICc8aW5maWxlLm1hZT4nLCAnLW9tYWUnLCAnPG91dGZpbGUubWFlPic=

> <r_lp_tautomer_probability>
1

> <r_epik_Ionization_Penalty>
2.75407e-08

> <r_epik_Ionization_Penalty_Charging>
0

> <r_epik_Ionization_Penalty_Neutral>
2.75407e-08

> <r_epik_State_Penalty>
-0

> <r_epik_Charging_Adjusted_Penalty>
0

> <i_epik_Tot_Q>
0

> <i_epik_Tot_abs_Q>
0

> <r_epik_Metal_State_Penalty>
-0

> <b_epik_Metal_Only>
0

> <s_lp_Force_Field>
OPLS_2005

> <r_lp_Energy>
14.7141

> <b_lp_Chiralities_Consistent>
1

> <s_lp_Variant>
AV-unprocessed.smi:1314-1

> <Gold.Version>
5.8.1

> <Gold.Id.Protein>
6NUR|6NUR_protein|mol2

> <Gold.PLP.Fitness>
46.9624

> <Gold.PLP.PLP>
-41.8051

> <Gold.PLP.part.hbond>
-2.0006

> <Gold.PLP.part.metal>
0.0000

> <Gold.PLP.part.buried>
-4.5913

> <Gold.PLP.part.nonpolar>
-35.1038

> <Gold.PLP.part.repulsive>
0.3408

> <Gold.PLP.ligand.clash>
0.0000

> <Gold.PLP.ligand.torsion>
0.4660

> <Gold.PLP.Chemscore.Hbond>
1.9760

> <Gold.PLP.Chemscore.CHOScore>
0.0000

> <Gold.PLP.Chemscore.Metal>
0.0000

> <Gold.Chemscore.Hbonds>
donor molecule, donor type, donor heavy atom, donor atom, acceptor molecule, acceptor atom, score
      P1  H  7989  7998       L1     4  0.86
      P1  H  8011  8017       L1     3  0.09

> <Gold.PLP.Chemscore.Internal.Correction>
0.1612

> <Gold.Rescore>
     Score         DG    S(hbond)    S(metal)    S(lipo)     H(rot)  DE(clash)    DE(int)     intcor
     18.67     -20.35       1.85        0.00     110.80       1.66       0.01       1.66       ----

> <Gold.Chemscore.Fitness>
18.6722

> <Gold.Chemscore.DG>
-20.3453

> <Gold.Chemscore.ZeroCoef>
-5.4800

> <Gold.Chemscore.Hbond>
1.8454

> <Gold.Chemscore.Metal>
0.0000

> <Gold.Chemscore.Lipo>
110.7997

> <Gold.Chemscore.Internal_Hbond>
0.0000

> <Gold.Chemscore.DEClash>
0.0133

> <Gold.Chemscore.DEInternal>
1.6598

> <Gold.Chemscore.Rot>
1.6648

> <Gold.Chemscore.Internal.Correction>
   9.000000E+99

> <Gold.Chemscore.Hbonds>
donor molecule, donor type, donor heavy atom, donor atom, acceptor molecule, acceptor atom, score
      P1  H  7989  7998       L1     4  0.16
      P1  H  8011  8017       L1     3  0.01

> <Gold.Chemscore.Hbond.Weighted>
-6.1636

> <Gold.Chemscore.Metal.Weighted>
-0.0000

> <Gold.Chemscore.Lipo.Weighted>
-12.9636

> <Gold.Chemscore.Internal_Hbond.Weighted>
0.0000

> <Gold.Chemscore.DEClash.Weighted>
0.0133

> <Gold.Chemscore.DEInternal.Weighted>
1.6598

> <Gold.Chemscore.Rot.Weighted>
4.2619

> <Gold.Chemscore.Internal.Correction.Weighted>
   9.000000E+99

> <Gold.Protein.RotatedTorsions>
[ 6907 6896 6895 6894 ] final  101.91 input  -60.11 | X-H torsion
[ 7974 7965 7964 7962 ] final -159.33 input  175.53 | X-H torsion
[ 8008 7997 7996 7995 ] final  166.33 input   59.86 | X-H torsion
[ 10167 10162 10161 10158 ] final   38.95 input  -65.29 | X-H torsion
[ 10718 10713 10712 10709 ] final -138.38 input   66.30 | X-H torsion
[ 10763 10752 10751 10750 ] final  -35.89 input  -60.55 | X-H torsion
[ 11005 11000 10999 10996 ] final   -3.86 input  -57.11 | X-H torsion

> <Gold.Protein.ActiveResidues>
 VAL166  LYS551  ARG553  GLY616  TRP617  ASP618  TYR619  PRO620  LYS621  CYS622 
 ASP623  PHE694  ASN695  SER759  ASP760  ASP761  ALA762  ILE779  LEU786  VAL792 
 PHE793  MET794  SER795  GLU796  ALA797  LYS798  CYS799  TRP800  GLU811  SER814 

> <Gold.Protein.RotatedAtoms>
  152.5337  134.0055  159.7914 H   0  0  0  0  0  0  0  0  0  0  0  0  # atno 6907 bound_to 6896
  151.0266  133.5820  159.2672 H   0  0  0  0  0  0  0  0  0  0  0  0  # atno 6908 bound_to 6896
  151.2840  135.0729  159.9233 H   0  0  0  0  0  0  0  0  0  0  0  0  # atno 6909 bound_to 6896
  144.7470  140.3701  143.6078 H   0  0  0  0  0  0  0  0  0  0  0  0  # atno 7974 bound_to 7965
  156.1727  140.1646  156.8417 H   0  0  0  0  0  0  0  0  0  0  0  0  # atno 8008 bound_to 7997
  154.5274  140.0764  156.8318 H   0  0  0  0  0  0  0  0  0  0  0  0  # atno 8009 bound_to 7997
  155.3477  140.3388  155.4241 H   0  0  0  0  0  0  0  0  0  0  0  0  # atno 8010 bound_to 7997
  140.3887  144.1882  150.6130 H   0  0  0  0  0  0  0  0  0  0  0  0  # atno 10167 bound_to 10162
  156.2987  130.7416  151.1462 H   0  0  0  0  0  0  0  0  0  0  0  0  # atno 10718 bound_to 10713
  153.8707  135.6831  153.4774 H   0  0  0  0  0  0  0  0  0  0  0  0  # atno 10763 bound_to 10752
  153.1289  135.4707  154.9315 H   0  0  0  0  0  0  0  0  0  0  0  0  # atno 10764 bound_to 10752
  154.7715  135.3240  154.8129 H   0  0  0  0  0  0  0  0  0  0  0  0  # atno 10765 bound_to 10752
  140.6740  133.9212  155.8512 H   0  0  0  0  0  0  0  0  0  0  0  0  # atno 11005 bound_to 11000
  145.7087  139.1679  143.2551 LP  0  0  0  0  0  0  0  0  0  0  0  0  # atno 17320 bound_to 7965
  146.1363  140.7118  142.9388 LP  0  0  0  0  0  0  0  0  0  0  0  0  # atno 17321 bound_to 7965
  140.4863  143.2362  151.8883 LP  0  0  0  0  0  0  0  0  0  0  0  0  # atno 17342 bound_to 10162
  139.4790  144.5215  151.8794 LP  0  0  0  0  0  0  0  0  0  0  0  0  # atno 17343 bound_to 10162
  157.7362  131.0564  150.5426 LP  0  0  0  0  0  0  0  0  0  0  0  0  # atno 17370 bound_to 10713
  156.5551  130.4241  149.6089 LP  0  0  0  0  0  0  0  0  0  0  0  0  # atno 17371 bound_to 10713
  141.0370  134.0675  157.3947 LP  0  0  0  0  0  0  0  0  0  0  0  0  # atno 17394 bound_to 11000
  139.8972  135.0149  156.7091 LP  0  0  0  0  0  0  0  0  0  0  0  0  # atno 17395 bound_to 11000

$$$$
