AV-unprocessed.smi:1419|AV-procd|sdf|5776|dock6
  -GOLD-   22720 5423D 1   1.00000     0.00000
 Structure written by MMmdl.
 42 43  0  0  0  0  0  0  0  0  2 V2000
  146.4112  130.9631  152.3868 C   0  0  0  0  0  0  0  0  0  0  0  0
  146.6020  132.3885  152.9216 C   0  0  2  0  0  0  0  0  0  0  0  0
  146.4572  133.4337  151.7951 C   0  0  0  0  0  0  0  0  0  0  0  0
  145.2296  133.2610  151.0101 N   0  0  0  0  0  0  0  0  0  0  0  0
  144.9931  132.3270  150.0342 C   0  0  0  0  0  0  0  0  0  0  0  0
  143.7121  132.5383  149.5933 C   0  0  0  0  0  0  0  0  0  0  0  0
  143.2242  133.5966  150.3118 N   0  3  0  0  0  0  0  0  0  0  0  0
  144.1498  134.0377  151.1701 C   0  0  0  0  0  0  0  0  0  0  0  0
  147.9164  132.4835  153.5551 N   0  0  0  0  0  0  0  0  0  0  0  0
  148.4252  131.6239  154.4551 C   0  0  0  0  0  0  0  0  0  0  0  0
  147.8166  130.6169  154.8194 O   0  0  0  0  0  0  0  0  0  0  0  0
  149.6549  131.9547  154.9202 N   0  0  0  0  0  0  0  0  0  0  0  0
  150.2416  133.2997  154.9768 C   0  0  0  0  0  0  0  0  0  0  0  0
  150.2404  133.7593  156.4475 C   0  0  2  0  0  0  0  0  0  0  0  0
  150.8911  135.1356  156.6225 C   0  0  0  0  0  0  0  0  0  0  0  0
  150.9731  132.8211  157.2403 O   0  0  0  0  0  0  0  0  0  0  0  0
  150.5410  131.4592  157.1540 C   0  0  1  0  0  0  0  0  0  0  0  0
  149.2234  131.2419  157.9196 C   0  0  0  0  0  0  0  0  0  0  0  0
  150.4906  131.0179  155.6750 C   0  0  0  0  0  0  0  0  0  0  0  0
  145.4285  130.8437  151.9299 H   0  0  0  0  0  0  0  0  0  0  0  0
  146.4906  130.2287  153.1890 H   0  0  0  0  0  0  0  0  0  0  0  0
  147.1603  130.7159  151.6334 H   0  0  0  0  0  0  0  0  0  0  0  0
  145.8199  132.5595  153.6635 H   0  0  0  0  0  0  0  0  0  0  0  0
  146.4756  134.4474  152.1996 H   0  0  0  0  0  0  0  0  0  0  0  0
  147.2937  133.3570  151.0991 H   0  0  0  0  0  0  0  0  0  0  0  0
  145.7316  131.5950  149.7405 H   0  0  0  0  0  0  0  0  0  0  0  0
  143.1271  132.0280  148.8418 H   0  0  0  0  0  0  0  0  0  0  0  0
  144.0408  134.8529  151.8632 H   0  0  0  0  0  0  0  0  0  0  0  0
  148.4862  133.2754  153.2946 H   0  0  0  0  0  0  0  0  0  0  0  0
  151.2631  133.2624  154.5950 H   0  0  0  0  0  0  0  0  0  0  0  0
  149.7263  134.0328  154.3563 H   0  0  0  0  0  0  0  0  0  0  0  0
  149.2138  133.8207  156.8106 H   0  0  0  0  0  0  0  0  0  0  0  0
  150.3621  135.8968  156.0487 H   0  0  0  0  0  0  0  0  0  0  0  0
  151.9294  135.1263  156.2895 H   0  0  0  0  0  0  0  0  0  0  0  0
  150.8794  135.4407  157.6691 H   0  0  0  0  0  0  0  0  0  0  0  0
  151.3039  130.8626  157.6549 H   0  0  0  0  0  0  0  0  0  0  0  0
  148.9437  130.1884  157.9163 H   0  0  0  0  0  0  0  0  0  0  0  0
  148.3953  131.7992  157.4856 H   0  0  0  0  0  0  0  0  0  0  0  0
  149.3237  131.5538  158.9592 H   0  0  0  0  0  0  0  0  0  0  0  0
  150.1471  129.9849  155.5991 H   0  0  0  0  0  0  0  0  0  0  0  0
  151.4970  131.0234  155.2537 H   0  0  0  0  0  0  0  0  0  0  0  0
  142.2967  133.9899  150.2107 H   0  0  0  0  0  0  0  0  0  0  0  0
  1  2  1  0  0  0  0
  1 20  1  0  0  0  0
  1 21  1  0  0  0  0
  1 22  1  0  0  0  0
  2  3  1  0  0  0  0
  2  9  1  0  0  0  0
  2 23  1  0  0  0  0
  3  4  1  0  0  0  0
  3 24  1  0  0  0  0
  3 25  1  0  0  0  0
  4  8  1  0  0  0  0
  4  5  1  0  0  0  0
  5  6  2  0  0  0  0
  5 26  1  0  0  0  0
  6  7  1  0  0  0  0
  6 27  1  0  0  0  0
  7  8  2  0  0  0  0
  7 42  1  0  0  0  0
  8 28  1  0  0  0  0
  9 10  1  0  0  0  0
  9 29  1  0  0  0  0
 10 11  2  0  0  0  0
 10 12  1  0  0  0  0
 12 19  1  0  0  0  0
 12 13  1  0  0  0  0
 13 14  1  0  0  0  0
 13 30  1  0  0  0  0
 13 31  1  0  0  0  0
 14 15  1  0  0  0  0
 14 16  1  0  0  0  0
 14 32  1  0  0  0  0
 15 33  1  0  0  0  0
 15 34  1  0  0  0  0
 15 35  1  0  0  0  0
 16 17  1  0  0  0  0
 17 18  1  0  0  0  0
 17 19  1  0  0  0  0
 17 36  1  0  0  0  0
 18 37  1  0  0  0  0
 18 38  1  0  0  0  0
 18 39  1  0  0  0  0
 19 40  1  0  0  0  0
 19 41  1  0  0  0  0
M  CHG  1   7   1
M  END
> <s_m_source_file>
AV-unprocessed.smi

> <i_m_source_file_index>
1419

> <i_lp_mmshare_version>
43012

> <i_f3d_flags>
0

> <s_epik_input>
W2NIXTFuW2NIXVtjSF1uMVtDSDJdW0NAQEhdKFtDSDNdKVtOSF1DKD1PKU4yW0NIMl1bQ0BASF0oW0NIM10pT1tDQEBIXShbQ0gzXSlbQ0gyXTI=

> <s_epik_cmdline>
J2VwaWtfcHl0aG9uJywgJy1waCcsICc3LjAnLCAnLXRuJywgJzgnLCAnLW1hJywgJzIwMCcsICctbWV0YWxfYmluZGluZycsICctaW1hZScsICc8aW5maWxlLm1hZT4nLCAnLW9tYWUnLCAnPG91dGZpbGUubWFlPic=

> <r_lp_tautomer_probability>
1

> <r_epik_Ionization_Penalty>
0.253607

> <r_epik_Ionization_Penalty_Charging>
0

> <r_epik_Ionization_Penalty_Neutral>
0.253607

> <r_epik_State_Penalty>
0.245018

> <r_epik_Charging_Adjusted_Penalty>
0.245018

> <i_epik_Tot_Q>
1

> <i_epik_Tot_abs_Q>
1

> <r_epik_Metal_State_Penalty>
0.535379

> <b_epik_Metal_Only>
0

> <s_lp_Force_Field>
OPLS_2005

> <r_lp_Energy>
31.3779

> <b_lp_Chiralities_Consistent>
1

> <s_lp_Variant>
AV-unprocessed.smi:1419-3

> <Gold.Version>
5.8.1

> <Gold.Id.Protein>
6NUR|6NUR_protein|mol2

> <Gold.PLP.Fitness>
39.7528

> <Gold.PLP.PLP>
-31.7927

> <Gold.PLP.part.hbond>
-2.0000

> <Gold.PLP.part.metal>
0.0000

> <Gold.PLP.part.buried>
-5.2280

> <Gold.PLP.part.nonpolar>
-25.3739

> <Gold.PLP.part.repulsive>
0.0654

> <Gold.PLP.ligand.clash>
0.0000

> <Gold.PLP.ligand.torsion>
0.5348

> <Gold.PLP.Chemscore.Hbond>
2.9920

> <Gold.PLP.Chemscore.CHOScore>
0.0000

> <Gold.PLP.Chemscore.Metal>
0.0000

> <Gold.Chemscore.Hbonds>
donor molecule, donor type, donor heavy atom, donor atom, acceptor molecule, acceptor atom, score
      L1  H     7    42       P1 10186  1.89
      P1  H  6896  6908       L1    16  0.91

> <Gold.PLP.Chemscore.Internal.Correction>
0.0536

> <Gold.Rescore>
     Score         DG    S(hbond)    S(metal)    S(lipo)     H(rot)  DE(clash)    DE(int)     intcor
     13.35     -15.40       1.95        0.00      64.64       1.63       0.02       2.04       ----

> <Gold.Chemscore.Fitness>
13.3484

> <Gold.Chemscore.DG>
-15.4042

> <Gold.Chemscore.ZeroCoef>
-5.4800

> <Gold.Chemscore.Hbond>
1.9543

> <Gold.Chemscore.Metal>
0.0000

> <Gold.Chemscore.Lipo>
64.6366

> <Gold.Chemscore.Internal_Hbond>
0.0000

> <Gold.Chemscore.DEClash>
0.0186

> <Gold.Chemscore.DEInternal>
2.0371

> <Gold.Chemscore.Rot>
1.6273

> <Gold.Chemscore.Internal.Correction>
   9.000000E+99

> <Gold.Chemscore.Hbonds>
donor molecule, donor type, donor heavy atom, donor atom, acceptor molecule, acceptor atom, score
      L1  H     7    42       P1 10186  0.87
      P1  H  6896  6908       L1    16  0.57

> <Gold.Chemscore.Hbond.Weighted>
-6.5275

> <Gold.Chemscore.Metal.Weighted>
-0.0000

> <Gold.Chemscore.Lipo.Weighted>
-7.5625

> <Gold.Chemscore.Internal_Hbond.Weighted>
0.0000

> <Gold.Chemscore.DEClash.Weighted>
0.0186

> <Gold.Chemscore.DEInternal.Weighted>
2.0371

> <Gold.Chemscore.Rot.Weighted>
4.1658

> <Gold.Chemscore.Internal.Correction.Weighted>
   9.000000E+99

> <Gold.Protein.RotatedTorsions>
[ 6907 6896 6895 6894 ] final   91.78 input  -60.11 | X-H torsion
[ 7974 7965 7964 7962 ] final  179.92 input  175.53 | X-H torsion
[ 8008 7997 7996 7995 ] final   71.22 input   59.86 | X-H torsion
[ 10167 10162 10161 10158 ] final  115.33 input  -65.29 | X-H torsion
[ 10718 10713 10712 10709 ] final -138.42 input   66.30 | X-H torsion
[ 10763 10752 10751 10750 ] final   98.71 input  -60.55 | X-H torsion
[ 11005 11000 10999 10996 ] final  -89.03 input  -57.11 | X-H torsion

> <Gold.Protein.ActiveResidues>
 VAL166  LYS551  ARG553  GLY616  TRP617  ASP618  TYR619  PRO620  LYS621  CYS622 
 ASP623  PHE694  ASN695  SER759  ASP760  ASP761  ALA762  ILE779  LEU786  VAL792 
 PHE793  MET794  SER795  GLU796  ALA797  LYS798  CYS799  TRP800  GLU811  SER814 

> <Gold.Protein.RotatedAtoms>
  152.5451  134.1604  159.8554 H   0  0  0  0  0  0  0  0  0  0  0  0  # atno 6907 bound_to 6896
  151.1622  133.4830  159.2601 H   0  0  0  0  0  0  0  0  0  0  0  0  # atno 6908 bound_to 6896
  151.1361  135.0166  159.8659 H   0  0  0  0  0  0  0  0  0  0  0  0  # atno 6909 bound_to 6896
  144.7141  140.0620  143.6432 H   0  0  0  0  0  0  0  0  0  0  0  0  # atno 7974 bound_to 7965
  155.7507  140.3488  155.5149 H   0  0  0  0  0  0  0  0  0  0  0  0  # atno 8008 bound_to 7997
  155.9007  140.1033  157.1373 H   0  0  0  0  0  0  0  0  0  0  0  0  # atno 8009 bound_to 7997
  154.4043  140.1286  156.4420 H   0  0  0  0  0  0  0  0  0  0  0  0  # atno 8010 bound_to 7997
  139.6325  144.7116  151.2403 H   0  0  0  0  0  0  0  0  0  0  0  0  # atno 10167 bound_to 10162
  156.2992  130.7419  151.1466 H   0  0  0  0  0  0  0  0  0  0  0  0  # atno 10718 bound_to 10713
  153.2924  135.4139  155.1179 H   0  0  0  0  0  0  0  0  0  0  0  0  # atno 10763 bound_to 10752
  154.8524  135.3521  154.5963 H   0  0  0  0  0  0  0  0  0  0  0  0  # atno 10764 bound_to 10752
  153.6386  135.7058  153.5307 H   0  0  0  0  0  0  0  0  0  0  0  0  # atno 10765 bound_to 10752
  141.1592  133.7605  156.9537 H   0  0  0  0  0  0  0  0  0  0  0  0  # atno 11005 bound_to 11000
  145.9856  139.2975  143.1016 LP  0  0  0  0  0  0  0  0  0  0  0  0  # atno 17320 bound_to 7965
  145.8961  140.9272  143.0527 LP  0  0  0  0  0  0  0  0  0  0  0  0  # atno 17321 bound_to 7965
  140.7447  143.6455  150.8295 LP  0  0  0  0  0  0  0  0  0  0  0  0  # atno 17342 bound_to 10162
  140.0082  143.5671  152.2849 LP  0  0  0  0  0  0  0  0  0  0  0  0  # atno 17343 bound_to 10162
  157.7363  131.0563  150.5419 LP  0  0  0  0  0  0  0  0  0  0  0  0  # atno 17370 bound_to 10713
  156.5545  130.4240  149.6092 LP  0  0  0  0  0  0  0  0  0  0  0  0  # atno 17371 bound_to 10713
  140.1240  134.9399  157.2243 LP  0  0  0  0  0  0  0  0  0  0  0  0  # atno 17394 bound_to 11000
  140.3036  134.3103  155.7283 LP  0  0  0  0  0  0  0  0  0  0  0  0  # atno 17395 bound_to 11000

$$$$
