AV-unprocessed.smi:2727|AV-procd|sdf|10524|dock8
  -GOLD-   2272014563D 1   1.00000     0.00000
 Structure written by MMmdl.
 39 40  0  0  0  0  0  0  0  0  2 V2000
  151.9181  136.2234  156.0061 O   0  0  0  0  0  0  0  0  0  0  0  0
  150.9479  136.8344  155.5519 C   0  0  0  0  0  0  0  0  0  0  0  0
  150.9660  138.1731  155.5064 N   0  0  0  0  0  0  0  0  0  0  0  0
  152.0683  139.0162  155.9596 C   0  0  0  0  0  0  0  0  0  0  0  0
  151.5577  140.2877  156.6668 C   0  0  0  0  0  0  0  0  0  0  0  0
  152.2013  140.5581  158.0420 C   0  0  0  0  0  0  0  0  0  0  0  0
  153.2398  139.9653  158.3400 O   0  0  0  0  0  0  0  0  0  0  0  0
  151.6133  141.4376  158.8905 N   0  0  0  0  0  0  0  0  0  0  0  0
  150.4281  142.2077  158.4927 C   0  0  0  0  0  0  0  0  0  0  0  0
  150.8019  143.4575  157.6697 C   0  0  0  0  0  0  0  0  0  0  0  0
  152.1176  144.1611  158.0713 C   0  0  0  0  0  0  0  0  0  0  0  0
  152.3714  144.2713  159.5882 C   0  0  0  0  0  0  0  0  0  0  0  0
  153.0203  143.0125  160.2028 C   0  0  0  0  0  0  0  0  0  0  0  0
  152.1052  141.7735  160.2338 C   0  0  0  0  0  0  0  0  0  0  0  0
  149.8093  136.2879  155.0688 N   0  5  0  0  0  0  0  0  0  0  0  0
  149.6533  134.9541  155.0748 C   0  0  0  0  0  0  0  0  0  0  0  0
  148.6190  134.2760  154.5742 N   0  0  0  0  0  0  0  0  0  0  0  0
  148.8905  132.9380  154.8152 C   0  0  0  0  0  0  0  0  0  0  0  0
  150.0911  132.8642  155.4672 C   0  0  0  0  0  0  0  0  0  0  0  0
  150.5801  134.1295  155.6403 O   0  0  0  0  0  0  0  0  0  0  0  0
  150.1516  138.6388  155.1340 H   0  0  0  0  0  0  0  0  0  0  0  0
  152.7227  138.4447  156.6200 H   0  0  0  0  0  0  0  0  0  0  0  0
  152.6704  139.3021  155.0959 H   0  0  0  0  0  0  0  0  0  0  0  0
  151.7463  141.1536  156.0319 H   0  0  0  0  0  0  0  0  0  0  0  0
  150.4764  140.1996  156.7636 H   0  0  0  0  0  0  0  0  0  0  0  0
  149.7266  141.5864  157.9332 H   0  0  0  0  0  0  0  0  0  0  0  0
  149.8686  142.5249  159.3732 H   0  0  0  0  0  0  0  0  0  0  0  0
  150.8718  143.1842  156.6160 H   0  0  0  0  0  0  0  0  0  0  0  0
  149.9779  144.1686  157.7331 H   0  0  0  0  0  0  0  0  0  0  0  0
  152.9625  143.6546  157.6022 H   0  0  0  0  0  0  0  0  0  0  0  0
  152.1076  145.1621  157.6391 H   0  0  0  0  0  0  0  0  0  0  0  0
  153.0520  145.1067  159.7558 H   0  0  0  0  0  0  0  0  0  0  0  0
  151.4508  144.5283  160.1134 H   0  0  0  0  0  0  0  0  0  0  0  0
  153.9404  142.7832  159.6648 H   0  0  0  0  0  0  0  0  0  0  0  0
  153.3259  143.2396  161.2247 H   0  0  0  0  0  0  0  0  0  0  0  0
  151.2686  141.9609  160.9079 H   0  0  0  0  0  0  0  0  0  0  0  0
  152.6271  140.9322  160.6899 H   0  0  0  0  0  0  0  0  0  0  0  0
  148.2143  132.1539  154.5087 H   0  0  0  0  0  0  0  0  0  0  0  0
  150.6919  132.0530  155.8500 H   0  0  0  0  0  0  0  0  0  0  0  0
  1  2  2  0  0  0  0
  2  3  1  0  0  0  0
  2 15  1  0  0  0  0
  3  4  1  0  0  0  0
  3 21  1  0  0  0  0
  4  5  1  0  0  0  0
  4 22  1  0  0  0  0
  4 23  1  0  0  0  0
  5  6  1  0  0  0  0
  5 24  1  0  0  0  0
  5 25  1  0  0  0  0
  6  7  2  0  0  0  0
  6  8  1  0  0  0  0
  8 14  1  0  0  0  0
  8  9  1  0  0  0  0
  9 10  1  0  0  0  0
  9 26  1  0  0  0  0
  9 27  1  0  0  0  0
 10 11  1  0  0  0  0
 10 28  1  0  0  0  0
 10 29  1  0  0  0  0
 11 12  1  0  0  0  0
 11 30  1  0  0  0  0
 11 31  1  0  0  0  0
 12 13  1  0  0  0  0
 12 32  1  0  0  0  0
 12 33  1  0  0  0  0
 13 14  1  0  0  0  0
 13 34  1  0  0  0  0
 13 35  1  0  0  0  0
 14 36  1  0  0  0  0
 14 37  1  0  0  0  0
 15 16  1  0  0  0  0
 16 20  1  0  0  0  0
 16 17  2  0  0  0  0
 17 18  1  0  0  0  0
 18 19  2  0  0  0  0
 18 38  1  0  0  0  0
 19 20  1  0  0  0  0
 19 39  1  0  0  0  0
M  CHG  1  15  -1
M  END
> <s_m_source_file>
AV-unprocessed.smi

> <i_m_source_file_index>
2727

> <i_lp_mmshare_version>
43012

> <i_f3d_flags>
0

> <s_epik_input>
bzFbY0hdW2NIXW5jMVtOSF1DKD1PKVtOSF1bQ0gyXVtDSDJdQyg9TylOMltDSDJdW0NIMl1bQ0gyXVtDSDJdW0NIMl1bQ0gyXTI=

> <s_epik_cmdline>
J2VwaWtfcHl0aG9uJywgJy1waCcsICc3LjAnLCAnLXRuJywgJzgnLCAnLW1hJywgJzIwMCcsICctbWV0YWxfYmluZGluZycsICctaW1hZScsICc8aW5maWxlLm1hZT4nLCAnLW9tYWUnLCAnPG91dGZpbGUubWFlPic=

> <r_lp_tautomer_probability>
0.785861

> <r_epik_Ionization_Penalty>
9.14426

> <r_epik_Ionization_Penalty_Charging>
6.65642

> <r_epik_Ionization_Penalty_Neutral>
2.48784

> <r_epik_State_Penalty>
6.67734

> <r_epik_Charging_Adjusted_Penalty>
13.3338

> <i_epik_Tot_Q>
-1

> <i_epik_Tot_abs_Q>
1

> <r_epik_Metal_State_Penalty>
2.58025

> <b_epik_Metal_Only>
1

> <s_lp_Force_Field>
OPLS_2005

> <r_lp_Energy>
17.6318

> <b_lp_Chiralities_Consistent>
1

> <s_lp_Variant>
AV-unprocessed.smi:2727-4

> <Gold.Version>
5.8.1

> <Gold.Id.Protein>
6NUR|6NUR_protein|mol2

> <Gold.PLP.Fitness>
41.2637

> <Gold.PLP.PLP>
-36.6519

> <Gold.PLP.part.hbond>
-2.0000

> <Gold.PLP.part.metal>
0.0000

> <Gold.PLP.part.buried>
-2.6017

> <Gold.PLP.part.nonpolar>
-33.2564

> <Gold.PLP.part.repulsive>
0.4765

> <Gold.PLP.ligand.clash>
0.0000

> <Gold.PLP.ligand.torsion>
0.7172

> <Gold.PLP.Chemscore.Hbond>
2.0000

> <Gold.PLP.Chemscore.CHOScore>
0.0000

> <Gold.PLP.Chemscore.Metal>
0.0000

> <Gold.Chemscore.Hbonds>
donor molecule, donor type, donor heavy atom, donor atom, acceptor molecule, acceptor atom, score
      P1  H  7997  8009       L1     7  1.00
      P1  H 10752 10765       L1     1  1.00

> <Gold.PLP.Chemscore.Internal.Correction>
0.0462

> <Gold.Rescore>
     Score         DG    S(hbond)    S(metal)    S(lipo)     H(rot)  DE(clash)    DE(int)     intcor
     15.53     -18.04       1.94        0.00      88.71       1.67       0.05       2.46       ----

> <Gold.Chemscore.Fitness>
15.5337

> <Gold.Chemscore.DG>
-18.0363

> <Gold.Chemscore.ZeroCoef>
-5.4800

> <Gold.Chemscore.Hbond>
1.9353

> <Gold.Chemscore.Metal>
0.0000

> <Gold.Chemscore.Lipo>
88.7110

> <Gold.Chemscore.Internal_Hbond>
0.0000

> <Gold.Chemscore.DEClash>
0.0473

> <Gold.Chemscore.DEInternal>
2.4553

> <Gold.Chemscore.Rot>
1.6745

> <Gold.Chemscore.Internal.Correction>
   9.000000E+99

> <Gold.Chemscore.Hbonds>
donor molecule, donor type, donor heavy atom, donor atom, acceptor molecule, acceptor atom, score
      P1  H  7997  8009       L1     7  0.89
      P1  H 10752 10765       L1     1  1.00

> <Gold.Chemscore.Hbond.Weighted>
-6.4638

> <Gold.Chemscore.Metal.Weighted>
-0.0000

> <Gold.Chemscore.Lipo.Weighted>
-10.3792

> <Gold.Chemscore.Internal_Hbond.Weighted>
0.0000

> <Gold.Chemscore.DEClash.Weighted>
0.0473

> <Gold.Chemscore.DEInternal.Weighted>
2.4553

> <Gold.Chemscore.Rot.Weighted>
4.2866

> <Gold.Chemscore.Internal.Correction.Weighted>
   9.000000E+99

> <Gold.Protein.RotatedTorsions>
[ 6907 6896 6895 6894 ] final  143.52 input  -60.11 | X-H torsion
[ 7974 7965 7964 7962 ] final   89.01 input  175.53 | X-H torsion
[ 8008 7997 7996 7995 ] final  153.46 input   59.86 | X-H torsion
[ 10167 10162 10161 10158 ] final  124.36 input  -65.29 | X-H torsion
[ 10718 10713 10712 10709 ] final -120.22 input   66.30 | X-H torsion
[ 10763 10752 10751 10750 ] final -145.08 input  -60.55 | X-H torsion
[ 11005 11000 10999 10996 ] final   80.12 input  -57.11 | X-H torsion

> <Gold.Protein.ActiveResidues>
 VAL166  LYS551  ARG553  GLY616  TRP617  ASP618  TYR619  PRO620  LYS621  CYS622 
 ASP623  PHE694  ASN695  SER759  ASP760  ASP761  ALA762  ILE779  LEU786  VAL792 
 PHE793  MET794  SER795  GLU796  ALA797  LYS798  CYS799  TRP800  GLU811  SER814 

> <Gold.Protein.RotatedAtoms>
  152.2053  133.4871  159.5080 H   0  0  0  0  0  0  0  0  0  0  0  0  # atno 6907 bound_to 6896
  150.6978  134.1538  159.4159 H   0  0  0  0  0  0  0  0  0  0  0  0  # atno 6908 bound_to 6896
  151.9456  135.0193  160.0589 H   0  0  0  0  0  0  0  0  0  0  0  0  # atno 6909 bound_to 6896
  145.5380  139.2287  143.2581 H   0  0  0  0  0  0  0  0  0  0  0  0  # atno 7974 bound_to 7965
  156.2580  140.1993  156.6494 H   0  0  0  0  0  0  0  0  0  0  0  0  # atno 8008 bound_to 7997
  154.6548  140.0567  157.0021 H   0  0  0  0  0  0  0  0  0  0  0  0  # atno 8009 bound_to 7997
  155.1363  140.3238  155.4465 H   0  0  0  0  0  0  0  0  0  0  0  0  # atno 8010 bound_to 7997
  139.5746  144.6957  151.3687 H   0  0  0  0  0  0  0  0  0  0  0  0  # atno 10167 bound_to 10162
  156.1241  130.6346  150.9514 H   0  0  0  0  0  0  0  0  0  0  0  0  # atno 10718 bound_to 10713
  154.8399  135.3423  154.6448 H   0  0  0  0  0  0  0  0  0  0  0  0  # atno 10763 bound_to 10752
  153.7060  135.6967  153.5055 H   0  0  0  0  0  0  0  0  0  0  0  0  # atno 10764 bound_to 10752
  153.2487  135.4360  155.0729 H   0  0  0  0  0  0  0  0  0  0  0  0  # atno 10765 bound_to 10752
  139.9146  134.7895  156.1867 H   0  0  0  0  0  0  0  0  0  0  0  0  # atno 11005 bound_to 11000
  146.2000  140.6199  142.9107 LP  0  0  0  0  0  0  0  0  0  0  0  0  # atno 17320 bound_to 7965
  144.7591  140.5380  143.6748 LP  0  0  0  0  0  0  0  0  0  0  0  0  # atno 17321 bound_to 7965
  140.7029  143.7586  150.7433 LP  0  0  0  0  0  0  0  0  0  0  0  0  # atno 17342 bound_to 10162
  140.1102  143.4706  152.2374 LP  0  0  0  0  0  0  0  0  0  0  0  0  # atno 17343 bound_to 10162
  157.6424  131.0908  150.8224 LP  0  0  0  0  0  0  0  0  0  0  0  0  # atno 17370 bound_to 10713
  156.8317  130.5018  149.5331 LP  0  0  0  0  0  0  0  0  0  0  0  0  # atno 17371 bound_to 10713
  141.0609  133.6842  156.1950 LP  0  0  0  0  0  0  0  0  0  0  0  0  # atno 17394 bound_to 11000
  140.6663  134.4915  157.5585 LP  0  0  0  0  0  0  0  0  0  0  0  0  # atno 17395 bound_to 11000

$$$$
