AV-unprocessed.smi:657|AV-procd|sdf|3222|dock10
  -GOLD-   22720 0163D 1   1.00000     0.00000
 Structure written by MMmdl.
 47 48  0  0  0  0  0  0  0  0  2 V2000
  146.0275  137.5919  153.2334 C   0  0  0  0  0  0  0  0  0  0  0  0
  147.2082  138.5477  153.5022 C   0  0  0  0  0  0  0  0  0  0  0  0
  147.4292  139.4077  152.2395 C   0  0  0  0  0  0  0  0  0  0  0  0
  148.4593  137.8280  153.9242 N   0  3  2  0  0  0  0  0  0  0  0  0
  148.2835  136.9171  155.0980 C   0  0  0  0  0  0  0  0  0  0  0  0
  149.5406  136.0753  155.3738 C   0  0  0  0  0  0  0  0  0  0  0  0
  150.7780  136.9541  155.5610 C   0  0  0  0  0  0  0  0  0  0  0  0
  150.9462  137.8564  154.3334 C   0  0  0  0  0  0  0  0  0  0  0  0
  149.6841  138.6960  154.0303 C   0  0  2  0  0  0  0  0  0  0  0  0
  149.5493  139.8912  155.0000 C   0  0  0  0  0  0  0  0  0  0  0  0
  148.5788  139.9930  155.7496 O   0  0  0  0  0  0  0  0  0  0  0  0
  150.5477  140.7878  154.9764 N   0  0  0  0  0  0  0  0  0  0  0  0
  150.6406  141.9867  155.8071 C   0  0  0  0  0  0  0  0  0  0  0  0
  150.3816  141.7345  157.3084 C   0  0  0  0  0  0  0  0  0  0  0  0
  151.1571  142.6519  158.2186 C   0  0  0  0  0  0  0  0  0  0  0  0
  152.1494  142.3103  159.1818 C   0  0  0  0  0  0  0  0  0  0  0  0
  152.6473  143.3664  159.8039 N   0  0  0  0  0  0  0  0  0  0  0  0
  151.9848  144.4136  159.2716 N   0  0  0  0  0  0  0  0  0  0  0  0
  152.2779  145.7545  159.7302 C   0  0  0  0  0  0  0  0  0  0  0  0
  151.0762  144.0122  158.3171 C   0  0  0  0  0  0  0  0  0  0  0  0
  145.1768  138.1304  152.8141 H   0  0  0  0  0  0  0  0  0  0  0  0
  145.6601  137.1213  154.1450 H   0  0  0  0  0  0  0  0  0  0  0  0
  146.3003  136.8080  152.5260 H   0  0  0  0  0  0  0  0  0  0  0  0
  146.9004  139.2091  154.3124 H   0  0  0  0  0  0  0  0  0  0  0  0
  146.4894  139.8208  151.8737 H   0  0  0  0  0  0  0  0  0  0  0  0
  147.8639  138.8213  151.4293 H   0  0  0  0  0  0  0  0  0  0  0  0
  148.0782  140.2620  152.4280 H   0  0  0  0  0  0  0  0  0  0  0  0
  147.9991  137.4839  155.9839 H   0  0  0  0  0  0  0  0  0  0  0  0
  147.4778  136.2083  154.9178 H   0  0  0  0  0  0  0  0  0  0  0  0
  149.3869  135.4581  156.2596 H   0  0  0  0  0  0  0  0  0  0  0  0
  149.7060  135.3864  154.5443 H   0  0  0  0  0  0  0  0  0  0  0  0
  150.6832  137.5502  156.4689 H   0  0  0  0  0  0  0  0  0  0  0  0
  151.6630  136.3312  155.6922 H   0  0  0  0  0  0  0  0  0  0  0  0
  151.8124  138.5060  154.4693 H   0  0  0  0  0  0  0  0  0  0  0  0
  151.1761  137.2350  153.4666 H   0  0  0  0  0  0  0  0  0  0  0  0
  149.8688  139.1107  153.0396 H   0  0  0  0  0  0  0  0  0  0  0  0
  151.3104  140.6270  154.3343 H   0  0  0  0  0  0  0  0  0  0  0  0
  151.6097  142.4665  155.6631 H   0  0  0  0  0  0  0  0  0  0  0  0
  149.8943  142.6869  155.4307 H   0  0  0  0  0  0  0  0  0  0  0  0
  149.3129  141.8331  157.5014 H   0  0  0  0  0  0  0  0  0  0  0  0
  150.6133  140.6929  157.5323 H   0  0  0  0  0  0  0  0  0  0  0  0
  152.5270  141.3314  159.4380 H   0  0  0  0  0  0  0  0  0  0  0  0
  151.8900  146.4842  159.0191 H   0  0  0  0  0  0  0  0  0  0  0  0
  153.3559  145.8914  159.8230 H   0  0  0  0  0  0  0  0  0  0  0  0
  151.8110  145.9198  160.7016 H   0  0  0  0  0  0  0  0  0  0  0  0
  150.4579  144.7211  157.7861 H   0  0  0  0  0  0  0  0  0  0  0  0
  148.6628  137.2035  153.1570 H   0  0  0  0  0  0  0  0  0  0  0  0
  1  2  1  0  0  0  0
  1 21  1  0  0  0  0
  1 22  1  0  0  0  0
  1 23  1  0  0  0  0
  2  3  1  0  0  0  0
  2  4  1  0  0  0  0
  2 24  1  0  0  0  0
  3 25  1  0  0  0  0
  3 26  1  0  0  0  0
  3 27  1  0  0  0  0
  4  9  1  0  0  0  0
  4  5  1  0  0  0  0
  4 47  1  0  0  0  0
  5  6  1  0  0  0  0
  5 28  1  0  0  0  0
  5 29  1  0  0  0  0
  6  7  1  0  0  0  0
  6 30  1  0  0  0  0
  6 31  1  0  0  0  0
  7  8  1  0  0  0  0
  7 32  1  0  0  0  0
  7 33  1  0  0  0  0
  8  9  1  0  0  0  0
  8 34  1  0  0  0  0
  8 35  1  0  0  0  0
  9 10  1  0  0  0  0
  9 36  1  0  0  0  0
 10 11  2  0  0  0  0
 10 12  1  0  0  0  0
 12 13  1  0  0  0  0
 12 37  1  0  0  0  0
 13 14  1  0  0  0  0
 13 38  1  0  0  0  0
 13 39  1  0  0  0  0
 14 15  1  0  0  0  0
 14 40  1  0  0  0  0
 14 41  1  0  0  0  0
 15 20  2  0  0  0  0
 15 16  1  0  0  0  0
 16 17  2  0  0  0  0
 16 42  1  0  0  0  0
 17 18  1  0  0  0  0
 18 19  1  0  0  0  0
 18 20  1  0  0  0  0
 19 43  1  0  0  0  0
 19 44  1  0  0  0  0
 19 45  1  0  0  0  0
 20 46  1  0  0  0  0
M  CHG  1   4   1
M  END
> <s_m_source_file>
AV-unprocessed.smi

> <i_m_source_file_index>
657

> <i_lp_mmshare_version>
43012

> <i_f3d_flags>
0

> <s_epik_input>
W0NIM11bQ0hdKFtDSDNdKU4xW0NIMl1bQ0gyXVtDSDJdW0NIMl1bQ0BIXTFDKD1PKVtOSF1bQ0gyXVtDSDJdYzJbY0hdbm4oW0NIM10pW2NIXTI=

> <s_epik_cmdline>
J2VwaWtfcHl0aG9uJywgJy1waCcsICc3LjAnLCAnLXRuJywgJzgnLCAnLW1hJywgJzIwMCcsICctbWV0YWxfYmluZGluZycsICctaW1hZScsICc8aW5maWxlLm1hZT4nLCAnLW9tYWUnLCAnPG91dGZpbGUubWFlPic=

> <r_lp_tautomer_probability>
1

> <r_epik_Ionization_Penalty>
0.0244317

> <r_epik_Ionization_Penalty_Charging>
0.0240236

> <r_epik_Ionization_Penalty_Neutral>
0.00040815

> <r_epik_State_Penalty>
0.0194773

> <r_epik_Charging_Adjusted_Penalty>
0.0435009

> <i_epik_Tot_Q>
1

> <i_epik_Tot_abs_Q>
1

> <r_epik_Metal_State_Penalty>
0.0361957

> <b_epik_Metal_Only>
0

> <s_lp_Force_Field>
OPLS_2005

> <r_lp_Energy>
17.7945

> <b_lp_Chiralities_Consistent>
1

> <s_lp_Variant>
AV-unprocessed.smi:657-3

> <Gold.Version>
5.8.1

> <Gold.Id.Protein>
6NUR|6NUR_protein|mol2

> <Gold.PLP.Fitness>
43.3389

> <Gold.PLP.PLP>
-34.9108

> <Gold.PLP.part.hbond>
-1.0000

> <Gold.PLP.part.metal>
0.0000

> <Gold.PLP.part.buried>
-2.5388

> <Gold.PLP.part.nonpolar>
-31.4901

> <Gold.PLP.part.repulsive>
1.6134

> <Gold.PLP.ligand.clash>
0.0000

> <Gold.PLP.ligand.torsion>
0.4039

> <Gold.PLP.Chemscore.Hbond>
2.0000

> <Gold.PLP.Chemscore.CHOScore>
1.0188

> <Gold.PLP.Chemscore.Metal>
0.0000

> <Gold.Chemscore.Hbonds>
donor molecule, donor type, donor heavy atom, donor atom, acceptor molecule, acceptor atom, score
      L1  H     4    47       P1  7948  2.00
      L1  C    20    46       P1  8028  0.77
      L1  C    20    46       P1  8029  0.06

> <Gold.PLP.Chemscore.Internal.Correction>
0.1794

> <Gold.Rescore>
     Score         DG    S(hbond)    S(metal)    S(lipo)     H(rot)  DE(clash)    DE(int)     intcor
     14.36     -15.94       1.00        0.00      96.51       1.63       0.20       1.39       ----

> <Gold.Chemscore.Fitness>
14.3563

> <Gold.Chemscore.DG>
-15.9449

> <Gold.Chemscore.ZeroCoef>
-5.4800

> <Gold.Chemscore.Hbond>
1.0000

> <Gold.Chemscore.Metal>
0.0000

> <Gold.Chemscore.Lipo>
96.5148

> <Gold.Chemscore.Internal_Hbond>
0.0000

> <Gold.Chemscore.DEClash>
0.2022

> <Gold.Chemscore.DEInternal>
1.3864

> <Gold.Chemscore.Rot>
1.6279

> <Gold.Chemscore.Internal.Correction>
   9.000000E+99

> <Gold.Chemscore.Hbonds>
donor molecule, donor type, donor heavy atom, donor atom, acceptor molecule, acceptor atom, score
      L1  H     4    47       P1  7948  1.00

> <Gold.Chemscore.Hbond.Weighted>
-3.3400

> <Gold.Chemscore.Metal.Weighted>
-0.0000

> <Gold.Chemscore.Lipo.Weighted>
-11.2922

> <Gold.Chemscore.Internal_Hbond.Weighted>
0.0000

> <Gold.Chemscore.DEClash.Weighted>
0.2022

> <Gold.Chemscore.DEInternal.Weighted>
1.3864

> <Gold.Chemscore.Rot.Weighted>
4.1673

> <Gold.Chemscore.Internal.Correction.Weighted>
   9.000000E+99

> <Gold.Protein.RotatedTorsions>
[ 6907 6896 6895 6894 ] final -103.04 input  -60.11 | X-H torsion
[ 7974 7965 7964 7962 ] final  115.15 input  175.53 | X-H torsion
[ 8008 7997 7996 7995 ] final -139.74 input   59.86 | X-H torsion
[ 10167 10162 10161 10158 ] final   89.27 input  -65.29 | X-H torsion
[ 10718 10713 10712 10709 ] final   44.88 input   66.30 | X-H torsion
[ 10763 10752 10751 10750 ] final -159.62 input  -60.55 | X-H torsion
[ 11005 11000 10999 10996 ] final   -8.75 input  -57.11 | X-H torsion

> <Gold.Protein.ActiveResidues>
 VAL166  LYS551  ARG553  GLY616  TRP617  ASP618  TYR619  PRO620  LYS621  CYS622 
 ASP623  PHE694  ASN695  SER759  ASP760  ASP761  ALA762  ILE779  LEU786  VAL792 
 PHE793  MET794  SER795  GLU796  ALA797  LYS798  CYS799  TRP800  GLU811  SER814 

> <Gold.Protein.RotatedAtoms>
  150.7222  134.0490  159.3791 H   0  0  0  0  0  0  0  0  0  0  0  0  # atno 6907 bound_to 6896
  151.8466  135.0570  160.0463 H   0  0  0  0  0  0  0  0  0  0  0  0  # atno 6908 bound_to 6896
  152.2822  133.5445  159.5541 H   0  0  0  0  0  0  0  0  0  0  0  0  # atno 6909 bound_to 6896
  145.1955  139.2978  143.4346 H   0  0  0  0  0  0  0  0  0  0  0  0  # atno 7974 bound_to 7965
  155.4498  140.0538  157.3002 H   0  0  0  0  0  0  0  0  0  0  0  0  # atno 8008 bound_to 7997
  154.4782  140.2070  155.9783 H   0  0  0  0  0  0  0  0  0  0  0  0  # atno 8009 bound_to 7997
  156.1165  140.3195  155.8151 H   0  0  0  0  0  0  0  0  0  0  0  0  # atno 8010 bound_to 7997
  139.8589  144.6554  150.9082 H   0  0  0  0  0  0  0  0  0  0  0  0  # atno 10167 bound_to 10162
  157.4316  130.8028  149.7608 H   0  0  0  0  0  0  0  0  0  0  0  0  # atno 10718 bound_to 10713
  154.7460  135.3080  154.8644 H   0  0  0  0  0  0  0  0  0  0  0  0  # atno 10763 bound_to 10752
  153.9445  135.6771  153.4748 H   0  0  0  0  0  0  0  0  0  0  0  0  # atno 10764 bound_to 10752
  153.1056  135.4891  154.8872 H   0  0  0  0  0  0  0  0  0  0  0  0  # atno 10765 bound_to 10752
  140.7268  133.8782  155.8862 H   0  0  0  0  0  0  0  0  0  0  0  0  # atno 11005 bound_to 11000
  146.3428  140.2182  142.8591 LP  0  0  0  0  0  0  0  0  0  0  0  0  # atno 17320 bound_to 7965
  144.9999  140.8622  143.5288 LP  0  0  0  0  0  0  0  0  0  0  0  0  # atno 17321 bound_to 7965
  140.7778  143.3762  151.1560 LP  0  0  0  0  0  0  0  0  0  0  0  0  # atno 17342 bound_to 10162
  139.7393  143.8950  152.3045 LP  0  0  0  0  0  0  0  0  0  0  0  0  # atno 17343 bound_to 10162
  155.9915  130.3937  150.2981 LP  0  0  0  0  0  0  0  0  0  0  0  0  # atno 17370 bound_to 10713
  157.1138  131.0228  151.3037 LP  0  0  0  0  0  0  0  0  0  0  0  0  # atno 17371 bound_to 10713
  140.9955  134.1220  157.4367 LP  0  0  0  0  0  0  0  0  0  0  0  0  # atno 17394 bound_to 11000
  139.8835  135.0053  156.6306 LP  0  0  0  0  0  0  0  0  0  0  0  0  # atno 17395 bound_to 11000

$$$$
