#       Name:                AV-unprocessed.smi:456
#       Creating user name   scv26
#       Creation time:       Thu Mar 26 23:01:43 2020


#       File generated by GOLD software.
#

@<TRIPOS>MOLECULE
AV-unprocessed.smi:456
    35    37     1
SMALL
NO_CHARGES


@<TRIPOS>ATOM
      1 ****        -1.3386   3.0528  -1.5665 O.3            1 S1                 0.0000
      2 ****        -0.9030   1.7177  -1.4121 C.3            1 S1                 0.0000
      3 ****         0.6381   1.7122  -1.3750 C.3            1 S1                 0.0000
      4 ****         1.1846   0.3682  -1.4417 N.pl3          1 S1                 0.0000
      5 ****         1.4344  -0.3476  -2.5549 C.2            1 S1                 0.0000
      6 ****         1.9273  -1.5723  -2.3944 N.2            1 S1                 0.0000
      7 ****         2.0073  -1.6629  -1.0155 C.ar           1 S1                 0.0000
      8 ****         2.4495  -2.7220  -0.1910 C.ar           1 S1                 0.0000
      9 ****         2.4366  -2.5884   1.2130 C.ar           1 S1                 0.0000
     10 ****         2.8628  -3.6137   1.9883 F              1 S1                 0.0000
     11 ****         1.9831  -1.3947   1.8128 C.ar           1 S1                 0.0000
     12 ****         1.9719  -1.2751   3.1616 F              1 S1                 0.0000
     13 ****         1.5410  -0.3247   1.0116 C.ar           1 S1                 0.0000
     14 ****         1.5533  -0.4633  -0.3888 C.ar           1 S1                 0.0000
     15 ****        -1.5124   1.0514  -0.1862 C.ar           1 S1                 0.0000
     16 ****        -2.0172  -0.2638  -0.2773 C.ar           1 S1                 0.0000
     17 ****        -2.5536  -0.8991   0.8593 C.ar           1 S1                 0.0000
     18 ****        -2.5895  -0.2229   2.0937 C.ar           1 S1                 0.0000
     19 ****        -2.0895   1.0897   2.1906 C.ar           1 S1                 0.0000
     20 ****        -1.5522   1.7254   1.0547 C.ar           1 S1                 0.0000
     21 ****        -2.2759   3.0488  -1.6876 H              1 S1                 0.0000
     22 ****        -1.2368   1.1824  -2.3023 H              1 S1                 0.0000
     23 ****         1.0349   2.2744  -2.2217 H              1 S1                 0.0000
     24 ****         1.0089   2.2039  -0.4746 H              1 S1                 0.0000
     25 ****         1.2395   0.0525  -3.5393 H              1 S1                 0.0000
     26 ****         2.7979  -3.6408  -0.6387 H              1 S1                 0.0000
     27 ****         1.1910   0.5883   1.4693 H              1 S1                 0.0000
     28 ****        -1.9837  -0.7947  -1.2174 H              1 S1                 0.0000
     29 ****        -2.9342  -1.9071   0.7847 H              1 S1                 0.0000
     30 ****        -2.9985  -0.7111   2.9660 H              1 S1                 0.0000
     31 ****        -2.1145   1.6080   3.1377 H              1 S1                 0.0000
     32 ****        -1.1617   2.7289   1.1421 H              1 S1                 0.0000
     33 ****        -0.8967   3.4620  -2.3648 LP             1 S1                 0.0000
     34 ****        -1.1059   3.5805  -0.7496 LP             1 S1                 0.0000
     35 ****         2.1749  -2.2494  -3.0874 LP             1 S1                 0.0000
@<TRIPOS>BOND
    1    1    2 1     
    2    1   21 1     
    3    2    3 1     
    4    2   15 1     
    5    2   22 1     
    6    3    4 1     
    7    3   23 1     
    8    3   24 1     
    9    4   14 1     
   10    4    5 1     
   11    5    6 2     
   12    5   25 1     
   13    6    7 1     
   14    7   14 ar    
   15    7    8 ar    
   16    8    9 ar    
   17    8   26 1     
   18    9   10 1     
   19    9   11 ar    
   20   11   12 1     
   21   11   13 ar    
   22   13   14 ar    
   23   13   27 1     
   24   15   20 ar    
   25   15   16 ar    
   26   16   17 ar    
   27   16   28 1     
   28   17   18 ar    
   29   17   29 1     
   30   18   19 ar    
   31   18   30 1     
   32   19   20 ar    
   33   19   31 1     
   34   20   32 1     
   35    1   33 1     
   36    1   34 1     
   37    6   35 1     
@<TRIPOS>SUBSTRUCTURE
      1 S1             1
@<TRIPOS>SET
LONE_PAIRS      STATIC     ATOMS    <user>   **** ""
3 33 34 35
DONOR_HYDROGENS      STATIC     ATOMS    <user>   **** ""
1 21
ATOM$BLUE        STATIC     ATOMS    COLORGROUP SYSTEM
3 33 34 35
ATOM$RED        STATIC     ATOMS    COLORGROUP SYSTEM
1 21
