AV-unprocessed.smi:1434|AV-procd|sdf|5853|dock4
  -GOLD-   22720 5523D 1   1.00000     0.00000
 Structure written by MMmdl.
 43 44  0  0  0  0  0  0  0  0  2 V2000
  151.0755  133.6148  156.1897 C   0  0  0  0  0  0  0  0  0  0  0  0
  149.9738  134.5841  155.0850 S   0  0  0  0  0  0  0  0  0  0  0  0
  149.6470  133.6915  153.9614 O   0  0  0  0  0  0  0  0  0  0  0  0
  148.8578  135.0360  155.9315 O   0  0  0  0  0  0  0  0  0  0  0  0
  150.9689  135.7917  154.6583 N   0  5  0  0  0  0  0  0  0  0  0  0
  150.8943  137.0717  155.3472 C   0  0  2  0  0  0  0  0  0  0  0  0
  150.5226  138.2138  154.3635 C   0  0  0  0  0  0  0  0  0  0  0  0
  150.6793  139.6328  154.9739 C   0  0  0  0  0  0  0  0  0  0  0  0
  152.0586  139.8428  155.6393 C   0  0  0  0  0  0  0  0  0  0  0  0
  152.2473  138.7494  156.6191 N   0  0  0  0  0  0  0  0  0  0  0  0
  152.3748  138.9038  157.9639 C   0  0  0  0  0  0  0  0  0  0  0  0
  152.1596  137.9995  158.7722 O   0  0  0  0  0  0  0  0  0  0  0  0
  152.7011  140.1460  158.3598 N   0  0  0  0  0  0  0  0  0  0  0  0
  152.8199  140.5825  159.7461 C   0  0  0  0  0  0  0  0  0  0  0  0
  153.5733  141.9191  159.8523 C   0  0  0  0  0  0  0  0  0  0  0  0
  152.6797  143.1082  159.5566 C   0  0  0  0  0  0  0  0  0  0  0  0
  152.2466  143.3751  158.2401 C   0  0  0  0  0  0  0  0  0  0  0  0
  151.4208  144.4946  158.0199 C   0  0  0  0  0  0  0  0  0  0  0  0
  151.0634  145.3007  159.1180 C   0  0  0  0  0  0  0  0  0  0  0  0
  151.5499  144.9499  160.3933 C   0  0  0  0  0  0  0  0  0  0  0  0
  152.3417  143.8786  160.6152 N   0  0  0  0  0  0  0  0  0  0  0  0
  152.2712  137.4124  155.9817 C   0  0  0  0  0  0  0  0  0  0  0  0
  150.5351  132.7467  156.5657 H   0  0  0  0  0  0  0  0  0  0  0  0
  151.3894  134.2378  157.0266 H   0  0  0  0  0  0  0  0  0  0  0  0
  151.9511  133.2849  155.6316 H   0  0  0  0  0  0  0  0  0  0  0  0
  150.1556  137.0520  156.1496 H   0  0  0  0  0  0  0  0  0  0  0  0
  151.1619  138.1498  153.4815 H   0  0  0  0  0  0  0  0  0  0  0  0
  149.5006  138.0867  154.0065 H   0  0  0  0  0  0  0  0  0  0  0  0
  150.5308  140.3813  154.1952 H   0  0  0  0  0  0  0  0  0  0  0  0
  149.8928  139.8087  155.7107 H   0  0  0  0  0  0  0  0  0  0  0  0
  152.8474  139.7842  154.8879 H   0  0  0  0  0  0  0  0  0  0  0  0
  152.1250  140.8472  156.0569 H   0  0  0  0  0  0  0  0  0  0  0  0
  152.8471  140.8445  157.6457 H   0  0  0  0  0  0  0  0  0  0  0  0
  151.8301  140.6609  160.1992 H   0  0  0  0  0  0  0  0  0  0  0  0
  153.3551  139.8105  160.2995 H   0  0  0  0  0  0  0  0  0  0  0  0
  153.9981  142.0289  160.8511 H   0  0  0  0  0  0  0  0  0  0  0  0
  154.4158  141.9355  159.1593 H   0  0  0  0  0  0  0  0  0  0  0  0
  152.5392  142.7391  157.4176 H   0  0  0  0  0  0  0  0  0  0  0  0
  151.0682  144.7307  157.0268 H   0  0  0  0  0  0  0  0  0  0  0  0
  150.4317  146.1667  158.9868 H   0  0  0  0  0  0  0  0  0  0  0  0
  151.2966  145.5453  161.2578 H   0  0  0  0  0  0  0  0  0  0  0  0
  152.5516  136.6240  156.6822 H   0  0  0  0  0  0  0  0  0  0  0  0
  153.0490  137.4096  155.2161 H   0  0  0  0  0  0  0  0  0  0  0  0
  1  2  1  0  0  0  0
  1 23  1  0  0  0  0
  1 24  1  0  0  0  0
  1 25  1  0  0  0  0
  2  3  2  0  0  0  0
  2  4  2  0  0  0  0
  2  5  1  0  0  0  0
  5  6  1  0  0  0  0
  6 22  1  0  0  0  0
  6  7  1  0  0  0  0
  6 26  1  0  0  0  0
  7  8  1  0  0  0  0
  7 27  1  0  0  0  0
  7 28  1  0  0  0  0
  8  9  1  0  0  0  0
  8 29  1  0  0  0  0
  8 30  1  0  0  0  0
  9 10  1  0  0  0  0
  9 31  1  0  0  0  0
  9 32  1  0  0  0  0
 10 11  1  0  0  0  0
 10 22  1  0  0  0  0
 11 12  2  0  0  0  0
 11 13  1  0  0  0  0
 13 14  1  0  0  0  0
 13 33  1  0  0  0  0
 14 15  1  0  0  0  0
 14 34  1  0  0  0  0
 14 35  1  0  0  0  0
 15 16  1  0  0  0  0
 15 36  1  0  0  0  0
 15 37  1  0  0  0  0
 16 21  1  0  0  0  0
 16 17  2  0  0  0  0
 17 18  1  0  0  0  0
 17 38  1  0  0  0  0
 18 19  2  0  0  0  0
 18 39  1  0  0  0  0
 19 20  1  0  0  0  0
 19 40  1  0  0  0  0
 20 21  2  0  0  0  0
 20 41  1  0  0  0  0
 22 42  1  0  0  0  0
 22 43  1  0  0  0  0
M  CHG  1   5  -1
M  END
> <s_m_source_file>
AV-unprocessed.smi

> <i_m_source_file_index>
1434

> <i_lp_mmshare_version>
43012

> <i_f3d_flags>
0

> <s_epik_input>
W0NIM11TKD1PKSg9TylbTkhdW0NAQEhdMVtDSDJdW0NIMl1bQ0gyXU4oW0NIMl0xKUMoPU8pW05IXVtDSDJdW0NIMl1jMltjSF1bY0hdW2NIXVtjSF1uMg==

> <s_epik_cmdline>
J2VwaWtfcHl0aG9uJywgJy1waCcsICc3LjAnLCAnLXRuJywgJzgnLCAnLW1hJywgJzIwMCcsICctbWV0YWxfYmluZGluZycsICctaW1hZScsICc8aW5maWxlLm1hZT4nLCAnLW9tYWUnLCAnPG91dGZpbGUubWFlPic=

> <r_epik_Ionization_Penalty>
6.57847

> <r_epik_Ionization_Penalty_Charging>
6.53351

> <r_epik_Ionization_Penalty_Neutral>
0.0449527

> <r_epik_State_Penalty>
6.57157

> <r_epik_Charging_Adjusted_Penalty>
13.1051

> <i_epik_Tot_Q>
-1

> <i_epik_Tot_abs_Q>
1

> <r_epik_Metal_State_Penalty>
2.53928

> <b_epik_Metal_Only>
1

> <s_lp_Force_Field>
OPLS_2005

> <r_lp_Energy>
19.5099

> <b_lp_Chiralities_Consistent>
1

> <s_lp_Variant>
AV-unprocessed.smi:1434-5

> <Gold.Version>
5.8.1

> <Gold.Id.Protein>
6NUR|6NUR_protein|mol2

> <Gold.PLP.Fitness>
49.2587

> <Gold.PLP.PLP>
-44.1924

> <Gold.PLP.part.hbond>
-1.0000

> <Gold.PLP.part.metal>
0.0000

> <Gold.PLP.part.buried>
-3.8954

> <Gold.PLP.part.nonpolar>
-39.2823

> <Gold.PLP.part.repulsive>
0.5594

> <Gold.PLP.ligand.clash>
0.0000

> <Gold.PLP.ligand.torsion>
0.9836

> <Gold.PLP.Chemscore.Hbond>
2.0000

> <Gold.PLP.Chemscore.CHOScore>
0.0000

> <Gold.PLP.Chemscore.Metal>
0.0000

> <Gold.Chemscore.Hbonds>
donor molecule, donor type, donor heavy atom, donor atom, acceptor molecule, acceptor atom, score
      P1  H 10752 10765       L1     5  1.90

> <Gold.PLP.Chemscore.Internal.Correction>
1.0334

> <Gold.Rescore>
     Score         DG    S(hbond)    S(metal)    S(lipo)     H(rot)  DE(clash)    DE(int)     intcor
     14.62     -16.59       0.64        0.00     113.47       1.68       0.97       1.00       ----

> <Gold.Chemscore.Fitness>
14.6211

> <Gold.Chemscore.DG>
-16.5902

> <Gold.Chemscore.ZeroCoef>
-5.4800

> <Gold.Chemscore.Hbond>
0.6404

> <Gold.Chemscore.Metal>
0.0000

> <Gold.Chemscore.Lipo>
113.4672

> <Gold.Chemscore.Internal_Hbond>
0.0000

> <Gold.Chemscore.DEClash>
0.9681

> <Gold.Chemscore.DEInternal>
1.0010

> <Gold.Chemscore.Rot>
1.6813

> <Gold.Chemscore.Internal.Correction>
   9.000000E+99

> <Gold.Chemscore.Hbonds>
donor molecule, donor type, donor heavy atom, donor atom, acceptor molecule, acceptor atom, score
      P1  H 10752 10765       L1     5  0.21

> <Gold.Chemscore.Hbond.Weighted>
-2.1388

> <Gold.Chemscore.Metal.Weighted>
-0.0000

> <Gold.Chemscore.Lipo.Weighted>
-13.2757

> <Gold.Chemscore.Internal_Hbond.Weighted>
0.0000

> <Gold.Chemscore.DEClash.Weighted>
0.9681

> <Gold.Chemscore.DEInternal.Weighted>
1.0010

> <Gold.Chemscore.Rot.Weighted>
4.3042

> <Gold.Chemscore.Internal.Correction.Weighted>
   9.000000E+99

> <Gold.Protein.RotatedTorsions>
[ 6907 6896 6895 6894 ] final -109.10 input  -60.11 | X-H torsion
[ 7974 7965 7964 7962 ] final  -49.29 input  175.53 | X-H torsion
[ 8008 7997 7996 7995 ] final  172.66 input   59.86 | X-H torsion
[ 10167 10162 10161 10158 ] final -137.50 input  -65.29 | X-H torsion
[ 10718 10713 10712 10709 ] final   63.44 input   66.30 | X-H torsion
[ 10763 10752 10751 10750 ] final -176.51 input  -60.55 | X-H torsion
[ 11005 11000 10999 10996 ] final   23.25 input  -57.11 | X-H torsion

> <Gold.Protein.ActiveResidues>
 VAL166  LYS551  ARG553  GLY616  TRP617  ASP618  TYR619  PRO620  LYS621  CYS622 
 ASP623  PHE694  ASN695  SER759  ASP760  ASP761  ALA762  ILE779  LEU786  VAL792 
 PHE793  MET794  SER795  GLU796  ALA797  LYS798  CYS799  TRP800  GLU811  SER814 

> <Gold.Protein.RotatedAtoms>
  150.7541  133.9579  159.3506 H   0  0  0  0  0  0  0  0  0  0  0  0  # atno 6907 bound_to 6896
  151.7502  135.0832  160.0339 H   0  0  0  0  0  0  0  0  0  0  0  0  # atno 6908 bound_to 6896
  152.3471  133.6098  159.5954 H   0  0  0  0  0  0  0  0  0  0  0  0  # atno 6909 bound_to 6896
  145.9421  140.7652  142.9547 H   0  0  0  0  0  0  0  0  0  0  0  0  # atno 7974 bound_to 7965
  156.1152  140.1480  156.9282 H   0  0  0  0  0  0  0  0  0  0  0  0  # atno 8008 bound_to 7997
  154.4795  140.0884  156.7387 H   0  0  0  0  0  0  0  0  0  0  0  0  # atno 8009 bound_to 7997
  155.4526  140.3435  155.4305 H   0  0  0  0  0  0  0  0  0  0  0  0  # atno 8010 bound_to 7997
  139.8571  143.7124  152.2653 H   0  0  0  0  0  0  0  0  0  0  0  0  # atno 10167 bound_to 10162
  157.5971  130.9105  149.9716 H   0  0  0  0  0  0  0  0  0  0  0  0  # atno 10718 bound_to 10713
  154.5715  135.2828  155.0823 H   0  0  0  0  0  0  0  0  0  0  0  0  # atno 10763 bound_to 10752
  154.2194  135.6394  153.5143 H   0  0  0  0  0  0  0  0  0  0  0  0  # atno 10764 bound_to 10752
  153.0059  135.5510  154.6339 H   0  0  0  0  0  0  0  0  0  0  0  0  # atno 10765 bound_to 10752
  140.3717  134.2016  155.7666 H   0  0  0  0  0  0  0  0  0  0  0  0  # atno 11005 bound_to 11000
  144.6781  140.2297  143.7357 LP  0  0  0  0  0  0  0  0  0  0  0  0  # atno 17320 bound_to 7965
  145.8286  139.2075  143.1896 LP  0  0  0  0  0  0  0  0  0  0  0  0  # atno 17321 bound_to 7965
  139.7409  144.7559  151.0654 LP  0  0  0  0  0  0  0  0  0  0  0  0  # atno 17342 bound_to 10162
  140.7780  143.4973  150.9816 LP  0  0  0  0  0  0  0  0  0  0  0  0  # atno 17343 bound_to 10162
  156.1036  130.3654  150.0173 LP  0  0  0  0  0  0  0  0  0  0  0  0  # atno 17370 bound_to 10713
  156.8284  130.9383  151.3638 LP  0  0  0  0  0  0  0  0  0  0  0  0  # atno 17371 bound_to 10713
  141.1952  133.8110  157.0723 LP  0  0  0  0  0  0  0  0  0  0  0  0  # atno 17394 bound_to 11000
  140.0547  134.9787  157.1199 LP  0  0  0  0  0  0  0  0  0  0  0  0  # atno 17395 bound_to 11000

$$$$
