#       Name:                AV-unprocessed.smi:1626
#       Creating user name   scv26
#       Creation time:       Fri Mar 27 07:17:50 2020


#       File generated by GOLD software.
#

@<TRIPOS>MOLECULE
AV-unprocessed.smi:1626
    53    55     1
SMALL
NO_CHARGES


@<TRIPOS>ATOM
      1 ****        -3.5535   4.9332  -2.1952 C.3            1 S1                 0.0000
      2 ****        -3.1771   3.7312  -1.3472 C.ar           1 S1                 0.0000
      3 ****        -3.4246   3.7671   0.0436 C.ar           1 S1                 0.0000
      4 ****        -3.0920   2.6693   0.8667 C.ar           1 S1                 0.0000
      5 ****        -3.2442   2.4894   2.2309 N.2            1 S1                 0.0000
      6 ****        -2.7512   1.2658   2.3971 C.2            1 S1                 0.0000
      7 ****        -2.2891   0.6335   1.3008 N.pl3          1 S1                 0.0000
      8 ****        -1.7061  -0.6945   1.2334 C.3            1 S1                 0.0000
      9 ****        -0.1676  -0.6596   1.1532 C.3            1 S1                 0.0000
     10 ****         0.3450   0.0018   2.2944 O.3            1 S1                 0.0000
     11 ****         0.4312  -2.0788   1.0957 C.3            1 S1                 0.0000
     12 ****         1.9092  -2.0696   0.9437 N.4            1 S1                 1.0000
     13 ****         2.3575  -1.7896  -0.4464 C.3            1 S1                 0.0000
     14 ****         3.8891  -1.6471  -0.5211 C.3            1 S1                 0.0000
     15 ****         4.6107  -2.8754   0.0581 C.3            1 S1                 0.0000
     16 ****         4.4384  -3.9898  -0.7944 O.3            1 S1                 0.0000
     17 ****         4.0742  -3.1984   1.4624 C.3            1 S1                 0.0000
     18 ****         2.5388  -3.3029   1.4814 C.3            1 S1                 0.0000
     19 ****        -2.4983   1.5262   0.2557 C.ar           1 S1                 0.0000
     20 ****        -2.2456   1.4786  -1.1265 C.ar           1 S1                 0.0000
     21 ****        -2.5855   2.5839  -1.9345 C.ar           1 S1                 0.0000
     22 ****        -2.3110   2.5233  -3.4268 C.3            1 S1                 0.0000
     23 ****        -4.0066   5.7205  -1.5920 H              1 S1                 0.0000
     24 ****        -4.2707   4.6483  -2.9654 H              1 S1                 0.0000
     25 ****        -2.6705   5.3498  -2.6803 H              1 S1                 0.0000
     26 ****        -3.8750   4.6410   0.4913 H              1 S1                 0.0000
     27 ****        -2.7192   0.8039   3.3732 H              1 S1                 0.0000
     28 ****        -2.0322  -1.2630   2.1057 H              1 S1                 0.0000
     29 ****        -2.1177  -1.2016   0.3597 H              1 S1                 0.0000
     30 ****         0.1209  -0.0881   0.2714 H              1 S1                 0.0000
     31 ****        -0.0180   0.8746   2.3237 H              1 S1                 0.0000
     32 ****         0.1583  -2.6020   2.0139 H              1 S1                 0.0000
     33 ****        -0.0119  -2.6510   0.2791 H              1 S1                 0.0000
     34 ****         2.0210  -2.5908  -1.1062 H              1 S1                 0.0000
     35 ****         1.9022  -0.8713  -0.8149 H              1 S1                 0.0000
     36 ****         4.2016  -1.4749  -1.5519 H              1 S1                 0.0000
     37 ****         4.1896  -0.7602   0.0386 H              1 S1                 0.0000
     38 ****         5.6813  -2.6757   0.1167 H              1 S1                 0.0000
     39 ****         4.8557  -3.8046  -1.6223 H              1 S1                 0.0000
     40 ****         4.5192  -4.1218   1.8352 H              1 S1                 0.0000
     41 ****         4.3843  -2.4126   2.1526 H              1 S1                 0.0000
     42 ****         2.2096  -3.4682   2.5080 H              1 S1                 0.0000
     43 ****         2.2080  -4.1658   0.9010 H              1 S1                 0.0000
     44 ****        -1.7954   0.5986  -1.5612 H              1 S1                 0.0000
     45 ****        -1.8481   1.5773  -3.7091 H              1 S1                 0.0000
     46 ****        -1.6374   3.3271  -3.7242 H              1 S1                 0.0000
     47 ****        -3.2392   2.6224  -3.9902 H              1 S1                 0.0000
     48 ****         2.2421  -1.3113   1.5224 H              1 S1                 0.0000
     49 ****        -3.6247   3.1150   2.9120 LP             1 S1                 0.0000
     50 ****         1.3419   0.0529   2.2353 LP             1 S1                 0.0000
     51 ****         0.0853  -0.4994   3.1198 LP             1 S1                 0.0000
     52 ****         3.4629  -4.1556  -0.9387 LP             1 S1                 0.0000
     53 ****         4.8563  -4.7983  -0.3802 LP             1 S1                 0.0000
@<TRIPOS>BOND
    1    1    2 1     
    2    1   23 1     
    3    1   24 1     
    4    1   25 1     
    5    2   21 ar    
    6    2    3 ar    
    7    3    4 ar    
    8    3   26 1     
    9    4   19 ar    
   10    4    5 1     
   11    5    6 2     
   12    6    7 1     
   13    6   27 1     
   14    7    8 1     
   15    7   19 1     
   16    8    9 1     
   17    8   28 1     
   18    8   29 1     
   19    9   10 1     
   20    9   11 1     
   21    9   30 1     
   22   10   31 1     
   23   11   12 1     
   24   11   32 1     
   25   11   33 1     
   26   12   18 1     
   27   12   13 1     
   28   12   48 1     
   29   13   14 1     
   30   13   34 1     
   31   13   35 1     
   32   14   15 1     
   33   14   36 1     
   34   14   37 1     
   35   15   16 1     
   36   15   17 1     
   37   15   38 1     
   38   16   39 1     
   39   17   18 1     
   40   17   40 1     
   41   17   41 1     
   42   18   42 1     
   43   18   43 1     
   44   19   20 ar    
   45   20   21 ar    
   46   20   44 1     
   47   21   22 1     
   48   22   45 1     
   49   22   46 1     
   50   22   47 1     
   51    5   49 1     
   52   10   50 1     
   53   10   51 1     
   54   16   52 1     
   55   16   53 1     
@<TRIPOS>SUBSTRUCTURE
      1 S1             1
@<TRIPOS>SET
LONE_PAIRS      STATIC     ATOMS    <user>   **** ""
5 49 50 51 52 53
DONOR_HYDROGENS      STATIC     ATOMS    <user>   **** ""
3 31 48 39
ATOM$BLUE        STATIC     ATOMS    COLORGROUP SYSTEM
5 49 50 51 52 53
ATOM$RED        STATIC     ATOMS    COLORGROUP SYSTEM
3 31 48 39
