#       Name:                AV-unprocessed.smi:39
#       Creating user name   scv26
#       Creation time:       Thu Mar 26 16:19:55 2020


#       File generated by GOLD software.
#

@<TRIPOS>MOLECULE
AV-unprocessed.smi:39
    42    43     1
SMALL
NO_CHARGES


@<TRIPOS>ATOM
      1 ****        -3.3632   1.6781   0.1828 C.3            1 S1                 0.0000
      2 ****        -2.7759   0.2779   0.1518 C.2            1 S1                 0.0000
      3 ****        -1.4653   0.0403   0.3803 C.2            1 S1                 0.0000
      4 ****        -0.9329  -1.2371   0.3472 N.am           1 S1                 0.0000
      5 ****         0.5420  -1.4764   0.5936 C.3            1 S1                 0.0000
      6 ****         1.3069  -1.4878  -0.7328 C.3            1 S1                 0.0000
      7 ****         1.8311  -0.0658  -0.7986 C.3            1 S1                 0.0000
      8 ****         3.0152   0.0657  -1.6505 N.2            1 S1                 0.0000
      9 ****         2.8126   0.1051  -2.8711 N.1            1 S1                 1.0000
     10 ****         2.5427   0.0516  -3.9753 N.1            1 S1                -1.0000
     11 ****         2.1345   0.2067   0.6770 C.3            1 S1                 0.0000
     12 ****         2.1755   1.7022   1.0289 C.3            1 S1                 0.0000
     13 ****         2.8531   1.8961   2.2520 O.3            1 S1                 0.0000
     14 ****         1.0579  -0.4287   1.3642 O.3            1 S1                 0.0000
     15 ****        -1.7745  -2.3385   0.0404 C.2            1 S1                 0.0000
     16 ****        -1.2658  -3.4583  -0.0176 O.2            1 S1                 0.0000
     17 ****        -3.0998  -2.1095  -0.1840 N.pl3          1 S1                -1.0000
     18 ****        -3.6516  -0.8629  -0.1409 C.2            1 S1                 0.0000
     19 ****        -4.8506  -0.6710  -0.3405 O.2            1 S1                 0.0000
     20 ****         0.6125  -2.4097   1.1543 H              1 S1                 0.0000
     21 ****         1.0316   0.6006  -1.1294 H              1 S1                 0.0000
     22 ****         3.0689  -0.2869   0.9519 H              1 S1                 0.0000
     23 ****        -2.6018   2.4222   0.4175 H              1 S1                 0.0000
     24 ****        -4.1467   1.7460   0.9380 H              1 S1                 0.0000
     25 ****        -3.7952   1.9306  -0.7860 H              1 S1                 0.0000
     26 ****        -0.8201   0.8796   0.5885 H              1 S1                 0.0000
     27 ****         2.1248  -2.2053  -0.6524 H              1 S1                 0.0000
     28 ****         0.6743  -1.7674  -1.5764 H              1 S1                 0.0000
     29 ****         2.7231   2.2530   0.2638 H              1 S1                 0.0000
     30 ****         1.1733   2.1283   1.0776 H              1 S1                 0.0000
     31 ****         2.8642   2.8209   2.4456 H              1 S1                 0.0000
     32 ****         3.9371   0.1207  -1.2670 LP             1 S1                 0.0000
     33 ****         2.3055   0.0046  -4.9456 LP             1 S1                 0.0000
     34 ****         3.7904   1.5562   2.1758 LP             1 S1                 0.0000
     35 ****         2.3785   1.4044   2.9821 LP             1 S1                 0.0000
     36 ****         1.3904  -0.7919   2.2345 LP             1 S1                 0.0000
     37 ****         0.3355   0.2409   1.5367 LP             1 S1                 0.0000
     38 ****        -0.2864  -3.5718   0.1492 LP             1 S1                 0.0000
     39 ****        -1.8321  -4.2542  -0.2315 LP             1 S1                 0.0000
     40 ****        -3.6924  -2.8885  -0.3889 LP             1 S1                 0.0000
     41 ****        -5.2216   0.2569  -0.3026 LP             1 S1                 0.0000
     42 ****        -5.4540  -1.4429  -0.5406 LP             1 S1                 0.0000
@<TRIPOS>BOND
    1    1    2 1     
    2    1   23 1     
    3    1   24 1     
    4    1   25 1     
    5    2   18 1     
    6    2    3 2     
    7    3    4 1     
    8    3   26 1     
    9    4    5 1     
   10    4   15 am    
   11    5   20 1     
   12    5   14 1     
   13    5    6 1     
   14    6    7 1     
   15    6   27 1     
   16    6   28 1     
   17    7   21 1     
   18    7    8 1     
   19    7   11 1     
   20    8    9 2     
   21    9   10 2     
   22   11   22 1     
   23   11   12 1     
   24   11   14 1     
   25   12   13 1     
   26   12   29 1     
   27   12   30 1     
   28   13   31 1     
   29   15   16 2     
   30   15   17 1     
   31   17   18 1     
   32   18   19 2     
   33    8   32 1     
   34   10   33 1     
   35   13   34 1     
   36   13   35 1     
   37   14   36 1     
   38   14   37 1     
   39   16   38 1     
   40   16   39 1     
   41   17   40 1     
   42   19   41 1     
   43   19   42 1     
@<TRIPOS>SUBSTRUCTURE
      1 S1             1
@<TRIPOS>SET
LONE_PAIRS      STATIC     ATOMS    <user>   **** ""
11 32 33 34 35 36 37 38 39 40 41 42
DONOR_HYDROGENS      STATIC     ATOMS    <user>   **** ""
1 31
ATOM$BLUE        STATIC     ATOMS    COLORGROUP SYSTEM
11 32 33 34 35 36 37 38 39 40 41 42
ATOM$RED        STATIC     ATOMS    COLORGROUP SYSTEM
1 31
