AV-unprocessed.smi:906|AV-procd|sdf|4101|dock10
  -GOLD-   22720 1593D 1   1.00000     0.00000
 Structure written by MMmdl.
 47 48  0  0  0  0  0  0  0  0  1 V2000
  151.9017  145.9172  160.2705 C   0  0  0  0  0  0  0  0  0  0  0  0
  151.8185  144.5973  159.5326 C   0  0  0  0  0  0  0  0  0  0  0  0
  152.1862  143.3919  160.1669 C   0  0  0  0  0  0  0  0  0  0  0  0
  152.0837  142.1919  159.4371 C   0  0  0  0  0  0  0  0  0  0  0  0
  151.6187  142.2425  158.1071 C   0  0  0  0  0  0  0  0  0  0  0  0
  151.4831  140.9790  157.2808 C   0  0  0  0  0  0  0  0  0  0  0  0
  150.0390  140.7523  156.8052 C   0  0  0  0  0  0  0  0  0  0  0  0
  149.5443  139.4405  157.2054 N   0  0  0  0  0  0  0  0  0  0  0  0
  148.2698  139.1550  157.5221 C   0  0  0  0  0  0  0  0  0  0  0  0
  147.3811  140.0076  157.4910 O   0  0  0  0  0  0  0  0  0  0  0  0
  148.0408  137.8549  157.8336 N   0  0  0  0  0  0  0  0  0  0  0  0
  149.0516  136.8126  158.0647 C   0  0  0  0  0  0  0  0  0  0  0  0
  149.0649  136.4593  159.5644 C   0  0  0  0  0  0  0  0  0  0  0  0
  147.7387  135.9937  159.9888 N   0  0  0  0  0  0  0  0  0  0  0  0
  147.7537  135.4893  161.3729 C   0  0  1  0  0  0  0  0  0  0  0  0
  147.7080  136.6013  162.4440 C   0  0  0  0  0  0  0  0  0  0  0  0
  146.6743  134.4050  161.6052 C   0  0  0  0  0  0  0  0  0  0  0  0
  146.7604  133.4585  160.6699 F   0  0  0  0  0  0  0  0  0  0  0  0
  146.8818  133.8321  162.7908 F   0  0  0  0  0  0  0  0  0  0  0  0
  145.4408  134.9104  161.5992 F   0  0  0  0  0  0  0  0  0  0  0  0
  146.7118  137.0062  159.7057 C   0  0  0  0  0  0  0  0  0  0  0  0
  146.7142  137.3545  158.2047 C   0  0  0  0  0  0  0  0  0  0  0  0
  151.2757  143.4998  157.5667 C   0  0  0  0  0  0  0  0  0  0  0  0
  151.3707  144.6555  158.2589 N   0  0  0  0  0  0  0  0  0  0  0  0
  152.5932  145.8522  161.1112 H   0  0  0  0  0  0  0  0  0  0  0  0
  150.9199  146.1950  160.6547 H   0  0  0  0  0  0  0  0  0  0  0  0
  152.2494  146.7107  159.6082 H   0  0  0  0  0  0  0  0  0  0  0  0
  152.5367  143.3846  161.1886 H   0  0  0  0  0  0  0  0  0  0  0  0
  152.3547  141.2506  159.8927 H   0  0  0  0  0  0  0  0  0  0  0  0
  152.1580  141.0440  156.4261 H   0  0  0  0  0  0  0  0  0  0  0  0
  151.8203  140.1281  157.8744 H   0  0  0  0  0  0  0  0  0  0  0  0
  149.3819  141.5069  157.2386 H   0  0  0  0  0  0  0  0  0  0  0  0
  149.9694  140.8652  155.7220 H   0  0  0  0  0  0  0  0  0  0  0  0
  150.2182  138.6895  157.2384 H   0  0  0  0  0  0  0  0  0  0  0  0
  148.8006  135.9306  157.4732 H   0  0  0  0  0  0  0  0  0  0  0  0
  150.0567  137.0948  157.7523 H   0  0  0  0  0  0  0  0  0  0  0  0
  149.8041  135.6777  159.7422 H   0  0  0  0  0  0  0  0  0  0  0  0
  149.3698  137.3300  160.1455 H   0  0  0  0  0  0  0  0  0  0  0  0
  148.7078  134.9733  161.4903 H   0  0  0  0  0  0  0  0  0  0  0  0
  147.8335  136.1768  163.4400 H   0  0  0  0  0  0  0  0  0  0  0  0
  146.7562  137.1321  162.4416 H   0  0  0  0  0  0  0  0  0  0  0  0
  148.5022  137.3348  162.3106 H   0  0  0  0  0  0  0  0  0  0  0  0
  145.7247  136.6359  159.9746 H   0  0  0  0  0  0  0  0  0  0  0  0
  146.8912  137.9086  160.2912 H   0  0  0  0  0  0  0  0  0  0  0  0
  145.9207  138.0723  157.9929 H   0  0  0  0  0  0  0  0  0  0  0  0
  146.4792  136.4701  157.6103 H   0  0  0  0  0  0  0  0  0  0  0  0
  150.9118  143.5813  156.5530 H   0  0  0  0  0  0  0  0  0  0  0  0
  1  2  1  0  0  0  0
  1 25  1  0  0  0  0
  1 26  1  0  0  0  0
  1 27  1  0  0  0  0
  2 24  1  0  0  0  0
  2  3  2  0  0  0  0
  3  4  1  0  0  0  0
  3 28  1  0  0  0  0
  4  5  2  0  0  0  0
  4 29  1  0  0  0  0
  5  6  1  0  0  0  0
  5 23  1  0  0  0  0
  6  7  1  0  0  0  0
  6 30  1  0  0  0  0
  6 31  1  0  0  0  0
  7  8  1  0  0  0  0
  7 32  1  0  0  0  0
  7 33  1  0  0  0  0
  8  9  1  0  0  0  0
  8 34  1  0  0  0  0
  9 10  2  0  0  0  0
  9 11  1  0  0  0  0
 11 22  1  0  0  0  0
 11 12  1  0  0  0  0
 12 13  1  0  0  0  0
 12 35  1  0  0  0  0
 12 36  1  0  0  0  0
 13 14  1  0  0  0  0
 13 37  1  0  0  0  0
 13 38  1  0  0  0  0
 14 15  1  0  0  0  0
 14 21  1  0  0  0  0
 15 16  1  0  0  0  0
 15 17  1  0  0  0  0
 15 39  1  0  0  0  0
 16 40  1  0  0  0  0
 16 41  1  0  0  0  0
 16 42  1  0  0  0  0
 17 18  1  0  0  0  0
 17 19  1  0  0  0  0
 17 20  1  0  0  0  0
 21 22  1  0  0  0  0
 21 43  1  0  0  0  0
 21 44  1  0  0  0  0
 22 45  1  0  0  0  0
 22 46  1  0  0  0  0
 23 24  2  0  0  0  0
 23 47  1  0  0  0  0
M  END
> <s_m_source_file>
AV-unprocessed.smi

> <i_m_source_file_index>
906

> <i_lp_mmshare_version>
43012

> <i_f3d_flags>
0

> <s_epik_input>
W0NIM11jMVtjSF1bY0hdYyhbY0hdbjEpW0NIMl1bQ0gyXVtOSF1DKD1PKU4yW0NIMl1bQ0gyXU4oW0NASF0oW0NIM10pQyhGKShGKUYpW0NIMl1bQ0gyXTI=

> <s_epik_cmdline>
J2VwaWtfcHl0aG9uJywgJy1waCcsICc3LjAnLCAnLXRuJywgJzgnLCAnLW1hJywgJzIwMCcsICctbWV0YWxfYmluZGluZycsICctaW1hZScsICc8aW5maWxlLm1hZT4nLCAnLW9tYWUnLCAnPG91dGZpbGUubWFlPic=

> <r_epik_Ionization_Penalty>
0.0782886

> <r_epik_Ionization_Penalty_Charging>
0

> <r_epik_Ionization_Penalty_Neutral>
0.0782886

> <r_epik_State_Penalty>
0.0661423

> <r_epik_Charging_Adjusted_Penalty>
0.0661423

> <i_epik_Tot_Q>
0

> <i_epik_Tot_abs_Q>
0

> <r_epik_Metal_State_Penalty>
0.060629

> <b_epik_Metal_Only>
0

> <s_lp_Force_Field>
OPLS_2005

> <r_lp_Energy>
47.1211

> <b_lp_Chiralities_Consistent>
1

> <s_lp_Variant>
AV-unprocessed.smi:906-2

> <Gold.Version>
5.8.1

> <Gold.Id.Protein>
6NUR|6NUR_protein|mol2

> <Gold.PLP.Fitness>
42.0125

> <Gold.PLP.PLP>
-40.4870

> <Gold.PLP.part.hbond>
0.0000

> <Gold.PLP.part.metal>
0.0000

> <Gold.PLP.part.buried>
-3.7575

> <Gold.PLP.part.nonpolar>
-37.5990

> <Gold.PLP.part.repulsive>
0.1765

> <Gold.PLP.ligand.clash>
0.0000

> <Gold.PLP.ligand.torsion>
1.0486

> <Gold.PLP.Chemscore.Hbond>
0.0000

> <Gold.PLP.Chemscore.CHOScore>
0.9947

> <Gold.PLP.Chemscore.Metal>
0.0000

> <Gold.Chemscore.Hbonds>
donor molecule, donor type, donor heavy atom, donor atom, acceptor molecule, acceptor atom, score
      L1  C    23    47       P1  8028  1.00

> <Gold.PLP.Chemscore.Internal.Correction>
0.6387

> <Gold.Rescore>
     Score         DG    S(hbond)    S(metal)    S(lipo)     H(rot)  DE(clash)    DE(int)     intcor
     12.93     -14.04       0.00        0.00     107.85       1.58       0.03       1.08       ----

> <Gold.Chemscore.Fitness>
12.9313

> <Gold.Chemscore.DG>
-14.0429

> <Gold.Chemscore.ZeroCoef>
-5.4800

> <Gold.Chemscore.Hbond>
0.0000

> <Gold.Chemscore.Metal>
0.0000

> <Gold.Chemscore.Lipo>
107.8485

> <Gold.Chemscore.Internal_Hbond>
0.0000

> <Gold.Chemscore.DEClash>
0.0280

> <Gold.Chemscore.DEInternal>
1.0836

> <Gold.Chemscore.Rot>
1.5841

> <Gold.Chemscore.Internal.Correction>
   9.000000E+99

> <Gold.Chemscore.Hbond.Weighted>
-0.0000

> <Gold.Chemscore.Metal.Weighted>
-0.0000

> <Gold.Chemscore.Lipo.Weighted>
-12.6183

> <Gold.Chemscore.Internal_Hbond.Weighted>
0.0000

> <Gold.Chemscore.DEClash.Weighted>
0.0280

> <Gold.Chemscore.DEInternal.Weighted>
1.0836

> <Gold.Chemscore.Rot.Weighted>
4.0554

> <Gold.Chemscore.Internal.Correction.Weighted>
   9.000000E+99

> <Gold.Protein.RotatedTorsions>
[ 6907 6896 6895 6894 ] final  -32.41 input  -60.11 | X-H torsion
[ 7974 7965 7964 7962 ] final -134.83 input  175.53 | X-H torsion
[ 8008 7997 7996 7995 ] final -173.74 input   59.86 | X-H torsion
[ 10167 10162 10161 10158 ] final   78.81 input  -65.29 | X-H torsion
[ 10718 10713 10712 10709 ] final  176.19 input   66.30 | X-H torsion
[ 10763 10752 10751 10750 ] final -143.59 input  -60.55 | X-H torsion
[ 11005 11000 10999 10996 ] final   34.89 input  -57.11 | X-H torsion

> <Gold.Protein.ActiveResidues>
 VAL166  LYS551  ARG553  GLY616  TRP617  ASP618  TYR619  PRO620  LYS621  CYS622 
 ASP623  PHE694  ASN695  SER759  ASP760  ASP761  ALA762  ILE779  LEU786  VAL792 
 PHE793  MET794  SER795  GLU796  ALA797  LYS798  CYS799  TRP800  GLU811  SER814 

> <Gold.Protein.RotatedAtoms>
  151.0791  134.9847  159.8346 H   0  0  0  0  0  0  0  0  0  0  0  0  # atno 6907 bound_to 6896
  152.5417  134.2204  159.8795 H   0  0  0  0  0  0  0  0  0  0  0  0  # atno 6908 bound_to 6896
  151.2233  133.4447  159.2635 H   0  0  0  0  0  0  0  0  0  0  0  0  # atno 6909 bound_to 6896
  144.9068  140.6843  143.5050 H   0  0  0  0  0  0  0  0  0  0  0  0  # atno 7974 bound_to 7965
  155.9613  140.1145  157.0893 H   0  0  0  0  0  0  0  0  0  0  0  0  # atno 8008 bound_to 7997
  154.4133  140.1181  156.5250 H   0  0  0  0  0  0  0  0  0  0  0  0  # atno 8009 bound_to 7997
  155.6716  140.3473  155.4823 H   0  0  0  0  0  0  0  0  0  0  0  0  # atno 8010 bound_to 7997
  139.9670  144.5921  150.8020 H   0  0  0  0  0  0  0  0  0  0  0  0  # atno 10167 bound_to 10162
  156.9237  130.9949  151.3000 H   0  0  0  0  0  0  0  0  0  0  0  0  # atno 10718 bound_to 10713
  154.8463  135.3464  154.6211 H   0  0  0  0  0  0  0  0  0  0  0  0  # atno 10763 bound_to 10752
  153.6820  135.6979  153.5120 H   0  0  0  0  0  0  0  0  0  0  0  0  # atno 10764 bound_to 10752
  153.2661  135.4307  155.0898 H   0  0  0  0  0  0  0  0  0  0  0  0  # atno 10765 bound_to 10752
  140.2483  134.3333  155.7900 H   0  0  0  0  0  0  0  0  0  0  0  0  # atno 11005 bound_to 11000
  145.3522  139.1703  143.4428 LP  0  0  0  0  0  0  0  0  0  0  0  0  # atno 17320 bound_to 7965
  146.3138  140.3575  142.8662 LP  0  0  0  0  0  0  0  0  0  0  0  0  # atno 17321 bound_to 7965
  140.7534  143.3009  151.3084 LP  0  0  0  0  0  0  0  0  0  0  0  0  # atno 17342 bound_to 10162
  139.6510  144.0362  152.2626 LP  0  0  0  0  0  0  0  0  0  0  0  0  # atno 17343 bound_to 10162
  157.5891  130.8431  149.8633 LP  0  0  0  0  0  0  0  0  0  0  0  0  # atno 17370 bound_to 10713
  156.0479  130.3724  150.1273 LP  0  0  0  0  0  0  0  0  0  0  0  0  # atno 17371 bound_to 10713
  141.2204  133.7338  156.8996 LP  0  0  0  0  0  0  0  0  0  0  0  0  # atno 17394 bound_to 11000
  140.1584  134.9182  157.2683 LP  0  0  0  0  0  0  0  0  0  0  0  0  # atno 17395 bound_to 11000

$$$$
