AV-unprocessed.smi:149|AV-procd|sdf|1240|dock6
  -GOLD-   2262018453D 1   1.00000     0.00000
 Structure written by MMmdl.
 59 63  0  0  0  0  0  0  0  0  1 V2000
  147.8357  141.9000  157.1994 C   0  0  0  0  0  0  0  0  0  0  0  0
  147.2459  141.3153  155.9042 C   0  0  2  0  0  0  0  0  0  0  0  0
  146.2741  140.1532  156.0833 C   0  0  0  0  0  0  0  0  0  0  0  0
  146.1706  139.5633  154.7564 N   0  0  0  0  0  0  0  0  0  0  0  0
  145.4539  138.4242  154.5638 C   0  0  0  0  0  0  0  0  0  0  0  0
  144.5864  138.0255  155.5323 N   0  0  0  0  0  0  0  0  0  0  0  0
  143.8608  136.9145  155.3817 C   0  0  0  0  0  0  0  0  0  0  0  0
  143.8431  136.0639  154.3554 N   0  0  0  0  0  0  0  0  0  0  0  0
  144.7037  136.4565  153.3738 C   0  0  0  0  0  0  0  0  0  0  0  0
  145.5336  137.6150  153.3908 C   0  0  0  0  0  0  0  0  0  0  0  0
  146.2464  137.6926  152.1985 N   0  0  0  0  0  0  0  0  0  0  0  0
  145.8643  136.6443  151.5229 C   0  0  0  0  0  0  0  0  0  0  0  0
  144.9616  135.8302  152.1671 N   0  0  0  0  0  0  0  0  0  0  0  0
  144.3494  134.6442  151.6447 C   0  0  0  0  0  0  0  0  0  0  0  0
  144.6901  133.2639  152.2111 C   0  0  0  0  0  0  0  0  0  0  0  0
  144.4755  132.6448  150.8127 C   0  0  0  0  0  0  0  0  0  0  0  0
  145.4996  131.5711  150.4084 C   0  0  0  0  0  0  0  0  0  0  0  0
  146.8006  131.9144  150.8404 O   0  0  0  0  0  0  0  0  0  0  0  0
  143.0524  132.1160  150.5424 C   0  0  0  0  0  0  0  0  0  0  0  0
  142.7662  132.0878  149.1587 O   0  0  0  0  0  0  0  0  0  0  0  0
  144.7600  134.0700  150.2867 C   0  0  0  0  0  0  0  0  0  0  0  0
  147.4195  139.7668  154.0318 C   0  0  0  0  0  0  0  0  0  0  0  0
  148.2296  140.8177  154.8242 C   0  0  2  0  0  0  0  0  0  0  0  0
  149.5647  140.3881  155.2737 N   0  0  0  0  0  0  0  0  0  0  0  0
  150.2971  139.5423  154.3279 C   0  0  0  0  0  0  0  0  0  0  0  0
  151.6366  139.0710  154.9171 C   0  0  0  0  0  0  0  0  0  0  0  0
  152.4149  140.2034  155.2922 O   0  0  0  0  0  0  0  0  0  0  0  0
  151.7558  141.0355  156.2418 C   0  0  0  0  0  0  0  0  0  0  0  0
  150.4086  141.5111  155.6703 C   0  0  0  0  0  0  0  0  0  0  0  0
  148.3598  141.1563  157.7969 H   0  0  0  0  0  0  0  0  0  0  0  0
  147.0471  142.3177  157.8255 H   0  0  0  0  0  0  0  0  0  0  0  0
  148.5379  142.7037  156.9769 H   0  0  0  0  0  0  0  0  0  0  0  0
  146.6718  142.1194  155.4402 H   0  0  0  0  0  0  0  0  0  0  0  0
  146.6636  139.4178  156.7880 H   0  0  0  0  0  0  0  0  0  0  0  0
  145.3046  140.4977  156.4454 H   0  0  0  0  0  0  0  0  0  0  0  0
  143.2007  136.6722  156.2013 H   0  0  0  0  0  0  0  0  0  0  0  0
  146.2381  136.4337  150.5314 H   0  0  0  0  0  0  0  0  0  0  0  0
  143.2733  134.8216  151.6795 H   0  0  0  0  0  0  0  0  0  0  0  0
  145.7251  133.1981  152.5525 H   0  0  0  0  0  0  0  0  0  0  0  0
  144.0034  132.9086  152.9802 H   0  0  0  0  0  0  0  0  0  0  0  0
  145.2379  130.5928  150.8120 H   0  0  0  0  0  0  0  0  0  0  0  0
  145.5306  131.4552  149.3245 H   0  0  0  0  0  0  0  0  0  0  0  0
  147.4208  131.3543  150.3992 H   0  0  0  0  0  0  0  0  0  0  0  0
  142.9136  131.1146  150.9504 H   0  0  0  0  0  0  0  0  0  0  0  0
  142.3013  132.7429  151.0231 H   0  0  0  0  0  0  0  0  0  0  0  0
  142.1738  132.7970  148.9607 H   0  0  0  0  0  0  0  0  0  0  0  0
  144.1320  134.3920  149.4554 H   0  0  0  0  0  0  0  0  0  0  0  0
  145.8154  134.2383  150.0642 H   0  0  0  0  0  0  0  0  0  0  0  0
  147.9548  138.8273  153.8988 H   0  0  0  0  0  0  0  0  0  0  0  0
  147.1907  140.1522  153.0378 H   0  0  0  0  0  0  0  0  0  0  0  0
  148.3885  141.6706  154.1623 H   0  0  0  0  0  0  0  0  0  0  0  0
  149.7083  138.6728  154.0446 H   0  0  0  0  0  0  0  0  0  0  0  0
  150.4999  140.0865  153.4061 H   0  0  0  0  0  0  0  0  0  0  0  0
  151.4728  138.4283  155.7835 H   0  0  0  0  0  0  0  0  0  0  0  0
  152.1893  138.4858  154.1821 H   0  0  0  0  0  0  0  0  0  0  0  0
  151.6073  140.4863  157.1729 H   0  0  0  0  0  0  0  0  0  0  0  0
  152.3933  141.8891  156.4722 H   0  0  0  0  0  0  0  0  0  0  0  0
  150.5914  142.1622  154.8146 H   0  0  0  0  0  0  0  0  0  0  0  0
  149.8960  142.1156  156.4191 H   0  0  0  0  0  0  0  0  0  0  0  0
  1  2  1  0  0  0  0
  1 30  1  0  0  0  0
  1 31  1  0  0  0  0
  1 32  1  0  0  0  0
  2 23  1  0  0  0  0
  2  3  1  0  0  0  0
  2 33  1  0  0  0  0
  3  4  1  0  0  0  0
  3 34  1  0  0  0  0
  3 35  1  0  0  0  0
  4  5  1  0  0  0  0
  4 22  1  0  0  0  0
  5 10  1  0  0  0  0
  5  6  2  0  0  0  0
  6  7  1  0  0  0  0
  7  8  2  0  0  0  0
  7 36  1  0  0  0  0
  8  9  1  0  0  0  0
  9 13  1  0  0  0  0
  9 10  2  0  0  0  0
 10 11  1  0  0  0  0
 11 12  2  0  0  0  0
 12 13  1  0  0  0  0
 12 37  1  0  0  0  0
 13 14  1  0  0  0  0
 14 21  1  0  0  0  0
 14 15  1  0  0  0  0
 14 38  1  0  0  0  0
 15 16  1  0  0  0  0
 15 39  1  0  0  0  0
 15 40  1  0  0  0  0
 16 17  1  0  0  0  0
 16 19  1  0  0  0  0
 16 21  1  0  0  0  0
 17 18  1  0  0  0  0
 17 41  1  0  0  0  0
 17 42  1  0  0  0  0
 18 43  1  0  0  0  0
 19 20  1  0  0  0  0
 19 44  1  0  0  0  0
 19 45  1  0  0  0  0
 20 46  1  0  0  0  0
 21 47  1  0  0  0  0
 21 48  1  0  0  0  0
 22 23  1  0  0  0  0
 22 49  1  0  0  0  0
 22 50  1  0  0  0  0
 23 24  1  0  0  0  0
 23 51  1  0  0  0  0
 24 29  1  0  0  0  0
 24 25  1  0  0  0  0
 25 26  1  0  0  0  0
 25 52  1  0  0  0  0
 25 53  1  0  0  0  0
 26 27  1  0  0  0  0
 26 54  1  0  0  0  0
 26 55  1  0  0  0  0
 27 28  1  0  0  0  0
 28 29  1  0  0  0  0
 28 56  1  0  0  0  0
 28 57  1  0  0  0  0
 29 58  1  0  0  0  0
 29 59  1  0  0  0  0
M  END
> <s_m_source_file>
AV-unprocessed.smi

> <i_m_source_file_index>
149

> <i_lp_mmshare_version>
43012

> <i_f3d_flags>
0

> <s_epik_input>
W0NIMl0xW0NIMl1PW0NIMl1bQ0gyXU4xW0NAQEhdMltDSDJdTihbQ0gyXVtDQEhdMltDSDNdKWMobltjSF1uMyljKGMzNCluW2NIXW40W0NIXShbQ0gyXTUpW0NIMl1DNShbQ0gyXVtPSF0pW0NIMl1bT0hd

> <s_epik_cmdline>
J2VwaWtfcHl0aG9uJywgJy1waCcsICc3LjAnLCAnLXRuJywgJzgnLCAnLW1hJywgJzIwMCcsICctbWV0YWxfYmluZGluZycsICctaW1hZScsICc8aW5maWxlLm1hZT4nLCAnLW9tYWUnLCAnPG91dGZpbGUubWFlPic=

> <r_lp_tautomer_probability>
1

> <r_epik_Ionization_Penalty>
0.41918

> <r_epik_Ionization_Penalty_Charging>
0

> <r_epik_Ionization_Penalty_Neutral>
0.41918

> <r_epik_State_Penalty>
0.654916

> <r_epik_Charging_Adjusted_Penalty>
0.654916

> <i_epik_Tot_Q>
0

> <i_epik_Tot_abs_Q>
0

> <r_epik_Metal_State_Penalty>
0.653217

> <b_epik_Metal_Only>
0

> <s_lp_Force_Field>
OPLS_2005

> <r_lp_Energy>
80.6686

> <b_lp_Chiralities_Consistent>
1

> <s_lp_Variant>
AV-unprocessed.smi:149-7

> <Gold.Version>
5.8.1

> <Gold.Id.Protein>
6NUR|6NUR_protein|mol2

> <Gold.PLP.Fitness>
47.3076

> <Gold.PLP.PLP>
-37.9052

> <Gold.PLP.part.hbond>
-5.7316

> <Gold.PLP.part.metal>
0.0000

> <Gold.PLP.part.buried>
-2.0878

> <Gold.PLP.part.nonpolar>
-31.0632

> <Gold.PLP.part.repulsive>
0.8712

> <Gold.PLP.ligand.clash>
0.0000

> <Gold.PLP.ligand.torsion>
1.2578

> <Gold.PLP.Chemscore.Hbond>
3.6405

> <Gold.PLP.Chemscore.CHOScore>
0.0000

> <Gold.PLP.Chemscore.Metal>
0.0000

> <Gold.Chemscore.Hbonds>
donor molecule, donor type, donor heavy atom, donor atom, acceptor molecule, acceptor atom, score
      L1  H    18    43       P1 10747  0.96
      L1  H    20    46       P1 10186  0.91
      P1  H  7989  7998       L1    27  0.03
      P1  H  7997  8010       L1    27  0.80
      P1  H 10785 10796       L1    20  0.99

> <Gold.PLP.Chemscore.Internal.Correction>
0.9965

> <Gold.Rescore>
     Score         DG    S(hbond)    S(metal)    S(lipo)     H(rot)  DE(clash)    DE(int)     intcor
     16.64     -18.79       3.45        0.00      88.24       3.34       0.23       1.91       ----

> <Gold.Chemscore.Fitness>
16.6433

> <Gold.Chemscore.DG>
-18.7893

> <Gold.Chemscore.ZeroCoef>
-5.4800

> <Gold.Chemscore.Hbond>
3.4549

> <Gold.Chemscore.Metal>
0.0000

> <Gold.Chemscore.Lipo>
88.2424

> <Gold.Chemscore.Internal_Hbond>
0.0000

> <Gold.Chemscore.DEClash>
0.2324

> <Gold.Chemscore.DEInternal>
1.9137

> <Gold.Chemscore.Rot>
3.3416

> <Gold.Chemscore.Internal.Correction>
   9.000000E+99

> <Gold.Chemscore.Hbonds>
donor molecule, donor type, donor heavy atom, donor atom, acceptor molecule, acceptor atom, score
      L1  H    18    43       P1 10747  0.92
      L1  H    20    46       P1 10186  0.84
      P1  H  7997  8010       L1    27  0.20
      P1  H 10785 10796       L1    20  0.28

> <Gold.Chemscore.Hbond.Weighted>
-11.5394

> <Gold.Chemscore.Metal.Weighted>
-0.0000

> <Gold.Chemscore.Lipo.Weighted>
-10.3244

> <Gold.Chemscore.Internal_Hbond.Weighted>
0.0000

> <Gold.Chemscore.DEClash.Weighted>
0.2324

> <Gold.Chemscore.DEInternal.Weighted>
1.9137

> <Gold.Chemscore.Rot.Weighted>
8.5545

> <Gold.Chemscore.Internal.Correction.Weighted>
   9.000000E+99

> <Gold.Protein.RotatedTorsions>
[ 6907 6896 6895 6894 ] final  120.71 input  -60.11 | X-H torsion
[ 7974 7965 7964 7962 ] final  -84.46 input  175.53 | X-H torsion
[ 8008 7997 7996 7995 ] final   89.97 input   59.86 | X-H torsion
[ 10167 10162 10161 10158 ] final   84.92 input  -65.29 | X-H torsion
[ 10718 10713 10712 10709 ] final  -27.54 input   66.30 | X-H torsion
[ 10763 10752 10751 10750 ] final  154.49 input  -60.55 | X-H torsion
[ 11005 11000 10999 10996 ] final   44.68 input  -57.11 | X-H torsion

> <Gold.Protein.ActiveResidues>
 VAL166  LYS551  ARG553  GLY616  TRP617  ASP618  TYR619  PRO620  LYS621  CYS622 
 ASP623  PHE694  ASN695  SER759  ASP760  ASP761  ALA762  ILE779  LEU786  VAL792 
 PHE793  MET794  SER795  GLU796  ALA797  LYS798  CYS799  TRP800  GLU811  SER814 

> <Gold.Protein.RotatedAtoms>
  152.4378  133.7392  159.6630 H   0  0  0  0  0  0  0  0  0  0  0  0  # atno 6907 bound_to 6896
  150.8264  133.8155  159.3123 H   0  0  0  0  0  0  0  0  0  0  0  0  # atno 6908 bound_to 6896
  151.5822  135.1060  160.0071 H   0  0  0  0  0  0  0  0  0  0  0  0  # atno 6909 bound_to 6896
  145.5064  140.9543  143.1731 H   0  0  0  0  0  0  0  0  0  0  0  0  # atno 7974 bound_to 7965
  156.0064  140.3354  155.6896 H   0  0  0  0  0  0  0  0  0  0  0  0  # atno 8008 bound_to 7997
  155.6219  140.0676  157.2693 H   0  0  0  0  0  0  0  0  0  0  0  0  # atno 8009 bound_to 7997
  154.4266  140.1775  156.1369 H   0  0  0  0  0  0  0  0  0  0  0  0  # atno 8010 bound_to 7997
  139.9031  144.6318  150.8616 H   0  0  0  0  0  0  0  0  0  0  0  0  # atno 10167 bound_to 10162
  156.4368  130.4456  149.7079 H   0  0  0  0  0  0  0  0  0  0  0  0  # atno 10718 bound_to 10713
  154.1531  135.2814  155.3130 H   0  0  0  0  0  0  0  0  0  0  0  0  # atno 10763 bound_to 10752
  154.6202  135.5470  153.7570 H   0  0  0  0  0  0  0  0  0  0  0  0  # atno 10764 bound_to 10752
  153.0215  135.6437  154.1675 H   0  0  0  0  0  0  0  0  0  0  0  0  # atno 10765 bound_to 10752
  140.1529  134.4438  155.8369 H   0  0  0  0  0  0  0  0  0  0  0  0  # atno 11005 bound_to 11000
  144.7752  139.6647  143.7178 LP  0  0  0  0  0  0  0  0  0  0  0  0  # atno 17320 bound_to 7965
  146.2194  139.5608  142.9628 LP  0  0  0  0  0  0  0  0  0  0  0  0  # atno 17321 bound_to 7965
  140.7702  143.3422  151.2184 LP  0  0  0  0  0  0  0  0  0  0  0  0  # atno 17342 bound_to 10162
  139.7008  143.9536  152.2904 LP  0  0  0  0  0  0  0  0  0  0  0  0  # atno 17343 bound_to 10162
  156.3960  130.7651  151.2655 LP  0  0  0  0  0  0  0  0  0  0  0  0  # atno 17370 bound_to 10713
  157.7507  131.0254  150.3916 LP  0  0  0  0  0  0  0  0  0  0  0  0  # atno 17371 bound_to 10713
  141.2201  133.6880  156.7455 LP  0  0  0  0  0  0  0  0  0  0  0  0  # atno 17394 bound_to 11000
  140.2582  134.8487  157.3733 LP  0  0  0  0  0  0  0  0  0  0  0  0  # atno 17395 bound_to 11000

$$$$
