AV-unprocessed.smi:740|AV-procd|sdf|3546|dock5
  -GOLD-   22720 0543D 1   1.00000     0.00000
 Structure written by MMmdl.
 44 46  0  0  0  0  0  0  0  0  1 V2000
  153.2752  142.6315  161.5654 C   0  0  0  0  0  0  0  0  0  0  0  0
  152.6361  142.2824  160.2329 C   0  0  0  0  0  0  0  0  0  0  0  0
  153.0488  141.1110  159.5591 C   0  0  0  0  0  0  0  0  0  0  0  0
  152.4832  140.7527  158.3161 C   0  0  0  0  0  0  0  0  0  0  0  0
  152.7358  139.6680  157.4938 N   0  0  0  0  0  0  0  0  0  0  0  0
  151.9010  139.8975  156.4845 C   0  0  0  0  0  0  0  0  0  0  0  0
  151.1355  141.0031  156.5561 N   0  0  0  0  0  0  0  0  0  0  0  0
  150.1660  141.4550  155.5745 C   0  0  0  0  0  0  0  0  0  0  0  0
  149.9467  140.4250  154.4498 C   0  0  2  0  0  0  0  0  0  0  0  0
  149.4698  141.1028  153.3030 O   0  0  0  0  0  0  0  0  0  0  0  0
  148.9181  139.3490  154.8547 C   0  0  0  0  0  0  0  0  0  0  0  0
  149.5250  138.2876  155.6666 N   0  0  0  0  0  0  0  0  0  0  0  0
  149.1700  138.0128  156.9292 C   0  0  0  0  0  0  0  0  0  0  0  0
  148.2975  138.5853  157.5814 O   0  0  0  0  0  0  0  0  0  0  0  0
  150.0053  136.8734  157.4959 C   0  0  0  0  0  0  0  0  0  0  0  0
  150.9351  136.5037  156.3305 C   0  0  1  0  0  0  0  0  0  0  0  0
  150.7983  135.0434  155.8688 C   0  0  0  0  0  0  0  0  0  0  0  0
  150.5120  137.4868  155.2406 C   0  0  0  0  0  0  0  0  0  0  0  0
  151.0362  137.5102  154.1268 O   0  0  0  0  0  0  0  0  0  0  0  0
  151.4851  141.6055  157.7601 C   0  0  0  0  0  0  0  0  0  0  0  0
  151.0645  142.7728  158.4218 C   0  0  0  0  0  0  0  0  0  0  0  0
  151.6401  143.1160  159.6633 C   0  0  0  0  0  0  0  0  0  0  0  0
  151.1809  144.3794  160.3690 C   0  0  0  0  0  0  0  0  0  0  0  0
  153.9916  141.8700  161.8752 H   0  0  0  0  0  0  0  0  0  0  0  0
  152.5173  142.7132  162.3448 H   0  0  0  0  0  0  0  0  0  0  0  0
  153.8054  143.5815  161.4960 H   0  0  0  0  0  0  0  0  0  0  0  0
  153.8079  140.4759  159.9915 H   0  0  0  0  0  0  0  0  0  0  0  0
  151.8437  139.2249  155.6411 H   0  0  0  0  0  0  0  0  0  0  0  0
  149.2267  141.6492  156.0942 H   0  0  0  0  0  0  0  0  0  0  0  0
  150.4974  142.4102  155.1651 H   0  0  0  0  0  0  0  0  0  0  0  0
  150.9034  139.9601  154.2074 H   0  0  0  0  0  0  0  0  0  0  0  0
  149.3336  140.4705  152.6140 H   0  0  0  0  0  0  0  0  0  0  0  0
  148.1234  139.8097  155.4440 H   0  0  0  0  0  0  0  0  0  0  0  0
  148.4182  138.9416  153.9739 H   0  0  0  0  0  0  0  0  0  0  0  0
  150.5654  137.2108  158.3687 H   0  0  0  0  0  0  0  0  0  0  0  0
  149.3598  136.0469  157.7955 H   0  0  0  0  0  0  0  0  0  0  0  0
  151.9716  136.7087  156.6013 H   0  0  0  0  0  0  0  0  0  0  0  0
  151.4774  134.8248  155.0438 H   0  0  0  0  0  0  0  0  0  0  0  0
  149.7840  134.8208  155.5348 H   0  0  0  0  0  0  0  0  0  0  0  0
  151.0377  134.3563  156.6806 H   0  0  0  0  0  0  0  0  0  0  0  0
  150.3077  143.4004  157.9752 H   0  0  0  0  0  0  0  0  0  0  0  0
  150.4222  144.9062  159.7893 H   0  0  0  0  0  0  0  0  0  0  0  0
  152.0193  145.0597  160.5193 H   0  0  0  0  0  0  0  0  0  0  0  0
  150.7510  144.1384  161.3415 H   0  0  0  0  0  0  0  0  0  0  0  0
  1  2  1  0  0  0  0
  1 24  1  0  0  0  0
  1 25  1  0  0  0  0
  1 26  1  0  0  0  0
  2 22  1  0  0  0  0
  2  3  2  0  0  0  0
  3  4  1  0  0  0  0
  3 27  1  0  0  0  0
  4 20  2  0  0  0  0
  4  5  1  0  0  0  0
  5  6  2  0  0  0  0
  6  7  1  0  0  0  0
  6 28  1  0  0  0  0
  7  8  1  0  0  0  0
  7 20  1  0  0  0  0
  8  9  1  0  0  0  0
  8 29  1  0  0  0  0
  8 30  1  0  0  0  0
  9 10  1  0  0  0  0
  9 11  1  0  0  0  0
  9 31  1  0  0  0  0
 10 32  1  0  0  0  0
 11 12  1  0  0  0  0
 11 33  1  0  0  0  0
 11 34  1  0  0  0  0
 12 18  1  0  0  0  0
 12 13  1  0  0  0  0
 13 14  2  0  0  0  0
 13 15  1  0  0  0  0
 15 16  1  0  0  0  0
 15 35  1  0  0  0  0
 15 36  1  0  0  0  0
 16 17  1  0  0  0  0
 16 18  1  0  0  0  0
 16 37  1  0  0  0  0
 17 38  1  0  0  0  0
 17 39  1  0  0  0  0
 17 40  1  0  0  0  0
 18 19  2  0  0  0  0
 20 21  1  0  0  0  0
 21 22  2  0  0  0  0
 21 41  1  0  0  0  0
 22 23  1  0  0  0  0
 23 42  1  0  0  0  0
 23 43  1  0  0  0  0
 23 44  1  0  0  0  0
M  END
> <s_m_source_file>
AV-unprocessed.smi

> <i_m_source_file_index>
740

> <i_lp_mmshare_version>
43012

> <i_f3d_flags>
0

> <s_epik_input>
W0NIM11jKFtjSF0xKWMoW0NIM10pW2NIXWMoYzEyKW4oW2NIXW4yKVtDSDJdW0NASF0oW09IXSlbQ0gyXU4zQyg9TylbQ0gyXVtDQEBIXShbQ0gzXSlDMz1P

> <s_epik_cmdline>
J2VwaWtfcHl0aG9uJywgJy1waCcsICc3LjAnLCAnLXRuJywgJzgnLCAnLW1hJywgJzIwMCcsICctbWV0YWxfYmluZGluZycsICctaW1hZScsICc8aW5maWxlLm1hZT4nLCAnLW9tYWUnLCAnPG91dGZpbGUubWFlPic=

> <r_lp_tautomer_probability>
1

> <r_epik_Ionization_Penalty>
0.104021

> <r_epik_Ionization_Penalty_Charging>
0

> <r_epik_Ionization_Penalty_Neutral>
0.104021

> <r_epik_State_Penalty>
0.0939354

> <r_epik_Charging_Adjusted_Penalty>
0.0939354

> <i_epik_Tot_Q>
0

> <i_epik_Tot_abs_Q>
0

> <r_epik_Metal_State_Penalty>
0.000101783

> <b_epik_Metal_Only>
0

> <s_lp_Force_Field>
OPLS_2005

> <r_lp_Energy>
16.4677

> <b_lp_Chiralities_Consistent>
1

> <s_lp_Variant>
AV-unprocessed.smi:740-1

> <Gold.Version>
5.8.1

> <Gold.Id.Protein>
6NUR|6NUR_protein|mol2

> <Gold.PLP.Fitness>
47.8724

> <Gold.PLP.PLP>
-40.3960

> <Gold.PLP.part.hbond>
-3.5213

> <Gold.PLP.part.metal>
0.0000

> <Gold.PLP.part.buried>
-4.0173

> <Gold.PLP.part.nonpolar>
-32.3419

> <Gold.PLP.part.repulsive>
0.6931

> <Gold.PLP.ligand.clash>
0.0000

> <Gold.PLP.ligand.torsion>
0.5356

> <Gold.PLP.Chemscore.Hbond>
2.8440

> <Gold.PLP.Chemscore.CHOScore>
0.0000

> <Gold.PLP.Chemscore.Metal>
0.0000

> <Gold.Chemscore.Hbonds>
donor molecule, donor type, donor heavy atom, donor atom, acceptor molecule, acceptor atom, score
      L1  H    10    32       P1  7957  0.94
      P1  H  7997  8009       L1     5  1.00
      P1  H  8011  8017       L1    10  0.85

> <Gold.PLP.Chemscore.Internal.Correction>
0.0155

> <Gold.Rescore>
     Score         DG    S(hbond)    S(metal)    S(lipo)     H(rot)  DE(clash)    DE(int)     intcor
     17.32     -18.85       2.14        0.00     103.72       2.31       0.23       1.31       ----

> <Gold.Chemscore.Fitness>
17.3166

> <Gold.Chemscore.DG>
-18.8536

> <Gold.Chemscore.ZeroCoef>
-5.4800

> <Gold.Chemscore.Hbond>
2.1448

> <Gold.Chemscore.Metal>
0.0000

> <Gold.Chemscore.Lipo>
103.7214

> <Gold.Chemscore.Internal_Hbond>
0.0000

> <Gold.Chemscore.DEClash>
0.2272

> <Gold.Chemscore.DEInternal>
1.3097

> <Gold.Chemscore.Rot>
2.3147

> <Gold.Chemscore.Internal.Correction>
   9.000000E+99

> <Gold.Chemscore.Hbonds>
donor molecule, donor type, donor heavy atom, donor atom, acceptor molecule, acceptor atom, score
      L1  H    10    32       P1  7957  0.85
      P1  H  7997  8009       L1     5  0.16
      P1  H  8011  8017       L1    10  0.14

> <Gold.Chemscore.Hbond.Weighted>
-7.1637

> <Gold.Chemscore.Metal.Weighted>
-0.0000

> <Gold.Chemscore.Lipo.Weighted>
-12.1354

> <Gold.Chemscore.Internal_Hbond.Weighted>
0.0000

> <Gold.Chemscore.DEClash.Weighted>
0.2272

> <Gold.Chemscore.DEInternal.Weighted>
1.3097

> <Gold.Chemscore.Rot.Weighted>
5.9256

> <Gold.Chemscore.Internal.Correction.Weighted>
   9.000000E+99

> <Gold.Protein.RotatedTorsions>
[ 6907 6896 6895 6894 ] final -163.16 input  -60.11 | X-H torsion
[ 7974 7965 7964 7962 ] final    7.41 input  175.53 | X-H torsion
[ 8008 7997 7996 7995 ] final  173.10 input   59.86 | X-H torsion
[ 10167 10162 10161 10158 ] final -138.65 input  -65.29 | X-H torsion
[ 10718 10713 10712 10709 ] final   91.50 input   66.30 | X-H torsion
[ 10763 10752 10751 10750 ] final  -78.37 input  -60.55 | X-H torsion
[ 11005 11000 10999 10996 ] final  103.74 input  -57.11 | X-H torsion

> <Gold.Protein.ActiveResidues>
 VAL166  LYS551  ARG553  GLY616  TRP617  ASP618  TYR619  PRO620  LYS621  CYS622 
 ASP623  PHE694  ASN695  SER759  ASP760  ASP761  ALA762  ILE779  LEU786  VAL792 
 PHE793  MET794  SER795  GLU796  ALA797  LYS798  CYS799  TRP800  GLU811  SER814 

> <Gold.Protein.RotatedAtoms>
  151.3917  133.3786  159.2721 H   0  0  0  0  0  0  0  0  0  0  0  0  # atno 6907 bound_to 6896
  150.9500  134.8902  159.7676 H   0  0  0  0  0  0  0  0  0  0  0  0  # atno 6908 bound_to 6896
  152.5108  134.3872  159.9423 H   0  0  0  0  0  0  0  0  0  0  0  0  # atno 6909 bound_to 6896
  146.2427  140.0088  142.8408 H   0  0  0  0  0  0  0  0  0  0  0  0  # atno 7974 bound_to 7965
  156.1108  140.1468  156.9340 H   0  0  0  0  0  0  0  0  0  0  0  0  # atno 8008 bound_to 7997
  154.4766  140.0892  156.7320 H   0  0  0  0  0  0  0  0  0  0  0  0  # atno 8009 bound_to 7997
  155.4599  140.3438  155.4313 H   0  0  0  0  0  0  0  0  0  0  0  0  # atno 8010 bound_to 7997
  139.8457  143.7264  152.2661 H   0  0  0  0  0  0  0  0  0  0  0  0  # atno 10167 bound_to 10162
  157.6960  131.0410  150.3739 H   0  0  0  0  0  0  0  0  0  0  0  0  # atno 10718 bound_to 10713
  154.5250  135.5732  153.6711 H   0  0  0  0  0  0  0  0  0  0  0  0  # atno 10763 bound_to 10752
  152.9926  135.6191  154.2705 H   0  0  0  0  0  0  0  0  0  0  0  0  # atno 10764 bound_to 10752
  154.2628  135.2855  155.2750 H   0  0  0  0  0  0  0  0  0  0  0  0  # atno 10765 bound_to 10752
  139.8786  134.9274  156.5256 H   0  0  0  0  0  0  0  0  0  0  0  0  # atno 11005 bound_to 11000
  145.1347  140.9538  143.4523 LP  0  0  0  0  0  0  0  0  0  0  0  0  # atno 17320 bound_to 7965
  145.0353  139.3306  143.6004 LP  0  0  0  0  0  0  0  0  0  0  0  0  # atno 17321 bound_to 7965
  139.7515  144.7533  151.0500 LP  0  0  0  0  0  0  0  0  0  0  0  0  # atno 17342 bound_to 10162
  140.7793  143.4855  150.9962 LP  0  0  0  0  0  0  0  0  0  0  0  0  # atno 17343 bound_to 10162
  156.4161  130.3943  149.6857 LP  0  0  0  0  0  0  0  0  0  0  0  0  # atno 17370 bound_to 10713
  156.4125  130.7729  151.2742 LP  0  0  0  0  0  0  0  0  0  0  0  0  # atno 17371 bound_to 10713
  140.8418  133.8199  155.9083 LP  0  0  0  0  0  0  0  0  0  0  0  0  # atno 17394 bound_to 11000
  140.9230  134.2118  157.4914 LP  0  0  0  0  0  0  0  0  0  0  0  0  # atno 17395 bound_to 11000

$$$$
