#       Name:                AV-unprocessed.smi:3294
#       Creating user name   scv26
#       Creation time:       Fri Mar 27 18:57:04 2020


#       File generated by GOLD software.
#

@<TRIPOS>MOLECULE
AV-unprocessed.smi:3294
    40    42     1
SMALL
NO_CHARGES


@<TRIPOS>ATOM
      1 ****        -3.5692   4.0934   0.7116 C.3            1 S1                 0.0000
      2 ****        -3.5882   2.6690   0.1984 C.ar           1 S1                 0.0000
      3 ****        -2.4630   1.8213   0.2848 C.ar           1 S1                 0.0000
      4 ****        -2.5473   0.4979  -0.2179 C.ar           1 S1                 0.0000
      5 ****        -1.4785  -0.4373  -0.1606 N.am           1 S1                 0.0000
      6 ****        -0.1584  -0.1908  -0.1015 C.2            1 S1                 0.0000
      7 ****         0.3528   0.9285  -0.1226 O.2            1 S1                 0.0000
      8 ****         0.5450  -1.3320  -0.0372 N.am           1 S1                 0.0000
      9 ****         2.0004  -1.4592   0.0249 C.3            1 S1                 0.0000
     10 ****         2.6189  -0.8525   1.2762 C.3            1 S1                 0.0000
     11 ****         3.8839  -1.4165   1.8780 C.3            1 S1                 0.0000
     12 ****         2.5652  -1.5725   2.6020 C.3            1 S1                 0.0000
     13 ****         2.7129  -0.9668  -1.2261 C.3            1 S1                 0.0000
     14 ****         2.7596  -1.8060  -2.4802 C.3            1 S1                 0.0000
     15 ****         4.0193  -1.5772  -1.6750 C.3            1 S1                 0.0000
     16 ****        -3.7726   0.0611  -0.7676 C.ar           1 S1                 0.0000
     17 ****        -4.8634   0.9516  -0.8283 C.ar           1 S1                 0.0000
     18 ****        -4.7332   2.2080  -0.3515 N.pl3          1 S1                 1.0000
     19 ****        -2.5670   4.3840   1.0281 H              1 S1                 0.0000
     20 ****        -4.2398   4.1976   1.5649 H              1 S1                 0.0000
     21 ****        -3.8925   4.7843  -0.0676 H              1 S1                 0.0000
     22 ****        -1.5605   2.1938   0.7452 H              1 S1                 0.0000
     23 ****        -1.7457  -1.4082  -0.2314 H              1 S1                 0.0000
     24 ****         0.0272  -2.1986  -0.0314 H              1 S1                 0.0000
     25 ****         2.1746  -2.5347   0.0806 H              1 S1                 0.0000
     26 ****         2.5293   0.2310   1.3262 H              1 S1                 0.0000
     27 ****         4.3127  -2.3076   1.4243 H              1 S1                 0.0000
     28 ****         4.6029  -0.7094   2.2866 H              1 S1                 0.0000
     29 ****         2.4053  -0.9695   3.4934 H              1 S1                 0.0000
     30 ****         2.1198  -2.5651   2.6235 H              1 S1                 0.0000
     31 ****         2.6280   0.1071  -1.3821 H              1 S1                 0.0000
     32 ****         2.3144  -2.7983  -2.4442 H              1 S1                 0.0000
     33 ****         2.6691  -1.2884  -3.4329 H              1 S1                 0.0000
     34 ****         4.7688  -0.9069  -2.0908 H              1 S1                 0.0000
     35 ****         4.4106  -2.4208  -1.1099 H              1 S1                 0.0000
     36 ****        -3.8773  -0.9451  -1.1472 H              1 S1                 0.0000
     37 ****        -5.8298   0.6979  -1.2387 H              1 S1                 0.0000
     38 ****        -5.5360   2.8357  -0.4039 H              1 S1                 0.0000
     39 ****        -0.2259   1.7414  -0.1881 LP             1 S1                 0.0000
     40 ****         1.3470   1.0252  -0.0743 LP             1 S1                 0.0000
@<TRIPOS>BOND
    1    1    2 1     
    2    1   19 1     
    3    1   20 1     
    4    1   21 1     
    5    2   18 ar    
    6    2    3 ar    
    7    3    4 ar    
    8    3   22 1     
    9    4    5 1     
   10    4   16 ar    
   11    5    6 am    
   12    5   23 1     
   13    6    7 2     
   14    6    8 am    
   15    8    9 1     
   16    8   24 1     
   17    9   10 1     
   18    9   13 1     
   19    9   25 1     
   20   10   12 1     
   21   10   11 1     
   22   10   26 1     
   23   11   12 1     
   24   11   27 1     
   25   11   28 1     
   26   12   29 1     
   27   12   30 1     
   28   13   15 1     
   29   13   14 1     
   30   13   31 1     
   31   14   15 1     
   32   14   32 1     
   33   14   33 1     
   34   15   34 1     
   35   15   35 1     
   36   16   17 ar    
   37   16   36 1     
   38   17   18 ar    
   39   17   37 1     
   40   18   38 1     
   41    7   39 1     
   42    7   40 1     
@<TRIPOS>SUBSTRUCTURE
      1 S1             1
@<TRIPOS>SET
LONE_PAIRS      STATIC     ATOMS    <user>   **** ""
2 39 40
DONOR_HYDROGENS      STATIC     ATOMS    <user>   **** ""
3 23 24 38
ATOM$BLUE        STATIC     ATOMS    COLORGROUP SYSTEM
2 39 40
ATOM$RED        STATIC     ATOMS    COLORGROUP SYSTEM
3 23 24 38
