AV-unprocessed.smi:1570|AV-procd|sdf|6318|dock7
  -GOLD-   22720 6523D 1   1.00000     0.00000
 Structure written by MMmdl.
 52 54  0  0  0  0  0  0  0  0  2 V2000
  152.5961  138.7017  160.1366 C   0  0  0  0  0  0  0  0  0  0  0  0
  153.1368  139.1428  158.7703 C   0  0  0  0  0  0  0  0  0  0  0  0
  152.3234  140.2145  158.2017 N   0  0  0  0  0  0  0  0  0  0  0  0
  151.6244  140.1681  157.0435 C   0  0  0  0  0  0  0  0  0  0  0  0
  151.5497  139.2045  156.2814 O   0  0  0  0  0  0  0  0  0  0  0  0
  151.0527  141.3801  156.8476 N   0  0  0  0  0  0  0  0  0  0  0  0
  150.2506  141.7935  155.6965 C   0  0  0  0  0  0  0  0  0  0  0  0
  149.5370  140.5989  155.0311 C   0  0  2  0  0  0  0  0  0  0  0  0
  150.3933  140.0807  154.0337 O   0  0  0  0  0  0  0  0  0  0  0  0
  148.1931  140.9828  154.3746 C   0  0  0  0  0  0  0  0  0  0  0  0
  147.4779  142.0489  155.1190 N   0  3  1  0  0  0  0  0  0  0  0  0
  146.1645  142.4021  154.5256 C   0  0  0  0  0  0  0  0  0  0  0  0
  145.4995  143.5403  155.3216 C   0  0  1  0  0  0  0  0  0  0  0  0
  144.1021  143.8750  154.7881 C   0  0  0  0  0  0  0  0  0  0  0  0
  145.3714  143.1432  156.6826 O   0  0  0  0  0  0  0  0  0  0  0  0
  146.6283  142.8848  157.2989 C   0  0  1  0  0  0  0  0  0  0  0  0
  146.3779  142.5586  158.7754 C   0  0  0  0  0  0  0  0  0  0  0  0
  147.3228  141.7272  156.5571 C   0  0  0  0  0  0  0  0  0  0  0  0
  151.4059  142.2290  157.9064 C   0  0  0  0  0  0  0  0  0  0  0  0
  151.0839  143.5738  158.1601 C   0  0  0  0  0  0  0  0  0  0  0  0
  151.6192  144.1566  159.3325 C   0  0  0  0  0  0  0  0  0  0  0  0
  152.4467  143.4041  160.2060 C   0  0  0  0  0  0  0  0  0  0  0  0
  152.7552  142.0521  159.9263 C   0  0  0  0  0  0  0  0  0  0  0  0
  152.2076  141.4968  158.7566 C   0  0  0  0  0  0  0  0  0  0  0  0
  153.2076  137.9022  160.5551 H   0  0  0  0  0  0  0  0  0  0  0  0
  151.5741  138.3303  160.0555 H   0  0  0  0  0  0  0  0  0  0  0  0
  152.5977  139.5282  160.8479 H   0  0  0  0  0  0  0  0  0  0  0  0
  154.1712  139.4749  158.8706 H   0  0  0  0  0  0  0  0  0  0  0  0
  153.1571  138.2953  158.0847 H   0  0  0  0  0  0  0  0  0  0  0  0
  149.5253  142.5544  155.9901 H   0  0  0  0  0  0  0  0  0  0  0  0
  150.9162  142.2774  154.9804 H   0  0  0  0  0  0  0  0  0  0  0  0
  149.3940  139.8180  155.7771 H   0  0  0  0  0  0  0  0  0  0  0  0
  149.9127  140.0242  153.2216 H   0  0  0  0  0  0  0  0  0  0  0  0
  148.3378  141.3208  153.3486 H   0  0  0  0  0  0  0  0  0  0  0  0
  147.5702  140.0888  154.3117 H   0  0  0  0  0  0  0  0  0  0  0  0
  146.2860  142.7097  153.4875 H   0  0  0  0  0  0  0  0  0  0  0  0
  145.5191  141.5219  154.5224 H   0  0  0  0  0  0  0  0  0  0  0  0
  146.1164  144.4389  155.2659 H   0  0  0  0  0  0  0  0  0  0  0  0
  144.1460  144.1990  153.7479 H   0  0  0  0  0  0  0  0  0  0  0  0
  143.6459  144.6785  155.3667 H   0  0  0  0  0  0  0  0  0  0  0  0
  143.4408  143.0096  154.8414 H   0  0  0  0  0  0  0  0  0  0  0  0
  147.2476  143.7820  157.2422 H   0  0  0  0  0  0  0  0  0  0  0  0
  147.3135  142.3592  159.2982 H   0  0  0  0  0  0  0  0  0  0  0  0
  145.7400  141.6809  158.8836 H   0  0  0  0  0  0  0  0  0  0  0  0
  145.8866  143.3908  159.2801 H   0  0  0  0  0  0  0  0  0  0  0  0
  146.7450  140.8075  156.6633 H   0  0  0  0  0  0  0  0  0  0  0  0
  148.3029  141.5439  156.9997 H   0  0  0  0  0  0  0  0  0  0  0  0
  150.4556  144.1423  157.4905 H   0  0  0  0  0  0  0  0  0  0  0  0
  151.3963  145.1875  159.5652 H   0  0  0  0  0  0  0  0  0  0  0  0
  152.8467  143.8693  161.0948 H   0  0  0  0  0  0  0  0  0  0  0  0
  153.3865  141.4757  160.5861 H   0  0  0  0  0  0  0  0  0  0  0  0
  148.0620  142.8721  155.0733 H   0  0  0  0  0  0  0  0  0  0  0  0
  1  2  1  0  0  0  0
  1 25  1  0  0  0  0
  1 26  1  0  0  0  0
  1 27  1  0  0  0  0
  2  3  1  0  0  0  0
  2 28  1  0  0  0  0
  2 29  1  0  0  0  0
  3 24  1  0  0  0  0
  3  4  1  0  0  0  0
  4  5  2  0  0  0  0
  4  6  1  0  0  0  0
  6  7  1  0  0  0  0
  6 19  1  0  0  0  0
  7  8  1  0  0  0  0
  7 30  1  0  0  0  0
  7 31  1  0  0  0  0
  8  9  1  0  0  0  0
  8 10  1  0  0  0  0
  8 32  1  0  0  0  0
  9 33  1  0  0  0  0
 10 11  1  0  0  0  0
 10 34  1  0  0  0  0
 10 35  1  0  0  0  0
 11 18  1  0  0  0  0
 11 12  1  0  0  0  0
 11 52  1  0  0  0  0
 12 13  1  0  0  0  0
 12 36  1  0  0  0  0
 12 37  1  0  0  0  0
 13 14  1  0  0  0  0
 13 15  1  0  0  0  0
 13 38  1  0  0  0  0
 14 39  1  0  0  0  0
 14 40  1  0  0  0  0
 14 41  1  0  0  0  0
 15 16  1  0  0  0  0
 16 17  1  0  0  0  0
 16 18  1  0  0  0  0
 16 42  1  0  0  0  0
 17 43  1  0  0  0  0
 17 44  1  0  0  0  0
 17 45  1  0  0  0  0
 18 46  1  0  0  0  0
 18 47  1  0  0  0  0
 19 24  2  0  0  0  0
 19 20  1  0  0  0  0
 20 21  2  0  0  0  0
 20 48  1  0  0  0  0
 21 22  1  0  0  0  0
 21 49  1  0  0  0  0
 22 23  2  0  0  0  0
 22 50  1  0  0  0  0
 23 24  1  0  0  0  0
 23 51  1  0  0  0  0
M  CHG  1  11   1
M  END
> <s_m_source_file>
AV-unprocessed.smi

> <i_m_source_file_index>
1570

> <i_lp_mmshare_version>
43012

> <i_f3d_flags>
0

> <s_epik_input>
W2NIXTFbY0hdW2NIXVtjSF1jKGMxMiluKFtDSDJdW0NIM10pYyg9TyluMltDSDJdW0NASF0oW09IXSlbQ0gyXU4zW0NIMl1bQ0BASF0oW0NIM10pT1tDQEBIXShbQ0gzXSlbQ0gyXTM=

> <s_epik_cmdline>
J2VwaWtfcHl0aG9uJywgJy1waCcsICc3LjAnLCAnLXRuJywgJzgnLCAnLW1hJywgJzIwMCcsICctbWV0YWxfYmluZGluZycsICctaW1hZScsICc8aW5maWxlLm1hZT4nLCAnLW9tYWUnLCAnPG91dGZpbGUubWFlPic=

> <r_epik_Ionization_Penalty>
0.706332

> <r_epik_Ionization_Penalty_Charging>
0.706318

> <r_epik_Ionization_Penalty_Neutral>
1.42224e-05

> <r_epik_State_Penalty>
0.729493

> <r_epik_Charging_Adjusted_Penalty>
1.43581

> <i_epik_Tot_Q>
1

> <i_epik_Tot_abs_Q>
1

> <r_epik_Metal_State_Penalty>
0.729493

> <b_epik_Metal_Only>
0

> <s_lp_Force_Field>
OPLS_2005

> <r_lp_Energy>
50.1879

> <b_lp_Chiralities_Consistent>
1

> <s_lp_Variant>
AV-unprocessed.smi:1570-7

> <Gold.Version>
5.8.1

> <Gold.Id.Protein>
6NUR|6NUR_protein|mol2

> <Gold.PLP.Fitness>
54.3528

> <Gold.PLP.PLP>
-44.4492

> <Gold.PLP.part.hbond>
-2.7663

> <Gold.PLP.part.metal>
0.0000

> <Gold.PLP.part.buried>
-3.5433

> <Gold.PLP.part.nonpolar>
-35.0081

> <Gold.PLP.part.repulsive>
0.2166

> <Gold.PLP.ligand.clash>
0.0247

> <Gold.PLP.ligand.torsion>
1.0595

> <Gold.PLP.Chemscore.Hbond>
3.9825

> <Gold.PLP.Chemscore.CHOScore>
0.0000

> <Gold.PLP.Chemscore.Metal>
0.0000

> <Gold.Chemscore.Hbonds>
donor molecule, donor type, donor heavy atom, donor atom, acceptor molecule, acceptor atom, score
      L1  H     9    33       P1  7957  0.88
      L1  H    11    52       P1  8028  1.76
      P1  H  7989  7998       L1     9  0.85

> <Gold.PLP.Chemscore.Internal.Correction>
0.0997

> <Gold.Rescore>
     Score         DG    S(hbond)    S(metal)    S(lipo)     H(rot)  DE(clash)    DE(int)     intcor
     19.04     -21.69       2.43        0.00     115.92       2.13       0.10       2.55       ----

> <Gold.Chemscore.Fitness>
19.0396

> <Gold.Chemscore.DG>
-21.6912

> <Gold.Chemscore.ZeroCoef>
-5.4800

> <Gold.Chemscore.Hbond>
2.4256

> <Gold.Chemscore.Metal>
0.0000

> <Gold.Chemscore.Lipo>
115.9233

> <Gold.Chemscore.Internal_Hbond>
0.0000

> <Gold.Chemscore.DEClash>
0.0975

> <Gold.Chemscore.DEInternal>
2.5541

> <Gold.Chemscore.Rot>
2.1303

> <Gold.Chemscore.Internal.Correction>
   9.000000E+99

> <Gold.Chemscore.Hbonds>
donor molecule, donor type, donor heavy atom, donor atom, acceptor molecule, acceptor atom, score
      L1  H     9    33       P1  7957  0.85
      L1  H    11    52       P1  8028  0.81
      P1  H  7989  7998       L1     9  0.13

> <Gold.Chemscore.Hbond.Weighted>
-8.1017

> <Gold.Chemscore.Metal.Weighted>
-0.0000

> <Gold.Chemscore.Lipo.Weighted>
-13.5630

> <Gold.Chemscore.Internal_Hbond.Weighted>
0.0000

> <Gold.Chemscore.DEClash.Weighted>
0.0975

> <Gold.Chemscore.DEInternal.Weighted>
2.5541

> <Gold.Chemscore.Rot.Weighted>
5.4535

> <Gold.Chemscore.Internal.Correction.Weighted>
   9.000000E+99

> <Gold.Protein.RotatedTorsions>
[ 6907 6896 6895 6894 ] final  -26.62 input  -60.11 | X-H torsion
[ 7974 7965 7964 7962 ] final   53.36 input  175.53 | X-H torsion
[ 8008 7997 7996 7995 ] final   85.94 input   59.86 | X-H torsion
[ 10167 10162 10161 10158 ] final -141.05 input  -65.29 | X-H torsion
[ 10718 10713 10712 10709 ] final -121.32 input   66.30 | X-H torsion
[ 10763 10752 10751 10750 ] final   30.74 input  -60.55 | X-H torsion
[ 11005 11000 10999 10996 ] final -171.85 input  -57.11 | X-H torsion

> <Gold.Protein.ActiveResidues>
 VAL166  LYS551  ARG553  GLY616  TRP617  ASP618  TYR619  PRO620  LYS621  CYS622 
 ASP623  PHE694  ASN695  SER759  ASP760  ASP761  ALA762  ILE779  LEU786  VAL792 
 PHE793  MET794  SER795  GLU796  ALA797  LYS798  CYS799  TRP800  GLU811  SER814 

> <Gold.Protein.RotatedAtoms>
  151.1583  135.0261  159.8698 H   0  0  0  0  0  0  0  0  0  0  0  0  # atno 6907 bound_to 6896
  152.5452  134.1308  159.8448 H   0  0  0  0  0  0  0  0  0  0  0  0  # atno 6908 bound_to 6896
  151.1401  133.4931  159.2629 H   0  0  0  0  0  0  0  0  0  0  0  0  # atno 6909 bound_to 6896
  145.9720  139.4158  143.0184 H   0  0  0  0  0  0  0  0  0  0  0  0  # atno 7974 bound_to 7965
  155.9564  140.3397  155.6452 H   0  0  0  0  0  0  0  0  0  0  0  0  # atno 8008 bound_to 7997
  155.6854  140.0742  157.2487 H   0  0  0  0  0  0  0  0  0  0  0  0  # atno 8009 bound_to 7997
  154.4133  140.1667  156.2015 H   0  0  0  0  0  0  0  0  0  0  0  0  # atno 8010 bound_to 7997
  139.8222  143.7559  152.2666 H   0  0  0  0  0  0  0  0  0  0  0  0  # atno 10167 bound_to 10162
  156.1328  130.6408  150.9648 H   0  0  0  0  0  0  0  0  0  0  0  0  # atno 10718 bound_to 10713
  153.0354  135.6456  154.1092 H   0  0  0  0  0  0  0  0  0  0  0  0  # atno 10763 bound_to 10752
  154.0807  135.2873  155.3292 H   0  0  0  0  0  0  0  0  0  0  0  0  # atno 10764 bound_to 10752
  154.6532  135.5418  153.7991 H   0  0  0  0  0  0  0  0  0  0  0  0  # atno 10765 bound_to 10752
  140.5036  134.5870  157.4996 H   0  0  0  0  0  0  0  0  0  0  0  0  # atno 11005 bound_to 11000
  145.7893  140.9821  143.1057 LP  0  0  0  0  0  0  0  0  0  0  0  0  # atno 17320 bound_to 7965
  144.6839  139.9662  143.7481 LP  0  0  0  0  0  0  0  0  0  0  0  0  # atno 17321 bound_to 7965
  139.7740  144.7467  151.0183 LP  0  0  0  0  0  0  0  0  0  0  0  0  # atno 17342 bound_to 10162
  140.7812  143.4614  151.0273 LP  0  0  0  0  0  0  0  0  0  0  0  0  # atno 17343 bound_to 10162
  157.6504  131.0898  150.8063 LP  0  0  0  0  0  0  0  0  0  0  0  0  # atno 17370 bound_to 10713
  156.8147  130.4964  149.5351 LP  0  0  0  0  0  0  0  0  0  0  0  0  # atno 17371 bound_to 10713
  139.9699  134.7310  156.0062 LP  0  0  0  0  0  0  0  0  0  0  0  0  # atno 17394 bound_to 11000
  141.1423  133.6562  156.3765 LP  0  0  0  0  0  0  0  0  0  0  0  0  # atno 17395 bound_to 11000

$$$$
