AV-unprocessed.smi:2503|AV-procd|sdf|9848|dock7
  -GOLD-   2272013473D 1   1.00000     0.00000
 Structure written by MMmdl.
 36 37  0  0  0  0  0  0  0  0  1 V2000
  151.6709  141.6412  157.4552 C   0  0  0  0  0  0  0  0  0  0  0  0
  150.6839  141.0269  156.4512 C   0  0  0  0  0  0  0  0  0  0  0  0
  149.3845  140.5678  157.1293 C   0  0  0  0  0  0  0  0  0  0  0  0
  151.3133  139.9134  155.6576 C   0  0  0  0  0  0  0  0  0  0  0  0
  152.5738  139.5211  155.8270 N   0  0  0  0  0  0  0  0  0  0  0  0
  152.7465  138.4629  154.9436 C   0  0  0  0  0  0  0  0  0  0  0  0
  151.5706  138.2367  154.2726 C   0  0  0  0  0  0  0  0  0  0  0  0
  150.6511  139.1649  154.7468 N   0  0  0  0  0  0  0  0  0  0  0  0
  149.2633  139.2612  154.3159 C   0  0  0  0  0  0  0  0  0  0  0  0
  148.3913  138.1960  154.9879 C   0  0  0  0  0  0  0  0  0  0  0  0
  148.0009  138.3822  156.1426 O   0  0  0  0  0  0  0  0  0  0  0  0
  148.1117  137.1154  154.2230 N   0  0  0  0  0  0  0  0  0  0  0  0
  147.3317  136.0345  154.4602 C   0  0  0  0  0  0  0  0  0  0  0  0
  146.6470  135.9724  155.4801 O   0  0  0  0  0  0  0  0  0  0  0  0
  147.3563  135.0483  153.5447 N   0  0  0  0  0  0  0  0  0  0  0  0
  146.6121  133.8326  153.6069 C   0  0  0  0  0  0  0  0  0  0  0  0
  146.9574  132.7468  152.6109 C   0  0  0  0  0  0  0  0  0  0  0  0
  145.6795  133.5241  152.4559 C   0  0  0  0  0  0  0  0  0  0  0  0
  152.5616  142.0149  156.9494 H   0  0  0  0  0  0  0  0  0  0  0  0
  151.9916  140.9105  158.1986 H   0  0  0  0  0  0  0  0  0  0  0  0
  151.2189  142.4782  157.9878 H   0  0  0  0  0  0  0  0  0  0  0  0
  150.4155  141.8320  155.7699 H   0  0  0  0  0  0  0  0  0  0  0  0
  148.6669  140.2008  156.3945 H   0  0  0  0  0  0  0  0  0  0  0  0
  148.9119  141.3886  157.6689 H   0  0  0  0  0  0  0  0  0  0  0  0
  149.5711  139.7637  157.8418 H   0  0  0  0  0  0  0  0  0  0  0  0
  153.6930  137.9494  154.8622 H   0  0  0  0  0  0  0  0  0  0  0  0
  151.3150  137.5034  153.5219 H   0  0  0  0  0  0  0  0  0  0  0  0
  148.8954  140.2683  154.5178 H   0  0  0  0  0  0  0  0  0  0  0  0
  149.2170  139.1232  153.2351 H   0  0  0  0  0  0  0  0  0  0  0  0
  148.5499  137.1190  153.3135 H   0  0  0  0  0  0  0  0  0  0  0  0
  147.9554  135.1718  152.7404 H   0  0  0  0  0  0  0  0  0  0  0  0
  146.2825  133.4963  154.5891 H   0  0  0  0  0  0  0  0  0  0  0  0
  147.7560  132.9455  151.8984 H   0  0  0  0  0  0  0  0  0  0  0  0
  146.8805  131.7150  152.9474 H   0  0  0  0  0  0  0  0  0  0  0  0
  144.7483  133.0118  152.6887 H   0  0  0  0  0  0  0  0  0  0  0  0
  145.6245  134.2404  151.6382 H   0  0  0  0  0  0  0  0  0  0  0  0
  1  2  1  0  0  0  0
  1 19  1  0  0  0  0
  1 20  1  0  0  0  0
  1 21  1  0  0  0  0
  2  3  1  0  0  0  0
  2  4  1  0  0  0  0
  2 22  1  0  0  0  0
  3 23  1  0  0  0  0
  3 24  1  0  0  0  0
  3 25  1  0  0  0  0
  4  8  1  0  0  0  0
  4  5  2  0  0  0  0
  5  6  1  0  0  0  0
  6  7  2  0  0  0  0
  6 26  1  0  0  0  0
  7  8  1  0  0  0  0
  7 27  1  0  0  0  0
  8  9  1  0  0  0  0
  9 10  1  0  0  0  0
  9 28  1  0  0  0  0
  9 29  1  0  0  0  0
 10 11  2  0  0  0  0
 10 12  1  0  0  0  0
 12 13  1  0  0  0  0
 12 30  1  0  0  0  0
 13 14  2  0  0  0  0
 13 15  1  0  0  0  0
 15 16  1  0  0  0  0
 15 31  1  0  0  0  0
 16 18  1  0  0  0  0
 16 17  1  0  0  0  0
 16 32  1  0  0  0  0
 17 18  1  0  0  0  0
 17 33  1  0  0  0  0
 17 34  1  0  0  0  0
 18 35  1  0  0  0  0
 18 36  1  0  0  0  0
M  END
> <s_m_source_file>
AV-unprocessed.smi

> <i_m_source_file_index>
2503

> <i_lp_mmshare_version>
43012

> <i_f3d_flags>
0

> <s_epik_input>
W0NIM11bQ0hdKFtDSDNdKWMxbltjSF1bY0hdbjFbQ0gyXUMoPU8pW05IXUMoPU8pW05IXVtDSF0yW0NIMl1bQ0gyXTI=

> <s_epik_cmdline>
J2VwaWtfcHl0aG9uJywgJy1waCcsICc3LjAnLCAnLXRuJywgJzgnLCAnLW1hJywgJzIwMCcsICctbWV0YWxfYmluZGluZycsICctaW1hZScsICc8aW5maWxlLm1hZT4nLCAnLW9tYWUnLCAnPG91dGZpbGUubWFlPic=

> <r_lp_tautomer_probability>
1

> <r_epik_Ionization_Penalty>
0.441646

> <r_epik_Ionization_Penalty_Charging>
0.441618

> <r_epik_Ionization_Penalty_Neutral>
2.81151e-05

> <r_epik_State_Penalty>
0.443748

> <r_epik_Charging_Adjusted_Penalty>
0.885366

> <i_epik_Tot_Q>
0

> <i_epik_Tot_abs_Q>
0

> <r_epik_Metal_State_Penalty>
0.251733

> <b_epik_Metal_Only>
0

> <s_lp_Force_Field>
OPLS_2005

> <r_lp_Energy>
20.0487

> <b_lp_Chiralities_Consistent>
1

> <s_lp_Variant>
AV-unprocessed.smi:2503-2

> <Gold.Version>
5.8.1

> <Gold.Id.Protein>
6NUR|6NUR_protein|mol2

> <Gold.PLP.Fitness>
37.8145

> <Gold.PLP.PLP>
-27.2257

> <Gold.PLP.part.hbond>
-3.0000

> <Gold.PLP.part.metal>
0.0000

> <Gold.PLP.part.buried>
-2.3162

> <Gold.PLP.part.nonpolar>
-21.3009

> <Gold.PLP.part.repulsive>
0.0408

> <Gold.PLP.ligand.clash>
0.0000

> <Gold.PLP.ligand.torsion>
0.6640

> <Gold.PLP.Chemscore.Hbond>
2.9360

> <Gold.PLP.Chemscore.CHOScore>
0.9973

> <Gold.PLP.Chemscore.Metal>
0.0000

> <Gold.Chemscore.Hbonds>
donor molecule, donor type, donor heavy atom, donor atom, acceptor molecule, acceptor atom, score
      L1  H    12    30       P1  7948  0.98
      L1  H    15    31       P1  7948  0.98
      P1  H  7997  8008       L1     5  1.00
      L1  C     7    27       P1  7949  0.98

> <Gold.PLP.Chemscore.Internal.Correction>
0.1169

> <Gold.Rescore>
     Score         DG    S(hbond)    S(metal)    S(lipo)     H(rot)  DE(clash)    DE(int)     intcor
     13.31     -16.74       2.84        0.00      53.91       1.77       1.57       1.86       ----

> <Gold.Chemscore.Fitness>
13.3068

> <Gold.Chemscore.DG>
-16.7386

> <Gold.Chemscore.ZeroCoef>
-5.4800

> <Gold.Chemscore.Hbond>
2.8418

> <Gold.Chemscore.Metal>
0.0000

> <Gold.Chemscore.Lipo>
53.9138

> <Gold.Chemscore.Internal_Hbond>
0.0000

> <Gold.Chemscore.DEClash>
1.5697

> <Gold.Chemscore.DEInternal>
1.8621

> <Gold.Chemscore.Rot>
1.7738

> <Gold.Chemscore.Internal.Correction>
   9.000000E+99

> <Gold.Chemscore.Hbonds>
donor molecule, donor type, donor heavy atom, donor atom, acceptor molecule, acceptor atom, score
      L1  H    12    30       P1  7948  0.93
      L1  H    15    31       P1  7948  0.91
      P1  H  7997  8008       L1     5  0.55

> <Gold.Chemscore.Hbond.Weighted>
-9.4916

> <Gold.Chemscore.Metal.Weighted>
-0.0000

> <Gold.Chemscore.Lipo.Weighted>
-6.3079

> <Gold.Chemscore.Internal_Hbond.Weighted>
0.0000

> <Gold.Chemscore.DEClash.Weighted>
1.5697

> <Gold.Chemscore.DEInternal.Weighted>
1.8621

> <Gold.Chemscore.Rot.Weighted>
4.5409

> <Gold.Chemscore.Internal.Correction.Weighted>
   9.000000E+99

> <Gold.Protein.RotatedTorsions>
[ 6907 6896 6895 6894 ] final  -47.85 input  -60.11 | X-H torsion
[ 7974 7965 7964 7962 ] final   12.80 input  175.53 | X-H torsion
[ 8008 7997 7996 7995 ] final  -38.04 input   59.86 | X-H torsion
[ 10167 10162 10161 10158 ] final  110.63 input  -65.29 | X-H torsion
[ 10718 10713 10712 10709 ] final   83.39 input   66.30 | X-H torsion
[ 10763 10752 10751 10750 ] final -133.55 input  -60.55 | X-H torsion
[ 11005 11000 10999 10996 ] final  173.26 input  -57.11 | X-H torsion

> <Gold.Protein.ActiveResidues>
 VAL166  LYS551  ARG553  GLY616  TRP617  ASP618  TYR619  PRO620  LYS621  CYS622 
 ASP623  PHE694  ASN695  SER759  ASP760  ASP761  ALA762  ILE779  LEU786  VAL792 
 PHE793  MET794  SER795  GLU796  ALA797  LYS798  CYS799  TRP800  GLU811  SER814 

> <Gold.Protein.RotatedAtoms>
  150.8965  134.8374  159.7330 H   0  0  0  0  0  0  0  0  0  0  0  0  # atno 6907 bound_to 6896
  152.4868  134.4567  159.9602 H   0  0  0  0  0  0  0  0  0  0  0  0  # atno 6908 bound_to 6896
  151.4624  133.3550  159.2846 H   0  0  0  0  0  0  0  0  0  0  0  0  # atno 6909 bound_to 6896
  146.2343  139.9283  142.8500 H   0  0  0  0  0  0  0  0  0  0  0  0  # atno 7974 bound_to 7965
  154.4043  140.1588  156.2635 H   0  0  0  0  0  0  0  0  0  0  0  0  # atno 8008 bound_to 7997
  155.9015  140.3433  155.6008 H   0  0  0  0  0  0  0  0  0  0  0  0  # atno 8009 bound_to 7997
  155.7442  140.0796  157.2222 H   0  0  0  0  0  0  0  0  0  0  0  0  # atno 8010 bound_to 7997
  139.6673  144.7127  151.1753 H   0  0  0  0  0  0  0  0  0  0  0  0  # atno 10167 bound_to 10162
  157.6878  131.0089  150.2517 H   0  0  0  0  0  0  0  0  0  0  0  0  # atno 10718 bound_to 10713
  154.8731  135.3762  154.4592 H   0  0  0  0  0  0  0  0  0  0  0  0  # atno 10763 bound_to 10752
  153.5261  135.7028  153.5712 H   0  0  0  0  0  0  0  0  0  0  0  0  # atno 10764 bound_to 10752
  153.3937  135.3966  155.1906 H   0  0  0  0  0  0  0  0  0  0  0  0  # atno 10765 bound_to 10752
  140.3386  134.7296  157.4186 H   0  0  0  0  0  0  0  0  0  0  0  0  # atno 11005 bound_to 11000
  145.2069  140.9879  143.4123 LP  0  0  0  0  0  0  0  0  0  0  0  0  # atno 17320 bound_to 7965
  144.9725  139.3865  143.6302 LP  0  0  0  0  0  0  0  0  0  0  0  0  # atno 17321 bound_to 7965
  140.7604  143.5899  150.8807 LP  0  0  0  0  0  0  0  0  0  0  0  0  # atno 17342 bound_to 10162
  139.9561  143.6216  152.3015 LP  0  0  0  0  0  0  0  0  0  0  0  0  # atno 17343 bound_to 10162
  156.3112  130.3772  149.7660 LP  0  0  0  0  0  0  0  0  0  0  0  0  # atno 17370 bound_to 10713
  156.5259  130.8236  151.3220 LP  0  0  0  0  0  0  0  0  0  0  0  0  # atno 17371 bound_to 10713
  140.0800  134.5744  155.8550 LP  0  0  0  0  0  0  0  0  0  0  0  0  # atno 17394 bound_to 11000
  141.2044  133.6639  156.6122 LP  0  0  0  0  0  0  0  0  0  0  0  0  # atno 17395 bound_to 11000

$$$$
