AV-unprocessed.smi:2741|AV-procd|sdf|10558|dock1
  -GOLD-   2272015 13D 1   1.00000     0.00000
 Structure written by MMmdl.
 39 40  0  0  0  0  0  0  0  0  1 V2000
  152.5116  138.4433  159.3169 O   0  0  0  0  0  0  0  0  0  0  0  0
  152.9733  139.4178  158.7215 C   0  0  0  0  0  0  0  0  0  0  0  0
  154.0756  140.2776  159.3560 C   0  0  0  0  0  0  0  0  0  0  0  0
  153.5521  141.3750  160.1869 N   0  0  0  0  0  0  0  0  0  0  0  0
  152.8164  142.3830  159.5329 C   0  0  0  0  0  0  0  0  0  0  0  0
  152.2960  143.4454  160.1769 C   0  0  0  0  0  0  0  0  0  0  0  0
  151.4628  144.4905  159.4511 C   0  0  0  0  0  0  0  0  0  0  0  0
  150.3006  143.9803  159.0431 F   0  0  0  0  0  0  0  0  0  0  0  0
  151.2049  145.5111  160.2676 F   0  0  0  0  0  0  0  0  0  0  0  0
  152.1090  144.9651  158.3852 F   0  0  0  0  0  0  0  0  0  0  0  0
  152.4996  143.4936  161.6115 C   0  0  0  0  0  0  0  0  0  0  0  0
  153.1957  142.5348  162.2532 C   0  0  0  0  0  0  0  0  0  0  0  0
  153.7769  141.3985  161.5350 C   0  0  0  0  0  0  0  0  0  0  0  0
  154.4229  140.5213  162.1091 O   0  0  0  0  0  0  0  0  0  0  0  0
  152.5779  139.7835  157.4930 N   0  0  0  0  0  0  0  0  0  0  0  0
  151.5615  139.1017  156.6988 C   0  0  0  0  0  0  0  0  0  0  0  0
  151.0227  139.9909  155.5611 C   0  0  2  0  0  0  0  0  0  0  0  0
  150.3822  141.3038  156.0384 C   0  0  0  0  0  0  0  0  0  0  0  0
  149.3778  141.6545  154.9447 C   0  0  0  0  0  0  0  0  0  0  0  0
  148.7888  140.2962  154.5673 C   0  0  1  0  0  0  0  0  0  0  0  0
  148.2235  140.3052  153.2735 O   0  0  0  0  0  0  0  0  0  0  0  0
  149.9526  139.3009  154.6916 C   0  0  0  0  0  0  0  0  0  0  0  0
  154.7178  139.6217  159.9453 H   0  0  0  0  0  0  0  0  0  0  0  0
  154.7220  140.6785  158.5726 H   0  0  0  0  0  0  0  0  0  0  0  0
  152.7050  142.2397  158.4678 H   0  0  0  0  0  0  0  0  0  0  0  0
  152.0916  144.3148  162.1822 H   0  0  0  0  0  0  0  0  0  0  0  0
  153.3302  142.6044  163.3227 H   0  0  0  0  0  0  0  0  0  0  0  0
  153.0141  140.5929  157.0757 H   0  0  0  0  0  0  0  0  0  0  0  0
  151.9651  138.1714  156.2951 H   0  0  0  0  0  0  0  0  0  0  0  0
  150.7481  138.8185  157.3674 H   0  0  0  0  0  0  0  0  0  0  0  0
  151.8522  140.2523  154.9020 H   0  0  0  0  0  0  0  0  0  0  0  0
  149.8527  141.1465  156.9791 H   0  0  0  0  0  0  0  0  0  0  0  0
  151.1172  142.0933  156.1994 H   0  0  0  0  0  0  0  0  0  0  0  0
  148.6213  142.3665  155.2763 H   0  0  0  0  0  0  0  0  0  0  0  0
  149.9027  142.0924  154.0939 H   0  0  0  0  0  0  0  0  0  0  0  0
  148.0130  140.0323  155.2877 H   0  0  0  0  0  0  0  0  0  0  0  0
  148.9213  140.3800  152.6405 H   0  0  0  0  0  0  0  0  0  0  0  0
  150.3771  139.0629  153.7151 H   0  0  0  0  0  0  0  0  0  0  0  0
  149.6066  138.3621  155.1260 H   0  0  0  0  0  0  0  0  0  0  0  0
  1  2  2  0  0  0  0
  2  3  1  0  0  0  0
  2 15  1  0  0  0  0
  3  4  1  0  0  0  0
  3 23  1  0  0  0  0
  3 24  1  0  0  0  0
  4 13  1  0  0  0  0
  4  5  1  0  0  0  0
  5  6  2  0  0  0  0
  5 25  1  0  0  0  0
  6  7  1  0  0  0  0
  6 11  1  0  0  0  0
  7  8  1  0  0  0  0
  7  9  1  0  0  0  0
  7 10  1  0  0  0  0
 11 12  2  0  0  0  0
 11 26  1  0  0  0  0
 12 13  1  0  0  0  0
 12 27  1  0  0  0  0
 13 14  2  0  0  0  0
 15 16  1  0  0  0  0
 15 28  1  0  0  0  0
 16 17  1  0  0  0  0
 16 29  1  0  0  0  0
 16 30  1  0  0  0  0
 17 22  1  0  0  0  0
 17 18  1  0  0  0  0
 17 31  1  0  0  0  0
 18 19  1  0  0  0  0
 18 32  1  0  0  0  0
 18 33  1  0  0  0  0
 19 20  1  0  0  0  0
 19 34  1  0  0  0  0
 19 35  1  0  0  0  0
 20 21  1  0  0  0  0
 20 22  1  0  0  0  0
 20 36  1  0  0  0  0
 21 37  1  0  0  0  0
 22 38  1  0  0  0  0
 22 39  1  0  0  0  0
M  END
> <s_m_source_file>
AV-unprocessed.smi

> <i_m_source_file_index>
2741

> <i_lp_mmshare_version>
43012

> <i_f3d_flags>
0

> <s_epik_input>
W09IXVtDQEBIXShbQ0gyXTEpW0NIMl1bQ0gyXVtDQEhdMVtDSDJdW05IXUMoPU8pW0NIMl1uMltjSF1jKEMoRikoRilGKVtjSF1bY0hdYzI9Tw==

> <s_epik_cmdline>
J2VwaWtfcHl0aG9uJywgJy1waCcsICc3LjAnLCAnLXRuJywgJzgnLCAnLW1hJywgJzIwMCcsICctbWV0YWxfYmluZGluZycsICctaW1hZScsICc8aW5maWxlLm1hZT4nLCAnLW9tYWUnLCAnPG91dGZpbGUubWFlPic=

> <r_lp_tautomer_probability>
1

> <r_epik_Ionization_Penalty>
1.17551e-06

> <r_epik_Ionization_Penalty_Charging>
1.78841e-08

> <r_epik_Ionization_Penalty_Neutral>
1.15762e-06

> <r_epik_State_Penalty>
-0

> <r_epik_Charging_Adjusted_Penalty>
1.78841e-08

> <i_epik_Tot_Q>
0

> <i_epik_Tot_abs_Q>
0

> <r_epik_Metal_State_Penalty>
-0

> <b_epik_Metal_Only>
0

> <s_lp_Force_Field>
OPLS_2005

> <r_lp_Energy>
33.5858

> <b_lp_Chiralities_Consistent>
1

> <s_lp_Variant>
AV-unprocessed.smi:2741-1

> <Gold.Version>
5.8.1

> <Gold.Id.Protein>
6NUR|6NUR_protein|mol2

> <Gold.PLP.Fitness>
58.9579

> <Gold.PLP.PLP>
-57.4800

> <Gold.PLP.part.hbond>
-0.5492

> <Gold.PLP.part.metal>
0.0000

> <Gold.PLP.part.buried>
-5.7230

> <Gold.PLP.part.nonpolar>
-51.0830

> <Gold.PLP.part.repulsive>
0.7584

> <Gold.PLP.ligand.clash>
0.0628

> <Gold.PLP.ligand.torsion>
0.7772

> <Gold.PLP.Chemscore.Hbond>
0.9920

> <Gold.PLP.Chemscore.CHOScore>
0.0000

> <Gold.PLP.Chemscore.Metal>
0.0000

> <Gold.Chemscore.Hbonds>
donor molecule, donor type, donor heavy atom, donor atom, acceptor molecule, acceptor atom, score
      L1  H    21    37       P1  7957  1.00

> <Gold.PLP.Chemscore.Internal.Correction>
0.1191

> <Gold.Rescore>
     Score         DG    S(hbond)    S(metal)    S(lipo)     H(rot)  DE(clash)    DE(int)     intcor
     14.34     -14.89       0.97        0.00     107.06       2.48       0.01       0.54       ----

> <Gold.Chemscore.Fitness>
14.3400

> <Gold.Chemscore.DG>
-14.8915

> <Gold.Chemscore.ZeroCoef>
-5.4800

> <Gold.Chemscore.Hbond>
0.9690

> <Gold.Chemscore.Metal>
0.0000

> <Gold.Chemscore.Lipo>
107.0570

> <Gold.Chemscore.Internal_Hbond>
0.0000

> <Gold.Chemscore.DEClash>
0.0132

> <Gold.Chemscore.DEInternal>
0.5383

> <Gold.Chemscore.Rot>
2.4807

> <Gold.Chemscore.Internal.Correction>
   9.000000E+99

> <Gold.Chemscore.Hbonds>
donor molecule, donor type, donor heavy atom, donor atom, acceptor molecule, acceptor atom, score
      L1  H    21    37       P1  7957  0.96

> <Gold.Chemscore.Hbond.Weighted>
-3.2364

> <Gold.Chemscore.Metal.Weighted>
-0.0000

> <Gold.Chemscore.Lipo.Weighted>
-12.5257

> <Gold.Chemscore.Internal_Hbond.Weighted>
0.0000

> <Gold.Chemscore.DEClash.Weighted>
0.0132

> <Gold.Chemscore.DEInternal.Weighted>
0.5383

> <Gold.Chemscore.Rot.Weighted>
6.3507

> <Gold.Chemscore.Internal.Correction.Weighted>
   9.000000E+99

> <Gold.Protein.RotatedTorsions>
[ 6907 6896 6895 6894 ] final  171.03 input  -60.11 | X-H torsion
[ 7974 7965 7964 7962 ] final  113.06 input  175.53 | X-H torsion
[ 8008 7997 7996 7995 ] final -102.60 input   59.86 | X-H torsion
[ 10167 10162 10161 10158 ] final   12.94 input  -65.29 | X-H torsion
[ 10718 10713 10712 10709 ] final   33.74 input   66.30 | X-H torsion
[ 10763 10752 10751 10750 ] final -132.58 input  -60.55 | X-H torsion
[ 11005 11000 10999 10996 ] final   45.10 input  -57.11 | X-H torsion

> <Gold.Protein.ActiveResidues>
 VAL166  LYS551  ARG553  GLY616  TRP617  ASP618  TYR619  PRO620  LYS621  CYS622 
 ASP623  PHE694  ASN695  SER759  ASP760  ASP761  ALA762  ILE779  LEU786  VAL792 
 PHE793  MET794  SER795  GLU796  ALA797  LYS798  CYS799  TRP800  GLU811  SER814 

> <Gold.Protein.RotatedAtoms>
  151.8067  133.3376  159.3542 H   0  0  0  0  0  0  0  0  0  0  0  0  # atno 6907 bound_to 6896
  150.7340  134.5703  159.5896 H   0  0  0  0  0  0  0  0  0  0  0  0  # atno 6908 bound_to 6896
  152.3104  134.7505  160.0389 H   0  0  0  0  0  0  0  0  0  0  0  0  # atno 6909 bound_to 6896
  145.2217  139.2859  143.4215 H   0  0  0  0  0  0  0  0  0  0  0  0  # atno 7974 bound_to 7965
  154.8589  140.0427  157.1652 H   0  0  0  0  0  0  0  0  0  0  0  0  # atno 8008 bound_to 7997
  154.8861  140.2979  155.5376 H   0  0  0  0  0  0  0  0  0  0  0  0  # atno 8009 bound_to 7997
  156.2998  140.2402  156.3871 H   0  0  0  0  0  0  0  0  0  0  0  0  # atno 8010 bound_to 7997
  140.6035  143.8555  150.6990 H   0  0  0  0  0  0  0  0  0  0  0  0  # atno 10167 bound_to 10162
  157.3016  130.7354  149.6670 H   0  0  0  0  0  0  0  0  0  0  0  0  # atno 10718 bound_to 10713
  154.8742  135.3793  154.4432 H   0  0  0  0  0  0  0  0  0  0  0  0  # atno 10763 bound_to 10752
  153.5115  135.7029  153.5783 H   0  0  0  0  0  0  0  0  0  0  0  0  # atno 10764 bound_to 10752
  153.4071  135.3934  155.1992 H   0  0  0  0  0  0  0  0  0  0  0  0  # atno 10765 bound_to 10752
  140.1491  134.4485  155.8395 H   0  0  0  0  0  0  0  0  0  0  0  0  # atno 11005 bound_to 11000
  146.3374  140.2524  142.8599 LP  0  0  0  0  0  0  0  0  0  0  0  0  # atno 17320 bound_to 7965
  144.9760  140.8414  143.5426 LP  0  0  0  0  0  0  0  0  0  0  0  0  # atno 17321 bound_to 7965
  140.2107  143.3886  152.1721 LP  0  0  0  0  0  0  0  0  0  0  0  0  # atno 17342 bound_to 10162
  139.5308  144.7157  151.5062 LP  0  0  0  0  0  0  0  0  0  0  0  0  # atno 17343 bound_to 10162
  155.9672  130.4278  150.4760 LP  0  0  0  0  0  0  0  0  0  0  0  0  # atno 17370 bound_to 10713
  157.2742  131.0593  151.2240 LP  0  0  0  0  0  0  0  0  0  0  0  0  # atno 17371 bound_to 10713
  141.2196  133.6865  156.7388 LP  0  0  0  0  0  0  0  0  0  0  0  0  # atno 17394 bound_to 11000
  140.2627  134.8454  157.3774 LP  0  0  0  0  0  0  0  0  0  0  0  0  # atno 17395 bound_to 11000

$$$$
