AV-unprocessed.smi:1962|AV-procd|sdf|7923|dock5
  -GOLD-   2272010 93D 1   1.00000     0.00000
 Structure written by MMmdl.
 36 37  0  0  0  0  0  0  0  0  1 V2000
  145.3014  136.0986  150.4800 C   0  0  0  0  0  0  0  0  0  0  0  0
  145.5431  135.8521  151.9751 C   0  0  1  0  0  0  0  0  0  0  0  0
  146.0098  134.4052  152.2388 C   0  0  0  0  0  0  0  0  0  0  0  0
  145.2612  133.4275  151.4682 N   0  0  0  0  0  0  0  0  0  0  0  0
  145.7340  132.3092  150.8147 C   0  0  0  0  0  0  0  0  0  0  0  0
  144.6650  131.7059  150.2165 C   0  0  0  0  0  0  0  0  0  0  0  0
  143.5665  132.5392  150.5680 C   0  0  0  0  0  0  0  0  0  0  0  0
  143.9257  133.5671  151.3197 N   0  0  0  0  0  0  0  0  0  0  0  0
  146.5326  136.8125  152.4613 N   0  0  0  0  0  0  0  0  0  0  0  0
  146.2852  137.8585  153.2722 C   0  0  0  0  0  0  0  0  0  0  0  0
  145.1581  138.1423  153.6788 O   0  0  0  0  0  0  0  0  0  0  0  0
  147.4698  138.6632  153.6732 C   0  0  0  0  0  0  0  0  0  0  0  0
  148.5513  138.0714  154.0741 N   0  0  0  0  0  0  0  0  0  0  0  0
  149.6774  138.7765  154.4468 N   0  0  0  0  0  0  0  0  0  0  0  0
  150.8812  137.9652  154.6160 C   0  0  0  0  0  0  0  0  0  0  0  0
  149.7079  140.1115  154.6850 C   0  0  0  0  0  0  0  0  0  0  0  0
  150.7251  140.7264  155.0050 O   0  0  0  0  0  0  0  0  0  0  0  0
  148.3746  140.8558  154.5707 C   0  0  0  0  0  0  0  0  0  0  0  0
  147.4082  140.1751  153.5811 C   0  0  0  0  0  0  0  0  0  0  0  0
  144.5445  135.4184  150.0884 H   0  0  0  0  0  0  0  0  0  0  0  0
  146.2131  135.9516  149.8999 H   0  0  0  0  0  0  0  0  0  0  0  0
  144.9524  137.1161  150.3008 H   0  0  0  0  0  0  0  0  0  0  0  0
  144.5905  136.0088  152.4845 H   0  0  0  0  0  0  0  0  0  0  0  0
  147.0626  134.2988  151.9742 H   0  0  0  0  0  0  0  0  0  0  0  0
  145.9313  134.1639  153.3003 H   0  0  0  0  0  0  0  0  0  0  0  0
  146.7807  132.0431  150.8248 H   0  0  0  0  0  0  0  0  0  0  0  0
  144.6676  130.8075  149.6175 H   0  0  0  0  0  0  0  0  0  0  0  0
  142.5257  132.4284  150.3019 H   0  0  0  0  0  0  0  0  0  0  0  0
  147.4903  136.6564  152.1810 H   0  0  0  0  0  0  0  0  0  0  0  0
  151.2329  138.0118  155.6479 H   0  0  0  0  0  0  0  0  0  0  0  0
  151.6811  138.3233  153.9662 H   0  0  0  0  0  0  0  0  0  0  0  0
  150.7057  136.9155  154.3742 H   0  0  0  0  0  0  0  0  0  0  0  0
  147.9261  140.8777  155.5647 H   0  0  0  0  0  0  0  0  0  0  0  0
  148.5467  141.8926  154.2804 H   0  0  0  0  0  0  0  0  0  0  0  0
  147.6420  140.4828  152.5614 H   0  0  0  0  0  0  0  0  0  0  0  0
  146.3983  140.5329  153.7860 H   0  0  0  0  0  0  0  0  0  0  0  0
  1  2  1  0  0  0  0
  1 20  1  0  0  0  0
  1 21  1  0  0  0  0
  1 22  1  0  0  0  0
  2  3  1  0  0  0  0
  2  9  1  0  0  0  0
  2 23  1  0  0  0  0
  3  4  1  0  0  0  0
  3 24  1  0  0  0  0
  3 25  1  0  0  0  0
  4  8  1  0  0  0  0
  4  5  1  0  0  0  0
  5  6  2  0  0  0  0
  5 26  1  0  0  0  0
  6  7  1  0  0  0  0
  6 27  1  0  0  0  0
  7  8  2  0  0  0  0
  7 28  1  0  0  0  0
  9 10  1  0  0  0  0
  9 29  1  0  0  0  0
 10 11  2  0  0  0  0
 10 12  1  0  0  0  0
 12 19  1  0  0  0  0
 12 13  2  0  0  0  0
 13 14  1  0  0  0  0
 14 15  1  0  0  0  0
 14 16  1  0  0  0  0
 15 30  1  0  0  0  0
 15 31  1  0  0  0  0
 15 32  1  0  0  0  0
 16 17  2  0  0  0  0
 16 18  1  0  0  0  0
 18 19  1  0  0  0  0
 18 33  1  0  0  0  0
 18 34  1  0  0  0  0
 19 35  1  0  0  0  0
 19 36  1  0  0  0  0
M  END
> <s_m_source_file>
AV-unprocessed.smi

> <i_m_source_file_index>
1962

> <i_lp_mmshare_version>
43012

> <i_f3d_flags>
0

> <s_epik_input>
bjFbY0hdW2NIXVtjSF1uMVtDSDJdW0NAQEhdKFtDSDNdKVtOSF1DKD1PKUMyPU5OKFtDSDNdKUMoPU8pW0NIMl1bQ0gyXTI=

> <s_epik_cmdline>
J2VwaWtfcHl0aG9uJywgJy1waCcsICc3LjAnLCAnLXRuJywgJzgnLCAnLW1hJywgJzIwMCcsICctbWV0YWxfYmluZGluZycsICctaW1hZScsICc8aW5maWxlLm1hZT4nLCAnLW9tYWUnLCAnPG91dGZpbGUubWFlPic=

> <r_lp_tautomer_probability>
1

> <r_epik_Ionization_Penalty>
9.43868e-05

> <r_epik_Ionization_Penalty_Charging>
0

> <r_epik_Ionization_Penalty_Neutral>
9.43868e-05

> <r_epik_State_Penalty>
-0

> <r_epik_Charging_Adjusted_Penalty>
0

> <i_epik_Tot_Q>
0

> <i_epik_Tot_abs_Q>
0

> <r_epik_Metal_State_Penalty>
0.0732556

> <b_epik_Metal_Only>
0

> <s_epik_Chemistry_Notes>
This compound has an imine and may undergo hydrolysis.

> <s_lp_Force_Field>
OPLS_2005

> <r_lp_Energy>
16.0721

> <b_lp_Chiralities_Consistent>
1

> <s_lp_Variant>
AV-unprocessed.smi:1962-2

> <Gold.Version>
5.8.1

> <Gold.Id.Protein>
6NUR|6NUR_protein|mol2

> <Gold.PLP.Fitness>
39.6648

> <Gold.PLP.PLP>
-30.4188

> <Gold.PLP.part.hbond>
-2.0000

> <Gold.PLP.part.metal>
0.0000

> <Gold.PLP.part.buried>
-3.0566

> <Gold.PLP.part.nonpolar>
-29.0674

> <Gold.PLP.part.repulsive>
2.7566

> <Gold.PLP.ligand.clash>
0.0000

> <Gold.PLP.ligand.torsion>
1.2920

> <Gold.PLP.Chemscore.Hbond>
1.8960

> <Gold.PLP.Chemscore.CHOScore>
2.0404

> <Gold.PLP.Chemscore.Metal>
0.0000

> <Gold.Chemscore.Hbonds>
donor molecule, donor type, donor heavy atom, donor atom, acceptor molecule, acceptor atom, score
      L1  H     9    29       P1  7948  1.00
      P1  H  7989  7998       L1    17  0.88
      L1  C     5    26       P1 10747  0.94
      L1  C     7    28       P1 10186  0.71
      L1  C     7    28       P1 10952  0.38

> <Gold.PLP.Chemscore.Internal.Correction>
0.0208

> <Gold.Rescore>
     Score         DG    S(hbond)    S(metal)    S(lipo)     H(rot)  DE(clash)    DE(int)     intcor
     12.35     -15.46       1.72        0.00      69.66       1.53       0.88       2.23       ----

> <Gold.Chemscore.Fitness>
12.3528

> <Gold.Chemscore.DG>
-15.4574

> <Gold.Chemscore.ZeroCoef>
-5.4800

> <Gold.Chemscore.Hbond>
1.7164

> <Gold.Chemscore.Metal>
0.0000

> <Gold.Chemscore.Lipo>
69.6562

> <Gold.Chemscore.Internal_Hbond>
0.0000

> <Gold.Chemscore.DEClash>
0.8765

> <Gold.Chemscore.DEInternal>
2.2281

> <Gold.Chemscore.Rot>
1.5254

> <Gold.Chemscore.Internal.Correction>
   9.000000E+99

> <Gold.Chemscore.Hbonds>
donor molecule, donor type, donor heavy atom, donor atom, acceptor molecule, acceptor atom, score
      L1  H     9    29       P1  7948  0.94
      P1  H  7989  7998       L1    17  0.43

> <Gold.Chemscore.Hbond.Weighted>
-5.7327

> <Gold.Chemscore.Metal.Weighted>
-0.0000

> <Gold.Chemscore.Lipo.Weighted>
-8.1498

> <Gold.Chemscore.Internal_Hbond.Weighted>
0.0000

> <Gold.Chemscore.DEClash.Weighted>
0.8765

> <Gold.Chemscore.DEInternal.Weighted>
2.2281

> <Gold.Chemscore.Rot.Weighted>
3.9051

> <Gold.Chemscore.Internal.Correction.Weighted>
   9.000000E+99

> <Gold.Protein.RotatedTorsions>
[ 6907 6896 6895 6894 ] final   93.03 input  -60.11 | X-H torsion
[ 7974 7965 7964 7962 ] final   -2.25 input  175.53 | X-H torsion
[ 8008 7997 7996 7995 ] final  -69.04 input   59.86 | X-H torsion
[ 10167 10162 10161 10158 ] final  -39.02 input  -65.29 | X-H torsion
[ 10718 10713 10712 10709 ] final -143.08 input   66.30 | X-H torsion
[ 10763 10752 10751 10750 ] final  -30.47 input  -60.55 | X-H torsion
[ 11005 11000 10999 10996 ] final   81.77 input  -57.11 | X-H torsion

> <Gold.Protein.ActiveResidues>
 VAL166  LYS551  ARG553  GLY616  TRP617  ASP618  TYR619  PRO620  LYS621  CYS622 
 ASP623  PHE694  ASN695  SER759  ASP760  ASP761  ALA762  ILE779  LEU786  VAL792 
 PHE793  MET794  SER795  GLU796  ALA797  LYS798  CYS799  TRP800  GLU811  SER814 

> <Gold.Protein.RotatedAtoms>
  152.5453  134.1411  159.8479 H   0  0  0  0  0  0  0  0  0  0  0  0  # atno 6907 bound_to 6896
  151.1447  133.4940  159.2603 H   0  0  0  0  0  0  0  0  0  0  0  0  # atno 6908 bound_to 6896
  151.1535  135.0249  159.8734 H   0  0  0  0  0  0  0  0  0  0  0  0  # atno 6909 bound_to 6896
  146.2407  140.1543  142.8333 H   0  0  0  0  0  0  0  0  0  0  0  0  # atno 7974 bound_to 7965
  154.4911  140.0861  156.7595 H   0  0  0  0  0  0  0  0  0  0  0  0  # atno 8008 bound_to 7997
  155.4230  140.3446  155.4255 H   0  0  0  0  0  0  0  0  0  0  0  0  # atno 8009 bound_to 7997
  156.1330  140.1507  156.9025 H   0  0  0  0  0  0  0  0  0  0  0  0  # atno 8010 bound_to 7997
  140.7076  143.3240  151.2723 H   0  0  0  0  0  0  0  0  0  0  0  0  # atno 10167 bound_to 10162
  156.3536  130.7701  151.1858 H   0  0  0  0  0  0  0  0  0  0  0  0  # atno 10718 bound_to 10713
  153.7815  135.6905  153.4887 H   0  0  0  0  0  0  0  0  0  0  0  0  # atno 10763 bound_to 10752
  153.1808  135.4507  155.0024 H   0  0  0  0  0  0  0  0  0  0  0  0  # atno 10764 bound_to 10752
  154.8079  135.3365  154.7318 H   0  0  0  0  0  0  0  0  0  0  0  0  # atno 10765 bound_to 10752
  139.9086  134.8021  156.2085 H   0  0  0  0  0  0  0  0  0  0  0  0  # atno 11005 bound_to 11000
  145.0142  140.8739  143.5206 LP  0  0  0  0  0  0  0  0  0  0  0  0  # atno 17320 bound_to 7965
  145.1581  139.2474  143.5406 LP  0  0  0  0  0  0  0  0  0  0  0  0  # atno 17321 bound_to 7965
  139.6703  144.0032  152.2749 LP  0  0  0  0  0  0  0  0  0  0  0  0  # atno 17342 bound_to 10162
  139.9628  144.6546  150.8063 LP  0  0  0  0  0  0  0  0  0  0  0  0  # atno 17343 bound_to 10162
  157.7464  131.0420  150.4675 LP  0  0  0  0  0  0  0  0  0  0  0  0  # atno 17370 bound_to 10713
  156.4874  130.4087  149.6426 LP  0  0  0  0  0  0  0  0  0  0  0  0  # atno 17371 bound_to 10713
  141.0480  133.6903  156.1719 LP  0  0  0  0  0  0  0  0  0  0  0  0  # atno 17394 bound_to 11000
  140.6854  134.4723  157.5589 LP  0  0  0  0  0  0  0  0  0  0  0  0  # atno 17395 bound_to 11000

$$$$
