AV-unprocessed.smi:198|AV-procd|sdf|1555|dock2
  -GOLD-   2262019423D 1   1.00000     0.00000
 Structure written by MMmdl.
 59 63  0  0  0  0  0  0  0  0  2 V2000
  147.6641  127.5973  151.4610 C   0  0  0  0  0  0  0  0  0  0  0  0
  147.7581  128.9656  152.0133 N   0  3  2  0  0  0  0  0  0  0  0  0
  148.6324  129.0324  153.2096 C   0  0  0  0  0  0  0  0  0  0  0  0
  148.8302  130.4860  153.6634 C   0  0  0  0  0  0  0  0  0  0  0  0
  147.4726  131.1661  153.9423 C   0  0  2  0  0  0  0  0  0  0  0  0
  146.5312  131.0354  152.7214 C   0  0  1  0  0  0  0  0  0  0  0  0
  146.9387  131.9873  151.5775 C   0  0  0  0  0  0  0  0  0  0  0  0
  147.0439  133.4289  152.0942 C   0  0  0  0  0  0  0  0  0  0  0  0
  148.0007  133.5194  153.2928 C   0  0  0  0  0  0  0  0  0  0  0  0
  147.6155  132.5719  154.3423 N   0  0  0  0  0  0  0  0  0  0  0  0
  148.1176  132.7780  155.5882 C   0  0  0  0  0  0  0  0  0  0  0  0
  149.2851  132.1820  155.9511 N   0  0  0  0  0  0  0  0  0  0  0  0
  149.7815  132.3590  157.1788 C   0  0  0  0  0  0  0  0  0  0  0  0
  149.2799  133.0759  158.1856 N   0  0  0  0  0  0  0  0  0  0  0  0
  148.1103  133.6797  157.8292 C   0  0  0  0  0  0  0  0  0  0  0  0
  147.4684  133.5901  156.5612 C   0  0  0  0  0  0  0  0  0  0  0  0
  146.3136  134.3638  156.5622 N   0  0  0  0  0  0  0  0  0  0  0  0
  146.2737  134.8773  157.7612 C   0  0  0  0  0  0  0  0  0  0  0  0
  147.2968  134.4936  158.5985 N   0  0  0  0  0  0  0  0  0  0  0  0
  147.5159  134.9355  159.9450 C   0  0  0  0  0  0  0  0  0  0  0  0
  146.4944  134.6396  161.0493 C   0  0  0  0  0  0  0  0  0  0  0  0
  146.7628  136.0250  161.6807 C   0  0  0  0  0  0  0  0  0  0  0  0
  145.5237  136.8286  162.1177 C   0  0  0  0  0  0  0  0  0  0  0  0
  145.7730  138.2178  162.2041 O   0  0  0  0  0  0  0  0  0  0  0  0
  147.7069  136.0477  162.9011 C   0  0  0  0  0  0  0  0  0  0  0  0
  148.0002  137.3510  163.3622 O   0  0  0  0  0  0  0  0  0  0  0  0
  147.3908  136.4164  160.3235 C   0  0  0  0  0  0  0  0  0  0  0  0
  146.4232  129.5666  152.2624 C   0  0  0  0  0  0  0  0  0  0  0  0
  147.1984  126.9176  152.1761 H   0  0  0  0  0  0  0  0  0  0  0  0
  148.6544  127.2116  151.2169 H   0  0  0  0  0  0  0  0  0  0  0  0
  147.0709  127.5910  150.5461 H   0  0  0  0  0  0  0  0  0  0  0  0
  148.1967  128.4412  154.0166 H   0  0  0  0  0  0  0  0  0  0  0  0
  149.6024  128.5898  152.9797 H   0  0  0  0  0  0  0  0  0  0  0  0
  149.4500  130.5026  154.5605 H   0  0  0  0  0  0  0  0  0  0  0  0
  149.3865  131.0291  152.8994 H   0  0  0  0  0  0  0  0  0  0  0  0
  147.0008  130.6157  154.7549 H   0  0  0  0  0  0  0  0  0  0  0  0
  145.5349  131.3430  153.0439 H   0  0  0  0  0  0  0  0  0  0  0  0
  147.8932  131.6838  151.1469 H   0  0  0  0  0  0  0  0  0  0  0  0
  146.2076  131.9393  150.7697 H   0  0  0  0  0  0  0  0  0  0  0  0
  147.3824  134.0901  151.2959 H   0  0  0  0  0  0  0  0  0  0  0  0
  146.0557  133.7826  152.3913 H   0  0  0  0  0  0  0  0  0  0  0  0
  149.0239  133.3197  152.9730 H   0  0  0  0  0  0  0  0  0  0  0  0
  147.9832  134.5374  153.6849 H   0  0  0  0  0  0  0  0  0  0  0  0
  150.7118  131.8508  157.3856 H   0  0  0  0  0  0  0  0  0  0  0  0
  145.4873  135.5508  158.0699 H   0  0  0  0  0  0  0  0  0  0  0  0
  148.4986  134.5524  160.2225 H   0  0  0  0  0  0  0  0  0  0  0  0
  145.4842  134.5265  160.6537 H   0  0  0  0  0  0  0  0  0  0  0  0
  146.7554  133.7906  161.6816 H   0  0  0  0  0  0  0  0  0  0  0  0
  144.7004  136.6824  161.4176 H   0  0  0  0  0  0  0  0  0  0  0  0
  145.1695  136.4942  163.0935 H   0  0  0  0  0  0  0  0  0  0  0  0
  144.9915  138.6804  161.9432 H   0  0  0  0  0  0  0  0  0  0  0  0
  147.2724  135.4949  163.7347 H   0  0  0  0  0  0  0  0  0  0  0  0
  148.6543  135.5617  162.6649 H   0  0  0  0  0  0  0  0  0  0  0  0
  147.4268  137.5502  164.0866 H   0  0  0  0  0  0  0  0  0  0  0  0
  148.3446  136.9400  160.3956 H   0  0  0  0  0  0  0  0  0  0  0  0
  146.7060  136.9557  159.6676 H   0  0  0  0  0  0  0  0  0  0  0  0
  145.8152  129.5051  151.3587 H   0  0  0  0  0  0  0  0  0  0  0  0
  145.9074  128.9803  153.0249 H   0  0  0  0  0  0  0  0  0  0  0  0
  148.1997  129.5311  151.3023 H   0  0  0  0  0  0  0  0  0  0  0  0
  1  2  1  0  0  0  0
  1 29  1  0  0  0  0
  1 30  1  0  0  0  0
  1 31  1  0  0  0  0
  2 28  1  0  0  0  0
  2  3  1  0  0  0  0
  2 59  1  0  0  0  0
  3  4  1  0  0  0  0
  3 32  1  0  0  0  0
  3 33  1  0  0  0  0
  4  5  1  0  0  0  0
  4 34  1  0  0  0  0
  4 35  1  0  0  0  0
  5 10  1  0  0  0  0
  5  6  1  0  0  0  0
  5 36  1  0  0  0  0
  6  7  1  0  0  0  0
  6 28  1  0  0  0  0
  6 37  1  0  0  0  0
  7  8  1  0  0  0  0
  7 38  1  0  0  0  0
  7 39  1  0  0  0  0
  8  9  1  0  0  0  0
  8 40  1  0  0  0  0
  8 41  1  0  0  0  0
  9 10  1  0  0  0  0
  9 42  1  0  0  0  0
  9 43  1  0  0  0  0
 10 11  1  0  0  0  0
 11 16  1  0  0  0  0
 11 12  2  0  0  0  0
 12 13  1  0  0  0  0
 13 14  2  0  0  0  0
 13 44  1  0  0  0  0
 14 15  1  0  0  0  0
 15 19  1  0  0  0  0
 15 16  2  0  0  0  0
 16 17  1  0  0  0  0
 17 18  2  0  0  0  0
 18 19  1  0  0  0  0
 18 45  1  0  0  0  0
 19 20  1  0  0  0  0
 20 27  1  0  0  0  0
 20 21  1  0  0  0  0
 20 46  1  0  0  0  0
 21 22  1  0  0  0  0
 21 47  1  0  0  0  0
 21 48  1  0  0  0  0
 22 23  1  0  0  0  0
 22 25  1  0  0  0  0
 22 27  1  0  0  0  0
 23 24  1  0  0  0  0
 23 49  1  0  0  0  0
 23 50  1  0  0  0  0
 24 51  1  0  0  0  0
 25 26  1  0  0  0  0
 25 52  1  0  0  0  0
 25 53  1  0  0  0  0
 26 54  1  0  0  0  0
 27 55  1  0  0  0  0
 27 56  1  0  0  0  0
 28 57  1  0  0  0  0
 28 58  1  0  0  0  0
M  CHG  1   2   1
M  END
> <s_m_source_file>
AV-unprocessed.smi

> <i_m_source_file_index>
198

> <i_lp_mmshare_version>
43012

> <i_f3d_flags>
0

> <s_epik_input>
W0NIMl0xW0NIMl1OKFtDSDNdKVtDSDJdW0NAQEhdKFtDQEhdMTIpW0NIMl1bQ0gyXVtDSDJdTjJjKG5bY0hdbjMpYyhjMzQpbltjSF1uNFtDSF0oW0NIMl01KVtDSDJdQzUoW0NIMl1bT0hdKVtDSDJdW09IXQ==

> <s_epik_cmdline>
J2VwaWtfcHl0aG9uJywgJy1waCcsICc3LjAnLCAnLXRuJywgJzgnLCAnLW1hJywgJzIwMCcsICctbWV0YWxfYmluZGluZycsICctaW1hZScsICc8aW5maWxlLm1hZT4nLCAnLW9tYWUnLCAnPG91dGZpbGUubWFlPic=

> <r_lp_tautomer_probability>
1

> <r_epik_Ionization_Penalty>
0.00239938

> <r_epik_Ionization_Penalty_Charging>
0.00138697

> <r_epik_Ionization_Penalty_Neutral>
0.00101241

> <r_epik_State_Penalty>
-0

> <r_epik_Charging_Adjusted_Penalty>
0.00138697

> <i_epik_Tot_Q>
1

> <i_epik_Tot_abs_Q>
1

> <r_epik_Metal_State_Penalty>
-0

> <b_epik_Metal_Only>
0

> <s_lp_Force_Field>
OPLS_2005

> <r_lp_Energy>
59.0053

> <b_lp_Chiralities_Consistent>
1

> <s_lp_Variant>
AV-unprocessed.smi:198-4

> <Gold.Version>
5.8.1

> <Gold.Id.Protein>
6NUR|6NUR_protein|mol2

> <Gold.PLP.Fitness>
46.7462

> <Gold.PLP.PLP>
-38.6447

> <Gold.PLP.part.hbond>
-4.0000

> <Gold.PLP.part.metal>
0.0000

> <Gold.PLP.part.buried>
-2.7138

> <Gold.PLP.part.nonpolar>
-32.2963

> <Gold.PLP.part.repulsive>
0.1016

> <Gold.PLP.ligand.clash>
0.0000

> <Gold.PLP.ligand.torsion>
0.7975

> <Gold.PLP.Chemscore.Hbond>
2.9280

> <Gold.PLP.Chemscore.CHOScore>
0.0000

> <Gold.PLP.Chemscore.Metal>
0.0000

> <Gold.Chemscore.Hbonds>
donor molecule, donor type, donor heavy atom, donor atom, acceptor molecule, acceptor atom, score
      L1  H     2    59       P1 10747  1.00
      P1  H  6896  6908       L1    14  1.00
      P1  H  6931  6943       L1    26  0.48
      P1  H  6934  6947       L1    24  0.43

> <Gold.PLP.Chemscore.Internal.Correction>
0.9125

> <Gold.Rescore>
     Score         DG    S(hbond)    S(metal)    S(lipo)     H(rot)  DE(clash)    DE(int)     intcor
     14.43     -17.14       2.33        0.00     100.57       3.08       0.74       1.96       ----

> <Gold.Chemscore.Fitness>
14.4316

> <Gold.Chemscore.DG>
-17.1373

> <Gold.Chemscore.ZeroCoef>
-5.4800

> <Gold.Chemscore.Hbond>
2.3264

> <Gold.Chemscore.Metal>
0.0000

> <Gold.Chemscore.Lipo>
100.5740

> <Gold.Chemscore.Internal_Hbond>
0.0000

> <Gold.Chemscore.DEClash>
0.7421

> <Gold.Chemscore.DEInternal>
1.9637

> <Gold.Chemscore.Rot>
3.0781

> <Gold.Chemscore.Internal.Correction>
   9.000000E+99

> <Gold.Chemscore.Hbonds>
donor molecule, donor type, donor heavy atom, donor atom, acceptor molecule, acceptor atom, score
      L1  H     2    59       P1 10747  0.50
      P1  H  6896  6908       L1    14  0.81
      P1  H  6931  6943       L1    26  0.31
      P1  H  6934  6947       L1    24  0.12

> <Gold.Chemscore.Hbond.Weighted>
-7.7702

> <Gold.Chemscore.Metal.Weighted>
-0.0000

> <Gold.Chemscore.Lipo.Weighted>
-11.7672

> <Gold.Chemscore.Internal_Hbond.Weighted>
0.0000

> <Gold.Chemscore.DEClash.Weighted>
0.7421

> <Gold.Chemscore.DEInternal.Weighted>
1.9637

> <Gold.Chemscore.Rot.Weighted>
7.8800

> <Gold.Chemscore.Internal.Correction.Weighted>
   9.000000E+99

> <Gold.Protein.RotatedTorsions>
[ 6907 6896 6895 6894 ] final  132.08 input  -60.11 | X-H torsion
[ 7974 7965 7964 7962 ] final  173.35 input  175.53 | X-H torsion
[ 8008 7997 7996 7995 ] final  162.96 input   59.86 | X-H torsion
[ 10167 10162 10161 10158 ] final   17.58 input  -65.29 | X-H torsion
[ 10718 10713 10712 10709 ] final  -68.81 input   66.30 | X-H torsion
[ 10763 10752 10751 10750 ] final   56.02 input  -60.55 | X-H torsion
[ 11005 11000 10999 10996 ] final -164.50 input  -57.11 | X-H torsion

> <Gold.Protein.ActiveResidues>
 VAL166  LYS551  ARG553  GLY616  TRP617  ASP618  TYR619  PRO620  LYS621  CYS622 
 ASP623  PHE694  ASN695  SER759  ASP760  ASP761  ALA762  ILE779  LEU786  VAL792 
 PHE793  MET794  SER795  GLU796  ALA797  LYS798  CYS799  TRP800  GLU811  SER814 

> <Gold.Protein.RotatedAtoms>
  152.3360  133.6012  159.5842 H   0  0  0  0  0  0  0  0  0  0  0  0  # atno 6907 bound_to 6896
  150.7450  133.9795  159.3580 H   0  0  0  0  0  0  0  0  0  0  0  0  # atno 6908 bound_to 6896
  151.7664  135.0798  160.0404 H   0  0  0  0  0  0  0  0  0  0  0  0  # atno 6909 bound_to 6896
  144.7246  139.9635  143.6435 H   0  0  0  0  0  0  0  0  0  0  0  0  # atno 7974 bound_to 7965
  156.1992  140.1736  156.7934 H   0  0  0  0  0  0  0  0  0  0  0  0  # atno 8008 bound_to 7997
  154.5570  140.0707  156.8789 H   0  0  0  0  0  0  0  0  0  0  0  0  # atno 8009 bound_to 7997
  155.2921  140.3356  155.4254 H   0  0  0  0  0  0  0  0  0  0  0  0  # atno 8010 bound_to 7997
  140.5716  143.9151  150.6717 H   0  0  0  0  0  0  0  0  0  0  0  0  # atno 10167 bound_to 10162
  156.0487  130.4301  150.2055 H   0  0  0  0  0  0  0  0  0  0  0  0  # atno 10718 bound_to 10713
  152.9825  135.5691  154.5161 H   0  0  0  0  0  0  0  0  0  0  0  0  # atno 10763 bound_to 10752
  154.4657  135.2783  155.1682 H   0  0  0  0  0  0  0  0  0  0  0  0  # atno 10764 bound_to 10752
  154.3251  135.6261  153.5579 H   0  0  0  0  0  0  0  0  0  0  0  0  # atno 10765 bound_to 10752
  140.5862  134.5092  157.5186 H   0  0  0  0  0  0  0  0  0  0  0  0  # atno 11005 bound_to 11000
  146.0619  139.3611  143.0576 LP  0  0  0  0  0  0  0  0  0  0  0  0  # atno 17320 bound_to 7965
  145.8082  140.9738  143.0963 LP  0  0  0  0  0  0  0  0  0  0  0  0  # atno 17321 bound_to 7965
  140.2627  143.3512  152.1308 LP  0  0  0  0  0  0  0  0  0  0  0  0  # atno 17342 bound_to 10162
  139.5120  144.6910  151.5759 LP  0  0  0  0  0  0  0  0  0  0  0  0  # atno 17343 bound_to 10162
  157.0141  130.9960  151.3358 LP  0  0  0  0  0  0  0  0  0  0  0  0  # atno 17370 bound_to 10713
  157.5390  130.8107  149.8006 LP  0  0  0  0  0  0  0  0  0  0  0  0  # atno 17371 bound_to 10713
  139.9295  134.7991  156.0972 LP  0  0  0  0  0  0  0  0  0  0  0  0  # atno 17394 bound_to 11000
  141.0965  133.6694  156.2656 LP  0  0  0  0  0  0  0  0  0  0  0  0  # atno 17395 bound_to 11000

$$$$
