AV-unprocessed.smi:3033|AV-procd|sdf|11575|dock7
  -GOLD-   2272016543D 1   1.00000     0.00000
 Structure written by MMmdl.
 32 33  0  0  0  0  0  0  0  0  2 V2000
  151.8446  145.6353  158.4570 C   0  0  0  0  0  0  0  0  0  0  0  0
  152.5254  144.3966  158.5955 O   0  0  0  0  0  0  0  0  0  0  0  0
  152.6463  143.8615  159.8601 C   0  0  0  0  0  0  0  0  0  0  0  0
  152.1556  144.4807  161.0371 C   0  0  0  0  0  0  0  0  0  0  0  0
  152.3170  143.8573  162.2892 C   0  0  0  0  0  0  0  0  0  0  0  0
  152.9689  142.6142  162.3825 C   0  0  0  0  0  0  0  0  0  0  0  0
  153.4685  141.9888  161.2221 C   0  0  0  0  0  0  0  0  0  0  0  0
  154.1617  140.6389  161.3276 C   0  0  2  0  0  0  0  0  0  0  0  0
  155.5490  140.7514  161.0755 O   0  0  0  0  0  0  0  0  0  0  0  0
  153.5580  139.6279  160.3295 C   0  0  0  0  0  0  0  0  0  0  0  0
  153.7664  138.2373  160.7582 N   0  0  0  0  0  0  0  0  0  0  0  0
  153.7947  137.9825  162.1394 C   0  0  0  0  0  0  0  0  0  0  0  0
  153.9732  136.7422  162.6340 C   0  0  0  0  0  0  0  0  0  0  0  0
  154.0006  136.4582  164.3380 Cl  0  0  0  0  0  0  0  0  0  0  0  0
  154.1402  135.6429  161.6851 C   0  0  0  0  0  0  0  0  0  0  0  0
  154.3087  134.4981  162.1025 O   0  0  0  0  0  0  0  0  0  0  0  0
  154.0998  135.9428  160.3536 N   0  5  0  0  0  0  0  0  0  0  0  0
  153.9139  137.2097  159.8700 C   0  0  0  0  0  0  0  0  0  0  0  0
  153.8715  137.4544  158.6637 O   0  0  0  0  0  0  0  0  0  0  0  0
  153.3013  142.6176  159.9689 C   0  0  0  0  0  0  0  0  0  0  0  0
  151.8148  145.9133  157.4035 H   0  0  0  0  0  0  0  0  0  0  0  0
  152.3567  146.4342  158.9948 H   0  0  0  0  0  0  0  0  0  0  0  0
  150.8143  145.5656  158.8087 H   0  0  0  0  0  0  0  0  0  0  0  0
  151.6493  145.4335  161.0064 H   0  0  0  0  0  0  0  0  0  0  0  0
  151.9371  144.3336  163.1810 H   0  0  0  0  0  0  0  0  0  0  0  0
  153.0808  142.1415  163.3476 H   0  0  0  0  0  0  0  0  0  0  0  0
  154.0432  140.2745  162.3489 H   0  0  0  0  0  0  0  0  0  0  0  0
  155.9383  141.2535  161.7749 H   0  0  0  0  0  0  0  0  0  0  0  0
  152.4836  139.7997  160.2418 H   0  0  0  0  0  0  0  0  0  0  0  0
  153.9468  139.7993  159.3244 H   0  0  0  0  0  0  0  0  0  0  0  0
  153.6575  138.8512  162.7667 H   0  0  0  0  0  0  0  0  0  0  0  0
  153.6747  142.1382  159.0756 H   0  0  0  0  0  0  0  0  0  0  0  0
  1  2  1  0  0  0  0
  1 21  1  0  0  0  0
  1 22  1  0  0  0  0
  1 23  1  0  0  0  0
  2  3  1  0  0  0  0
  3 20  1  0  0  0  0
  3  4  2  0  0  0  0
  4  5  1  0  0  0  0
  4 24  1  0  0  0  0
  5  6  2  0  0  0  0
  5 25  1  0  0  0  0
  6  7  1  0  0  0  0
  6 26  1  0  0  0  0
  7  8  1  0  0  0  0
  7 20  2  0  0  0  0
  8  9  1  0  0  0  0
  8 10  1  0  0  0  0
  8 27  1  0  0  0  0
  9 28  1  0  0  0  0
 10 11  1  0  0  0  0
 10 29  1  0  0  0  0
 10 30  1  0  0  0  0
 11 18  1  0  0  0  0
 11 12  1  0  0  0  0
 12 13  2  0  0  0  0
 12 31  1  0  0  0  0
 13 14  1  0  0  0  0
 13 15  1  0  0  0  0
 15 16  2  0  0  0  0
 15 17  1  0  0  0  0
 17 18  1  0  0  0  0
 18 19  2  0  0  0  0
 20 32  1  0  0  0  0
M  CHG  1  17  -1
M  END
> <s_m_source_file>
AV-unprocessed.smi

> <i_m_source_file_index>
3033

> <i_lp_mmshare_version>
43012

> <i_f3d_flags>
0

> <s_epik_input>
W0NIM11PYzFbY0hdW2NIXVtjSF1jKFtjSF0xKVtDQEhdKFtPSF0pW0NIMl1uMltjSF1jKENsKWMoPU8pW25IXWMyPU8=

> <s_epik_cmdline>
J2VwaWtfcHl0aG9uJywgJy1waCcsICc3LjAnLCAnLXRuJywgJzgnLCAnLW1hJywgJzIwMCcsICctbWV0YWxfYmluZGluZycsICctaW1hZScsICc8aW5maWxlLm1hZT4nLCAnLW9tYWUnLCAnPG91dGZpbGUubWFlPic=

> <r_lp_tautomer_probability>
1

> <r_epik_Ionization_Penalty>
1.7979

> <r_epik_Ionization_Penalty_Charging>
3.23819e-08

> <r_epik_Ionization_Penalty_Neutral>
1.7979

> <r_epik_State_Penalty>
1.91135

> <r_epik_Charging_Adjusted_Penalty>
1.91135

> <i_epik_Tot_Q>
-1

> <i_epik_Tot_abs_Q>
1

> <r_epik_Metal_State_Penalty>
0.014155

> <b_epik_Metal_Only>
0

> <s_lp_Force_Field>
OPLS_2005

> <r_lp_Energy>
24.094

> <b_lp_Chiralities_Consistent>
1

> <s_lp_Variant>
AV-unprocessed.smi:3033-3

> <Gold.Version>
5.8.1

> <Gold.Id.Protein>
6NUR|6NUR_protein|mol2

> <Gold.PLP.Fitness>
51.4431

> <Gold.PLP.PLP>
-47.0121

> <Gold.PLP.part.hbond>
-1.8263

> <Gold.PLP.part.metal>
0.0000

> <Gold.PLP.part.buried>
-5.3642

> <Gold.PLP.part.nonpolar>
-40.1633

> <Gold.PLP.part.repulsive>
0.0240

> <Gold.PLP.ligand.clash>
0.0000

> <Gold.PLP.ligand.torsion>
0.7899

> <Gold.PLP.Chemscore.Hbond>
2.0000

> <Gold.PLP.Chemscore.CHOScore>
0.0000

> <Gold.PLP.Chemscore.Metal>
0.0000

> <Gold.Chemscore.Hbonds>
donor molecule, donor type, donor heavy atom, donor atom, acceptor molecule, acceptor atom, score
      P1  H  6896  6908       L1    17  1.06

> <Gold.PLP.Chemscore.Internal.Correction>
0.0108

> <Gold.Rescore>
     Score         DG    S(hbond)    S(metal)    S(lipo)     H(rot)  DE(clash)    DE(int)     intcor
     14.95     -15.57       0.63        0.00     121.93       2.45       0.06       0.56       ----

> <Gold.Chemscore.Fitness>
14.9476

> <Gold.Chemscore.DG>
-15.5705

> <Gold.Chemscore.ZeroCoef>
-5.4800

> <Gold.Chemscore.Hbond>
0.6271

> <Gold.Chemscore.Metal>
0.0000

> <Gold.Chemscore.Lipo>
121.9291

> <Gold.Chemscore.Internal_Hbond>
0.0000

> <Gold.Chemscore.DEClash>
0.0625

> <Gold.Chemscore.DEInternal>
0.5604

> <Gold.Chemscore.Rot>
2.4491

> <Gold.Chemscore.Internal.Correction>
   9.000000E+99

> <Gold.Chemscore.Hbonds>
donor molecule, donor type, donor heavy atom, donor atom, acceptor molecule, acceptor atom, score
      P1  H  6896  6908       L1    17  0.04

> <Gold.Chemscore.Hbond.Weighted>
-2.0944

> <Gold.Chemscore.Metal.Weighted>
-0.0000

> <Gold.Chemscore.Lipo.Weighted>
-14.2657

> <Gold.Chemscore.Internal_Hbond.Weighted>
0.0000

> <Gold.Chemscore.DEClash.Weighted>
0.0625

> <Gold.Chemscore.DEInternal.Weighted>
0.5604

> <Gold.Chemscore.Rot.Weighted>
6.2696

> <Gold.Chemscore.Internal.Correction.Weighted>
   9.000000E+99

> <Gold.Protein.RotatedTorsions>
[ 6907 6896 6895 6894 ] final  -58.77 input  -60.11 | X-H torsion
[ 7974 7965 7964 7962 ] final  100.22 input  175.53 | X-H torsion
[ 8008 7997 7996 7995 ] final   81.55 input   59.86 | X-H torsion
[ 10167 10162 10161 10158 ] final   89.34 input  -65.29 | X-H torsion
[ 10718 10713 10712 10709 ] final  -61.24 input   66.30 | X-H torsion
[ 10763 10752 10751 10750 ] final  -42.08 input  -60.55 | X-H torsion
[ 11005 11000 10999 10996 ] final  -83.02 input  -57.11 | X-H torsion

> <Gold.Protein.ActiveResidues>
 VAL166  LYS551  ARG553  GLY616  TRP617  ASP618  TYR619  PRO620  LYS621  CYS622 
 ASP623  PHE694  ASN695  SER759  ASP760  ASP761  ALA762  ILE779  LEU786  VAL792 
 PHE793  MET794  SER795  GLU796  ALA797  LYS798  CYS799  TRP800  GLU811  SER814 

> <Gold.Protein.RotatedAtoms>
  150.7981  134.7055  159.6573 H   0  0  0  0  0  0  0  0  0  0  0  0  # atno 6907 bound_to 6896
  152.4095  134.6145  160.0044 H   0  0  0  0  0  0  0  0  0  0  0  0  # atno 6908 bound_to 6896
  151.6392  133.3290  159.3162 H   0  0  0  0  0  0  0  0  0  0  0  0  # atno 6909 bound_to 6896
  145.3884  139.2367  143.3365 H   0  0  0  0  0  0  0  0  0  0  0  0  # atno 7974 bound_to 7965
  155.8986  140.3434  155.6009 H   0  0  0  0  0  0  0  0  0  0  0  0  # atno 8008 bound_to 7997
  155.7527  140.0822  157.2212 H   0  0  0  0  0  0  0  0  0  0  0  0  # atno 8009 bound_to 7997
  154.4041  140.1550  156.2729 H   0  0  0  0  0  0  0  0  0  0  0  0  # atno 8010 bound_to 7997
  139.8582  144.6558  150.9089 H   0  0  0  0  0  0  0  0  0  0  0  0  # atno 10167 bound_to 10162
  156.0935  130.4196  150.0967 H   0  0  0  0  0  0  0  0  0  0  0  0  # atno 10718 bound_to 10713
  153.9731  135.6726  153.4747 H   0  0  0  0  0  0  0  0  0  0  0  0  # atno 10763 bound_to 10752
  153.0783  135.4936  154.8448 H   0  0  0  0  0  0  0  0  0  0  0  0  # atno 10764 bound_to 10752
  154.7208  135.3116  154.9012 H   0  0  0  0  0  0  0  0  0  0  0  0  # atno 10765 bound_to 10752
  141.1660  133.7273  156.8658 H   0  0  0  0  0  0  0  0  0  0  0  0  # atno 11005 bound_to 11000
  146.2809  140.4563  142.8777 LP  0  0  0  0  0  0  0  0  0  0  0  0  # atno 17320 bound_to 7965
  144.8457  140.6926  143.6200 LP  0  0  0  0  0  0  0  0  0  0  0  0  # atno 17321 bound_to 7965
  140.7778  143.3767  151.1550 LP  0  0  0  0  0  0  0  0  0  0  0  0  # atno 17342 bound_to 10162
  139.7399  143.8941  152.3046 LP  0  0  0  0  0  0  0  0  0  0  0  0  # atno 17343 bound_to 10162
  156.8971  130.9608  151.3581 LP  0  0  0  0  0  0  0  0  0  0  0  0  # atno 17370 bound_to 10713
  157.6090  130.8569  149.8921 LP  0  0  0  0  0  0  0  0  0  0  0  0  # atno 17371 bound_to 10713
  140.1816  134.9029  157.2955 LP  0  0  0  0  0  0  0  0  0  0  0  0  # atno 17394 bound_to 11000
  140.2389  134.3820  155.7489 LP  0  0  0  0  0  0  0  0  0  0  0  0  # atno 17395 bound_to 11000

$$$$
