AV-unprocessed.smi:2878|AV-procd|sdf|11046|dock6
  -GOLD-   2272015513D 1   1.00000     0.00000
 Structure written by MMmdl.
 42 43  0  0  0  0  0  0  0  0  1 V2000
  147.0698  141.6817  153.6896 C   0  0  0  0  0  0  0  0  0  0  0  0
  147.7131  139.9921  153.8237 S   0  0  0  0  0  0  0  0  0  0  0  0
  149.4270  140.3062  154.3561 C   0  0  1  0  0  0  0  0  0  0  0  0
  149.4464  141.1933  155.6163 C   0  0  0  0  0  0  0  0  0  0  0  0
  150.8827  141.4972  156.0700 C   0  0  0  0  0  0  0  0  0  0  0  0
  151.6773  140.2041  156.3052 C   0  0  0  0  0  0  0  0  0  0  0  0
  151.6683  139.3106  155.0530 C   0  0  0  0  0  0  0  0  0  0  0  0
  150.2367  139.0023  154.5648 C   0  0  1  0  0  0  0  0  0  0  0  0
  149.5567  138.1033  155.4977 N   0  0  0  0  0  0  0  0  0  0  0  0
  150.0207  136.9145  155.9058 C   0  0  0  0  0  0  0  0  0  0  0  0
  151.0971  136.4331  155.5514 O   0  0  0  0  0  0  0  0  0  0  0  0
  149.1701  136.3120  156.7478 N   0  0  0  0  0  0  0  0  0  0  0  0
  149.3843  135.0026  157.3530 C   0  0  0  0  0  0  0  0  0  0  0  0
  148.1172  134.4812  158.0500 C   0  0  0  0  0  0  0  0  0  0  0  0
  147.7935  135.2500  159.2866 C   0  0  0  0  0  0  0  0  0  0  0  0
  147.5834  134.7601  160.5061 N   0  0  0  0  0  0  0  0  0  0  0  0
  147.3977  135.9055  161.2182 C   0  0  0  0  0  0  0  0  0  0  0  0
  147.1120  135.9106  162.6811 C   0  0  0  0  0  0  0  0  0  0  0  0
  147.4974  137.0381  160.5333 N   0  0  0  0  0  0  0  0  0  0  0  0
  147.7752  136.6036  159.2293 O   0  0  0  0  0  0  0  0  0  0  0  0
  146.0064  141.6559  153.4517 H   0  0  0  0  0  0  0  0  0  0  0  0
  147.5802  142.2309  152.8993 H   0  0  0  0  0  0  0  0  0  0  0  0
  147.1998  142.2166  154.6303 H   0  0  0  0  0  0  0  0  0  0  0  0
  149.9006  140.8726  153.5529 H   0  0  0  0  0  0  0  0  0  0  0  0
  148.9218  142.1288  155.4193 H   0  0  0  0  0  0  0  0  0  0  0  0
  148.9037  140.7035  156.4259 H   0  0  0  0  0  0  0  0  0  0  0  0
  151.3841  142.1015  155.3131 H   0  0  0  0  0  0  0  0  0  0  0  0
  150.8666  142.0950  156.9818 H   0  0  0  0  0  0  0  0  0  0  0  0
  152.7044  140.4448  156.5811 H   0  0  0  0  0  0  0  0  0  0  0  0
  151.2519  139.6606  157.1498 H   0  0  0  0  0  0  0  0  0  0  0  0
  152.2151  139.8139  154.2548 H   0  0  0  0  0  0  0  0  0  0  0  0
  152.2099  138.3848  155.2512 H   0  0  0  0  0  0  0  0  0  0  0  0
  150.3218  138.5013  153.6000 H   0  0  0  0  0  0  0  0  0  0  0  0
  148.6590  138.4078  155.8452 H   0  0  0  0  0  0  0  0  0  0  0  0
  148.3097  136.7873  156.9783 H   0  0  0  0  0  0  0  0  0  0  0  0
  149.6850  134.3114  156.5650 H   0  0  0  0  0  0  0  0  0  0  0  0
  150.2161  135.0511  158.0580 H   0  0  0  0  0  0  0  0  0  0  0  0
  147.2602  134.5366  157.3777 H   0  0  0  0  0  0  0  0  0  0  0  0
  148.2394  133.4301  158.3148 H   0  0  0  0  0  0  0  0  0  0  0  0
  146.4701  136.7521  162.9444 H   0  0  0  0  0  0  0  0  0  0  0  0
  148.0415  135.9926  163.2448 H   0  0  0  0  0  0  0  0  0  0  0  0
  146.6074  134.9899  162.9756 H   0  0  0  0  0  0  0  0  0  0  0  0
  1  2  1  0  0  0  0
  1 21  1  0  0  0  0
  1 22  1  0  0  0  0
  1 23  1  0  0  0  0
  2  3  1  0  0  0  0
  3  8  1  0  0  0  0
  3  4  1  0  0  0  0
  3 24  1  0  0  0  0
  4  5  1  0  0  0  0
  4 25  1  0  0  0  0
  4 26  1  0  0  0  0
  5  6  1  0  0  0  0
  5 27  1  0  0  0  0
  5 28  1  0  0  0  0
  6  7  1  0  0  0  0
  6 29  1  0  0  0  0
  6 30  1  0  0  0  0
  7  8  1  0  0  0  0
  7 31  1  0  0  0  0
  7 32  1  0  0  0  0
  8  9  1  0  0  0  0
  8 33  1  0  0  0  0
  9 10  1  0  0  0  0
  9 34  1  0  0  0  0
 10 11  2  0  0  0  0
 10 12  1  0  0  0  0
 12 13  1  0  0  0  0
 12 35  1  0  0  0  0
 13 14  1  0  0  0  0
 13 36  1  0  0  0  0
 13 37  1  0  0  0  0
 14 15  1  0  0  0  0
 14 38  1  0  0  0  0
 14 39  1  0  0  0  0
 15 20  1  0  0  0  0
 15 16  2  0  0  0  0
 16 17  1  0  0  0  0
 17 18  1  0  0  0  0
 17 19  2  0  0  0  0
 18 40  1  0  0  0  0
 18 41  1  0  0  0  0
 18 42  1  0  0  0  0
 19 20  1  0  0  0  0
M  END
> <s_m_source_file>
AV-unprocessed.smi

> <i_m_source_file_index>
2878

> <i_lp_mmshare_version>
43012

> <i_f3d_flags>
0

> <s_epik_input>
W0NIM11TW0NAQEhdMVtDSDJdW0NIMl1bQ0gyXVtDSDJdW0NASF0xW05IXUMoPU8pW05IXVtDSDJdW0NIMl1jMm5jKFtDSDNdKW5vMg==

> <s_epik_cmdline>
J2VwaWtfcHl0aG9uJywgJy1waCcsICc3LjAnLCAnLXRuJywgJzgnLCAnLW1hJywgJzIwMCcsICctbWV0YWxfYmluZGluZycsICctaW1hZScsICc8aW5maWxlLm1hZT4nLCAnLW9tYWUnLCAnPG91dGZpbGUubWFlPic=

> <r_lp_tautomer_probability>
1

> <r_epik_Ionization_Penalty>
4.9299e-05

> <r_epik_Ionization_Penalty_Charging>
0

> <r_epik_Ionization_Penalty_Neutral>
4.9299e-05

> <r_epik_State_Penalty>
-0

> <r_epik_Charging_Adjusted_Penalty>
0

> <i_epik_Tot_Q>
0

> <i_epik_Tot_abs_Q>
0

> <r_epik_Metal_State_Penalty>
-0

> <b_epik_Metal_Only>
0

> <s_lp_Force_Field>
OPLS_2005

> <r_lp_Energy>
0.0435146

> <b_lp_Chiralities_Consistent>
1

> <s_lp_Variant>
AV-unprocessed.smi:2878-2

> <Gold.Version>
5.8.1

> <Gold.Id.Protein>
6NUR|6NUR_protein|mol2

> <Gold.PLP.Fitness>
40.5625

> <Gold.PLP.PLP>
-34.1810

> <Gold.PLP.part.hbond>
-2.4658

> <Gold.PLP.part.metal>
0.0000

> <Gold.PLP.part.buried>
-2.1462

> <Gold.PLP.part.nonpolar>
-28.1191

> <Gold.PLP.part.repulsive>
0.1212

> <Gold.PLP.ligand.clash>
0.0000

> <Gold.PLP.ligand.torsion>
0.1840

> <Gold.PLP.Chemscore.Hbond>
2.2328

> <Gold.PLP.Chemscore.CHOScore>
0.0000

> <Gold.PLP.Chemscore.Metal>
0.0000

> <Gold.Chemscore.Hbonds>
donor molecule, donor type, donor heavy atom, donor atom, acceptor molecule, acceptor atom, score
      P1  H  6931  6943       L1    19  0.09
      P1  H  6934  6947       L1    19  0.96
      P1  H 10752 10764       L1    11  0.46

> <Gold.PLP.Chemscore.Internal.Correction>
0.0512

> <Gold.Rescore>
     Score         DG    S(hbond)    S(metal)    S(lipo)     H(rot)  DE(clash)    DE(int)     intcor
     12.29     -15.46       1.99        0.00      74.24       2.09       0.57       2.61       ----

> <Gold.Chemscore.Fitness>
12.2899

> <Gold.Chemscore.DG>
-15.4645

> <Gold.Chemscore.ZeroCoef>
-5.4800

> <Gold.Chemscore.Hbond>
1.9926

> <Gold.Chemscore.Metal>
0.0000

> <Gold.Chemscore.Lipo>
74.2356

> <Gold.Chemscore.Internal_Hbond>
0.0000

> <Gold.Chemscore.DEClash>
0.5673

> <Gold.Chemscore.DEInternal>
2.6073

> <Gold.Chemscore.Rot>
2.0923

> <Gold.Chemscore.Internal.Correction>
   9.000000E+99

> <Gold.Chemscore.Hbonds>
donor molecule, donor type, donor heavy atom, donor atom, acceptor molecule, acceptor atom, score
      P1  H  6931  6943       L1    19  0.03
      P1  H  6934  6947       L1    19  0.86
      P1  H 10752 10764       L1    11  0.46

> <Gold.Chemscore.Hbond.Weighted>
-6.6552

> <Gold.Chemscore.Metal.Weighted>
-0.0000

> <Gold.Chemscore.Lipo.Weighted>
-8.6856

> <Gold.Chemscore.Internal_Hbond.Weighted>
0.0000

> <Gold.Chemscore.DEClash.Weighted>
0.5673

> <Gold.Chemscore.DEInternal.Weighted>
2.6073

> <Gold.Chemscore.Rot.Weighted>
5.3562

> <Gold.Chemscore.Internal.Correction.Weighted>
   9.000000E+99

> <Gold.Protein.RotatedTorsions>
[ 6907 6896 6895 6894 ] final  148.28 input  -60.11 | X-H torsion
[ 7974 7965 7964 7962 ] final  -78.65 input  175.53 | X-H torsion
[ 8008 7997 7996 7995 ] final -164.06 input   59.86 | X-H torsion
[ 10167 10162 10161 10158 ] final   13.15 input  -65.29 | X-H torsion
[ 10718 10713 10712 10709 ] final   49.40 input   66.30 | X-H torsion
[ 10763 10752 10751 10750 ] final  -63.76 input  -60.55 | X-H torsion
[ 11005 11000 10999 10996 ] final  142.18 input  -57.11 | X-H torsion

> <Gold.Protein.ActiveResidues>
 VAL166  LYS551  ARG553  GLY616  TRP617  ASP618  TYR619  PRO620  LYS621  CYS622 
 ASP623  PHE694  ASN695  SER759  ASP760  ASP761  ALA762  ILE779  LEU786  VAL792 
 PHE793  MET794  SER795  GLU796  ALA797  LYS798  CYS799  TRP800  GLU811  SER814 

> <Gold.Protein.RotatedAtoms>
  152.1436  133.4478  159.4778 H   0  0  0  0  0  0  0  0  0  0  0  0  # atno 6907 bound_to 6896
  150.6888  134.2275  159.4430 H   0  0  0  0  0  0  0  0  0  0  0  0  # atno 6908 bound_to 6896
  152.0168  134.9845  160.0620 H   0  0  0  0  0  0  0  0  0  0  0  0  # atno 6909 bound_to 6896
  145.5837  140.9443  143.1330 H   0  0  0  0  0  0  0  0  0  0  0  0  # atno 7974 bound_to 7965
  155.8302  140.0933  157.1797 H   0  0  0  0  0  0  0  0  0  0  0  0  # atno 8008 bound_to 7997
  154.3980  140.1420  156.3666 H   0  0  0  0  0  0  0  0  0  0  0  0  # atno 8009 bound_to 7997
  155.8174  140.3447  155.5496 H   0  0  0  0  0  0  0  0  0  0  0  0  # atno 8010 bound_to 7997
  140.6021  143.8583  150.6976 H   0  0  0  0  0  0  0  0  0  0  0  0  # atno 10167 bound_to 10162
  157.4783  130.8299  149.8064 H   0  0  0  0  0  0  0  0  0  0  0  0  # atno 10718 bound_to 10713
  154.3198  135.6198  153.5503 H   0  0  0  0  0  0  0  0  0  0  0  0  # atno 10763 bound_to 10752
  152.9821  135.5721  154.5082 H   0  0  0  0  0  0  0  0  0  0  0  0  # atno 10764 bound_to 10752
  154.4748  135.2861  155.1592 H   0  0  0  0  0  0  0  0  0  0  0  0  # atno 10765 bound_to 10752
  140.0457  134.9282  157.0926 H   0  0  0  0  0  0  0  0  0  0  0  0  # atno 11005 bound_to 11000
  144.7382  139.7523  143.7321 LP  0  0  0  0  0  0  0  0  0  0  0  0  # atno 17320 bound_to 7965
  146.1698  139.4844  142.9935 LP  0  0  0  0  0  0  0  0  0  0  0  0  # atno 17321 bound_to 7965
  140.2131  143.3867  152.1702 LP  0  0  0  0  0  0  0  0  0  0  0  0  # atno 17342 bound_to 10162
  139.5298  144.7146  151.5095 LP  0  0  0  0  0  0  0  0  0  0  0  0  # atno 17343 bound_to 10162
  156.0108  130.3834  150.2271 LP  0  0  0  0  0  0  0  0  0  0  0  0  # atno 17370 bound_to 10713
  157.0457  131.0048  151.3270 LP  0  0  0  0  0  0  0  0  0  0  0  0  # atno 17371 bound_to 10713
  140.3997  134.2096  155.7164 LP  0  0  0  0  0  0  0  0  0  0  0  0  # atno 17394 bound_to 11000
  141.1906  133.8214  157.0913 LP  0  0  0  0  0  0  0  0  0  0  0  0  # atno 17395 bound_to 11000

$$$$
