AV-unprocessed.smi:817|AV-procd|sdf|3831|dock2
  -GOLD-   22720 1273D 1   1.00000     0.00000
 Structure written by MMmdl.
 48 49  0  0  0  0  0  0  0  0  2 V2000
  146.3647  132.1610  150.8173 C   0  0  0  0  0  0  0  0  0  0  0  0
  146.6764  131.8260  152.2827 C   0  0  1  0  0  0  0  0  0  0  0  0
  146.8772  130.3121  152.4788 C   0  0  0  0  0  0  0  0  0  0  0  0
  147.2521  129.9712  153.9284 C   0  0  0  0  0  0  0  0  0  0  0  0
  148.4754  130.7842  154.3894 C   0  0  0  0  0  0  0  0  0  0  0  0
  148.2513  132.3234  154.2829 C   0  0  2  0  0  0  0  0  0  0  0  0
  149.5583  133.0767  154.6791 C   0  0  0  0  0  0  0  0  0  0  0  0
  149.5981  134.4574  154.1931 N   0  0  0  0  0  0  0  0  0  0  0  0
  150.1231  135.5303  154.8094 C   0  0  0  0  0  0  0  0  0  0  0  0
  150.6348  135.4339  155.9220 O   0  0  0  0  0  0  0  0  0  0  0  0
  150.0089  136.6766  154.1097 N   0  0  0  0  0  0  0  0  0  0  0  0
  150.4508  137.9813  154.4596 C   0  0  0  0  0  0  0  0  0  0  0  0
  151.1501  138.2973  155.6499 C   0  0  0  0  0  0  0  0  0  0  0  0
  151.5467  139.6303  155.8713 C   0  0  0  0  0  0  0  0  0  0  0  0
  151.2388  140.5959  154.8935 C   0  0  0  0  0  0  0  0  0  0  0  0
  150.5856  140.3065  153.7484 N   0  0  0  0  0  0  0  0  0  0  0  0
  150.2079  139.0267  153.5435 C   0  0  0  0  0  0  0  0  0  0  0  0
  147.1066  132.7526  155.1718 N   0  3  0  0  0  0  0  0  0  0  0  0
  147.2120  132.3626  156.6030 C   0  0  0  0  0  0  0  0  0  0  0  0
  146.6921  134.1762  155.0559 C   0  0  0  0  0  0  0  0  0  0  0  0
  147.9159  132.6004  152.7843 C   0  0  0  0  0  0  0  0  0  0  0  0
  147.1921  131.8854  150.1627 H   0  0  0  0  0  0  0  0  0  0  0  0
  146.1798  133.2279  150.6889 H   0  0  0  0  0  0  0  0  0  0  0  0
  145.4769  131.6300  150.4725 H   0  0  0  0  0  0  0  0  0  0  0  0
  145.8111  132.1313  152.8716 H   0  0  0  0  0  0  0  0  0  0  0  0
  145.9715  129.7739  152.1974 H   0  0  0  0  0  0  0  0  0  0  0  0
  147.6646  129.9571  151.8121 H   0  0  0  0  0  0  0  0  0  0  0  0
  146.4026  130.1587  154.5857 H   0  0  0  0  0  0  0  0  0  0  0  0
  147.4668  128.9052  154.0084 H   0  0  0  0  0  0  0  0  0  0  0  0
  148.7729  130.4860  155.3937 H   0  0  0  0  0  0  0  0  0  0  0  0
  149.3154  130.4890  153.7597 H   0  0  0  0  0  0  0  0  0  0  0  0
  149.6699  133.1019  155.7631 H   0  0  0  0  0  0  0  0  0  0  0  0
  150.4321  132.5620  154.2791 H   0  0  0  0  0  0  0  0  0  0  0  0
  149.1709  134.6217  153.2927 H   0  0  0  0  0  0  0  0  0  0  0  0
  149.4943  136.6151  153.2436 H   0  0  0  0  0  0  0  0  0  0  0  0
  151.4013  137.5504  156.3866 H   0  0  0  0  0  0  0  0  0  0  0  0
  152.0796  139.9054  156.7694 H   0  0  0  0  0  0  0  0  0  0  0  0
  151.5297  141.6267  155.0326 H   0  0  0  0  0  0  0  0  0  0  0  0
  149.6896  138.8324  152.6158 H   0  0  0  0  0  0  0  0  0  0  0  0
  148.0387  132.8663  157.1032 H   0  0  0  0  0  0  0  0  0  0  0  0
  147.3226  131.2888  156.7395 H   0  0  0  0  0  0  0  0  0  0  0  0
  146.2997  132.6364  157.1341 H   0  0  0  0  0  0  0  0  0  0  0  0
  147.4821  134.8584  155.3681 H   0  0  0  0  0  0  0  0  0  0  0  0
  145.8280  134.3702  155.6921 H   0  0  0  0  0  0  0  0  0  0  0  0
  146.3809  134.4397  154.0469 H   0  0  0  0  0  0  0  0  0  0  0  0
  148.7593  132.3042  152.1593 H   0  0  0  0  0  0  0  0  0  0  0  0
  147.8033  133.6672  152.5941 H   0  0  0  0  0  0  0  0  0  0  0  0
  146.3143  132.2302  154.8252 H   0  0  0  0  0  0  0  0  0  0  0  0
  1  2  1  0  0  0  0
  1 22  1  0  0  0  0
  1 23  1  0  0  0  0
  1 24  1  0  0  0  0
  2 21  1  0  0  0  0
  2  3  1  0  0  0  0
  2 25  1  0  0  0  0
  3  4  1  0  0  0  0
  3 26  1  0  0  0  0
  3 27  1  0  0  0  0
  4  5  1  0  0  0  0
  4 28  1  0  0  0  0
  4 29  1  0  0  0  0
  5  6  1  0  0  0  0
  5 30  1  0  0  0  0
  5 31  1  0  0  0  0
  6  7  1  0  0  0  0
  6 18  1  0  0  0  0
  6 21  1  0  0  0  0
  7  8  1  0  0  0  0
  7 32  1  0  0  0  0
  7 33  1  0  0  0  0
  8  9  1  0  0  0  0
  8 34  1  0  0  0  0
  9 10  2  0  0  0  0
  9 11  1  0  0  0  0
 11 12  1  0  0  0  0
 11 35  1  0  0  0  0
 12 17  1  0  0  0  0
 12 13  2  0  0  0  0
 13 14  1  0  0  0  0
 13 36  1  0  0  0  0
 14 15  2  0  0  0  0
 14 37  1  0  0  0  0
 15 16  1  0  0  0  0
 15 38  1  0  0  0  0
 16 17  2  0  0  0  0
 17 39  1  0  0  0  0
 18 19  1  0  0  0  0
 18 20  1  0  0  0  0
 18 48  1  0  0  0  0
 19 40  1  0  0  0  0
 19 41  1  0  0  0  0
 19 42  1  0  0  0  0
 20 43  1  0  0  0  0
 20 44  1  0  0  0  0
 20 45  1  0  0  0  0
 21 46  1  0  0  0  0
 21 47  1  0  0  0  0
M  CHG  1  18   1
M  END
> <s_m_source_file>
AV-unprocessed.smi

> <i_m_source_file_index>
817

> <i_lp_mmshare_version>
43012

> <i_f3d_flags>
0

> <s_epik_input>
W0NIM11bQ0BASF0oW0NIMl0xKVtDSDJdW0NIMl1bQ0gyXVtDQF0xKE4oW0NIM10pW0NIM10pW0NIMl1bTkhdQyg9TylbTkhdYzJbY0hdW2NIXVtjSF1uW2NIXTI=

> <s_epik_cmdline>
J2VwaWtfcHl0aG9uJywgJy1waCcsICc3LjAnLCAnLXRuJywgJzgnLCAnLW1hJywgJzIwMCcsICctbWV0YWxfYmluZGluZycsICctaW1hZScsICc8aW5maWxlLm1hZT4nLCAnLW9tYWUnLCAnPG91dGZpbGUubWFlPic=

> <r_lp_tautomer_probability>
1

> <r_epik_Ionization_Penalty>
0.00584939

> <r_epik_Ionization_Penalty_Charging>
0.00160539

> <r_epik_Ionization_Penalty_Neutral>
0.004244

> <r_epik_State_Penalty>
-0

> <r_epik_Charging_Adjusted_Penalty>
0.00160539

> <i_epik_Tot_Q>
1

> <i_epik_Tot_abs_Q>
1

> <r_epik_Metal_State_Penalty>
-0

> <b_epik_Metal_Only>
0

> <s_lp_Force_Field>
OPLS_2005

> <r_lp_Energy>
44.0482

> <b_lp_Chiralities_Consistent>
1

> <s_lp_Variant>
AV-unprocessed.smi:817-4

> <Gold.Version>
5.8.1

> <Gold.Id.Protein>
6NUR|6NUR_protein|mol2

> <Gold.PLP.Fitness>
45.4564

> <Gold.PLP.PLP>
-33.8684

> <Gold.PLP.part.hbond>
-4.5300

> <Gold.PLP.part.metal>
0.0000

> <Gold.PLP.part.buried>
-2.2831

> <Gold.PLP.part.nonpolar>
-26.8253

> <Gold.PLP.part.repulsive>
0.2283

> <Gold.PLP.ligand.clash>
0.0000

> <Gold.PLP.ligand.torsion>
0.4431

> <Gold.PLP.Chemscore.Hbond>
3.1286

> <Gold.PLP.Chemscore.CHOScore>
0.9850

> <Gold.PLP.Chemscore.Metal>
0.0000

> <Gold.Chemscore.Hbonds>
donor molecule, donor type, donor heavy atom, donor atom, acceptor molecule, acceptor atom, score
      L1  H     8    34       P1  7948  0.34
      L1  H    11    35       P1  7948  0.93
      L1  C    17    39       P1  7948  0.37
      L1  C    17    39       P1  7957  0.56

> <Gold.PLP.Chemscore.Internal.Correction>
0.1334

> <Gold.Rescore>
     Score         DG    S(hbond)    S(metal)    S(lipo)     H(rot)  DE(clash)    DE(int)     intcor
     16.10     -17.85       1.82        0.00      85.44       1.44       0.02       1.73       ----

> <Gold.Chemscore.Fitness>
16.0979

> <Gold.Chemscore.DG>
-17.8534

> <Gold.Chemscore.ZeroCoef>
-5.4800

> <Gold.Chemscore.Hbond>
1.8157

> <Gold.Chemscore.Metal>
0.0000

> <Gold.Chemscore.Lipo>
85.4426

> <Gold.Chemscore.Internal_Hbond>
0.0000

> <Gold.Chemscore.DEClash>
0.0208

> <Gold.Chemscore.DEInternal>
1.7346

> <Gold.Chemscore.Rot>
1.4405

> <Gold.Chemscore.Internal.Correction>
   9.000000E+99

> <Gold.Chemscore.Hbonds>
donor molecule, donor type, donor heavy atom, donor atom, acceptor molecule, acceptor atom, score
      L1  H     8    34       P1  7948  0.02
      L1  H    11    35       P1  7948  0.62

> <Gold.Chemscore.Hbond.Weighted>
-6.0644

> <Gold.Chemscore.Metal.Weighted>
-0.0000

> <Gold.Chemscore.Lipo.Weighted>
-9.9968

> <Gold.Chemscore.Internal_Hbond.Weighted>
0.0000

> <Gold.Chemscore.DEClash.Weighted>
0.0208

> <Gold.Chemscore.DEInternal.Weighted>
1.7346

> <Gold.Chemscore.Rot.Weighted>
3.6878

> <Gold.Chemscore.Internal.Correction.Weighted>
   9.000000E+99

> <Gold.Protein.RotatedTorsions>
[ 6907 6896 6895 6894 ] final -127.81 input  -60.11 | X-H torsion
[ 7974 7965 7964 7962 ] final   43.46 input  175.53 | X-H torsion
[ 8008 7997 7996 7995 ] final  152.04 input   59.86 | X-H torsion
[ 10167 10162 10161 10158 ] final  -67.13 input  -65.29 | X-H torsion
[ 10718 10713 10712 10709 ] final   34.63 input   66.30 | X-H torsion
[ 10763 10752 10751 10750 ] final  -37.80 input  -60.55 | X-H torsion
[ 11005 11000 10999 10996 ] final  -58.29 input  -57.11 | X-H torsion

> <Gold.Protein.ActiveResidues>
 VAL166  LYS551  ARG553  GLY616  TRP617  ASP618  TYR619  PRO620  LYS621  CYS622 
 ASP623  PHE694  ASN695  SER759  ASP760  ASP761  ALA762  ILE779  LEU786  VAL792 
 PHE793  MET794  SER795  GLU796  ALA797  LYS798  CYS799  TRP800  GLU811  SER814 

> <Gold.Protein.RotatedAtoms>
  150.9112  133.6995  159.2854 H   0  0  0  0  0  0  0  0  0  0  0  0  # atno 6907 bound_to 6896
  151.4481  135.1026  159.9699 H   0  0  0  0  0  0  0  0  0  0  0  0  # atno 6908 bound_to 6896
  152.4931  133.8505  159.7254 H   0  0  0  0  0  0  0  0  0  0  0  0  # atno 6909 bound_to 6896
  146.0653  139.5184  142.9632 H   0  0  0  0  0  0  0  0  0  0  0  0  # atno 7974 bound_to 7965
  156.2647  140.2031  156.6271 H   0  0  0  0  0  0  0  0  0  0  0  0  # atno 8008 bound_to 7997
  154.6712  140.0550  157.0191 H   0  0  0  0  0  0  0  0  0  0  0  0  # atno 8009 bound_to 7997
  155.1135  140.3218  155.4518 H   0  0  0  0  0  0  0  0  0  0  0  0  # atno 8010 bound_to 7997
  140.5606  143.2313  151.6735 H   0  0  0  0  0  0  0  0  0  0  0  0  # atno 10167 bound_to 10162
  157.3127  130.7408  149.6735 H   0  0  0  0  0  0  0  0  0  0  0  0  # atno 10718 bound_to 10713
  153.9023  135.6801  153.4754 H   0  0  0  0  0  0  0  0  0  0  0  0  # atno 10763 bound_to 10752
  153.1122  135.4778  154.9052 H   0  0  0  0  0  0  0  0  0  0  0  0  # atno 10764 bound_to 10752
  154.7569  135.3200  154.8408 H   0  0  0  0  0  0  0  0  0  0  0  0  # atno 10765 bound_to 10752
  141.1201  133.6612  156.4898 H   0  0  0  0  0  0  0  0  0  0  0  0  # atno 11005 bound_to 11000
  145.6487  141.0268  143.1772 LP  0  0  0  0  0  0  0  0  0  0  0  0  # atno 17320 bound_to 7965
  144.7199  139.8066  143.7385 LP  0  0  0  0  0  0  0  0  0  0  0  0  # atno 17321 bound_to 7965
  139.5068  144.3668  152.0509 LP  0  0  0  0  0  0  0  0  0  0  0  0  # atno 17342 bound_to 10162
  140.2794  144.3876  150.6124 LP  0  0  0  0  0  0  0  0  0  0  0  0  # atno 17343 bound_to 10162
  155.9679  130.4246  150.4617 LP  0  0  0  0  0  0  0  0  0  0  0  0  # atno 17370 bound_to 10713
  157.2619  131.0568  151.2315 LP  0  0  0  0  0  0  0  0  0  0  0  0  # atno 17371 bound_to 10713
  140.4532  134.6909  157.5050 LP  0  0  0  0  0  0  0  0  0  0  0  0  # atno 17394 bound_to 11000
  140.0152  134.6630  155.9321 LP  0  0  0  0  0  0  0  0  0  0  0  0  # atno 17395 bound_to 11000

$$$$
