#       Name:                AV-unprocessed.smi:1740
#       Creating user name   scv26
#       Creation time:       Fri Mar 27 08:22:54 2020


#       File generated by GOLD software.
#

@<TRIPOS>MOLECULE
AV-unprocessed.smi:1740
    58    60     1
SMALL
NO_CHARGES


@<TRIPOS>ATOM
      1 ****        -5.3934  -4.3208   0.7143 N.pl3          1 S1                -1.0000
      2 ****        -4.0848  -4.5204   0.9692 C.2            1 S1                 0.0000
      3 ****        -3.5839  -5.1735   1.8815 O.2            1 S1                 0.0000
      4 ****        -3.1780  -3.8143  -0.0448 C.3            1 S1                 0.0000
      5 ****        -3.3551  -2.3406   0.0192 N.4            1 S1                 1.0000
      6 ****        -2.9705  -1.6725  -1.2499 C.3            1 S1                 0.0000
      7 ****        -3.2891  -0.1669  -1.2090 C.3            1 S1                 0.0000
      8 ****        -2.6249   0.5290  -0.0055 C.3            1 S1                 0.0000
      9 ****        -1.1718   0.5900  -0.1568 N.am           1 S1                 0.0000
     10 ****        -0.5012   1.4929  -0.8860 C.2            1 S1                 0.0000
     11 ****        -1.0457   2.4085  -1.5018 O.2            1 S1                 0.0000
     12 ****         0.8208   1.2591  -0.8382 N.am           1 S1                 0.0000
     13 ****         1.8868   1.9879  -1.4408 C.ar           1 S1                 0.0000
     14 ****         1.7028   2.7744  -2.6053 C.ar           1 S1                 0.0000
     15 ****         2.8098   3.4166  -3.1864 C.ar           1 S1                 0.0000
     16 ****         4.0700   3.2377  -2.5932 C.ar           1 S1                 0.0000
     17 ****         4.2650   2.4832  -1.4938 N.ar           1 S1                 0.0000
     18 ****         3.2047   1.8702  -0.9127 C.ar           1 S1                 0.0000
     19 ****         3.4649   1.1047   0.2470 N.3            1 S1                 0.0000
     20 ****         2.7635   1.4738   1.4733 C.3            1 S1                 0.0000
     21 ****         3.7517   1.2497   2.6230 C.3            1 S1                 0.0000
     22 ****         4.7699   0.2746   2.0401 C.3            1 S1                 0.0000
     23 ****         4.8280   0.7017   0.5765 C.3            1 S1                 0.0000
     24 ****        -2.9993  -0.2152   1.2874 C.3            1 S1                 0.0000
     25 ****        -2.6889  -1.7206   1.1964 C.3            1 S1                 0.0000
     26 ****        -6.0871  -4.7621   1.3303 H              1 S1                 0.0000
     27 ****        -2.1329  -4.0790   0.1238 H              1 S1                 0.0000
     28 ****        -3.4358  -4.1856  -1.0383 H              1 S1                 0.0000
     29 ****        -1.9078  -1.8321  -1.4391 H              1 S1                 0.0000
     30 ****        -3.5106  -2.1271  -2.0811 H              1 S1                 0.0000
     31 ****        -2.9829   0.3061  -2.1429 H              1 S1                 0.0000
     32 ****        -4.3700  -0.0347  -1.1456 H              1 S1                 0.0000
     33 ****        -3.0049   1.5497   0.0682 H              1 S1                 0.0000
     34 ****        -0.6356  -0.1172   0.3242 H              1 S1                 0.0000
     35 ****         1.1127   0.5095  -0.2283 H              1 S1                 0.0000
     36 ****         0.7405   2.8809  -3.0804 H              1 S1                 0.0000
     37 ****         2.6964   4.0214  -4.0738 H              1 S1                 0.0000
     38 ****         4.9461   3.7072  -3.0154 H              1 S1                 0.0000
     39 ****         2.4075   2.5047   1.4491 H              1 S1                 0.0000
     40 ****         1.8993   0.8204   1.5948 H              1 S1                 0.0000
     41 ****         4.2465   2.1901   2.8692 H              1 S1                 0.0000
     42 ****         3.2724   0.8759   3.5279 H              1 S1                 0.0000
     43 ****         5.7402   0.3209   2.5352 H              1 S1                 0.0000
     44 ****         4.3952  -0.7471   2.1173 H              1 S1                 0.0000
     45 ****         5.1696  -0.1082  -0.0687 H              1 S1                 0.0000
     46 ****         5.5192   1.5390   0.4715 H              1 S1                 0.0000
     47 ****        -2.4809   0.2239   2.1406 H              1 S1                 0.0000
     48 ****        -4.0650  -0.0837   1.4807 H              1 S1                 0.0000
     49 ****        -3.0220  -2.2050   2.1147 H              1 S1                 0.0000
     50 ****        -1.6117  -1.8819   1.1322 H              1 S1                 0.0000
     51 ****        -4.3494  -2.1960   0.1302 H              1 S1                 0.0000
     52 ****        -5.6827  -3.7552  -0.0580 LP             1 S1                 0.0000
     53 ****        -4.1708  -5.6355   2.5464 LP             1 S1                 0.0000
     54 ****        -2.5893  -5.2430   1.9591 LP             1 S1                 0.0000
     55 ****        -2.0404   2.5076  -1.4740 LP             1 S1                 0.0000
     56 ****        -0.4935   3.0535  -2.0301 LP             1 S1                 0.0000
     57 ****         5.1825   2.3766  -1.1106 LP             1 S1                 0.0000
     58 ****         3.0391   0.2870  -0.1403 LP             1 S1                 0.0000
@<TRIPOS>BOND
    1    1    2 1     
    2    1   26 1     
    3    2    3 2     
    4    2    4 1     
    5    4    5 1     
    6    4   27 1     
    7    4   28 1     
    8    5   25 1     
    9    5    6 1     
   10    5   51 1     
   11    6    7 1     
   12    6   29 1     
   13    6   30 1     
   14    7    8 1     
   15    7   31 1     
   16    7   32 1     
   17    8    9 1     
   18    8   24 1     
   19    8   33 1     
   20    9   10 am    
   21    9   34 1     
   22   10   11 2     
   23   10   12 am    
   24   12   13 1     
   25   12   35 1     
   26   13   18 ar    
   27   13   14 ar    
   28   14   15 ar    
   29   14   36 1     
   30   15   16 ar    
   31   15   37 1     
   32   16   17 ar    
   33   16   38 1     
   34   17   18 ar    
   35   18   19 1     
   36   19   23 1     
   37   19   20 1     
   38   20   21 1     
   39   20   39 1     
   40   20   40 1     
   41   21   22 1     
   42   21   41 1     
   43   21   42 1     
   44   22   23 1     
   45   22   43 1     
   46   22   44 1     
   47   23   45 1     
   48   23   46 1     
   49   24   25 1     
   50   24   47 1     
   51   24   48 1     
   52   25   49 1     
   53   25   50 1     
   54    1   52 1     
   55    3   53 1     
   56    3   54 1     
   57   11   55 1     
   58   11   56 1     
   59   17   57 1     
   60   19   58 1     
@<TRIPOS>SUBSTRUCTURE
      1 S1             1
@<TRIPOS>SET
LONE_PAIRS      STATIC     ATOMS    <user>   **** ""
7 52 53 54 55 56 57 58
DONOR_HYDROGENS      STATIC     ATOMS    <user>   **** ""
4 26 51 34 35
ATOM$BLUE        STATIC     ATOMS    COLORGROUP SYSTEM
7 52 53 54 55 56 57 58
ATOM$RED        STATIC     ATOMS    COLORGROUP SYSTEM
4 26 51 34 35
