AV-unprocessed.smi:102|AV-procd|sdf|950|dock1
  -GOLD-   2262017473D 1   1.00000     0.00000
 Structure written by MMmdl.
 44 45  0  0  0  0  0  0  0  0  1 V2000
  147.6750  135.9395  162.4448 C   0  0  0  0  0  0  0  0  0  0  0  0
  147.4699  136.4264  161.0166 C   0  0  0  0  0  0  0  0  0  0  0  0
  146.8117  137.4365  160.7678 O   0  0  0  0  0  0  0  0  0  0  0  0
  148.0754  135.6381  160.1181 O   0  0  0  0  0  0  0  0  0  0  0  0
  148.4808  136.1743  158.8675 C   0  0  0  0  0  0  0  0  0  0  0  0
  148.8790  135.0481  157.8996 C   0  0  1  0  0  0  0  0  0  0  0  0
  147.7405  134.4239  157.3317 O   0  0  0  0  0  0  0  0  0  0  0  0
  148.1364  133.7391  156.1877 C   0  0  1  0  0  0  0  0  0  0  0  0
  147.0078  133.8466  155.1875 N   0  0  0  0  0  0  0  0  0  0  0  0
  147.0799  134.7625  154.1456 C   0  0  0  0  0  0  0  0  0  0  0  0
  146.0703  134.9677  153.2679 C   0  0  0  0  0  0  0  0  0  0  0  0
  146.2184  135.8726  152.2855 F   0  0  0  0  0  0  0  0  0  0  0  0
  144.8154  134.2337  153.3945 C   0  0  0  0  0  0  0  0  0  0  0  0
  143.8491  134.3389  152.6421 O   0  0  0  0  0  0  0  0  0  0  0  0
  144.7644  133.3652  154.4884 N   0  0  0  0  0  0  0  0  0  0  0  0
  145.7943  133.1542  155.4076 C   0  0  0  0  0  0  0  0  0  0  0  0
  145.6180  132.3848  156.3511 O   0  0  0  0  0  0  0  0  0  0  0  0
  149.4492  134.3563  155.6652 C   0  0  2  0  0  0  0  0  0  0  0  0
  150.4620  133.3612  155.5853 O   0  0  0  0  0  0  0  0  0  0  0  0
  150.8379  132.6914  156.6886 C   0  0  0  0  0  0  0  0  0  0  0  0
  152.1519  131.9465  156.4964 C   0  0  0  0  0  0  0  0  0  0  0  0
  150.2240  132.6495  157.7551 O   0  0  0  0  0  0  0  0  0  0  0  0
  149.7930  135.4076  156.7169 C   0  0  1  0  0  0  0  0  0  0  0  0
  149.5496  136.6941  156.1569 O   0  0  0  0  0  0  0  0  0  0  0  0
  150.3250  137.1761  155.1689 C   0  0  0  0  0  0  0  0  0  0  0  0
  149.9238  138.5853  154.7546 C   0  0  0  0  0  0  0  0  0  0  0  0
  151.2707  136.5955  154.6368 O   0  0  0  0  0  0  0  0  0  0  0  0
  143.9050  132.8550  154.6320 H   0  0  0  0  0  0  0  0  0  0  0  0
  147.3299  134.9106  162.5483 H   0  0  0  0  0  0  0  0  0  0  0  0
  147.1194  136.5627  163.1456 H   0  0  0  0  0  0  0  0  0  0  0  0
  148.7317  135.9798  162.7097 H   0  0  0  0  0  0  0  0  0  0  0  0
  147.6761  136.7682  158.4316 H   0  0  0  0  0  0  0  0  0  0  0  0
  149.3281  136.8423  159.0270 H   0  0  0  0  0  0  0  0  0  0  0  0
  149.3928  134.2782  158.4776 H   0  0  0  0  0  0  0  0  0  0  0  0
  148.2688  132.6858  156.4385 H   0  0  0  0  0  0  0  0  0  0  0  0
  147.9729  135.3577  154.0264 H   0  0  0  0  0  0  0  0  0  0  0  0
  149.2915  134.8017  154.6819 H   0  0  0  0  0  0  0  0  0  0  0  0
  152.9780  132.6530  156.4154 H   0  0  0  0  0  0  0  0  0  0  0  0
  152.1190  131.3446  155.5881 H   0  0  0  0  0  0  0  0  0  0  0  0
  152.3443  131.2854  157.3417 H   0  0  0  0  0  0  0  0  0  0  0  0
  150.8387  135.3169  157.0148 H   0  0  0  0  0  0  0  0  0  0  0  0
  150.3710  139.3170  155.4276 H   0  0  0  0  0  0  0  0  0  0  0  0
  148.8401  138.7005  154.7869 H   0  0  0  0  0  0  0  0  0  0  0  0
  150.2622  138.7951  153.7400 H   0  0  0  0  0  0  0  0  0  0  0  0
  1  2  1  0  0  0  0
  1 29  1  0  0  0  0
  1 30  1  0  0  0  0
  1 31  1  0  0  0  0
  2  3  2  0  0  0  0
  2  4  1  0  0  0  0
  4  5  1  0  0  0  0
  5  6  1  0  0  0  0
  5 32  1  0  0  0  0
  5 33  1  0  0  0  0
  6 23  1  0  0  0  0
  6  7  1  0  0  0  0
  6 34  1  0  0  0  0
  7  8  1  0  0  0  0
  8  9  1  0  0  0  0
  8 18  1  0  0  0  0
  8 35  1  0  0  0  0
  9 16  1  0  0  0  0
  9 10  1  0  0  0  0
 10 11  2  0  0  0  0
 10 36  1  0  0  0  0
 11 12  1  0  0  0  0
 11 13  1  0  0  0  0
 13 14  2  0  0  0  0
 13 15  1  0  0  0  0
 15 28  1  0  0  0  0
 15 16  1  0  0  0  0
 16 17  2  0  0  0  0
 18 19  1  0  0  0  0
 18 23  1  0  0  0  0
 18 37  1  0  0  0  0
 19 20  1  0  0  0  0
 20 21  1  0  0  0  0
 20 22  2  0  0  0  0
 21 38  1  0  0  0  0
 21 39  1  0  0  0  0
 21 40  1  0  0  0  0
 23 24  1  0  0  0  0
 23 41  1  0  0  0  0
 24 25  1  0  0  0  0
 25 26  1  0  0  0  0
 25 27  2  0  0  0  0
 26 42  1  0  0  0  0
 26 43  1  0  0  0  0
 26 44  1  0  0  0  0
M  END
> <s_m_source_file>
AV-unprocessed.smi

> <i_m_source_file_index>
102

> <i_lp_mmshare_version>
43012

> <i_f3d_flags>
0

> <s_epik_input>
W0NIM11DKD1PKU9bQ0gyXVtDQEBIXTFPW0NASF0oW0NAQEhdKE9DKD1PKVtDSDNdKVtDQEhdMU9DKD1PKVtDSDNdKW4yW2NIXWMoRiljKD1PKVtuSF1jMj1P

> <s_epik_cmdline>
J2VwaWtfcHl0aG9uJywgJy1waCcsICc3LjAnLCAnLXRuJywgJzgnLCAnLW1hJywgJzIwMCcsICctbWV0YWxfYmluZGluZycsICctaW1hZScsICc8aW5maWxlLm1hZT4nLCAnLW9tYWUnLCAnPG91dGZpbGUubWFlPic=

> <r_lp_tautomer_probability>
0.999537

> <r_epik_Ionization_Penalty>
0.058267

> <r_epik_Ionization_Penalty_Charging>
0.058267

> <r_epik_Ionization_Penalty_Neutral>
6.57791e-16

> <r_epik_State_Penalty>
0.0503774

> <r_epik_Charging_Adjusted_Penalty>
0.108644

> <i_epik_Tot_Q>
0

> <i_epik_Tot_abs_Q>
0

> <r_epik_Metal_State_Penalty>
2.6644

> <b_epik_Metal_Only>
0

> <s_epik_Chemistry_Notes>
This compound has an ester and may undergo hydrolysis at high or low pH. This compound contains an acetal/aminal-like group ( X-CH(R)-Y where X, Y are N, S, or O) that may be acid/base labile, releasing an aldehyde.

> <s_lp_Force_Field>
OPLS_2005

> <r_lp_Energy>
13.4822

> <b_lp_Chiralities_Consistent>
1

> <s_lp_Variant>
AV-unprocessed.smi:102-6

> <Gold.Version>
5.8.1

> <Gold.Id.Protein>
6NUR|6NUR_protein|mol2

> <Gold.PLP.Fitness>
37.7503

> <Gold.PLP.PLP>
-24.7583

> <Gold.PLP.part.hbond>
-4.2617

> <Gold.PLP.part.metal>
0.0000

> <Gold.PLP.part.buried>
-2.7250

> <Gold.PLP.part.nonpolar>
-19.0610

> <Gold.PLP.part.repulsive>
0.4578

> <Gold.PLP.ligand.clash>
0.0000

> <Gold.PLP.ligand.torsion>
1.1628

> <Gold.PLP.Chemscore.Hbond>
4.0000

> <Gold.PLP.Chemscore.CHOScore>
0.9362

> <Gold.PLP.Chemscore.Metal>
0.0000

> <Gold.Chemscore.Hbonds>
donor molecule, donor type, donor heavy atom, donor atom, acceptor molecule, acceptor atom, score
      L1  H    15    28       P1 10957  1.00
      P1  H  6896  6908       L1    22  1.00
      P1  H  6934  6947       L1     3  1.00
      P1  H 10752 10765       L1    27  1.00
      L1  C    10    36       P1  7948  0.94

> <Gold.PLP.Chemscore.Internal.Correction>
0.5090

> <Gold.Rescore>
     Score         DG    S(hbond)    S(metal)    S(lipo)     H(rot)  DE(clash)    DE(int)     intcor
      7.96     -12.67       3.85        0.00      40.21       4.05       0.64       4.07       ----

> <Gold.Chemscore.Fitness>
7.9562

> <Gold.Chemscore.DG>
-12.6652

> <Gold.Chemscore.ZeroCoef>
-5.4800

> <Gold.Chemscore.Hbond>
3.8486

> <Gold.Chemscore.Metal>
0.0000

> <Gold.Chemscore.Lipo>
40.2064

> <Gold.Chemscore.Internal_Hbond>
0.0000

> <Gold.Chemscore.DEClash>
0.6395

> <Gold.Chemscore.DEInternal>
4.0694

> <Gold.Chemscore.Rot>
4.0520

> <Gold.Chemscore.Internal.Correction>
   9.000000E+99

> <Gold.Chemscore.Hbonds>
donor molecule, donor type, donor heavy atom, donor atom, acceptor molecule, acceptor atom, score
      L1  H    15    28       P1 10957  1.00
      P1  H  6896  6908       L1    22  0.91
      P1  H  6934  6947       L1     3  1.00
      P1  H 10752 10765       L1    27  1.00

> <Gold.Chemscore.Hbond.Weighted>
-12.8543

> <Gold.Chemscore.Metal.Weighted>
-0.0000

> <Gold.Chemscore.Lipo.Weighted>
-4.7041

> <Gold.Chemscore.Internal_Hbond.Weighted>
0.0000

> <Gold.Chemscore.DEClash.Weighted>
0.6395

> <Gold.Chemscore.DEInternal.Weighted>
4.0694

> <Gold.Chemscore.Rot.Weighted>
10.3732

> <Gold.Chemscore.Internal.Correction.Weighted>
   9.000000E+99

> <Gold.Protein.RotatedTorsions>
[ 6907 6896 6895 6894 ] final   96.15 input  -60.11 | X-H torsion
[ 7974 7965 7964 7962 ] final -163.35 input  175.53 | X-H torsion
[ 8008 7997 7996 7995 ] final   96.97 input   59.86 | X-H torsion
[ 10167 10162 10161 10158 ] final  146.70 input  -65.29 | X-H torsion
[ 10718 10713 10712 10709 ] final -163.87 input   66.30 | X-H torsion
[ 10763 10752 10751 10750 ] final  170.81 input  -60.55 | X-H torsion
[ 11005 11000 10999 10996 ] final  -52.62 input  -57.11 | X-H torsion

> <Gold.Protein.ActiveResidues>
 VAL166  LYS551  ARG553  GLY616  TRP617  ASP618  TYR619  PRO620  LYS621  CYS622 
 ASP623  PHE694  ASN695  SER759  ASP760  ASP761  ALA762  ILE779  LEU786  VAL792 
 PHE793  MET794  SER795  GLU796  ALA797  LYS798  CYS799  TRP800  GLU811  SER814 

> <Gold.Protein.RotatedAtoms>
  152.5437  134.0930  159.8284 H   0  0  0  0  0  0  0  0  0  0  0  0  # atno 6907 bound_to 6896
  151.1018  133.5231  159.2617 H   0  0  0  0  0  0  0  0  0  0  0  0  # atno 6908 bound_to 6896
  151.1983  135.0441  159.8916 H   0  0  0  0  0  0  0  0  0  0  0  0  # atno 6909 bound_to 6896
  144.7328  140.3119  143.6186 H   0  0  0  0  0  0  0  0  0  0  0  0  # atno 7974 bound_to 7965
  156.0852  140.3265  155.7745 H   0  0  0  0  0  0  0  0  0  0  0  0  # atno 8008 bound_to 7997
  155.5087  140.0575  157.2944 H   0  0  0  0  0  0  0  0  0  0  0  0  # atno 8009 bound_to 7997
  154.4605  140.1964  156.0274 H   0  0  0  0  0  0  0  0  0  0  0  0  # atno 8010 bound_to 7997
  139.4902  144.5810  151.6871 H   0  0  0  0  0  0  0  0  0  0  0  0  # atno 10167 bound_to 10162
  156.6309  130.8929  151.2977 H   0  0  0  0  0  0  0  0  0  0  0  0  # atno 10718 bound_to 10713
  154.4030  135.2755  155.2085 H   0  0  0  0  0  0  0  0  0  0  0  0  # atno 10763 bound_to 10752
  154.4102  135.6024  153.5952 H   0  0  0  0  0  0  0  0  0  0  0  0  # atno 10764 bound_to 10752
  152.9831  135.5947  154.4300 H   0  0  0  0  0  0  0  0  0  0  0  0  # atno 10765 bound_to 10752
  141.0934  133.6628  156.4052 H   0  0  0  0  0  0  0  0  0  0  0  0  # atno 11005 bound_to 11000
  145.7656  139.1839  143.2242 LP  0  0  0  0  0  0  0  0  0  0  0  0  # atno 17320 bound_to 7965
  146.0952  140.7609  142.9576 LP  0  0  0  0  0  0  0  0  0  0  0  0  # atno 17321 bound_to 7965
  140.5416  144.0569  150.6091 LP  0  0  0  0  0  0  0  0  0  0  0  0  # atno 17342 bound_to 10162
  140.3593  143.2917  152.0401 LP  0  0  0  0  0  0  0  0  0  0  0  0  # atno 17343 bound_to 10162
  157.7200  130.9546  150.1401 LP  0  0  0  0  0  0  0  0  0  0  0  0  # atno 17370 bound_to 10713
  156.2235  130.3676  149.8528 LP  0  0  0  0  0  0  0  0  0  0  0  0  # atno 17371 bound_to 10713
  140.5198  134.6315  157.5314 LP  0  0  0  0  0  0  0  0  0  0  0  0  # atno 17394 bound_to 11000
  139.9765  134.7207  155.9940 LP  0  0  0  0  0  0  0  0  0  0  0  0  # atno 17395 bound_to 11000

$$$$
