#       Name:                AV-unprocessed.smi:2653
#       Creating user name   scv26
#       Creation time:       Fri Mar 27 14:31:00 2020


#       File generated by GOLD software.
#

@<TRIPOS>MOLECULE
AV-unprocessed.smi:2653
    34    35     1
SMALL
NO_CHARGES


@<TRIPOS>ATOM
      1 ****        -1.4268  -4.6860   4.4675 C.3            1 S1                 0.0000
      2 ****        -1.5044  -3.1607   4.5976 C.3            1 S1                 0.0000
      3 ****        -0.4258  -2.4728   3.8065 C.2            1 S1                 0.0000
      4 ****         0.7953  -2.3777   4.3257 N.2            1 S1                 0.0000
      5 ****         1.5082  -1.7240   3.3908 N.pl3          1 S1                 0.0000
      6 ****         0.7413  -1.4305   2.2864 C.2            1 S1                 0.0000
      7 ****         1.1333  -0.7552   1.1706 N.am           1 S1                 0.0000
      8 ****         2.3656  -0.4514   0.7103 C.2            1 S1                 0.0000
      9 ****         3.3741  -0.7774   1.3341 O.2            1 S1                 0.0000
     10 ****         2.4102   0.2377  -0.4424 N.am           1 S1                 0.0000
     11 ****         3.5942   0.6748  -1.1074 C.3            1 S1                 0.0000
     12 ****         3.5241   1.9762  -1.8767 C.3            1 S1                 0.0000
     13 ****         3.5912   0.6712  -2.6208 C.3            1 S1                 0.0000
     14 ****        -0.5287  -1.8809   2.5084 C.2            1 S1                 0.0000
     15 ****        -1.7448  -1.7949   1.6262 C.3            1 S1                 0.0000
     16 ****         2.4816  -1.4896   3.5234 H              1 S1                 0.0000
     17 ****        -2.2176  -5.1659   5.0441 H              1 S1                 0.0000
     18 ****        -0.4717  -5.0651   4.8325 H              1 S1                 0.0000
     19 ****        -1.5362  -4.9971   3.4281 H              1 S1                 0.0000
     20 ****        -2.4857  -2.8197   4.2665 H              1 S1                 0.0000
     21 ****        -1.4313  -2.8831   5.6499 H              1 S1                 0.0000
     22 ****         0.3738  -0.3734   0.6257 H              1 S1                 0.0000
     23 ****         1.5327   0.4868  -0.8743 H              1 S1                 0.0000
     24 ****         4.5478   0.4539  -0.6299 H              1 S1                 0.0000
     25 ****         2.5765   2.5117  -1.8877 H              1 S1                 0.0000
     26 ****         4.4128   2.6041  -1.8818 H              1 S1                 0.0000
     27 ****         4.5249   0.4267  -3.1233 H              1 S1                 0.0000
     28 ****         2.6884   0.3353  -3.1279 H              1 S1                 0.0000
     29 ****        -1.4886  -1.5715   0.5905 H              1 S1                 0.0000
     30 ****        -2.4286  -1.0161   1.9634 H              1 S1                 0.0000
     31 ****        -2.3026  -2.7314   1.6192 H              1 S1                 0.0000
     32 ****         1.1121  -2.7161   5.2118 LP             1 S1                 0.0000
     33 ****         3.2891  -1.2757   2.1969 LP             1 S1                 0.0000
     34 ****         4.2792  -0.5442   0.9785 LP             1 S1                 0.0000
@<TRIPOS>BOND
    1    1    2 1     
    2    1   17 1     
    3    1   18 1     
    4    1   19 1     
    5    2   20 1     
    6    2   21 1     
    7    2    3 1     
    8    3    4 2     
    9    3   14 1     
   10    4    5 1     
   11    5   16 1     
   12    5    6 1     
   13    6    7 1     
   14    6   14 2     
   15    7    8 am    
   16    7   22 1     
   17    8    9 2     
   18    8   10 am    
   19   10   11 1     
   20   10   23 1     
   21   11   13 1     
   22   11   12 1     
   23   11   24 1     
   24   12   13 1     
   25   12   25 1     
   26   12   26 1     
   27   13   27 1     
   28   13   28 1     
   29   14   15 1     
   30   15   29 1     
   31   15   30 1     
   32   15   31 1     
   33    4   32 1     
   34    9   33 1     
   35    9   34 1     
@<TRIPOS>SUBSTRUCTURE
      1 S1             1
@<TRIPOS>SET
LONE_PAIRS      STATIC     ATOMS    <user>   **** ""
3 32 33 34
DONOR_HYDROGENS      STATIC     ATOMS    <user>   **** ""
3 16 22 23
ATOM$BLUE        STATIC     ATOMS    COLORGROUP SYSTEM
3 32 33 34
ATOM$RED        STATIC     ATOMS    COLORGROUP SYSTEM
3 16 22 23
