AV-unprocessed.smi:1299|AV-procd|sdf|5418|dock5
  -GOLD-   22720 4573D 1   1.00000     0.00000
 Structure written by MMmdl.
 39 40  0  0  0  0  0  0  0  0  1 V2000
  152.1109  143.7308  159.8403 C   0  0  0  0  0  0  0  0  0  0  0  0
  151.8469  142.7704  158.6934 C   0  0  0  0  0  0  0  0  0  0  0  0
  151.0041  142.9863  157.6781 C   0  0  0  0  0  0  0  0  0  0  0  0
  150.9874  141.6767  156.5229 S   0  0  0  0  0  0  0  0  0  0  0  0
  152.2141  140.7903  157.4974 C   0  0  0  0  0  0  0  0  0  0  0  0
  152.6579  139.6908  157.1704 O   0  0  0  0  0  0  0  0  0  0  0  0
  152.5339  141.5501  158.6226 N   0  0  0  0  0  0  0  0  0  0  0  0
  153.5000  141.1007  159.6340 C   0  0  0  0  0  0  0  0  0  0  0  0
  153.2956  139.6409  160.0616 C   0  0  0  0  0  0  0  0  0  0  0  0
  152.4215  138.9433  159.5448 O   0  0  0  0  0  0  0  0  0  0  0  0
  154.1294  139.1868  161.0096 N   0  0  0  0  0  0  0  0  0  0  0  0
  154.1140  137.8370  161.5624 C   0  0  0  0  0  0  0  0  0  0  0  0
  155.0189  137.7230  162.8060 C   0  0  0  0  0  0  0  0  0  0  0  0
  154.4562  136.7983  163.8985 C   0  0  0  0  0  0  0  0  0  0  0  0
  153.9758  137.2816  164.9247 O   0  0  0  0  0  0  0  0  0  0  0  0
  154.5103  135.4658  163.6930 N   0  0  0  0  0  0  0  0  0  0  0  0
  154.0345  134.4384  164.6192 C   0  0  0  0  0  0  0  0  0  0  0  0
  154.5330  133.1084  164.0530 C   0  0  0  0  0  0  0  0  0  0  0  0
  154.6957  133.3739  162.5630 C   0  0  0  0  0  0  0  0  0  0  0  0
  155.0631  134.8559  162.4850 C   0  0  0  0  0  0  0  0  0  0  0  0
  151.7837  144.7361  159.5739 H   0  0  0  0  0  0  0  0  0  0  0  0
  153.1714  143.7886  160.0848 H   0  0  0  0  0  0  0  0  0  0  0  0
  151.5605  143.4198  160.7282 H   0  0  0  0  0  0  0  0  0  0  0  0
  150.3874  143.8610  157.5330 H   0  0  0  0  0  0  0  0  0  0  0  0
  154.5233  141.2362  159.2841 H   0  0  0  0  0  0  0  0  0  0  0  0
  153.4139  141.7335  160.5191 H   0  0  0  0  0  0  0  0  0  0  0  0
  154.8206  139.8231  161.3796 H   0  0  0  0  0  0  0  0  0  0  0  0
  153.0828  137.5971  161.8244 H   0  0  0  0  0  0  0  0  0  0  0  0
  154.4161  137.1210  160.7955 H   0  0  0  0  0  0  0  0  0  0  0  0
  155.9985  137.3473  162.5086 H   0  0  0  0  0  0  0  0  0  0  0  0
  155.1735  138.7149  163.2322 H   0  0  0  0  0  0  0  0  0  0  0  0
  154.4016  134.5895  165.6350 H   0  0  0  0  0  0  0  0  0  0  0  0
  152.9439  134.4573  164.6426 H   0  0  0  0  0  0  0  0  0  0  0  0
  155.5042  132.8684  164.4879 H   0  0  0  0  0  0  0  0  0  0  0  0
  153.8584  132.2786  164.2646 H   0  0  0  0  0  0  0  0  0  0  0  0
  155.4402  132.7283  162.0963 H   0  0  0  0  0  0  0  0  0  0  0  0
  153.7440  133.2062  162.0572 H   0  0  0  0  0  0  0  0  0  0  0  0
  154.6700  135.3139  161.5759 H   0  0  0  0  0  0  0  0  0  0  0  0
  156.1468  134.9829  162.4878 H   0  0  0  0  0  0  0  0  0  0  0  0
  1  2  1  0  0  0  0
  1 21  1  0  0  0  0
  1 22  1  0  0  0  0
  1 23  1  0  0  0  0
  2  7  1  0  0  0  0
  2  3  2  0  0  0  0
  3  4  1  0  0  0  0
  3 24  1  0  0  0  0
  4  5  1  0  0  0  0
  5  6  2  0  0  0  0
  5  7  1  0  0  0  0
  7  8  1  0  0  0  0
  8  9  1  0  0  0  0
  8 25  1  0  0  0  0
  8 26  1  0  0  0  0
  9 10  2  0  0  0  0
  9 11  1  0  0  0  0
 11 12  1  0  0  0  0
 11 27  1  0  0  0  0
 12 13  1  0  0  0  0
 12 28  1  0  0  0  0
 12 29  1  0  0  0  0
 13 14  1  0  0  0  0
 13 30  1  0  0  0  0
 13 31  1  0  0  0  0
 14 15  2  0  0  0  0
 14 16  1  0  0  0  0
 16 20  1  0  0  0  0
 16 17  1  0  0  0  0
 17 18  1  0  0  0  0
 17 32  1  0  0  0  0
 17 33  1  0  0  0  0
 18 19  1  0  0  0  0
 18 34  1  0  0  0  0
 18 35  1  0  0  0  0
 19 20  1  0  0  0  0
 19 36  1  0  0  0  0
 19 37  1  0  0  0  0
 20 38  1  0  0  0  0
 20 39  1  0  0  0  0
M  END
> <s_m_source_file>
AV-unprocessed.smi

> <i_m_source_file_index>
1299

> <i_lp_mmshare_version>
43012

> <i_f3d_flags>
0

> <s_epik_input>
W0NIM11jMVtjSF1zYyg9TyluMVtDSDJdQyg9TylbTkhdW0NIMl1bQ0gyXUMoPU8pTjJbQ0gyXVtDSDJdW0NIMl1bQ0gyXTI=

> <s_epik_cmdline>
J2VwaWtfcHl0aG9uJywgJy1waCcsICc3LjAnLCAnLXRuJywgJzgnLCAnLW1hJywgJzIwMCcsICctbWV0YWxfYmluZGluZycsICctaW1hZScsICc8aW5maWxlLm1hZT4nLCAnLW9tYWUnLCAnPG91dGZpbGUubWFlPic=

> <r_lp_tautomer_probability>
1

> <r_epik_Ionization_Penalty>
1.42672e-06

> <r_epik_Ionization_Penalty_Charging>
1.08064e-06

> <r_epik_Ionization_Penalty_Neutral>
3.46085e-07

> <r_epik_State_Penalty>
-0

> <r_epik_Charging_Adjusted_Penalty>
1.08064e-06

> <i_epik_Tot_Q>
0

> <i_epik_Tot_abs_Q>
0

> <r_epik_Metal_State_Penalty>
-0

> <b_epik_Metal_Only>
0

> <s_lp_Force_Field>
OPLS_2005

> <r_lp_Energy>
30.8751

> <b_lp_Chiralities_Consistent>
1

> <s_lp_Variant>
AV-unprocessed.smi:1299-1

> <Gold.Version>
5.8.1

> <Gold.Id.Protein>
6NUR|6NUR_protein|mol2

> <Gold.PLP.Fitness>
41.4656

> <Gold.PLP.PLP>
-36.7403

> <Gold.PLP.part.hbond>
-1.6010

> <Gold.PLP.part.metal>
0.0000

> <Gold.PLP.part.buried>
-3.1095

> <Gold.PLP.part.nonpolar>
-31.0907

> <Gold.PLP.part.repulsive>
0.1188

> <Gold.PLP.ligand.clash>
0.0000

> <Gold.PLP.ligand.torsion>
0.6528

> <Gold.PLP.Chemscore.Hbond>
1.0000

> <Gold.PLP.Chemscore.CHOScore>
1.0000

> <Gold.PLP.Chemscore.Metal>
0.0000

> <Gold.Chemscore.Hbonds>
donor molecule, donor type, donor heavy atom, donor atom, acceptor molecule, acceptor atom, score
      P1  H  7997  8008       L1     6  1.00
      L1  C     3    24       P1  8028  1.00

> <Gold.PLP.Chemscore.Internal.Correction>
0.0308

> <Gold.Rescore>
     Score         DG    S(hbond)    S(metal)    S(lipo)     H(rot)  DE(clash)    DE(int)     intcor
      8.73     -13.33       0.96        0.00      83.95       2.02       0.09       4.51       ----

> <Gold.Chemscore.Fitness>
8.7277

> <Gold.Chemscore.DG>
-13.3309

> <Gold.Chemscore.ZeroCoef>
-5.4800

> <Gold.Chemscore.Hbond>
0.9551

> <Gold.Chemscore.Metal>
0.0000

> <Gold.Chemscore.Lipo>
83.9501

> <Gold.Chemscore.Internal_Hbond>
0.0000

> <Gold.Chemscore.DEClash>
0.0904

> <Gold.Chemscore.DEInternal>
4.5128

> <Gold.Chemscore.Rot>
2.0162

> <Gold.Chemscore.Internal.Correction>
   9.000000E+99

> <Gold.Chemscore.Hbonds>
donor molecule, donor type, donor heavy atom, donor atom, acceptor molecule, acceptor atom, score
      P1  H  7997  8008       L1     6  0.40

> <Gold.Chemscore.Hbond.Weighted>
-3.1901

> <Gold.Chemscore.Metal.Weighted>
-0.0000

> <Gold.Chemscore.Lipo.Weighted>
-9.8222

> <Gold.Chemscore.Internal_Hbond.Weighted>
0.0000

> <Gold.Chemscore.DEClash.Weighted>
0.0904

> <Gold.Chemscore.DEInternal.Weighted>
4.5128

> <Gold.Chemscore.Rot.Weighted>
5.1614

> <Gold.Chemscore.Internal.Correction.Weighted>
   9.000000E+99

> <Gold.Protein.RotatedTorsions>
[ 6907 6896 6895 6894 ] final  -56.58 input  -60.11 | X-H torsion
[ 7974 7965 7964 7962 ] final -101.25 input  175.53 | X-H torsion
[ 8008 7997 7996 7995 ] final  -64.38 input   59.86 | X-H torsion
[ 10167 10162 10161 10158 ] final   10.94 input  -65.29 | X-H torsion
[ 10718 10713 10712 10709 ] final   54.65 input   66.30 | X-H torsion
[ 10763 10752 10751 10750 ] final   44.97 input  -60.55 | X-H torsion
[ 11005 11000 10999 10996 ] final  161.34 input  -57.11 | X-H torsion

> <Gold.Protein.ActiveResidues>
 VAL166  LYS551  ARG553  GLY616  TRP617  ASP618  TYR619  PRO620  LYS621  CYS622 
 ASP623  PHE694  ASN695  SER759  ASP760  ASP761  ALA762  ILE779  LEU786  VAL792 
 PHE793  MET794  SER795  GLU796  ALA797  LYS798  CYS799  TRP800  GLU811  SER814 

> <Gold.Protein.RotatedAtoms>
  150.8156  134.7336  159.6726 H   0  0  0  0  0  0  0  0  0  0  0  0  # atno 6907 bound_to 6896
  152.4275  134.5838  159.9965 H   0  0  0  0  0  0  0  0  0  0  0  0  # atno 6908 bound_to 6896
  151.6036  133.3316  159.3088 H   0  0  0  0  0  0  0  0  0  0  0  0  # atno 6909 bound_to 6896
  145.2840  140.9334  143.2915 H   0  0  0  0  0  0  0  0  0  0  0  0  # atno 7974 bound_to 7965
  154.4609  140.0955  156.6889 H   0  0  0  0  0  0  0  0  0  0  0  0  # atno 8008 bound_to 7997
  155.4999  140.3473  155.4351 H   0  0  0  0  0  0  0  0  0  0  0  0  # atno 8009 bound_to 7997
  156.0867  140.1387  156.9632 H   0  0  0  0  0  0  0  0  0  0  0  0  # atno 8010 bound_to 7997
  140.6163  143.8301  150.7122 H   0  0  0  0  0  0  0  0  0  0  0  0  # atno 10167 bound_to 10162
  157.5276  130.8608  149.8642 H   0  0  0  0  0  0  0  0  0  0  0  0  # atno 10718 bound_to 10713
  152.9832  135.6054  154.3361 H   0  0  0  0  0  0  0  0  0  0  0  0  # atno 10763 bound_to 10752
  154.3061  135.2772  155.2590 H   0  0  0  0  0  0  0  0  0  0  0  0  # atno 10764 bound_to 10752
  154.4820  135.5914  153.6453 H   0  0  0  0  0  0  0  0  0  0  0  0  # atno 10765 bound_to 10752
  140.2148  134.8240  157.3158 H   0  0  0  0  0  0  0  0  0  0  0  0  # atno 11005 bound_to 11000
  144.9229  139.4390  143.6532 LP  0  0  0  0  0  0  0  0  0  0  0  0  # atno 17320 bound_to 7965
  146.3207  139.8099  142.8948 LP  0  0  0  0  0  0  0  0  0  0  0  0  # atno 17321 bound_to 7965
  140.1881  143.4059  152.1883 LP  0  0  0  0  0  0  0  0  0  0  0  0  # atno 17342 bound_to 10162
  139.5401  144.7248  151.4762 LP  0  0  0  0  0  0  0  0  0  0  0  0  # atno 17343 bound_to 10162
  156.0398  130.3742  150.1465 LP  0  0  0  0  0  0  0  0  0  0  0  0  # atno 17370 bound_to 10713
  156.9651  130.9817  151.3471 LP  0  0  0  0  0  0  0  0  0  0  0  0  # atno 17371 bound_to 10713
  140.1912  134.4369  155.7714 LP  0  0  0  0  0  0  0  0  0  0  0  0  # atno 17394 bound_to 11000
  141.2225  133.7028  156.8031 LP  0  0  0  0  0  0  0  0  0  0  0  0  # atno 17395 bound_to 11000

$$$$
