#       Name:                AV-unprocessed.smi:1260
#       Creating user name   scv26
#       Creation time:       Fri Mar 27 04:41:50 2020


#       File generated by GOLD software.
#

@<TRIPOS>MOLECULE
AV-unprocessed.smi:1260
    42    44     1
SMALL
NO_CHARGES


@<TRIPOS>ATOM
      1 ****         0.6791   2.8294  -0.5395 O.2            1 S1                 0.0000
      2 ****         1.4300   1.9451  -0.9499 C.2            1 S1                 0.0000
      3 ****         2.9402   2.1774  -0.9767 C.3            1 S1                 0.0000
      4 ****         3.5229   1.8894   0.3202 N.pl3          1 S1                 0.0000
      5 ****         3.8580   0.7319   0.8941 C.2            1 S1                 0.0000
      6 ****         4.3510   0.9130   2.1094 N.2            1 S1                 0.0000
      7 ****         4.3060   2.2886   2.2652 N.2            1 S1                 0.0000
      8 ****         3.8143   2.8730   1.2073 N.2            1 S1                 0.0000
      9 ****         0.9997   0.7449  -1.3691 N.am           1 S1                 0.0000
     10 ****        -0.3922   0.3051  -1.3630 C.3            1 S1                 0.0000
     11 ****        -0.7003  -0.7385  -2.4508 C.3            1 S1                 0.0000
     12 ****        -1.7054  -1.7147  -1.8067 C.3            1 S1                 0.0000
     13 ****        -1.9733  -1.1709  -0.4611 N.4            1 S1                 1.0000
     14 ****        -2.4223  -2.1256   0.5755 C.3            1 S1                 0.0000
     15 ****        -2.7292  -1.3561   1.8759 C.3            1 S1                 0.0000
     16 ****        -1.5377  -0.4823   2.3182 C.3            1 S1                 0.0000
     17 ****        -1.0549   0.4239   1.1692 C.3            1 S1                 0.0000
     18 ****        -0.7613  -0.4330  -0.0740 C.3            1 S1                 0.0000
     19 ****         3.4154   1.5422  -1.7257 H              1 S1                 0.0000
     20 ****         3.1523   3.2125  -1.2490 H              1 S1                 0.0000
     21 ****         3.7351  -0.2348   0.4284 H              1 S1                 0.0000
     22 ****         1.6879   0.0816  -1.6953 H              1 S1                 0.0000
     23 ****        -1.0654   1.1539  -1.5025 H              1 S1                 0.0000
     24 ****        -1.1072  -0.2667  -3.3459 H              1 S1                 0.0000
     25 ****         0.1990  -1.2811  -2.7466 H              1 S1                 0.0000
     26 ****        -2.6301  -1.7969  -2.3785 H              1 S1                 0.0000
     27 ****        -1.2646  -2.7099  -1.7312 H              1 S1                 0.0000
     28 ****        -3.3132  -2.6506   0.2291 H              1 S1                 0.0000
     29 ****        -1.6507  -2.8771   0.7490 H              1 S1                 0.0000
     30 ****        -3.6019  -0.7202   1.7207 H              1 S1                 0.0000
     31 ****        -2.9957  -2.0545   2.6697 H              1 S1                 0.0000
     32 ****        -1.8150   0.1222   3.1823 H              1 S1                 0.0000
     33 ****        -0.7178  -1.1250   2.6415 H              1 S1                 0.0000
     34 ****        -1.8145   1.1726   0.9403 H              1 S1                 0.0000
     35 ****        -0.1612   0.9668   1.4775 H              1 S1                 0.0000
     36 ****         0.0246  -1.1547   0.1617 H              1 S1                 0.0000
     37 ****        -2.7031  -0.4810  -0.5704 H              1 S1                 0.0000
     38 ****         1.0572   3.6996  -0.2237 LP             1 S1                 0.0000
     39 ****        -0.3091   2.6778  -0.5218 LP             1 S1                 0.0000
     40 ****         4.6767   0.2243   2.7572 LP             1 S1                 0.0000
     41 ****         4.6118   2.7727   3.0850 LP             1 S1                 0.0000
     42 ****         3.6787   3.8550   1.0762 LP             1 S1                 0.0000
@<TRIPOS>BOND
    1    1    2 2     
    2    2    3 1     
    3    2    9 am    
    4    3    4 1     
    5    3   19 1     
    6    3   20 1     
    7    4    8 1     
    8    4    5 1     
    9    5    6 2     
   10    5   21 1     
   11    6    7 1     
   12    7    8 2     
   13    9   10 1     
   14    9   22 1     
   15   10   18 1     
   16   10   11 1     
   17   10   23 1     
   18   11   12 1     
   19   11   24 1     
   20   11   25 1     
   21   12   13 1     
   22   12   26 1     
   23   12   27 1     
   24   13   18 1     
   25   13   14 1     
   26   13   37 1     
   27   14   15 1     
   28   14   28 1     
   29   14   29 1     
   30   15   16 1     
   31   15   30 1     
   32   15   31 1     
   33   16   17 1     
   34   16   32 1     
   35   16   33 1     
   36   17   18 1     
   37   17   34 1     
   38   17   35 1     
   39   18   36 1     
   40    1   38 1     
   41    1   39 1     
   42    6   40 1     
   43    7   41 1     
   44    8   42 1     
@<TRIPOS>SUBSTRUCTURE
      1 S1             1
@<TRIPOS>SET
LONE_PAIRS      STATIC     ATOMS    <user>   **** ""
5 38 39 40 41 42
DONOR_HYDROGENS      STATIC     ATOMS    <user>   **** ""
2 22 37
ATOM$BLUE        STATIC     ATOMS    COLORGROUP SYSTEM
5 38 39 40 41 42
ATOM$RED        STATIC     ATOMS    COLORGROUP SYSTEM
2 22 37
