AV-unprocessed.smi:100|AV-procd|sdf|897|dock8
  -GOLD-   2262017393D 1   1.00000     0.00000
 Structure written by MMmdl.
 31 33  0  0  0  0  0  0  0  0  1 V2000
  151.6842  145.4585  160.8162 N   0  0  0  0  0  0  0  0  0  0  0  0
  151.9887  144.2067  160.4474 C   0  0  0  0  0  0  0  0  0  0  0  0
  152.6877  143.4327  161.3112 N   0  0  0  0  0  0  0  0  0  0  0  0
  153.0022  142.1792  160.9671 C   0  0  0  0  0  0  0  0  0  0  0  0
  152.7193  141.5261  159.8360 N   0  0  0  0  0  0  0  0  0  0  0  0
  152.0176  142.3116  158.9673 C   0  0  0  0  0  0  0  0  0  0  0  0
  151.6125  143.6550  159.1969 C   0  0  0  0  0  0  0  0  0  0  0  0
  150.9114  144.1323  158.0971 N   0  0  0  0  0  0  0  0  0  0  0  0
  150.9054  143.1236  157.2667 C   0  0  0  0  0  0  0  0  0  0  0  0
  151.5524  141.9901  157.7112 N   0  0  0  0  0  0  0  0  0  0  0  0
  151.7172  140.6786  157.0185 C   0  0  2  0  0  0  0  0  0  0  0  0
  151.4009  140.8772  155.6728 O   0  0  0  0  0  0  0  0  0  0  0  0
  150.5287  139.8548  155.2028 C   0  0  1  0  0  0  0  0  0  0  0  0
  151.3677  138.6967  154.6285 C   0  0  0  0  0  0  0  0  0  0  0  0
  150.5353  137.8022  153.9223 O   0  0  0  0  0  0  0  0  0  0  0  0
  149.7378  139.4646  156.4535 C   0  0  2  0  0  0  0  0  0  0  0  0
  148.7119  140.3039  156.6056 F   0  0  0  0  0  0  0  0  0  0  0  0
  150.7216  139.6597  157.5963 C   0  0  1  0  0  0  0  0  0  0  0  0
  151.3446  138.4369  157.9357 O   0  0  0  0  0  0  0  0  0  0  0  0
  151.1628  146.0538  160.1888 H   0  0  0  0  0  0  0  0  0  0  0  0
  151.9765  145.8040  161.7187 H   0  0  0  0  0  0  0  0  0  0  0  0
  153.5607  141.6192  161.7027 H   0  0  0  0  0  0  0  0  0  0  0  0
  150.4250  143.1791  156.3005 H   0  0  0  0  0  0  0  0  0  0  0  0
  152.7674  140.4088  157.1410 H   0  0  0  0  0  0  0  0  0  0  0  0
  149.8577  140.2433  154.4350 H   0  0  0  0  0  0  0  0  0  0  0  0
  152.1685  139.0538  153.9804 H   0  0  0  0  0  0  0  0  0  0  0  0
  151.8348  138.1334  155.4368 H   0  0  0  0  0  0  0  0  0  0  0  0
  151.0629  137.3312  153.2957 H   0  0  0  0  0  0  0  0  0  0  0  0
  149.3108  138.4619  156.4064 H   0  0  0  0  0  0  0  0  0  0  0  0
  150.2318  140.0488  158.4906 H   0  0  0  0  0  0  0  0  0  0  0  0
  150.7451  137.7323  157.7407 H   0  0  0  0  0  0  0  0  0  0  0  0
  1  2  1  0  0  0  0
  1 20  1  0  0  0  0
  1 21  1  0  0  0  0
  2  7  1  0  0  0  0
  2  3  2  0  0  0  0
  3  4  1  0  0  0  0
  4  5  2  0  0  0  0
  4 22  1  0  0  0  0
  5  6  1  0  0  0  0
  6 10  1  0  0  0  0
  6  7  2  0  0  0  0
  7  8  1  0  0  0  0
  8  9  2  0  0  0  0
  9 10  1  0  0  0  0
  9 23  1  0  0  0  0
 10 11  1  0  0  0  0
 11 18  1  0  0  0  0
 11 12  1  0  0  0  0
 11 24  1  0  0  0  0
 12 13  1  0  0  0  0
 13 14  1  0  0  0  0
 13 16  1  0  0  0  0
 13 25  1  0  0  0  0
 14 15  1  0  0  0  0
 14 26  1  0  0  0  0
 14 27  1  0  0  0  0
 15 28  1  0  0  0  0
 16 17  1  0  0  0  0
 16 18  1  0  0  0  0
 16 29  1  0  0  0  0
 18 19  1  0  0  0  0
 18 30  1  0  0  0  0
 19 31  1  0  0  0  0
M  END
> <s_m_source_file>
AV-unprocessed.smi

> <i_m_source_file_index>
100

> <i_lp_mmshare_version>
43012

> <i_f3d_flags>
0

> <s_epik_input>
bjFbY0hdbmMoW05IMl0pYyhjMTIpbltjSF1uMltDQEBIXTNPW0NAQEhdKFtDSDJdW09IXSlbQ0BIXShGKVtDQEhdM1tPSF0=

> <s_epik_cmdline>
J2VwaWtfcHl0aG9uJywgJy1waCcsICc3LjAnLCAnLXRuJywgJzgnLCAnLW1hJywgJzIwMCcsICctbWV0YWxfYmluZGluZycsICctaW1hZScsICc8aW5maWxlLm1hZT4nLCAnLW9tYWUnLCAnPG91dGZpbGUubWFlPic=

> <r_lp_tautomer_probability>
1

> <r_epik_Ionization_Penalty>
0.000750324

> <r_epik_Ionization_Penalty_Charging>
0

> <r_epik_Ionization_Penalty_Neutral>
0.000750324

> <r_epik_State_Penalty>
-0

> <r_epik_Charging_Adjusted_Penalty>
0

> <i_epik_Tot_Q>
0

> <i_epik_Tot_abs_Q>
0

> <r_epik_Metal_State_Penalty>
-0

> <b_epik_Metal_Only>
0

> <s_epik_Chemistry_Notes>
This compound contains an acetal/aminal-like group ( X-CH(R)-Y where X, Y are N, S, or O) that may be acid/base labile, releasing an aldehyde.

> <s_lp_Force_Field>
OPLS_2005

> <r_lp_Energy>
27.7777

> <b_lp_Chiralities_Consistent>
1

> <s_lp_Variant>
AV-unprocessed.smi:100-1

> <Gold.Version>
5.8.1

> <Gold.Id.Protein>
6NUR|6NUR_protein|mol2

> <Gold.PLP.Fitness>
37.2517

> <Gold.PLP.PLP>
-32.9283

> <Gold.PLP.part.hbond>
-4.0000

> <Gold.PLP.part.metal>
0.0000

> <Gold.PLP.part.buried>
-5.3278

> <Gold.PLP.part.nonpolar>
-23.5208

> <Gold.PLP.part.repulsive>
0.3082

> <Gold.PLP.ligand.clash>
0.0000

> <Gold.PLP.ligand.torsion>
0.5249

> <Gold.PLP.Chemscore.Hbond>
0.7899

> <Gold.PLP.Chemscore.CHOScore>
0.9955

> <Gold.PLP.Chemscore.Metal>
0.0000

> <Gold.Chemscore.Hbonds>
donor molecule, donor type, donor heavy atom, donor atom, acceptor molecule, acceptor atom, score
      L1  H    15    28       P1  7949  0.44
      L1  C     9    23       P1  8028  0.92

> <Gold.PLP.Chemscore.Internal.Correction>
0.0172

> <Gold.Rescore>
     Score         DG    S(hbond)    S(metal)    S(lipo)     H(rot)  DE(clash)    DE(int)     intcor
      2.50      -3.23       0.58        0.00      34.14       3.19       0.13       0.60       ----

> <Gold.Chemscore.Fitness>
2.5007

> <Gold.Chemscore.DG>
-3.2296

> <Gold.Chemscore.ZeroCoef>
-5.4800

> <Gold.Chemscore.Hbond>
0.5754

> <Gold.Chemscore.Metal>
0.0000

> <Gold.Chemscore.Lipo>
34.1416

> <Gold.Chemscore.Internal_Hbond>
0.0000

> <Gold.Chemscore.DEClash>
0.1332

> <Gold.Chemscore.DEInternal>
0.5957

> <Gold.Chemscore.Rot>
3.1901

> <Gold.Chemscore.Internal.Correction>
   9.000000E+99

> <Gold.Chemscore.Hbonds>
donor molecule, donor type, donor heavy atom, donor atom, acceptor molecule, acceptor atom, score
      L1  H    15    28       P1  7949  0.17

> <Gold.Chemscore.Hbond.Weighted>
-1.9217

> <Gold.Chemscore.Metal.Weighted>
-0.0000

> <Gold.Chemscore.Lipo.Weighted>
-3.9946

> <Gold.Chemscore.Internal_Hbond.Weighted>
0.0000

> <Gold.Chemscore.DEClash.Weighted>
0.1332

> <Gold.Chemscore.DEInternal.Weighted>
0.5957

> <Gold.Chemscore.Rot.Weighted>
8.1667

> <Gold.Chemscore.Internal.Correction.Weighted>
   9.000000E+99

> <Gold.Protein.RotatedTorsions>
[ 6907 6896 6895 6894 ] final -179.57 input  -60.11 | X-H torsion
[ 7974 7965 7964 7962 ] final -144.49 input  175.53 | X-H torsion
[ 8008 7997 7996 7995 ] final  170.06 input   59.86 | X-H torsion
[ 10167 10162 10161 10158 ] final  146.68 input  -65.29 | X-H torsion
[ 10718 10713 10712 10709 ] final   56.90 input   66.30 | X-H torsion
[ 10763 10752 10751 10750 ] final -140.77 input  -60.55 | X-H torsion
[ 11005 11000 10999 10996 ] final  155.83 input  -57.11 | X-H torsion

> <Gold.Protein.ActiveResidues>
 VAL166  LYS551  ARG553  GLY616  TRP617  ASP618  TYR619  PRO620  LYS621  CYS622 
 ASP623  PHE694  ASN695  SER759  ASP760  ASP761  ALA762  ILE779  LEU786  VAL792 
 PHE793  MET794  SER795  GLU796  ALA797  LYS798  CYS799  TRP800  GLU811  SER814 

> <Gold.Protein.RotatedAtoms>
  151.6556  133.3319  159.3161 H   0  0  0  0  0  0  0  0  0  0  0  0  # atno 6907 bound_to 6896
  150.7938  134.6987  159.6547 H   0  0  0  0  0  0  0  0  0  0  0  0  # atno 6908 bound_to 6896
  152.4022  134.6270  160.0117 H   0  0  0  0  0  0  0  0  0  0  0  0  # atno 6909 bound_to 6896
  144.8293  140.5703  143.5525 H   0  0  0  0  0  0  0  0  0  0  0  0  # atno 7974 bound_to 7965
  156.1400  140.1548  156.8935 H   0  0  0  0  0  0  0  0  0  0  0  0  # atno 8008 bound_to 7997
  154.4979  140.0833  156.7775 H   0  0  0  0  0  0  0  0  0  0  0  0  # atno 8009 bound_to 7997
  155.4096  140.3418  155.4265 H   0  0  0  0  0  0  0  0  0  0  0  0  # atno 8010 bound_to 7997
  139.4903  144.5812  151.6869 H   0  0  0  0  0  0  0  0  0  0  0  0  # atno 10167 bound_to 10162
  157.5469  130.8737  149.8905 H   0  0  0  0  0  0  0  0  0  0  0  0  # atno 10718 bound_to 10713
  154.8567  135.3543  154.5761 H   0  0  0  0  0  0  0  0  0  0  0  0  # atno 10763 bound_to 10752
  153.6373  135.7000  153.5259 H   0  0  0  0  0  0  0  0  0  0  0  0  # atno 10764 bound_to 10752
  153.3000  135.4209  155.1203 H   0  0  0  0  0  0  0  0  0  0  0  0  # atno 10765 bound_to 10752
  140.1618  134.8604  157.2583 H   0  0  0  0  0  0  0  0  0  0  0  0  # atno 11005 bound_to 11000
  145.4930  139.1487  143.3699 LP  0  0  0  0  0  0  0  0  0  0  0  0  # atno 17320 bound_to 7965
  146.2597  140.5068  142.8858 LP  0  0  0  0  0  0  0  0  0  0  0  0  # atno 17321 bound_to 7965
  140.5418  144.0567  150.6091 LP  0  0  0  0  0  0  0  0  0  0  0  0  # atno 17342 bound_to 10162
  140.3591  143.2918  152.0403 LP  0  0  0  0  0  0  0  0  0  0  0  0  # atno 17343 bound_to 10162
  156.0543  130.3711  150.1127 LP  0  0  0  0  0  0  0  0  0  0  0  0  # atno 17370 bound_to 10713
  156.9302  130.9711  151.3534 LP  0  0  0  0  0  0  0  0  0  0  0  0  # atno 17371 bound_to 10713
  140.2481  134.3716  155.7453 LP  0  0  0  0  0  0  0  0  0  0  0  0  # atno 17394 bound_to 11000
  141.2210  133.7301  156.8892 LP  0  0  0  0  0  0  0  0  0  0  0  0  # atno 17395 bound_to 11000

$$$$
