AV-unprocessed.smi:1298|AV-procd|sdf|5417|dock5
  -GOLD-   22720 4573D 1   1.00000     0.00000
 Structure written by MMmdl.
 30 31  0  0  0  0  0  0  0  0  1 V2000
  152.1382  144.6531  159.4868 C   0  0  0  0  0  0  0  0  0  0  0  0
  152.2998  143.3875  159.9008 C   0  0  0  0  0  0  0  0  0  0  0  0
  152.6845  142.9951  161.5382 Cl  0  0  0  0  0  0  0  0  0  0  0  0
  152.1526  142.1569  159.0305 C   0  0  0  0  0  0  0  0  0  0  0  0
  151.3249  142.5350  157.4580 S   0  0  0  0  0  0  0  0  0  0  0  0
  151.4365  140.9615  156.6563 C   0  0  0  0  0  0  0  0  0  0  0  0
  152.4918  140.1440  156.7338 N   0  0  0  0  0  0  0  0  0  0  0  0
  152.1639  139.0361  155.9866 N   0  0  0  0  0  0  0  0  0  0  0  0
  150.9453  139.2847  155.5042 C   0  0  0  0  0  0  0  0  0  0  0  0
  150.1802  138.3159  154.6590 C   0  0  0  0  0  0  0  0  0  0  0  0
  148.7516  137.9442  154.9919 C   0  0  0  0  0  0  0  0  0  0  0  0
  149.8501  136.9285  155.1645 C   0  0  0  0  0  0  0  0  0  0  0  0
  150.4332  140.4692  155.8982 N   0  0  0  0  0  0  0  0  0  0  0  0
  149.1297  141.0502  155.6004 C   0  0  0  0  0  0  0  0  0  0  0  0
  148.3562  141.3564  156.8847 C   0  0  0  0  0  0  0  0  0  0  0  0
  148.0198  142.6299  157.1042 N   0  0  0  0  0  0  0  0  0  0  0  0
  148.0608  140.4549  157.6662 O   0  0  0  0  0  0  0  0  0  0  0  0
  152.2521  145.4822  160.1697 H   0  0  0  0  0  0  0  0  0  0  0  0
  151.8908  144.8766  158.4593 H   0  0  0  0  0  0  0  0  0  0  0  0
  153.1364  141.7299  158.8316 H   0  0  0  0  0  0  0  0  0  0  0  0
  151.5762  141.4048  159.5712 H   0  0  0  0  0  0  0  0  0  0  0  0
  150.4449  138.4284  153.6093 H   0  0  0  0  0  0  0  0  0  0  0  0
  148.3127  138.3640  155.8951 H   0  0  0  0  0  0  0  0  0  0  0  0
  148.0635  137.8048  154.1608 H   0  0  0  0  0  0  0  0  0  0  0  0
  149.8971  136.1102  154.4491 H   0  0  0  0  0  0  0  0  0  0  0  0
  150.1427  136.6765  156.1821 H   0  0  0  0  0  0  0  0  0  0  0  0
  149.2575  141.9676  155.0260 H   0  0  0  0  0  0  0  0  0  0  0  0
  148.5677  140.3677  154.9629 H   0  0  0  0  0  0  0  0  0  0  0  0
  147.5062  142.8817  157.9361 H   0  0  0  0  0  0  0  0  0  0  0  0
  148.2791  143.3382  156.4326 H   0  0  0  0  0  0  0  0  0  0  0  0
  1  2  2  0  0  0  0
  1 18  1  0  0  0  0
  1 19  1  0  0  0  0
  2  3  1  0  0  0  0
  2  4  1  0  0  0  0
  4  5  1  0  0  0  0
  4 20  1  0  0  0  0
  4 21  1  0  0  0  0
  5  6  1  0  0  0  0
  6 13  1  0  0  0  0
  6  7  2  0  0  0  0
  7  8  1  0  0  0  0
  8  9  2  0  0  0  0
  9 10  1  0  0  0  0
  9 13  1  0  0  0  0
 10 12  1  0  0  0  0
 10 11  1  0  0  0  0
 10 22  1  0  0  0  0
 11 12  1  0  0  0  0
 11 23  1  0  0  0  0
 11 24  1  0  0  0  0
 12 25  1  0  0  0  0
 12 26  1  0  0  0  0
 13 14  1  0  0  0  0
 14 15  1  0  0  0  0
 14 27  1  0  0  0  0
 14 28  1  0  0  0  0
 15 16  1  0  0  0  0
 15 17  2  0  0  0  0
 16 29  1  0  0  0  0
 16 30  1  0  0  0  0
M  END
> <s_m_source_file>
AV-unprocessed.smi

> <i_m_source_file_index>
1298

> <i_lp_mmshare_version>
43012

> <i_f3d_flags>
0

> <s_epik_input>
W0NIMl09QyhDbClbQ0gyXVNjMW5uYyhbQ0hdMltDSDJdW0NIMl0yKW4xW0NIMl1DKD1PKVtOSDJd

> <s_epik_cmdline>
J2VwaWtfcHl0aG9uJywgJy1waCcsICc3LjAnLCAnLXRuJywgJzgnLCAnLW1hJywgJzIwMCcsICctbWV0YWxfYmluZGluZycsICctaW1hZScsICc8aW5maWxlLm1hZT4nLCAnLW9tYWUnLCAnPG91dGZpbGUubWFlPic=

> <r_lp_tautomer_probability>
1

> <r_epik_Ionization_Penalty>
2.01117e-07

> <r_epik_Ionization_Penalty_Charging>
0

> <r_epik_Ionization_Penalty_Neutral>
2.01117e-07

> <r_epik_State_Penalty>
-0

> <r_epik_Charging_Adjusted_Penalty>
0

> <i_epik_Tot_Q>
0

> <i_epik_Tot_abs_Q>
0

> <r_epik_Metal_State_Penalty>
-0

> <b_epik_Metal_Only>
0

> <s_lp_Force_Field>
OPLS_2005

> <r_lp_Energy>
3.32617

> <b_lp_Chiralities_Consistent>
1

> <s_lp_Variant>
AV-unprocessed.smi:1298-1

> <Gold.Version>
5.8.1

> <Gold.Id.Protein>
6NUR|6NUR_protein|mol2

> <Gold.PLP.Fitness>
37.9220

> <Gold.PLP.PLP>
-32.9387

> <Gold.PLP.part.hbond>
-2.0000

> <Gold.PLP.part.metal>
0.0000

> <Gold.PLP.part.buried>
-2.3549

> <Gold.PLP.part.nonpolar>
-27.5317

> <Gold.PLP.part.repulsive>
0.0279

> <Gold.PLP.ligand.clash>
0.0000

> <Gold.PLP.ligand.torsion>
0.6202

> <Gold.PLP.Chemscore.Hbond>
2.0000

> <Gold.PLP.Chemscore.CHOScore>
0.0000

> <Gold.PLP.Chemscore.Metal>
0.0000

> <Gold.Chemscore.Hbonds>
donor molecule, donor type, donor heavy atom, donor atom, acceptor molecule, acceptor atom, score
      L1  H    16    30       P1  8028  1.00
      P1  H  7997  8010       L1     7  0.90

> <Gold.PLP.Chemscore.Internal.Correction>
0.2237

> <Gold.Rescore>
     Score         DG    S(hbond)    S(metal)    S(lipo)     H(rot)  DE(clash)    DE(int)     intcor
     12.98     -13.78       1.87        0.00      74.30       2.60       0.12       0.68       ----

> <Gold.Chemscore.Fitness>
12.9797

> <Gold.Chemscore.DG>
-13.7772

> <Gold.Chemscore.ZeroCoef>
-5.4800

> <Gold.Chemscore.Hbond>
1.8737

> <Gold.Chemscore.Metal>
0.0000

> <Gold.Chemscore.Lipo>
74.2958

> <Gold.Chemscore.Internal_Hbond>
0.0000

> <Gold.Chemscore.DEClash>
0.1214

> <Gold.Chemscore.DEInternal>
0.6761

> <Gold.Chemscore.Rot>
2.5990

> <Gold.Chemscore.Internal.Correction>
   9.000000E+99

> <Gold.Chemscore.Hbonds>
donor molecule, donor type, donor heavy atom, donor atom, acceptor molecule, acceptor atom, score
      L1  H    16    30       P1  8028  0.40
      P1  H  7997  8010       L1     7  0.18

> <Gold.Chemscore.Hbond.Weighted>
-6.2580

> <Gold.Chemscore.Metal.Weighted>
-0.0000

> <Gold.Chemscore.Lipo.Weighted>
-8.6926

> <Gold.Chemscore.Internal_Hbond.Weighted>
0.0000

> <Gold.Chemscore.DEClash.Weighted>
0.1214

> <Gold.Chemscore.DEInternal.Weighted>
0.6761

> <Gold.Chemscore.Rot.Weighted>
6.6534

> <Gold.Chemscore.Internal.Correction.Weighted>
   9.000000E+99

> <Gold.Protein.RotatedTorsions>
[ 6907 6896 6895 6894 ] final  -25.09 input  -60.11 | X-H torsion
[ 7974 7965 7964 7962 ] final  -84.45 input  175.53 | X-H torsion
[ 8008 7997 7996 7995 ] final   71.81 input   59.86 | X-H torsion
[ 10167 10162 10161 10158 ] final -111.39 input  -65.29 | X-H torsion
[ 10718 10713 10712 10709 ] final -159.98 input   66.30 | X-H torsion
[ 10763 10752 10751 10750 ] final  -40.16 input  -60.55 | X-H torsion
[ 11005 11000 10999 10996 ] final  169.51 input  -57.11 | X-H torsion

> <Gold.Protein.ActiveResidues>
 VAL166  LYS551  ARG553  GLY616  TRP617  ASP618  TYR619  PRO620  LYS621  CYS622 
 ASP623  PHE694  ASN695  SER759  ASP760  ASP761  ALA762  ILE779  LEU786  VAL792 
 PHE793  MET794  SER795  GLU796  ALA797  LYS798  CYS799  TRP800  GLU811  SER814 

> <Gold.Protein.RotatedAtoms>
  151.1802  135.0357  159.8788 H   0  0  0  0  0  0  0  0  0  0  0  0  # atno 6907 bound_to 6896
  152.5445  134.1072  159.8353 H   0  0  0  0  0  0  0  0  0  0  0  0  # atno 6908 bound_to 6896
  151.1188  133.5072  159.2635 H   0  0  0  0  0  0  0  0  0  0  0  0  # atno 6909 bound_to 6896
  145.5064  140.9543  143.1731 H   0  0  0  0  0  0  0  0  0  0  0  0  # atno 7974 bound_to 7965
  155.7595  140.3487  155.5191 H   0  0  0  0  0  0  0  0  0  0  0  0  # atno 8008 bound_to 7997
  155.8927  140.1020  157.1428 H   0  0  0  0  0  0  0  0  0  0  0  0  # atno 8009 bound_to 7997
  154.4035  140.1301  156.4323 H   0  0  0  0  0  0  0  0  0  0  0  0  # atno 8010 bound_to 7997
  140.1341  143.4335  152.1607 H   0  0  0  0  0  0  0  0  0  0  0  0  # atno 10167 bound_to 10162
  156.5757  130.8708  151.2850 H   0  0  0  0  0  0  0  0  0  0  0  0  # atno 10718 bound_to 10713
  153.9413  135.6761  153.4744 H   0  0  0  0  0  0  0  0  0  0  0  0  # atno 10763 bound_to 10752
  153.0930  135.4865  154.8722 H   0  0  0  0  0  0  0  0  0  0  0  0  # atno 10764 bound_to 10752
  154.7375  135.3153  154.8744 H   0  0  0  0  0  0  0  0  0  0  0  0  # atno 10765 bound_to 10752
  140.2985  134.7615  157.3897 H   0  0  0  0  0  0  0  0  0  0  0  0  # atno 11005 bound_to 11000
  144.7751  139.6648  143.7178 LP  0  0  0  0  0  0  0  0  0  0  0  0  # atno 17320 bound_to 7965
  146.2194  139.5607  142.9629 LP  0  0  0  0  0  0  0  0  0  0  0  0  # atno 17321 bound_to 7965
  139.5504  144.7333  151.4451 LP  0  0  0  0  0  0  0  0  0  0  0  0  # atno 17342 bound_to 10162
  140.6799  143.8105  150.7108 LP  0  0  0  0  0  0  0  0  0  0  0  0  # atno 17343 bound_to 10162
  157.7338  130.9736  150.1996 LP  0  0  0  0  0  0  0  0  0  0  0  0  # atno 17370 bound_to 10713
  156.2675  130.3718  149.8065 LP  0  0  0  0  0  0  0  0  0  0  0  0  # atno 17371 bound_to 10713
  140.1130  134.5320  155.8249 LP  0  0  0  0  0  0  0  0  0  0  0  0  # atno 17394 bound_to 11000
  141.2132  133.6731  156.6725 LP  0  0  0  0  0  0  0  0  0  0  0  0  # atno 17395 bound_to 11000

$$$$
