AV-unprocessed.smi:72|AV-procd|sdf|710|dock1
  -GOLD-   2262017 33D 1   1.00000     0.00000
 Structure written by MMmdl.
 30 31  0  0  0  0  0  0  0  0  2 V2000
  145.7075  138.8384  152.6268 N   0  0  0  0  0  0  0  0  0  0  0  0
  145.4077  137.5100  152.4076 C   0  0  0  0  0  0  0  0  0  0  0  0
  146.4570  136.6518  152.1297 N   0  3  0  0  0  0  0  0  0  0  0  0
  146.3346  135.3401  151.8834 C   0  0  0  0  0  0  0  0  0  0  0  0
  145.1344  134.7983  151.8877 N   0  0  0  0  0  0  0  0  0  0  0  0
  144.9532  133.3318  151.6105 C   0  0  1  0  0  0  0  0  0  0  0  0
  143.9742  133.2064  150.6243 O   0  0  0  0  0  0  0  0  0  0  0  0
  144.4090  132.2982  149.6178 C   0  0  1  0  0  0  0  0  0  0  0  0
  143.7082  132.6152  148.2878 C   0  0  0  0  0  0  0  0  0  0  0  0
  142.3963  132.0954  148.2980 O   0  0  0  0  0  0  0  0  0  0  0  0
  145.9183  132.5412  149.5897 C   0  0  2  0  0  0  0  0  0  0  0  0
  146.6377  131.4861  148.9806 O   0  0  0  0  0  0  0  0  0  0  0  0
  146.2564  132.7288  151.0650 C   0  0  2  0  0  0  0  0  0  0  0  0
  146.5587  131.5077  151.7139 O   0  0  0  0  0  0  0  0  0  0  0  0
  143.9990  135.5908  152.1943 C   0  0  0  0  0  0  0  0  0  0  0  0
  142.8787  135.0849  152.2452 O   0  0  0  0  0  0  0  0  0  0  0  0
  144.2281  136.9534  152.4361 N   0  0  0  0  0  0  0  0  0  0  0  0
  144.5966  132.8753  152.5357 H   0  0  0  0  0  0  0  0  0  0  0  0
  144.2059  131.2749  149.9406 H   0  0  0  0  0  0  0  0  0  0  0  0
  146.1292  133.4685  149.0549 H   0  0  0  0  0  0  0  0  0  0  0  0
  147.0976  133.4095  151.2040 H   0  0  0  0  0  0  0  0  0  0  0  0
  145.0079  139.5359  152.8397 H   0  0  0  0  0  0  0  0  0  0  0  0
  146.6416  139.2206  152.5864 H   0  0  0  0  0  0  0  0  0  0  0  0
  147.2192  134.7459  151.6908 H   0  0  0  0  0  0  0  0  0  0  0  0
  143.6909  133.6875  148.0917 H   0  0  0  0  0  0  0  0  0  0  0  0
  144.2400  132.1426  147.4614 H   0  0  0  0  0  0  0  0  0  0  0  0
  141.7921  132.8034  148.4628 H   0  0  0  0  0  0  0  0  0  0  0  0
  147.4722  131.3973  149.4159 H   0  0  0  0  0  0  0  0  0  0  0  0
  147.3738  131.1759  151.3685 H   0  0  0  0  0  0  0  0  0  0  0  0
  147.3855  137.0492  152.1103 H   0  0  0  0  0  0  0  0  0  0  0  0
  1  2  1  0  0  0  0
  1 22  1  0  0  0  0
  1 23  1  0  0  0  0
  2 17  2  0  0  0  0
  2  3  1  0  0  0  0
  3  4  2  0  0  0  0
  3 30  1  0  0  0  0
  4  5  1  0  0  0  0
  4 24  1  0  0  0  0
  5  6  1  0  0  0  0
  5 15  1  0  0  0  0
  6 18  1  0  0  0  0
  6 13  1  0  0  0  0
  6  7  1  0  0  0  0
  7  8  1  0  0  0  0
  8 19  1  0  0  0  0
  8  9  1  0  0  0  0
  8 11  1  0  0  0  0
  9 10  1  0  0  0  0
  9 25  1  0  0  0  0
  9 26  1  0  0  0  0
 10 27  1  0  0  0  0
 11 20  1  0  0  0  0
 11 12  1  0  0  0  0
 11 13  1  0  0  0  0
 12 28  1  0  0  0  0
 13 21  1  0  0  0  0
 13 14  1  0  0  0  0
 14 29  1  0  0  0  0
 15 16  2  0  0  0  0
 15 17  1  0  0  0  0
M  CHG  1   3   1
M  END
> <s_m_source_file>
AV-unprocessed.smi

> <i_m_source_file_index>
72

> <i_lp_mmshare_version>
43012

> <i_f3d_flags>
0

> <s_epik_input>
W05IMl1jMW5bY0hdbihjKD1PKW4xKVtDQEBIXTJPW0NASF0oW0NIMl1bT0hdKVtDQEBIXShbT0hdKVtDQEhdMltPSF0=

> <s_epik_cmdline>
J2VwaWtfcHl0aG9uJywgJy1waCcsICc3LjAnLCAnLXRuJywgJzgnLCAnLW1hJywgJzIwMCcsICctbWV0YWxfYmluZGluZycsICctaW1hZScsICc8aW5maWxlLm1hZT4nLCAnLW9tYWUnLCAnPG91dGZpbGUubWFlPic=

> <r_lp_tautomer_probability>
4.77166e-05

> <r_epik_Ionization_Penalty>
0.104979

> <r_epik_Ionization_Penalty_Charging>
0.0999619

> <r_epik_Ionization_Penalty_Neutral>
0.00501745

> <r_epik_State_Penalty>
2.51541

> <r_epik_Charging_Adjusted_Penalty>
2.61537

> <i_epik_Tot_Q>
1

> <i_epik_Tot_abs_Q>
1

> <r_epik_Metal_State_Penalty>
3.53763

> <b_epik_Metal_Only>
0

> <s_epik_Chemistry_Notes>
This compound contains an acetal/aminal-like group ( X-CH(R)-Y where X, Y are N, S, or O) that may be acid/base labile, releasing an aldehyde.

> <s_lp_Force_Field>
OPLS_2005

> <r_lp_Energy>
34.5988

> <b_lp_Chiralities_Consistent>
1

> <s_lp_Variant>
AV-unprocessed.smi:72-48

> <Gold.Version>
5.8.1

> <Gold.Id.Protein>
6NUR|6NUR_protein|mol2

> <Gold.PLP.Fitness>
46.3624

> <Gold.PLP.PLP>
-29.5108

> <Gold.PLP.part.hbond>
-7.9483

> <Gold.PLP.part.metal>
0.0000

> <Gold.PLP.part.buried>
-3.8713

> <Gold.PLP.part.nonpolar>
-18.7384

> <Gold.PLP.part.repulsive>
0.6294

> <Gold.PLP.ligand.clash>
0.4463

> <Gold.PLP.ligand.torsion>
0.3025

> <Gold.PLP.Chemscore.Hbond>
5.4570

> <Gold.PLP.Chemscore.CHOScore>
0.5043

> <Gold.PLP.Chemscore.Metal>
0.0000

> <Gold.Chemscore.Hbonds>
donor molecule, donor type, donor heavy atom, donor atom, acceptor molecule, acceptor atom, score
      L1  H     1    22       P1 10175  1.00
      L1  H     3    30       P1  7948  1.15
      L1  H    10    27       P1 10186  0.89
      L1  H    12    28       P1 10747  1.00
      L1  H    14    29       P1 10747  1.00
      P1  H 10785 10796       L1    10  0.31
      L1  C     4    24       P1  7948  0.51

> <Gold.PLP.Chemscore.Internal.Correction>
0.0189

> <Gold.Rescore>
     Score         DG    S(hbond)    S(metal)    S(lipo)     H(rot)  DE(clash)    DE(int)     intcor
     12.46     -16.03       4.65        0.00      46.58       4.08       1.72       1.85       ----

> <Gold.Chemscore.Fitness>
12.4590

> <Gold.Chemscore.DG>
-16.0303

> <Gold.Chemscore.ZeroCoef>
-5.4800

> <Gold.Chemscore.Hbond>
4.6529

> <Gold.Chemscore.Metal>
0.0000

> <Gold.Chemscore.Lipo>
46.5816

> <Gold.Chemscore.Internal_Hbond>
0.0000

> <Gold.Chemscore.DEClash>
1.7215

> <Gold.Chemscore.DEInternal>
1.8499

> <Gold.Chemscore.Rot>
4.0783

> <Gold.Chemscore.Internal.Correction>
   9.000000E+99

> <Gold.Chemscore.Hbonds>
donor molecule, donor type, donor heavy atom, donor atom, acceptor molecule, acceptor atom, score
      L1  H     1    22       P1 10175  0.97
      L1  H     3    30       P1  7948  0.58
      L1  H    10    27       P1 10186  0.86
      L1  H    12    28       P1 10747  1.00
      L1  H    14    29       P1 10747  0.98
      P1  H 10785 10796       L1    10  0.01

> <Gold.Chemscore.Hbond.Weighted>
-15.5407

> <Gold.Chemscore.Metal.Weighted>
-0.0000

> <Gold.Chemscore.Lipo.Weighted>
-5.4500

> <Gold.Chemscore.Internal_Hbond.Weighted>
0.0000

> <Gold.Chemscore.DEClash.Weighted>
1.7215

> <Gold.Chemscore.DEInternal.Weighted>
1.8499

> <Gold.Chemscore.Rot.Weighted>
10.4404

> <Gold.Chemscore.Internal.Correction.Weighted>
   9.000000E+99

> <Gold.Protein.RotatedTorsions>
[ 6907 6896 6895 6894 ] final  -14.18 input  -60.11 | X-H torsion
[ 7974 7965 7964 7962 ] final  -25.48 input  175.53 | X-H torsion
[ 8008 7997 7996 7995 ] final   92.32 input   59.86 | X-H torsion
[ 10167 10162 10161 10158 ] final  -34.30 input  -65.29 | X-H torsion
[ 10718 10713 10712 10709 ] final -136.31 input   66.30 | X-H torsion
[ 10763 10752 10751 10750 ] final -157.04 input  -60.55 | X-H torsion
[ 11005 11000 10999 10996 ] final   76.46 input  -57.11 | X-H torsion

> <Gold.Protein.ActiveResidues>
 VAL166  LYS551  ARG553  GLY616  TRP617  ASP618  TYR619  PRO620  LYS621  CYS622 
 ASP623  PHE694  ASN695  SER759  ASP760  ASP761  ALA762  ILE779  LEU786  VAL792 
 PHE793  MET794  SER795  GLU796  ALA797  LYS798  CYS799  TRP800  GLU811  SER814 

> <Gold.Protein.RotatedAtoms>
  151.3434  135.0868  159.9378 H   0  0  0  0  0  0  0  0  0  0  0  0  # atno 6907 bound_to 6896
  152.5206  133.9425  159.7643 H   0  0  0  0  0  0  0  0  0  0  0  0  # atno 6908 bound_to 6896
  150.9786  133.6216  159.2756 H   0  0  0  0  0  0  0  0  0  0  0  0  # atno 6909 bound_to 6896
  146.1488  140.4892  142.8620 H   0  0  0  0  0  0  0  0  0  0  0  0  # atno 7974 bound_to 7965
  156.0340  140.3327  155.7171 H   0  0  0  0  0  0  0  0  0  0  0  0  # atno 8008 bound_to 7997
  155.5842  140.0640  157.2793 H   0  0  0  0  0  0  0  0  0  0  0  0  # atno 8009 bound_to 7997
  154.4365  140.1838  156.0996 H   0  0  0  0  0  0  0  0  0  0  0  0  # atno 8010 bound_to 7997
  140.7188  143.3557  151.2063 H   0  0  0  0  0  0  0  0  0  0  0  0  # atno 10167 bound_to 10162
  156.2757  130.7291  151.1272 H   0  0  0  0  0  0  0  0  0  0  0  0  # atno 10718 bound_to 10713
  154.7667  135.3133  154.8272 H   0  0  0  0  0  0  0  0  0  0  0  0  # atno 10763 bound_to 10752
  153.9019  135.6815  153.4759 H   0  0  0  0  0  0  0  0  0  0  0  0  # atno 10764 bound_to 10752
  153.1274  135.4795  154.9227 H   0  0  0  0  0  0  0  0  0  0  0  0  # atno 10765 bound_to 10752
  139.9297  134.7602  156.1398 H   0  0  0  0  0  0  0  0  0  0  0  0  # atno 11005 bound_to 11000
  144.7879  140.5972  143.6561 LP  0  0  0  0  0  0  0  0  0  0  0  0  # atno 17320 bound_to 7965
  145.4873  139.1491  143.3729 LP  0  0  0  0  0  0  0  0  0  0  0  0  # atno 17321 bound_to 7965
  139.7098  143.9395  152.2942 LP  0  0  0  0  0  0  0  0  0  0  0  0  # atno 17342 bound_to 10162
  139.9116  144.6853  150.8556 LP  0  0  0  0  0  0  0  0  0  0  0  0  # atno 17343 bound_to 10162
  157.7298  131.0621  150.5755 LP  0  0  0  0  0  0  0  0  0  0  0  0  # atno 17370 bound_to 10713
  156.5856  130.4316  149.5958 LP  0  0  0  0  0  0  0  0  0  0  0  0  # atno 17371 bound_to 10713
  141.0878  133.6727  156.2475 LP  0  0  0  0  0  0  0  0  0  0  0  0  # atno 17394 bound_to 11000
  140.6236  134.5336  157.5551 LP  0  0  0  0  0  0  0  0  0  0  0  0  # atno 17395 bound_to 11000

$$$$
