AV-unprocessed.smi:2424|AV-procd|sdf|9567|dock6
  -GOLD-   2272013193D 1   1.00000     0.00000
 Structure written by MMmdl.
 49 50  0  0  0  0  0  0  0  0  2 V2000
  147.2607  138.6988  155.1033 C   0  0  0  0  0  0  0  0  0  0  0  0
  148.7228  138.2285  155.0387 C   0  0  0  0  0  0  0  0  0  0  0  0
  149.0969  137.1008  156.0369 C   0  0  0  0  0  0  0  0  0  0  0  0
  148.8706  137.6226  157.4775 C   0  0  0  0  0  0  0  0  0  0  0  0
  149.5092  138.9858  157.7928 C   0  0  0  0  0  0  0  0  0  0  0  0
  148.5049  135.6830  155.7825 C   0  0  1  0  0  0  0  0  0  0  0  0
  148.1491  135.4392  154.3830 N   0  0  0  0  0  0  0  0  0  0  0  0
  147.2266  134.5685  153.9542 C   0  0  0  0  0  0  0  0  0  0  0  0
  146.5754  133.8454  154.7078 O   0  0  0  0  0  0  0  0  0  0  0  0
  147.1191  134.6145  152.6148 N   0  0  0  0  0  0  0  0  0  0  0  0
  146.2887  133.8598  151.7769 C   0  0  0  0  0  0  0  0  0  0  0  0
  144.9277  133.8156  152.0016 C   0  0  0  0  0  0  0  0  0  0  0  0
  143.9759  133.1511  151.3114 N   0  5  0  0  0  0  0  0  0  0  0  0
  144.3634  132.4088  150.2349 C   0  0  0  0  0  0  0  0  0  0  0  0
  143.5535  131.7715  149.5626 O   0  0  0  0  0  0  0  0  0  0  0  0
  145.7944  132.3744  149.8714 C   0  0  0  0  0  0  0  0  0  0  0  0
  146.2212  131.5582  148.6634 C   0  0  0  0  0  0  0  0  0  0  0  0
  146.6921  133.0682  150.6149 C   0  0  0  0  0  0  0  0  0  0  0  0
  149.8685  135.0683  156.1418 C   0  0  1  0  0  0  0  0  0  0  0  0
  150.3690  133.7977  155.4578 C   0  0  0  0  0  0  0  0  0  0  0  0
  150.4895  136.4434  155.8318 C   0  0  1  0  0  0  0  0  0  0  0  0
  150.9378  136.5503  154.4846 O   0  0  0  0  0  0  0  0  0  0  0  0
  151.5735  137.7859  154.2050 C   0  0  0  0  0  0  0  0  0  0  0  0
  147.1143  139.5729  154.4685 H   0  0  0  0  0  0  0  0  0  0  0  0
  146.9768  138.9787  156.1180 H   0  0  0  0  0  0  0  0  0  0  0  0
  146.5688  137.9326  154.7554 H   0  0  0  0  0  0  0  0  0  0  0  0
  148.9676  137.9387  154.0175 H   0  0  0  0  0  0  0  0  0  0  0  0
  149.3351  139.1121  155.2172 H   0  0  0  0  0  0  0  0  0  0  0  0
  147.8022  137.7194  157.6696 H   0  0  0  0  0  0  0  0  0  0  0  0
  149.2061  136.8911  158.2120 H   0  0  0  0  0  0  0  0  0  0  0  0
  149.1974  139.3328  158.7781 H   0  0  0  0  0  0  0  0  0  0  0  0
  149.2154  139.7462  157.0697 H   0  0  0  0  0  0  0  0  0  0  0  0
  150.5974  138.9325  157.8041 H   0  0  0  0  0  0  0  0  0  0  0  0
  147.7293  135.4000  156.4954 H   0  0  0  0  0  0  0  0  0  0  0  0
  148.6369  135.9905  153.6921 H   0  0  0  0  0  0  0  0  0  0  0  0
  147.7071  135.2824  152.1382 H   0  0  0  0  0  0  0  0  0  0  0  0
  144.5474  134.3971  152.8691 H   0  0  0  0  0  0  0  0  0  0  0  0
  147.2961  131.6288  148.4950 H   0  0  0  0  0  0  0  0  0  0  0  0
  145.7159  131.9140  147.7651 H   0  0  0  0  0  0  0  0  0  0  0  0
  145.9708  130.5066  148.8067 H   0  0  0  0  0  0  0  0  0  0  0  0
  147.7263  133.0254  150.3148 H   0  0  0  0  0  0  0  0  0  0  0  0
  149.8935  134.9201  157.2226 H   0  0  0  0  0  0  0  0  0  0  0  0
  150.4385  133.9145  154.3761 H   0  0  0  0  0  0  0  0  0  0  0  0
  149.6999  132.9597  155.6534 H   0  0  0  0  0  0  0  0  0  0  0  0
  151.3575  133.5189  155.8221 H   0  0  0  0  0  0  0  0  0  0  0  0
  151.2286  136.7785  156.5622 H   0  0  0  0  0  0  0  0  0  0  0  0
  151.9311  137.7872  153.1756 H   0  0  0  0  0  0  0  0  0  0  0  0
  152.4287  137.9566  154.8589 H   0  0  0  0  0  0  0  0  0  0  0  0
  150.8764  138.6169  154.3192 H   0  0  0  0  0  0  0  0  0  0  0  0
  1  2  1  0  0  0  0
  1 24  1  0  0  0  0
  1 25  1  0  0  0  0
  1 26  1  0  0  0  0
  2  3  1  0  0  0  0
  2 27  1  0  0  0  0
  2 28  1  0  0  0  0
  3 21  1  0  0  0  0
  3  4  1  0  0  0  0
  3  6  1  0  0  0  0
  4  5  1  0  0  0  0
  4 29  1  0  0  0  0
  4 30  1  0  0  0  0
  5 31  1  0  0  0  0
  5 32  1  0  0  0  0
  5 33  1  0  0  0  0
  6  7  1  0  0  0  0
  6 19  1  0  0  0  0
  6 34  1  0  0  0  0
  7  8  1  0  0  0  0
  7 35  1  0  0  0  0
  8  9  2  0  0  0  0
  8 10  1  0  0  0  0
 10 11  1  0  0  0  0
 10 36  1  0  0  0  0
 11 18  1  0  0  0  0
 11 12  2  0  0  0  0
 12 13  1  0  0  0  0
 12 37  1  0  0  0  0
 13 14  1  0  0  0  0
 14 15  2  0  0  0  0
 14 16  1  0  0  0  0
 16 17  1  0  0  0  0
 16 18  2  0  0  0  0
 17 38  1  0  0  0  0
 17 39  1  0  0  0  0
 17 40  1  0  0  0  0
 18 41  1  0  0  0  0
 19 20  1  0  0  0  0
 19 21  1  0  0  0  0
 19 42  1  0  0  0  0
 20 43  1  0  0  0  0
 20 44  1  0  0  0  0
 20 45  1  0  0  0  0
 21 22  1  0  0  0  0
 21 46  1  0  0  0  0
 22 23  1  0  0  0  0
 23 47  1  0  0  0  0
 23 48  1  0  0  0  0
 23 49  1  0  0  0  0
M  CHG  1  13  -1
M  END
> <s_m_source_file>
AV-unprocessed.smi

> <i_m_source_file_index>
2424

> <i_lp_mmshare_version>
43012

> <i_f3d_flags>
0

> <s_epik_input>
W0NIM11PW0NAQEhdMVtDQEhdKFtDSDNdKVtDQEBIXShDMShbQ0gyXVtDSDNdKVtDSDJdW0NIM10pW05IXUMoPU8pW05IXWMyW2NIXVtuSF1jKD1PKWMoW0NIM10pW2NIXTI=

> <s_epik_cmdline>
J2VwaWtfcHl0aG9uJywgJy1waCcsICc3LjAnLCAnLXRuJywgJzgnLCAnLW1hJywgJzIwMCcsICctbWV0YWxfYmluZGluZycsICctaW1hZScsICc8aW5maWxlLm1hZT4nLCAnLW9tYWUnLCAnPG91dGZpbGUubWFlPic=

> <r_lp_tautomer_probability>
1

> <r_epik_Ionization_Penalty>
7.6122

> <r_epik_Ionization_Penalty_Charging>
1.53843

> <r_epik_Ionization_Penalty_Neutral>
6.07377

> <r_epik_State_Penalty>
6.07371

> <r_epik_Charging_Adjusted_Penalty>
7.61214

> <i_epik_Tot_Q>
-1

> <i_epik_Tot_abs_Q>
1

> <r_epik_Metal_State_Penalty>
2.02136

> <b_epik_Metal_Only>
1

> <s_lp_Force_Field>
OPLS_2005

> <r_lp_Energy>
42.7103

> <b_lp_Chiralities_Consistent>
1

> <s_lp_Variant>
AV-unprocessed.smi:2424-9

> <Gold.Version>
5.8.1

> <Gold.Id.Protein>
6NUR|6NUR_protein|mol2

> <Gold.PLP.Fitness>
36.0309

> <Gold.PLP.PLP>
-28.6764

> <Gold.PLP.part.hbond>
-3.2900

> <Gold.PLP.part.metal>
0.0000

> <Gold.PLP.part.buried>
-4.1236

> <Gold.PLP.part.nonpolar>
-22.8614

> <Gold.PLP.part.repulsive>
1.3183

> <Gold.PLP.ligand.clash>
0.0000

> <Gold.PLP.ligand.torsion>
1.0468

> <Gold.PLP.Chemscore.Hbond>
2.9310

> <Gold.PLP.Chemscore.CHOScore>
0.0000

> <Gold.PLP.Chemscore.Metal>
0.0000

> <Gold.Chemscore.Hbonds>
donor molecule, donor type, donor heavy atom, donor atom, acceptor molecule, acceptor atom, score
      L1  H     7    35       P1  7948  0.91
      L1  H    10    36       P1  7948  1.00
      P1  H 10752 10763       L1    22  0.05
      P1  H 10785 10796       L1    15  0.98

> <Gold.PLP.Chemscore.Internal.Correction>
0.6553

> <Gold.Rescore>
     Score         DG    S(hbond)    S(metal)    S(lipo)     H(rot)  DE(clash)    DE(int)     intcor
     18.34     -19.86       2.84        0.00      75.20       1.52       0.41       1.11       ----

> <Gold.Chemscore.Fitness>
18.3406

> <Gold.Chemscore.DG>
-19.8591

> <Gold.Chemscore.ZeroCoef>
-5.4800

> <Gold.Chemscore.Hbond>
2.8363

> <Gold.Chemscore.Metal>
0.0000

> <Gold.Chemscore.Lipo>
75.1976

> <Gold.Chemscore.Internal_Hbond>
0.0000

> <Gold.Chemscore.DEClash>
0.4091

> <Gold.Chemscore.DEInternal>
1.1094

> <Gold.Chemscore.Rot>
1.5204

> <Gold.Chemscore.Internal.Correction>
   9.000000E+99

> <Gold.Chemscore.Hbonds>
donor molecule, donor type, donor heavy atom, donor atom, acceptor molecule, acceptor atom, score
      L1  H     7    35       P1  7948  0.88
      L1  H    10    36       P1  7948  0.94
      P1  H 10785 10796       L1    15  0.93

> <Gold.Chemscore.Hbond.Weighted>
-9.4732

> <Gold.Chemscore.Metal.Weighted>
-0.0000

> <Gold.Chemscore.Lipo.Weighted>
-8.7981

> <Gold.Chemscore.Internal_Hbond.Weighted>
0.0000

> <Gold.Chemscore.DEClash.Weighted>
0.4091

> <Gold.Chemscore.DEInternal.Weighted>
1.1094

> <Gold.Chemscore.Rot.Weighted>
3.8922

> <Gold.Chemscore.Internal.Correction.Weighted>
   9.000000E+99

> <Gold.Protein.RotatedTorsions>
[ 6907 6896 6895 6894 ] final  -20.63 input  -60.11 | X-H torsion
[ 7974 7965 7964 7962 ] final -155.69 input  175.53 | X-H torsion
[ 8008 7997 7996 7995 ] final  -89.22 input   59.86 | X-H torsion
[ 10167 10162 10161 10158 ] final  167.81 input  -65.29 | X-H torsion
[ 10718 10713 10712 10709 ] final   51.35 input   66.30 | X-H torsion
[ 10763 10752 10751 10750 ] final   24.98 input  -60.55 | X-H torsion
[ 11005 11000 10999 10996 ] final   70.48 input  -57.11 | X-H torsion

> <Gold.Protein.ActiveResidues>
 VAL166  LYS551  ARG553  GLY616  TRP617  ASP618  TYR619  PRO620  LYS621  CYS622 
 ASP623  PHE694  ASN695  SER759  ASP760  ASP761  ALA762  ILE779  LEU786  VAL792 
 PHE793  MET794  SER795  GLU796  ALA797  LYS798  CYS799  TRP800  GLU811  SER814 

> <Gold.Protein.RotatedAtoms>
  151.2453  135.0603  159.9040 H   0  0  0  0  0  0  0  0  0  0  0  0  # atno 6907 bound_to 6896
  152.5387  134.0391  159.8069 H   0  0  0  0  0  0  0  0  0  0  0  0  # atno 6908 bound_to 6896
  151.0590  133.5510  159.2667 H   0  0  0  0  0  0  0  0  0  0  0  0  # atno 6909 bound_to 6896
  144.7628  140.4215  143.5964 H   0  0  0  0  0  0  0  0  0  0  0  0  # atno 7974 bound_to 7965
  154.6840  140.0544  157.0296 H   0  0  0  0  0  0  0  0  0  0  0  0  # atno 8008 bound_to 7997
  155.0910  140.3219  155.4555 H   0  0  0  0  0  0  0  0  0  0  0  0  # atno 8009 bound_to 7997
  156.2704  140.2048  156.6037 H   0  0  0  0  0  0  0  0  0  0  0  0  # atno 8010 bound_to 7997
  139.4953  144.3882  151.9547 H   0  0  0  0  0  0  0  0  0  0  0  0  # atno 10167 bound_to 10162
  157.4972  130.8414  149.8273 H   0  0  0  0  0  0  0  0  0  0  0  0  # atno 10718 bound_to 10713
  153.0724  135.6593  154.0218 H   0  0  0  0  0  0  0  0  0  0  0  0  # atno 10763 bound_to 10752
  153.9860  135.2950  155.3417 H   0  0  0  0  0  0  0  0  0  0  0  0  # atno 10764 bound_to 10752
  154.7103  135.5208  153.8726 H   0  0  0  0  0  0  0  0  0  0  0  0  # atno 10765 bound_to 10752
  139.9595  134.7085  156.0677 H   0  0  0  0  0  0  0  0  0  0  0  0  # atno 11005 bound_to 11000
  145.6564  139.1573  143.2833 LP  0  0  0  0  0  0  0  0  0  0  0  0  # atno 17320 bound_to 7965
  146.1708  140.6648  142.9234 LP  0  0  0  0  0  0  0  0  0  0  0  0  # atno 17321 bound_to 7965
  140.3319  144.3306  150.5985 LP  0  0  0  0  0  0  0  0  0  0  0  0  # atno 17342 bound_to 10162
  140.5638  143.2189  151.7719 LP  0  0  0  0  0  0  0  0  0  0  0  0  # atno 17343 bound_to 10162
  156.0207  130.3796  150.1970 LP  0  0  0  0  0  0  0  0  0  0  0  0  # atno 17370 bound_to 10713
  157.0159  130.9965  151.3353 LP  0  0  0  0  0  0  0  0  0  0  0  0  # atno 17371 bound_to 10713
  141.1271  133.6596  156.3365 LP  0  0  0  0  0  0  0  0  0  0  0  0  # atno 17394 bound_to 11000
  140.5532  134.6007  157.5413 LP  0  0  0  0  0  0  0  0  0  0  0  0  # atno 17395 bound_to 11000

$$$$
