AV-unprocessed.smi:1843|AV-procd|sdf|7506|dock1
  -GOLD-   22720 9213D 1   1.00000     0.00000
 Structure written by MMmdl.
 36 38  0  0  0  0  0  0  0  0  2 V2000
  148.5862  138.9146  157.9348 O   0  0  0  0  0  0  0  0  0  0  0  0
  149.5675  138.7567  157.2048 C   0  0  0  0  0  0  0  0  0  0  0  0
  150.7633  138.2414  157.5704 N   0  5  0  0  0  0  0  0  0  0  0  0
  151.6877  139.0300  158.1431 C   0  0  0  0  0  0  0  0  0  0  0  0
  152.9788  138.6795  158.2265 N   0  0  0  0  0  0  0  0  0  0  0  0
  153.7638  139.6379  158.8508 N   0  0  0  0  0  0  0  0  0  0  0  0
  153.0547  140.7067  159.2214 C   0  0  0  0  0  0  0  0  0  0  0  0
  153.6735  141.8762  159.9112 C   0  0  0  0  0  0  0  0  0  0  0  0
  153.3070  142.2432  161.3326 C   0  0  0  0  0  0  0  0  0  0  0  0
  152.8675  143.1239  160.1912 C   0  0  0  0  0  0  0  0  0  0  0  0
  151.3447  140.6174  158.8298 S   0  0  0  0  0  0  0  0  0  0  0  0
  149.5079  139.1166  155.9146 N   0  0  0  0  0  0  0  0  0  0  0  0
  148.3585  139.7153  155.2379 C   0  0  2  0  0  0  0  0  0  0  0  0
  147.7543  138.7232  154.2255 C   0  0  0  0  0  0  0  0  0  0  0  0
  146.5382  139.3316  153.5089 C   0  0  0  0  0  0  0  0  0  0  0  0
  146.8992  140.6597  152.8247 C   0  0  0  0  0  0  0  0  0  0  0  0
  147.5159  141.6583  153.8214 C   0  0  0  0  0  0  0  0  0  0  0  0
  148.7249  141.0638  154.5698 C   0  0  2  0  0  0  0  0  0  0  0  0
  149.7981  140.9016  153.6605 O   0  0  0  0  0  0  0  0  0  0  0  0
  154.7117  141.9956  159.6076 H   0  0  0  0  0  0  0  0  0  0  0  0
  152.5378  141.6590  161.8339 H   0  0  0  0  0  0  0  0  0  0  0  0
  154.1033  142.6129  161.9752 H   0  0  0  0  0  0  0  0  0  0  0  0
  153.3687  144.0821  160.0724 H   0  0  0  0  0  0  0  0  0  0  0  0
  151.8113  143.1136  159.9295 H   0  0  0  0  0  0  0  0  0  0  0  0
  150.3344  138.9652  155.3554 H   0  0  0  0  0  0  0  0  0  0  0  0
  147.5921  139.9097  155.9908 H   0  0  0  0  0  0  0  0  0  0  0  0
  148.5057  138.4349  153.4892 H   0  0  0  0  0  0  0  0  0  0  0  0
  147.4562  137.8063  154.7355 H   0  0  0  0  0  0  0  0  0  0  0  0
  146.1507  138.6273  152.7725 H   0  0  0  0  0  0  0  0  0  0  0  0
  145.7362  139.4982  154.2291 H   0  0  0  0  0  0  0  0  0  0  0  0
  147.6010  140.4711  152.0112 H   0  0  0  0  0  0  0  0  0  0  0  0
  146.0105  141.0951  152.3672 H   0  0  0  0  0  0  0  0  0  0  0  0
  147.8046  142.5739  153.3040 H   0  0  0  0  0  0  0  0  0  0  0  0
  146.7557  141.9475  154.5482 H   0  0  0  0  0  0  0  0  0  0  0  0
  149.0509  141.7743  155.3302 H   0  0  0  0  0  0  0  0  0  0  0  0
  149.5725  140.2060  153.0610 H   0  0  0  0  0  0  0  0  0  0  0  0
  1  2  2  0  0  0  0
  2  3  1  0  0  0  0
  2 12  1  0  0  0  0
  3  4  1  0  0  0  0
  4 11  1  0  0  0  0
  4  5  2  0  0  0  0
  5  6  1  0  0  0  0
  6  7  2  0  0  0  0
  7  8  1  0  0  0  0
  7 11  1  0  0  0  0
  8 10  1  0  0  0  0
  8  9  1  0  0  0  0
  8 20  1  0  0  0  0
  9 10  1  0  0  0  0
  9 21  1  0  0  0  0
  9 22  1  0  0  0  0
 10 23  1  0  0  0  0
 10 24  1  0  0  0  0
 12 13  1  0  0  0  0
 12 25  1  0  0  0  0
 13 18  1  0  0  0  0
 13 14  1  0  0  0  0
 13 26  1  0  0  0  0
 14 15  1  0  0  0  0
 14 27  1  0  0  0  0
 14 28  1  0  0  0  0
 15 16  1  0  0  0  0
 15 29  1  0  0  0  0
 15 30  1  0  0  0  0
 16 17  1  0  0  0  0
 16 31  1  0  0  0  0
 16 32  1  0  0  0  0
 17 18  1  0  0  0  0
 17 33  1  0  0  0  0
 17 34  1  0  0  0  0
 18 19  1  0  0  0  0
 18 35  1  0  0  0  0
 19 36  1  0  0  0  0
M  CHG  1   3  -1
M  END
> <s_m_source_file>
AV-unprocessed.smi

> <i_m_source_file_index>
1843

> <i_lp_mmshare_version>
43012

> <i_f3d_flags>
0

> <s_epik_input>
W09IXVtDQEBIXTFbQ0gyXVtDSDJdW0NIMl1bQ0gyXVtDQEhdMVtOSF1DKD1PKVtOSF1jMm5uYyhzMilbQ0hdM1tDSDJdW0NIMl0z

> <s_epik_cmdline>
J2VwaWtfcHl0aG9uJywgJy1waCcsICc3LjAnLCAnLXRuJywgJzgnLCAnLW1hJywgJzIwMCcsICctbWV0YWxfYmluZGluZycsICctaW1hZScsICc8aW5maWxlLm1hZT4nLCAnLW9tYWUnLCAnPG91dGZpbGUubWFlPic=

> <r_lp_tautomer_probability>
1

> <r_epik_Ionization_Penalty>
4.7996

> <r_epik_Ionization_Penalty_Charging>
4.64516

> <r_epik_Ionization_Penalty_Neutral>
0.154442

> <r_epik_State_Penalty>
4.64493

> <r_epik_Charging_Adjusted_Penalty>
9.29009

> <i_epik_Tot_Q>
-1

> <i_epik_Tot_abs_Q>
1

> <r_epik_Metal_State_Penalty>
0.896144

> <b_epik_Metal_Only>
1

> <s_lp_Force_Field>
OPLS_2005

> <r_lp_Energy>
9.09011

> <b_lp_Chiralities_Consistent>
1

> <s_lp_Variant>
AV-unprocessed.smi:1843-7

> <Gold.Version>
5.8.1

> <Gold.Id.Protein>
6NUR|6NUR_protein|mol2

> <Gold.PLP.Fitness>
39.0540

> <Gold.PLP.PLP>
-31.5271

> <Gold.PLP.part.hbond>
-3.7543

> <Gold.PLP.part.metal>
0.0000

> <Gold.PLP.part.buried>
-2.7524

> <Gold.PLP.part.nonpolar>
-24.1895

> <Gold.PLP.part.repulsive>
0.0153

> <Gold.PLP.ligand.clash>
0.0000

> <Gold.PLP.ligand.torsion>
0.9103

> <Gold.PLP.Chemscore.Hbond>
3.0080

> <Gold.PLP.Chemscore.CHOScore>
0.0000

> <Gold.PLP.Chemscore.Metal>
0.0000

> <Gold.Chemscore.Hbonds>
donor molecule, donor type, donor heavy atom, donor atom, acceptor molecule, acceptor atom, score
      L1  H    19    36       P1  7957  0.67
      P1  H  7989  7998       L1    19  0.37
      P1  H  7997  8008       L1     6  0.94
      P1  H  8011  8017       L1    19  0.89

> <Gold.PLP.Chemscore.Internal.Correction>
0.3235

> <Gold.Rescore>
     Score         DG    S(hbond)    S(metal)    S(lipo)     H(rot)  DE(clash)    DE(int)     intcor
     15.87     -17.06       1.89        0.00      82.43       1.72       0.20       0.99       ----

> <Gold.Chemscore.Fitness>
15.8690

> <Gold.Chemscore.DG>
-17.0600

> <Gold.Chemscore.ZeroCoef>
-5.4800

> <Gold.Chemscore.Hbond>
1.8950

> <Gold.Chemscore.Metal>
0.0000

> <Gold.Chemscore.Lipo>
82.4255

> <Gold.Chemscore.Internal_Hbond>
0.0000

> <Gold.Chemscore.DEClash>
0.1999

> <Gold.Chemscore.DEInternal>
0.9911

> <Gold.Chemscore.Rot>
1.7160

> <Gold.Chemscore.Internal.Correction>
   9.000000E+99

> <Gold.Chemscore.Hbonds>
donor molecule, donor type, donor heavy atom, donor atom, acceptor molecule, acceptor atom, score
      L1  H    19    36       P1  7957  0.66
      P1  H  7989  7998       L1    19  0.10
      P1  H  7997  8008       L1     6  0.16
      P1  H  8011  8017       L1    19  0.12

> <Gold.Chemscore.Hbond.Weighted>
-6.3292

> <Gold.Chemscore.Metal.Weighted>
-0.0000

> <Gold.Chemscore.Lipo.Weighted>
-9.6438

> <Gold.Chemscore.Internal_Hbond.Weighted>
0.0000

> <Gold.Chemscore.DEClash.Weighted>
0.1999

> <Gold.Chemscore.DEInternal.Weighted>
0.9911

> <Gold.Chemscore.Rot.Weighted>
4.3930

> <Gold.Chemscore.Internal.Correction.Weighted>
   9.000000E+99

> <Gold.Protein.RotatedTorsions>
[ 6907 6896 6895 6894 ] final   -8.38 input  -60.11 | X-H torsion
[ 7974 7965 7964 7962 ] final   32.38 input  175.53 | X-H torsion
[ 8008 7997 7996 7995 ] final -117.78 input   59.86 | X-H torsion
[ 10167 10162 10161 10158 ] final   22.88 input  -65.29 | X-H torsion
[ 10718 10713 10712 10709 ] final  -35.28 input   66.30 | X-H torsion
[ 10763 10752 10751 10750 ] final -131.35 input  -60.55 | X-H torsion
[ 11005 11000 10999 10996 ] final   56.72 input  -57.11 | X-H torsion

> <Gold.Protein.ActiveResidues>
 VAL166  LYS551  ARG553  GLY616  TRP617  ASP618  TYR619  PRO620  LYS621  CYS622 
 ASP623  PHE694  ASN695  SER759  ASP760  ASP761  ALA762  ILE779  LEU786  VAL792 
 PHE793  MET794  SER795  GLU796  ALA797  LYS798  CYS799  TRP800  GLU811  SER814 

> <Gold.Protein.RotatedAtoms>
  151.4345  135.1013  159.9651 H   0  0  0  0  0  0  0  0  0  0  0  0  # atno 6907 bound_to 6896
  152.4944  133.8586  159.7249 H   0  0  0  0  0  0  0  0  0  0  0  0  # atno 6908 bound_to 6896
  150.9131  133.6914  159.2877 H   0  0  0  0  0  0  0  0  0  0  0  0  # atno 6909 bound_to 6896
  146.1490  139.6533  142.9112 H   0  0  0  0  0  0  0  0  0  0  0  0  # atno 7974 bound_to 7965
  155.0892  140.0395  157.2663 H   0  0  0  0  0  0  0  0  0  0  0  0  # atno 8008 bound_to 7997
  154.6845  140.2640  155.6849 H   0  0  0  0  0  0  0  0  0  0  0  0  # atno 8009 bound_to 7997
  156.2707  140.2772  156.1402 H   0  0  0  0  0  0  0  0  0  0  0  0  # atno 8010 bound_to 7997
  140.5313  143.9836  150.6467 H   0  0  0  0  0  0  0  0  0  0  0  0  # atno 10167 bound_to 10162
  156.3406  130.4293  149.7791 H   0  0  0  0  0  0  0  0  0  0  0  0  # atno 10718 bound_to 10713
  154.8751  135.3833  154.4232 H   0  0  0  0  0  0  0  0  0  0  0  0  # atno 10763 bound_to 10752
  153.4933  135.7030  153.5877 H   0  0  0  0  0  0  0  0  0  0  0  0  # atno 10764 bound_to 10752
  153.4241  135.3894  155.2096 H   0  0  0  0  0  0  0  0  0  0  0  0  # atno 10765 bound_to 10752
  140.0507  134.5740  155.9267 H   0  0  0  0  0  0  0  0  0  0  0  0  # atno 11005 bound_to 11000
  145.4869  141.0438  143.2614 LP  0  0  0  0  0  0  0  0  0  0  0  0  # atno 17320 bound_to 7965
  144.7880  139.6386  143.7125 LP  0  0  0  0  0  0  0  0  0  0  0  0  # atno 17321 bound_to 7965
  140.3212  143.3136  152.0782 LP  0  0  0  0  0  0  0  0  0  0  0  0  # atno 17342 bound_to 10162
  139.4955  144.6572  151.6545 LP  0  0  0  0  0  0  0  0  0  0  0  0  # atno 17343 bound_to 10162
  156.5029  130.8137  151.3139 LP  0  0  0  0  0  0  0  0  0  0  0  0  # atno 17370 bound_to 10713
  157.7446  130.9939  150.2688 LP  0  0  0  0  0  0  0  0  0  0  0  0  # atno 17371 bound_to 10713
  141.1929  133.6577  156.5523 LP  0  0  0  0  0  0  0  0  0  0  0  0  # atno 17394 bound_to 11000
  140.3921  134.7431  157.4728 LP  0  0  0  0  0  0  0  0  0  0  0  0  # atno 17395 bound_to 11000

$$$$
