AV-unprocessed.smi:992|AV-procd|sdf|4333|dock1
  -GOLD-   22720 2233D 1   1.00000     0.00000
 Structure written by MMmdl.
 33 34  0  0  0  0  0  0  0  0  2 V2000
  153.3729  142.4724  160.8943 C   0  0  0  0  0  0  0  0  0  0  0  0
  152.4951  143.0638  159.7863 C   0  0  1  0  0  0  0  0  0  0  0  0
  152.0620  141.9999  158.7596 C   0  0  0  0  0  0  0  0  0  0  0  0
  151.1544  142.5875  157.7830 N   0  0  0  0  0  0  0  0  0  0  0  0
  150.8007  141.6998  156.7586 C   0  0  0  0  0  0  0  0  0  0  0  0
  151.3423  140.3988  156.6330 C   0  0  0  0  0  0  0  0  0  0  0  0
  150.9251  139.5766  155.5661 C   0  0  0  0  0  0  0  0  0  0  0  0
  149.9762  140.0678  154.6451 C   0  0  0  0  0  0  0  0  0  0  0  0
  149.5460  139.2769  153.5816 N   0  0  0  0  0  0  0  0  0  0  0  0
  149.4687  141.3722  154.8164 C   0  0  0  0  0  0  0  0  0  0  0  0
  149.8942  142.1286  155.8519 N   0  3  0  0  0  0  0  0  0  0  0  0
  150.0061  143.2314  158.4076 C   0  0  0  0  0  0  0  0  0  0  0  0
  150.4806  144.2714  159.4402 C   0  0  1  0  0  0  0  0  0  0  0  0
  149.3106  144.9095  160.1965 C   0  0  0  0  0  0  0  0  0  0  0  0
  151.3313  143.6285  160.3870 O   0  0  0  0  0  0  0  0  0  0  0  0
  154.2832  142.0360  160.4826 H   0  0  0  0  0  0  0  0  0  0  0  0
  152.8451  141.6915  161.4427 H   0  0  0  0  0  0  0  0  0  0  0  0
  153.6679  143.2406  161.6097 H   0  0  0  0  0  0  0  0  0  0  0  0
  153.0564  143.8535  159.2833 H   0  0  0  0  0  0  0  0  0  0  0  0
  152.9363  141.5924  158.2504 H   0  0  0  0  0  0  0  0  0  0  0  0
  151.5687  141.1705  159.2684 H   0  0  0  0  0  0  0  0  0  0  0  0
  152.0691  140.0309  157.3424 H   0  0  0  0  0  0  0  0  0  0  0  0
  151.3314  138.5813  155.4594 H   0  0  0  0  0  0  0  0  0  0  0  0
  149.8982  138.3403  153.4425 H   0  0  0  0  0  0  0  0  0  0  0  0
  148.8670  139.6115  152.9125 H   0  0  0  0  0  0  0  0  0  0  0  0
  148.7412  141.8328  154.1634 H   0  0  0  0  0  0  0  0  0  0  0  0
  149.3945  143.7133  157.6435 H   0  0  0  0  0  0  0  0  0  0  0  0
  149.3822  142.4810  158.8952 H   0  0  0  0  0  0  0  0  0  0  0  0
  151.0398  145.0619  158.9362 H   0  0  0  0  0  0  0  0  0  0  0  0
  148.6353  145.4243  159.5126 H   0  0  0  0  0  0  0  0  0  0  0  0
  149.6678  145.6407  160.9223 H   0  0  0  0  0  0  0  0  0  0  0  0
  148.7325  144.1592  160.7368 H   0  0  0  0  0  0  0  0  0  0  0  0
  149.5122  143.0691  155.9542 H   0  0  0  0  0  0  0  0  0  0  0  0
  1  2  1  0  0  0  0
  1 16  1  0  0  0  0
  1 17  1  0  0  0  0
  1 18  1  0  0  0  0
  2 15  1  0  0  0  0
  2  3  1  0  0  0  0
  2 19  1  0  0  0  0
  3  4  1  0  0  0  0
  3 20  1  0  0  0  0
  3 21  1  0  0  0  0
  4  5  1  0  0  0  0
  4 12  1  0  0  0  0
  5 11  1  0  0  0  0
  5  6  2  0  0  0  0
  6  7  1  0  0  0  0
  6 22  1  0  0  0  0
  7  8  2  0  0  0  0
  7 23  1  0  0  0  0
  8  9  1  0  0  0  0
  8 10  1  0  0  0  0
  9 24  1  0  0  0  0
  9 25  1  0  0  0  0
 10 11  2  0  0  0  0
 10 26  1  0  0  0  0
 11 33  1  0  0  0  0
 12 13  1  0  0  0  0
 12 27  1  0  0  0  0
 12 28  1  0  0  0  0
 13 14  1  0  0  0  0
 13 15  1  0  0  0  0
 13 29  1  0  0  0  0
 14 30  1  0  0  0  0
 14 31  1  0  0  0  0
 14 32  1  0  0  0  0
M  CHG  1  11   1
M  END
> <s_m_source_file>
AV-unprocessed.smi

> <i_m_source_file_index>
992

> <i_lp_mmshare_version>
43012

> <i_f3d_flags>
0

> <s_epik_input>
W0NIM11bQ0BASF0xW0NIMl1OKFtDSDJdW0NASF0oTzEpW0NIM10pYzJbY0hdW2NIXWMoW05IMl0pW2NIXW4y

> <s_epik_cmdline>
J2VwaWtfcHl0aG9uJywgJy1waCcsICc3LjAnLCAnLXRuJywgJzgnLCAnLW1hJywgJzIwMCcsICctbWV0YWxfYmluZGluZycsICctaW1hZScsICc8aW5maWxlLm1hZT4nLCAnLW9tYWUnLCAnPG91dGZpbGUubWFlPic=

> <r_lp_tautomer_probability>
0.999846

> <r_epik_Ionization_Penalty>
2.28753

> <r_epik_Ionization_Penalty_Charging>
2.28753

> <r_epik_Ionization_Penalty_Neutral>
1.09395e-07

> <r_epik_State_Penalty>
2.43729

> <r_epik_Charging_Adjusted_Penalty>
4.72482

> <i_epik_Tot_Q>
1

> <i_epik_Tot_abs_Q>
1

> <r_epik_Metal_State_Penalty>
6.52028

> <b_epik_Metal_Only>
0

> <s_lp_Force_Field>
OPLS_2005

> <r_lp_Energy>
24.8857

> <b_lp_Chiralities_Consistent>
1

> <s_lp_Variant>
AV-unprocessed.smi:992-5

> <Gold.Version>
5.8.1

> <Gold.Id.Protein>
6NUR|6NUR_protein|mol2

> <Gold.PLP.Fitness>
39.3624

> <Gold.PLP.PLP>
-32.6712

> <Gold.PLP.part.hbond>
-2.0780

> <Gold.PLP.part.metal>
0.0000

> <Gold.PLP.part.buried>
-4.1448

> <Gold.PLP.part.nonpolar>
-26.1976

> <Gold.PLP.part.repulsive>
0.4329

> <Gold.PLP.ligand.clash>
0.0000

> <Gold.PLP.ligand.torsion>
0.1788

> <Gold.PLP.Chemscore.Hbond>
2.3200

> <Gold.PLP.Chemscore.CHOScore>
0.0000

> <Gold.PLP.Chemscore.Metal>
0.0000

> <Gold.Chemscore.Hbonds>
donor molecule, donor type, donor heavy atom, donor atom, acceptor molecule, acceptor atom, score
      L1  H     9    25       P1  7957  0.29
      L1  H    11    33       P1  8028  2.00

> <Gold.PLP.Chemscore.Internal.Correction>
0.0888

> <Gold.Rescore>
     Score         DG    S(hbond)    S(metal)    S(lipo)     H(rot)  DE(clash)    DE(int)     intcor
     17.39     -17.60       1.56        0.00      81.09       1.00       0.13       0.09       ----

> <Gold.Chemscore.Fitness>
17.3862

> <Gold.Chemscore.DG>
-17.6033

> <Gold.Chemscore.ZeroCoef>
-5.4800

> <Gold.Chemscore.Hbond>
1.5556

> <Gold.Chemscore.Metal>
0.0000

> <Gold.Chemscore.Lipo>
81.0907

> <Gold.Chemscore.Internal_Hbond>
0.0000

> <Gold.Chemscore.DEClash>
0.1313

> <Gold.Chemscore.DEInternal>
0.0858

> <Gold.Chemscore.Rot>
1.0000

> <Gold.Chemscore.Internal.Correction>
   9.000000E+99

> <Gold.Chemscore.Hbonds>
donor molecule, donor type, donor heavy atom, donor atom, acceptor molecule, acceptor atom, score
      L1  H     9    25       P1  7957  0.30
      L1  H    11    33       P1  8028  1.00

> <Gold.Chemscore.Hbond.Weighted>
-5.1957

> <Gold.Chemscore.Metal.Weighted>
-0.0000

> <Gold.Chemscore.Lipo.Weighted>
-9.4876

> <Gold.Chemscore.Internal_Hbond.Weighted>
0.0000

> <Gold.Chemscore.DEClash.Weighted>
0.1313

> <Gold.Chemscore.DEInternal.Weighted>
0.0858

> <Gold.Chemscore.Rot.Weighted>
2.5600

> <Gold.Chemscore.Internal.Correction.Weighted>
   9.000000E+99

> <Gold.Protein.RotatedTorsions>
[ 6907 6896 6895 6894 ] final  156.92 input  -60.11 | X-H torsion
[ 7974 7965 7964 7962 ] final  159.20 input  175.53 | X-H torsion
[ 8008 7997 7996 7995 ] final  145.00 input   59.86 | X-H torsion
[ 10167 10162 10161 10158 ] final  -73.51 input  -65.29 | X-H torsion
[ 10718 10713 10712 10709 ] final -176.75 input   66.30 | X-H torsion
[ 10763 10752 10751 10750 ] final -140.04 input  -60.55 | X-H torsion
[ 11005 11000 10999 10996 ] final  168.48 input  -57.11 | X-H torsion

> <Gold.Protein.ActiveResidues>
 VAL166  LYS551  ARG553  GLY616  TRP617  ASP618  TYR619  PRO620  LYS621  CYS622 
 ASP623  PHE694  ASN695  SER759  ASP760  ASP761  ALA762  ILE779  LEU786  VAL792 
 PHE793  MET794  SER795  GLU796  ALA797  LYS798  CYS799  TRP800  GLU811  SER814 

> <Gold.Protein.RotatedAtoms>
  152.0226  133.3905  159.4264 H   0  0  0  0  0  0  0  0  0  0  0  0  # atno 6907 bound_to 6896
  150.6889  134.3609  159.4959 H   0  0  0  0  0  0  0  0  0  0  0  0  # atno 6908 bound_to 6896
  152.1384  134.9081  160.0606 H   0  0  0  0  0  0  0  0  0  0  0  0  # atno 6909 bound_to 6896
  144.7803  139.7584  143.6262 H   0  0  0  0  0  0  0  0  0  0  0  0  # atno 7974 bound_to 7965
  156.2894  140.2221  156.5144 H   0  0  0  0  0  0  0  0  0  0  0  0  # atno 8008 bound_to 7997
  154.7582  140.0475  157.0972 H   0  0  0  0  0  0  0  0  0  0  0  0  # atno 8009 bound_to 7997
  155.0024  140.3103  155.4865 H   0  0  0  0  0  0  0  0  0  0  0  0  # atno 8010 bound_to 7997
  140.5104  143.2346  151.7602 H   0  0  0  0  0  0  0  0  0  0  0  0  # atno 10167 bound_to 10162
  156.8192  130.9614  151.3112 H   0  0  0  0  0  0  0  0  0  0  0  0  # atno 10718 bound_to 10713
  154.8591  135.3564  154.5644 H   0  0  0  0  0  0  0  0  0  0  0  0  # atno 10763 bound_to 10752
  153.6258  135.7004  153.5298 H   0  0  0  0  0  0  0  0  0  0  0  0  # atno 10764 bound_to 10752
  153.3090  135.4184  155.1279 H   0  0  0  0  0  0  0  0  0  0  0  0  # atno 10765 bound_to 10752
  140.2877  134.7698  157.3812 H   0  0  0  0  0  0  0  0  0  0  0  0  # atno 11005 bound_to 11000
  146.2008  139.5301  142.9745 LP  0  0  0  0  0  0  0  0  0  0  0  0  # atno 17320 bound_to 7965
  145.6068  141.0346  143.1988 LP  0  0  0  0  0  0  0  0  0  0  0  0  # atno 17321 bound_to 7965
  139.4894  144.4398  151.9777 LP  0  0  0  0  0  0  0  0  0  0  0  0  # atno 17342 bound_to 10162
  140.3490  144.3112  150.5953 LP  0  0  0  0  0  0  0  0  0  0  0  0  # atno 17343 bound_to 10162
  157.6465  130.8849  149.9549 LP  0  0  0  0  0  0  0  0  0  0  0  0  # atno 17370 bound_to 10713
  156.0998  130.3656  150.0238 LP  0  0  0  0  0  0  0  0  0  0  0  0  # atno 17371 bound_to 10713
  140.1224  134.5202  155.8173 LP  0  0  0  0  0  0  0  0  0  0  0  0  # atno 17394 bound_to 11000
  141.2152  133.6761  156.6890 LP  0  0  0  0  0  0  0  0  0  0  0  0  # atno 17395 bound_to 11000

$$$$
