#       Name:                AV-unprocessed.smi:1912
#       Creating user name   scv26
#       Creation time:       Fri Mar 27 09:48:44 2020


#       File generated by GOLD software.
#

@<TRIPOS>MOLECULE
AV-unprocessed.smi:1912
    50    52     1
SMALL
NO_CHARGES


@<TRIPOS>ATOM
      1 ****        -4.0615  -3.0791  -1.1584 C.3            1 S1                 0.0000
      2 ****        -4.6570  -1.8387  -0.8062 O.3            1 S1                 0.0000
      3 ****        -3.8294  -0.7558  -0.5990 C.ar           1 S1                 0.0000
      4 ****        -4.4422   0.4575  -0.2357 C.ar           1 S1                 0.0000
      5 ****        -3.6737   1.6103   0.0068 C.ar           1 S1                 0.0000
      6 ****        -2.2628   1.5765  -0.1162 C.ar           1 S1                 0.0000
      7 ****        -1.4537   2.6687   0.1253 O.3            1 S1                 0.0000
      8 ****        -2.0606   3.8856   0.5327 C.3            1 S1                 0.0000
      9 ****        -1.6388   0.3636  -0.4983 C.ar           1 S1                 0.0000
     10 ****        -0.1197   0.3004  -0.6339 C.3            1 S1                 0.0000
     11 ****         0.3123  -0.6166  -1.6223 O.3            1 S1                 0.0000
     12 ****         0.5426  -0.0357   0.7167 C.3            1 S1                 0.0000
     13 ****         1.9942   0.0683   0.6721 N.pl3          1 S1                 0.0000
     14 ****         2.7527   1.1769   0.8552 C.2            1 S1                 0.0000
     15 ****         2.1427   2.5113   1.1500 C.3            1 S1                 0.0000
     16 ****         4.0708   1.0020   0.7606 N.2            1 S1                 0.0000
     17 ****         4.1783  -0.3496   0.4940 C.ar           1 S1                 0.0000
     18 ****         5.3199  -1.1567   0.2874 C.ar           1 S1                 0.0000
     19 ****         5.1814  -2.5362   0.0277 C.ar           1 S1                 0.0000
     20 ****         3.9024  -3.1268  -0.0305 C.ar           1 S1                 0.0000
     21 ****         2.7518  -2.3406   0.1715 C.ar           1 S1                 0.0000
     22 ****         2.8953  -0.9646   0.4323 C.ar           1 S1                 0.0000
     23 ****        -2.4198  -0.7927  -0.7259 C.ar           1 S1                 0.0000
     24 ****        -4.8412  -3.8310  -1.2795 H              1 S1                 0.0000
     25 ****        -3.3832  -3.4313  -0.3800 H              1 S1                 0.0000
     26 ****        -3.5220  -3.0083  -2.1038 H              1 S1                 0.0000
     27 ****        -5.5167   0.5042  -0.1347 H              1 S1                 0.0000
     28 ****        -4.1953   2.5114   0.2905 H              1 S1                 0.0000
     29 ****        -1.2864   4.6365   0.6903 H              1 S1                 0.0000
     30 ****        -2.6007   3.7673   1.4730 H              1 S1                 0.0000
     31 ****        -2.7397   4.2676  -0.2306 H              1 S1                 0.0000
     32 ****         0.2341   1.2736  -0.9736 H              1 S1                 0.0000
     33 ****        -0.0080  -0.3240  -2.4618 H              1 S1                 0.0000
     34 ****         0.1732   0.6328   1.4947 H              1 S1                 0.0000
     35 ****         0.2701  -1.0433   1.0335 H              1 S1                 0.0000
     36 ****         2.9168   3.2742   1.2404 H              1 S1                 0.0000
     37 ****         1.5880   2.4747   2.0876 H              1 S1                 0.0000
     38 ****         1.4646   2.8063   0.3496 H              1 S1                 0.0000
     39 ****         6.3039  -0.7136   0.3293 H              1 S1                 0.0000
     40 ****         6.0607  -3.1440  -0.1280 H              1 S1                 0.0000
     41 ****         3.8048  -4.1838  -0.2307 H              1 S1                 0.0000
     42 ****         1.7707  -2.7892   0.1242 H              1 S1                 0.0000
     43 ****        -1.9180  -1.7093  -0.9952 H              1 S1                 0.0000
     44 ****        -5.1708  -1.9855   0.0390 LP             1 S1                 0.0000
     45 ****        -5.2885  -1.5932  -1.5418 LP             1 S1                 0.0000
     46 ****        -0.9527   2.8572  -0.7194 LP             1 S1                 0.0000
     47 ****        -0.8094   2.4055   0.8433 LP             1 S1                 0.0000
     48 ****        -0.0510  -1.5262  -1.4208 LP             1 S1                 0.0000
     49 ****         1.3115  -0.6523  -1.6360 LP             1 S1                 0.0000
     50 ****         4.7997   1.6796   0.8582 LP             1 S1                 0.0000
@<TRIPOS>BOND
    1    1    2 1     
    2    1   24 1     
    3    1   25 1     
    4    1   26 1     
    5    2    3 1     
    6    3   23 ar    
    7    3    4 ar    
    8    4    5 ar    
    9    4   27 1     
   10    5    6 ar    
   11    5   28 1     
   12    6    7 1     
   13    6    9 ar    
   14    7    8 1     
   15    8   29 1     
   16    8   30 1     
   17    8   31 1     
   18    9   10 1     
   19    9   23 ar    
   20   10   11 1     
   21   10   12 1     
   22   10   32 1     
   23   11   33 1     
   24   12   13 1     
   25   12   34 1     
   26   12   35 1     
   27   13   22 1     
   28   13   14 1     
   29   14   15 1     
   30   14   16 2     
   31   15   36 1     
   32   15   37 1     
   33   15   38 1     
   34   16   17 1     
   35   17   22 ar    
   36   17   18 ar    
   37   18   19 ar    
   38   18   39 1     
   39   19   20 ar    
   40   19   40 1     
   41   20   21 ar    
   42   20   41 1     
   43   21   22 ar    
   44   21   42 1     
   45   23   43 1     
   46    2   44 1     
   47    2   45 1     
   48    7   46 1     
   49    7   47 1     
   50   11   48 1     
   51   11   49 1     
   52   16   50 1     
@<TRIPOS>SUBSTRUCTURE
      1 S1             1
@<TRIPOS>SET
LONE_PAIRS      STATIC     ATOMS    <user>   **** ""
7 44 45 46 47 48 49 50
DONOR_HYDROGENS      STATIC     ATOMS    <user>   **** ""
1 33
ATOM$BLUE        STATIC     ATOMS    COLORGROUP SYSTEM
7 44 45 46 47 48 49 50
ATOM$RED        STATIC     ATOMS    COLORGROUP SYSTEM
1 33
