#       Name:                AV-unprocessed.smi:2724
#       Creating user name   scv26
#       Creation time:       Fri Mar 27 14:55:17 2020


#       File generated by GOLD software.
#

@<TRIPOS>MOLECULE
AV-unprocessed.smi:2724
    28    29     1
SMALL
NO_CHARGES


@<TRIPOS>ATOM
      1 ****        -1.2001   1.6041   1.2368 O.3            1 S1                 0.0000
      2 ****         0.2042   1.4587   1.1509 C.3            1 S1                 0.0000
      3 ****         0.7957   0.7154   2.3485 C.3            1 S1                 0.0000
      4 ****         2.1638   0.2657   1.8414 C.3            1 S1                 0.0000
      5 ****         1.9195  -0.1312   0.3823 C.3            1 S1                 0.0000
      6 ****         0.7227   0.7155  -0.1044 C.3            1 S1                 0.0000
      7 ****        -0.3187  -0.1204  -0.8470 C.ar           1 S1                 0.0000
      8 ****        -0.6132   0.1481  -2.2033 C.ar           1 S1                 0.0000
      9 ****        -1.5774  -0.6328  -2.8741 C.ar           1 S1                 0.0000
     10 ****        -2.2296  -1.6684  -2.1752 C.ar           1 S1                 0.0000
     11 ****        -1.9240  -1.9000  -0.8802 N.pl3          1 S1                 1.0000
     12 ****        -1.0059  -1.1761  -0.2037 C.ar           1 S1                 0.0000
     13 ****        -1.4900   2.1556   0.5259 H              1 S1                 0.0000
     14 ****         0.6319   2.4625   1.1501 H              1 S1                 0.0000
     15 ****         0.8630   1.3403   3.2398 H              1 S1                 0.0000
     16 ****         0.1890  -0.1566   2.5962 H              1 S1                 0.0000
     17 ****         2.8631   1.1020   1.8834 H              1 S1                 0.0000
     18 ****         2.5837  -0.5485   2.4327 H              1 S1                 0.0000
     19 ****         2.8052   0.0125  -0.2373 H              1 S1                 0.0000
     20 ****         1.6821  -1.1952   0.3494 H              1 S1                 0.0000
     21 ****         1.0946   1.4705  -0.7989 H              1 S1                 0.0000
     22 ****        -0.1068   0.9441  -2.7299 H              1 S1                 0.0000
     23 ****        -1.8134  -0.4393  -3.9104 H              1 S1                 0.0000
     24 ****        -2.9801  -2.3130  -2.6091 H              1 S1                 0.0000
     25 ****        -0.8527  -1.4592   0.8274 H              1 S1                 0.0000
     26 ****        -2.4074  -2.6539  -0.3911 H              1 S1                 0.0000
     27 ****        -1.4424   2.0256   2.1106 LP             1 S1                 0.0000
     28 ****        -1.6366   0.7071   1.1670 LP             1 S1                 0.0000
@<TRIPOS>BOND
    1    1    2 1     
    2    1   13 1     
    3    2    6 1     
    4    2    3 1     
    5    2   14 1     
    6    3    4 1     
    7    3   15 1     
    8    3   16 1     
    9    4    5 1     
   10    4   17 1     
   11    4   18 1     
   12    5    6 1     
   13    5   19 1     
   14    5   20 1     
   15    6    7 1     
   16    6   21 1     
   17    7   12 ar    
   18    7    8 ar    
   19    8    9 ar    
   20    8   22 1     
   21    9   10 ar    
   22    9   23 1     
   23   10   11 ar    
   24   10   24 1     
   25   11   12 ar    
   26   11   26 1     
   27   12   25 1     
   28    1   27 1     
   29    1   28 1     
@<TRIPOS>SUBSTRUCTURE
      1 S1             1
@<TRIPOS>SET
LONE_PAIRS      STATIC     ATOMS    <user>   **** ""
2 27 28
DONOR_HYDROGENS      STATIC     ATOMS    <user>   **** ""
2 13 26
ATOM$BLUE        STATIC     ATOMS    COLORGROUP SYSTEM
2 27 28
ATOM$RED        STATIC     ATOMS    COLORGROUP SYSTEM
2 13 26
