AV-unprocessed.smi:561|AV-procd|sdf|2943|dock3
  -GOLD-   2262023443D 1   1.00000     0.00000
 Structure written by MMmdl.
 35 36  0  0  0  0  0  0  0  0  2 V2000
  151.5149  138.0683  154.1934 C   0  0  0  0  0  0  0  0  0  0  0  0
  150.7496  139.3271  154.6260 C   0  0  1  0  0  0  0  0  0  0  0  0
  149.2288  139.1772  154.3751 C   0  0  0  0  0  0  0  0  0  0  0  0
  148.5230  140.4444  154.2148 N   0  0  0  0  0  0  0  0  0  0  0  0
  147.1917  140.6251  153.8529 C   0  0  0  0  0  0  0  0  0  0  0  0
  146.9732  141.9832  153.8099 C   0  0  0  0  0  0  0  0  0  0  0  0
  148.1493  142.6581  154.1276 N   0  0  0  0  0  0  0  0  0  0  0  0
  149.0212  141.6833  154.3534 C   0  0  0  0  0  0  0  0  0  0  0  0
  150.9902  139.5623  156.0538 N   0  5  0  0  0  0  0  0  0  0  0  0
  152.2120  139.5669  156.6629 C   0  0  0  0  0  0  0  0  0  0  0  0
  153.2283  138.9772  156.2715 O   0  0  0  0  0  0  0  0  0  0  0  0
  152.3554  140.3598  157.9190 C   0  0  0  0  0  0  0  0  0  0  0  0
  153.4420  140.2373  158.6153 N   0  0  0  0  0  0  0  0  0  0  0  0
  153.6450  140.9209  159.7966 N   0  0  0  0  0  0  0  0  0  0  0  0
  154.7909  140.4340  160.5644 C   0  0  0  0  0  0  0  0  0  0  0  0
  152.8861  141.9641  160.2198 C   0  0  0  0  0  0  0  0  0  0  0  0
  153.0595  142.5586  161.2839 O   0  0  0  0  0  0  0  0  0  0  0  0
  151.7725  142.4239  159.2751 C   0  0  0  0  0  0  0  0  0  0  0  0
  151.2412  141.2767  158.3948 C   0  0  0  0  0  0  0  0  0  0  0  0
  151.3622  137.8632  153.1337 H   0  0  0  0  0  0  0  0  0  0  0  0
  151.1887  137.1901  154.7519 H   0  0  0  0  0  0  0  0  0  0  0  0
  152.5873  138.1864  154.3520 H   0  0  0  0  0  0  0  0  0  0  0  0
  151.1042  140.1525  154.0063 H   0  0  0  0  0  0  0  0  0  0  0  0
  149.0622  138.5889  153.4718 H   0  0  0  0  0  0  0  0  0  0  0  0
  148.7607  138.6224  155.1896 H   0  0  0  0  0  0  0  0  0  0  0  0
  146.5299  139.7915  153.6696 H   0  0  0  0  0  0  0  0  0  0  0  0
  146.0678  142.5220  153.5726 H   0  0  0  0  0  0  0  0  0  0  0  0
  150.0486  141.8733  154.6268 H   0  0  0  0  0  0  0  0  0  0  0  0
  154.9883  141.0038  161.4732 H   0  0  0  0  0  0  0  0  0  0  0  0
  155.6944  140.4725  159.9547 H   0  0  0  0  0  0  0  0  0  0  0  0
  154.6294  139.3961  160.8580 H   0  0  0  0  0  0  0  0  0  0  0  0
  150.9580  142.8741  159.8435 H   0  0  0  0  0  0  0  0  0  0  0  0
  152.1852  143.2097  158.6411 H   0  0  0  0  0  0  0  0  0  0  0  0
  150.7151  141.7215  157.5493 H   0  0  0  0  0  0  0  0  0  0  0  0
  150.5032  140.6917  158.9446 H   0  0  0  0  0  0  0  0  0  0  0  0
  1  2  1  0  0  0  0
  1 20  1  0  0  0  0
  1 21  1  0  0  0  0
  1 22  1  0  0  0  0
  2  3  1  0  0  0  0
  2  9  1  0  0  0  0
  2 23  1  0  0  0  0
  3  4  1  0  0  0  0
  3 24  1  0  0  0  0
  3 25  1  0  0  0  0
  4  8  1  0  0  0  0
  4  5  1  0  0  0  0
  5  6  2  0  0  0  0
  5 26  1  0  0  0  0
  6  7  1  0  0  0  0
  6 27  1  0  0  0  0
  7  8  2  0  0  0  0
  8 28  1  0  0  0  0
  9 10  1  0  0  0  0
 10 11  2  0  0  0  0
 10 12  1  0  0  0  0
 12 19  1  0  0  0  0
 12 13  2  0  0  0  0
 13 14  1  0  0  0  0
 14 15  1  0  0  0  0
 14 16  1  0  0  0  0
 15 29  1  0  0  0  0
 15 30  1  0  0  0  0
 15 31  1  0  0  0  0
 16 17  2  0  0  0  0
 16 18  1  0  0  0  0
 18 19  1  0  0  0  0
 18 32  1  0  0  0  0
 18 33  1  0  0  0  0
 19 34  1  0  0  0  0
 19 35  1  0  0  0  0
M  CHG  1   9  -1
M  END
> <s_m_source_file>
AV-unprocessed.smi

> <i_m_source_file_index>
561

> <i_lp_mmshare_version>
43012

> <i_f3d_flags>
0

> <s_epik_input>
W2NIXTFuW2NIXVtjSF1uMVtDSDJdW0NAQEhdKFtDSDNdKVtOSF1DKD1PKUMyPU5OKFtDSDNdKUMoPU8pW0NIMl1bQ0gyXTI=

> <s_epik_cmdline>
J2VwaWtfcHl0aG9uJywgJy1waCcsICc3LjAnLCAnLXRuJywgJzgnLCAnLW1hJywgJzIwMCcsICctbWV0YWxfYmluZGluZycsICctaW1hZScsICc8aW5maWxlLm1hZT4nLCAnLW9tYWUnLCAnPG91dGZpbGUubWFlPic=

> <r_lp_tautomer_probability>
1

> <r_epik_Ionization_Penalty>
6.06239

> <r_epik_Ionization_Penalty_Charging>
6.06239

> <r_epik_Ionization_Penalty_Neutral>
3.91387e-09

> <r_epik_State_Penalty>
5.76729

> <r_epik_Charging_Adjusted_Penalty>
11.8297

> <i_epik_Tot_Q>
-1

> <i_epik_Tot_abs_Q>
1

> <r_epik_Metal_State_Penalty>
2.02369

> <b_epik_Metal_Only>
1

> <s_epik_Chemistry_Notes>
This compound has an imine and may undergo hydrolysis.

> <s_lp_Force_Field>
OPLS_2005

> <r_lp_Energy>
27.3289

> <b_lp_Chiralities_Consistent>
1

> <s_lp_Variant>
AV-unprocessed.smi:561-8

> <Gold.Version>
5.8.1

> <Gold.Id.Protein>
6NUR|6NUR_protein|mol2

> <Gold.PLP.Fitness>
40.5830

> <Gold.PLP.PLP>
-36.8086

> <Gold.PLP.part.hbond>
-3.8930

> <Gold.PLP.part.metal>
0.0000

> <Gold.PLP.part.buried>
-0.3526

> <Gold.PLP.part.nonpolar>
-33.1341

> <Gold.PLP.part.repulsive>
3.6721

> <Gold.PLP.ligand.clash>
0.0000

> <Gold.PLP.ligand.torsion>
0.5683

> <Gold.PLP.Chemscore.Hbond>
1.6225

> <Gold.PLP.Chemscore.CHOScore>
0.0000

> <Gold.PLP.Chemscore.Metal>
0.0000

> <Gold.Chemscore.Hbonds>
donor molecule, donor type, donor heavy atom, donor atom, acceptor molecule, acceptor atom, score
      P1  H  7997  8008       L1    11  0.21
      P1  H  7997  8010       L1    13  0.69
      P1  H  8022  8030       L1     7  0.56

> <Gold.PLP.Chemscore.Internal.Correction>
0.0434

> <Gold.Rescore>
     Score         DG    S(hbond)    S(metal)    S(lipo)     H(rot)  DE(clash)    DE(int)     intcor
      8.87     -13.02       1.22        0.00      66.29       1.68       2.30       1.86       ----

> <Gold.Chemscore.Fitness>
8.8665

> <Gold.Chemscore.DG>
-13.0170

> <Gold.Chemscore.ZeroCoef>
-5.4800

> <Gold.Chemscore.Hbond>
1.2217

> <Gold.Chemscore.Metal>
0.0000

> <Gold.Chemscore.Lipo>
66.2921

> <Gold.Chemscore.Internal_Hbond>
0.0000

> <Gold.Chemscore.DEClash>
2.2954

> <Gold.Chemscore.DEInternal>
1.8551

> <Gold.Chemscore.Rot>
1.6796

> <Gold.Chemscore.Internal.Correction>
   9.000000E+99

> <Gold.Chemscore.Hbonds>
donor molecule, donor type, donor heavy atom, donor atom, acceptor molecule, acceptor atom, score
      P1  H  7997  8008       L1    11  0.18
      P1  H  7997  8010       L1    13  0.38
      P1  H  8022  8030       L1     7  0.52

> <Gold.Chemscore.Hbond.Weighted>
-4.0805

> <Gold.Chemscore.Metal.Weighted>
-0.0000

> <Gold.Chemscore.Lipo.Weighted>
-7.7562

> <Gold.Chemscore.Internal_Hbond.Weighted>
0.0000

> <Gold.Chemscore.DEClash.Weighted>
2.2954

> <Gold.Chemscore.DEInternal.Weighted>
1.8551

> <Gold.Chemscore.Rot.Weighted>
4.2997

> <Gold.Chemscore.Internal.Correction.Weighted>
   9.000000E+99

> <Gold.Protein.RotatedTorsions>
[ 6907 6896 6895 6894 ] final  157.84 input  -60.11 | X-H torsion
[ 7974 7965 7964 7962 ] final   15.63 input  175.53 | X-H torsion
[ 8008 7997 7996 7995 ] final    6.01 input   59.86 | X-H torsion
[ 10167 10162 10161 10158 ] final -106.20 input  -65.29 | X-H torsion
[ 10718 10713 10712 10709 ] final  164.68 input   66.30 | X-H torsion
[ 10763 10752 10751 10750 ] final   28.92 input  -60.55 | X-H torsion
[ 11005 11000 10999 10996 ] final   57.65 input  -57.11 | X-H torsion

> <Gold.Protein.ActiveResidues>
 VAL166  LYS551  ARG553  GLY616  TRP617  ASP618  TYR619  PRO620  LYS621  CYS622 
 ASP623  PHE694  ASN695  SER759  ASP760  ASP761  ALA762  ILE779  LEU786  VAL792 
 PHE793  MET794  SER795  GLU796  ALA797  LYS798  CYS799  TRP800  GLU811  SER814 

> <Gold.Protein.RotatedAtoms>
  152.0092  133.3855  159.4212 H   0  0  0  0  0  0  0  0  0  0  0  0  # atno 6907 bound_to 6896
  150.6901  134.3749  159.5017 H   0  0  0  0  0  0  0  0  0  0  0  0  # atno 6908 bound_to 6896
  152.1507  134.8990  160.0599 H   0  0  0  0  0  0  0  0  0  0  0  0  # atno 6909 bound_to 6896
  146.2273  139.8866  142.8562 H   0  0  0  0  0  0  0  0  0  0  0  0  # atno 7974 bound_to 7965
  154.7355  140.2739  155.6418 H   0  0  0  0  0  0  0  0  0  0  0  0  # atno 8008 bound_to 7997
  156.2861  140.2707  156.1993 H   0  0  0  0  0  0  0  0  0  0  0  0  # atno 8009 bound_to 7997
  155.0325  140.0371  157.2469 H   0  0  0  0  0  0  0  0  0  0  0  0  # atno 8010 bound_to 7997
  140.1904  143.3897  152.1211 H   0  0  0  0  0  0  0  0  0  0  0  0  # atno 10167 bound_to 10162
  157.0909  131.0417  151.2537 H   0  0  0  0  0  0  0  0  0  0  0  0  # atno 10718 bound_to 10713
  153.0462  135.6501  154.0812 H   0  0  0  0  0  0  0  0  0  0  0  0  # atno 10763 bound_to 10752
  154.0509  135.2895  155.3342 H   0  0  0  0  0  0  0  0  0  0  0  0  # atno 10764 bound_to 10752
  154.6720  135.5352  153.8217 H   0  0  0  0  0  0  0  0  0  0  0  0  # atno 10765 bound_to 10752
  140.0436  134.5837  155.9350 H   0  0  0  0  0  0  0  0  0  0  0  0  # atno 11005 bound_to 11000
  145.2459  141.0026  143.3909 LP  0  0  0  0  0  0  0  0  0  0  0  0  # atno 17320 bound_to 7965
  144.9414  139.4185  143.6447 LP  0  0  0  0  0  0  0  0  0  0  0  0  # atno 17321 bound_to 7965
  139.5258  144.7101  151.5234 LP  0  0  0  0  0  0  0  0  0  0  0  0  # atno 17342 bound_to 10162
  140.6460  143.8794  150.6737 LP  0  0  0  0  0  0  0  0  0  0  0  0  # atno 17343 bound_to 10162
  157.4722  130.7715  149.7334 LP  0  0  0  0  0  0  0  0  0  0  0  0  # atno 17370 bound_to 10713
  155.9898  130.3949  150.3056 LP  0  0  0  0  0  0  0  0  0  0  0  0  # atno 17371 bound_to 10713
  141.1896  133.6566  156.5374 LP  0  0  0  0  0  0  0  0  0  0  0  0  # atno 17394 bound_to 11000
  140.4029  134.7341  157.4790 LP  0  0  0  0  0  0  0  0  0  0  0  0  # atno 17395 bound_to 11000

$$$$
