AV-unprocessed.smi:110|AV-procd|sdf|1068|dock2
  -GOLD-   2262018153D 1   1.00000     0.00000
 Structure written by MMmdl.
 46 50  0  0  0  0  0  0  0  0  1 V2000
  152.5607  132.4757  157.8556 O   0  0  0  0  0  0  0  0  0  0  0  0
  151.6245  132.3046  156.8129 C   0  0  0  0  0  0  0  0  0  0  0  0
  151.1462  133.6744  156.3003 C   0  0  2  0  0  0  0  0  0  0  0  0
  150.4880  134.4100  157.3309 O   0  0  0  0  0  0  0  0  0  0  0  0
  149.5238  135.2632  156.7886 C   0  0  1  0  0  0  0  0  0  0  0  0
  149.8595  136.6854  157.1264 N   0  0  0  0  0  0  0  0  0  0  0  0
  149.0093  137.6314  157.6522 C   0  0  0  0  0  0  0  0  0  0  0  0
  149.5382  138.8054  157.8617 N   0  0  0  0  0  0  0  0  0  0  0  0
  150.8617  138.6614  157.4634 C   0  0  0  0  0  0  0  0  0  0  0  0
  151.9900  139.5298  157.4185 C   0  0  0  0  0  0  0  0  0  0  0  0
  151.9821  140.8219  157.8212 N   0  0  0  0  0  0  0  0  0  0  0  0
  151.1411  141.7953  157.1097 C   0  0  0  0  0  0  0  0  0  0  0  0
  150.9694  143.0200  158.0286 C   0  0  0  0  0  0  0  0  0  0  0  0
  151.8647  142.6504  159.1672 C   0  0  0  0  0  0  0  0  0  0  0  0
  152.1733  143.4290  160.2961 C   0  0  0  0  0  0  0  0  0  0  0  0
  153.0684  142.8948  161.2477 C   0  0  0  0  0  0  0  0  0  0  0  0
  153.6397  141.6157  161.0529 C   0  0  0  0  0  0  0  0  0  0  0  0
  153.3164  140.8520  159.9098 C   0  0  0  0  0  0  0  0  0  0  0  0
  152.4036  141.3821  158.9745 C   0  0  0  0  0  0  0  0  0  0  0  0
  153.1401  139.0404  156.8902 N   0  0  0  0  0  0  0  0  0  0  0  0
  153.2006  137.7727  156.4743 C   0  0  0  0  0  0  0  0  0  0  0  0
  152.2410  136.8467  156.4831 N   0  0  0  0  0  0  0  0  0  0  0  0
  151.0704  137.3365  156.9835 C   0  0  0  0  0  0  0  0  0  0  0  0
  149.4452  134.9927  155.2724 C   0  0  1  0  0  0  0  0  0  0  0  0
  150.1230  135.9515  154.4795 O   0  0  0  0  0  0  0  0  0  0  0  0
  150.1176  133.6333  155.1615 C   0  0  2  0  0  0  0  0  0  0  0  0
  149.1747  132.5945  155.3591 O   0  0  0  0  0  0  0  0  0  0  0  0
  152.0013  134.2520  155.9475 H   0  0  0  0  0  0  0  0  0  0  0  0
  148.5756  135.0795  157.2954 H   0  0  0  0  0  0  0  0  0  0  0  0
  148.4014  134.9713  154.9564 H   0  0  0  0  0  0  0  0  0  0  0  0
  150.5904  133.4780  154.1906 H   0  0  0  0  0  0  0  0  0  0  0  0
  153.3228  132.9124  157.5072 H   0  0  0  0  0  0  0  0  0  0  0  0
  152.1256  131.7590  156.0126 H   0  0  0  0  0  0  0  0  0  0  0  0
  150.7890  131.6916  157.1524 H   0  0  0  0  0  0  0  0  0  0  0  0
  147.9732  137.4226  157.8751 H   0  0  0  0  0  0  0  0  0  0  0  0
  151.6346  142.0824  156.1805 H   0  0  0  0  0  0  0  0  0  0  0  0
  150.1743  141.3598  156.8535 H   0  0  0  0  0  0  0  0  0  0  0  0
  151.2942  143.9451  157.5517 H   0  0  0  0  0  0  0  0  0  0  0  0
  149.9410  143.1303  158.3741 H   0  0  0  0  0  0  0  0  0  0  0  0
  151.7416  144.4099  160.4295 H   0  0  0  0  0  0  0  0  0  0  0  0
  153.3252  143.4696  162.1251 H   0  0  0  0  0  0  0  0  0  0  0  0
  154.3326  141.2210  161.7814 H   0  0  0  0  0  0  0  0  0  0  0  0
  153.7687  139.8828  159.7600 H   0  0  0  0  0  0  0  0  0  0  0  0
  154.1536  137.4544  156.0781 H   0  0  0  0  0  0  0  0  0  0  0  0
  149.6593  136.0454  153.6614 H   0  0  0  0  0  0  0  0  0  0  0  0
  148.3163  132.9804  155.4439 H   0  0  0  0  0  0  0  0  0  0  0  0
  1  2  1  0  0  0  0
  1 32  1  0  0  0  0
  2  3  1  0  0  0  0
  2 33  1  0  0  0  0
  2 34  1  0  0  0  0
  3 28  1  0  0  0  0
  3 26  1  0  0  0  0
  3  4  1  0  0  0  0
  4  5  1  0  0  0  0
  5 29  1  0  0  0  0
  5  6  1  0  0  0  0
  5 24  1  0  0  0  0
  6 23  1  0  0  0  0
  6  7  1  0  0  0  0
  7  8  2  0  0  0  0
  7 35  1  0  0  0  0
  8  9  1  0  0  0  0
  9 23  2  0  0  0  0
  9 10  1  0  0  0  0
 10 11  1  0  0  0  0
 10 20  2  0  0  0  0
 11 19  1  0  0  0  0
 11 12  1  0  0  0  0
 12 13  1  0  0  0  0
 12 36  1  0  0  0  0
 12 37  1  0  0  0  0
 13 14  1  0  0  0  0
 13 38  1  0  0  0  0
 13 39  1  0  0  0  0
 14 19  2  0  0  0  0
 14 15  1  0  0  0  0
 15 16  2  0  0  0  0
 15 40  1  0  0  0  0
 16 17  1  0  0  0  0
 16 41  1  0  0  0  0
 17 18  2  0  0  0  0
 17 42  1  0  0  0  0
 18 19  1  0  0  0  0
 18 43  1  0  0  0  0
 20 21  1  0  0  0  0
 21 22  2  0  0  0  0
 21 44  1  0  0  0  0
 22 23  1  0  0  0  0
 24 30  1  0  0  0  0
 24 25  1  0  0  0  0
 24 26  1  0  0  0  0
 25 45  1  0  0  0  0
 26 31  1  0  0  0  0
 26 27  1  0  0  0  0
 27 46  1  0  0  0  0
M  END
> <s_m_source_file>
AV-unprocessed.smi

> <i_m_source_file_index>
110

> <i_lp_mmshare_version>
43012

> <i_f3d_flags>
0

> <s_epik_input>
W09IXVtDSDJdW0NASF0xT1tDQEhdKFtDQEhdKFtPSF0pW0NAQEhdMVtPSF0pbihbY0hdbjIpYyhjMjMpbltjSF1uYzNOKFtDSDJdW0NIMl00KWMoYzQ1KVtjSF1bY0hdW2NIXVtjSF01

> <s_epik_cmdline>
J2VwaWtfcHl0aG9uJywgJy1waCcsICc3LjAnLCAnLXRuJywgJzgnLCAnLW1hJywgJzIwMCcsICctbWV0YWxfYmluZGluZycsICctaW1hZScsICc8aW5maWxlLm1hZT4nLCAnLW9tYWUnLCAnPG91dGZpbGUubWFlPic=

> <r_lp_tautomer_probability>
1

> <r_epik_Ionization_Penalty>
0.00068475

> <r_epik_Ionization_Penalty_Charging>
0

> <r_epik_Ionization_Penalty_Neutral>
0.00068475

> <r_epik_State_Penalty>
0.000417442

> <r_epik_Charging_Adjusted_Penalty>
0.000417442

> <i_epik_Tot_Q>
0

> <i_epik_Tot_abs_Q>
0

> <r_epik_Metal_State_Penalty>
-0

> <b_epik_Metal_Only>
0

> <s_epik_Chemistry_Notes>
This compound contains an acetal/aminal-like group ( X-CH(R)-Y where X, Y are N, S, or O) that may be acid/base labile, releasing an aldehyde.

> <s_lp_Force_Field>
OPLS_2005

> <r_lp_Energy>
62.6904

> <b_lp_Chiralities_Consistent>
1

> <s_lp_Variant>
AV-unprocessed.smi:110-6

> <Gold.Version>
5.8.1

> <Gold.Id.Protein>
6NUR|6NUR_protein|mol2

> <Gold.PLP.Fitness>
51.3214

> <Gold.PLP.PLP>
-42.1066

> <Gold.PLP.part.hbond>
-5.5006

> <Gold.PLP.part.metal>
0.0000

> <Gold.PLP.part.buried>
-6.6010

> <Gold.PLP.part.nonpolar>
-30.1600

> <Gold.PLP.part.repulsive>
0.0000

> <Gold.PLP.ligand.clash>
0.0000

> <Gold.PLP.ligand.torsion>
1.5962

> <Gold.PLP.Chemscore.Hbond>
4.1131

> <Gold.PLP.Chemscore.CHOScore>
0.0000

> <Gold.PLP.Chemscore.Metal>
0.0000

> <Gold.Chemscore.Hbonds>
donor molecule, donor type, donor heavy atom, donor atom, acceptor molecule, acceptor atom, score
      L1  H    25    45       P1  7948  1.00
      P1  H  6896  6907       L1     1  0.98
      P1  H  6896  6908       L1     4  0.50
      P1  H  7997  8008       L1    20  1.00
      P1  H 10752 10763       L1    22  0.54

> <Gold.PLP.Chemscore.Internal.Correction>
0.0680

> <Gold.Rescore>
     Score         DG    S(hbond)    S(metal)    S(lipo)     H(rot)  DE(clash)    DE(int)     intcor
     16.18     -18.84       3.04        0.00     101.34       3.38       0.09       2.57       ----

> <Gold.Chemscore.Fitness>
16.1835

> <Gold.Chemscore.DG>
-18.8369

> <Gold.Chemscore.ZeroCoef>
-5.4800

> <Gold.Chemscore.Hbond>
3.0428

> <Gold.Chemscore.Metal>
0.0000

> <Gold.Chemscore.Lipo>
101.3353

> <Gold.Chemscore.Internal_Hbond>
0.0000

> <Gold.Chemscore.DEClash>
0.0871

> <Gold.Chemscore.DEInternal>
2.5663

> <Gold.Chemscore.Rot>
3.3837

> <Gold.Chemscore.Internal.Correction>
   9.000000E+99

> <Gold.Chemscore.Hbonds>
donor molecule, donor type, donor heavy atom, donor atom, acceptor molecule, acceptor atom, score
      L1  H    25    45       P1  7948  0.30
      P1  H  6896  6907       L1     1  0.46
      P1  H  6896  6908       L1     4  0.47
      P1  H  7997  8008       L1    20  0.94
      P1  H 10752 10763       L1    22  0.09

> <Gold.Chemscore.Hbond.Weighted>
-10.1628

> <Gold.Chemscore.Metal.Weighted>
-0.0000

> <Gold.Chemscore.Lipo.Weighted>
-11.8562

> <Gold.Chemscore.Internal_Hbond.Weighted>
0.0000

> <Gold.Chemscore.DEClash.Weighted>
0.0871

> <Gold.Chemscore.DEInternal.Weighted>
2.5663

> <Gold.Chemscore.Rot.Weighted>
8.6622

> <Gold.Chemscore.Internal.Correction.Weighted>
   9.000000E+99

> <Gold.Protein.RotatedTorsions>
[ 6907 6896 6895 6894 ] final  148.57 input  -60.11 | X-H torsion
[ 7974 7965 7964 7962 ] final  114.04 input  175.53 | X-H torsion
[ 8008 7997 7996 7995 ] final  -52.70 input   59.86 | X-H torsion
[ 10167 10162 10161 10158 ] final    9.12 input  -65.29 | X-H torsion
[ 10718 10713 10712 10709 ] final -170.04 input   66.30 | X-H torsion
[ 10763 10752 10751 10750 ] final   87.56 input  -60.55 | X-H torsion
[ 11005 11000 10999 10996 ] final -108.95 input  -57.11 | X-H torsion

> <Gold.Protein.ActiveResidues>
 VAL166  LYS551  ARG553  GLY616  TRP617  ASP618  TYR619  PRO620  LYS621  CYS622 
 ASP623  PHE694  ASN695  SER759  ASP760  ASP761  ALA762  ILE779  LEU786  VAL792 
 PHE793  MET794  SER795  GLU796  ALA797  LYS798  CYS799  TRP800  GLU811  SER814 

> <Gold.Protein.RotatedAtoms>
  152.1397  133.4457  159.4760 H   0  0  0  0  0  0  0  0  0  0  0  0  # atno 6907 bound_to 6896
  150.6885  134.2320  159.4447 H   0  0  0  0  0  0  0  0  0  0  0  0  # atno 6908 bound_to 6896
  152.0210  134.9822  160.0621 H   0  0  0  0  0  0  0  0  0  0  0  0  # atno 6909 bound_to 6896
  145.2094  139.2913  143.4276 H   0  0  0  0  0  0  0  0  0  0  0  0  # atno 7974 bound_to 7965
  154.4113  140.1217  156.5034 H   0  0  0  0  0  0  0  0  0  0  0  0  # atno 8008 bound_to 7997
  155.6872  140.3495  155.4859 H   0  0  0  0  0  0  0  0  0  0  0  0  # atno 8009 bound_to 7997
  155.9500  140.1103  157.0974 H   0  0  0  0  0  0  0  0  0  0  0  0  # atno 8010 bound_to 7997
  140.6274  143.8070  150.7251 H   0  0  0  0  0  0  0  0  0  0  0  0  # atno 10167 bound_to 10162
  156.7203  130.9267  151.3097 H   0  0  0  0  0  0  0  0  0  0  0  0  # atno 10718 bound_to 10713
  153.1680  135.4539  154.9864 H   0  0  0  0  0  0  0  0  0  0  0  0  # atno 10763 bound_to 10752
  154.7946  135.3233  154.7700 H   0  0  0  0  0  0  0  0  0  0  0  0  # atno 10764 bound_to 10752
  153.8180  135.6949  153.4886 H   0  0  0  0  0  0  0  0  0  0  0  0  # atno 10765 bound_to 10752
  141.0874  133.9115  157.2155 H   0  0  0  0  0  0  0  0  0  0  0  0  # atno 11005 bound_to 11000
  146.3401  140.2365  142.8594 LP  0  0  0  0  0  0  0  0  0  0  0  0  # atno 17320 bound_to 7965
  144.9870  140.8512  143.5362 LP  0  0  0  0  0  0  0  0  0  0  0  0  # atno 17321 bound_to 7965
  140.1674  143.4223  152.2025 LP  0  0  0  0  0  0  0  0  0  0  0  0  # atno 17342 bound_to 10162
  139.5492  144.7324  151.4487 LP  0  0  0  0  0  0  0  0  0  0  0  0  # atno 17343 bound_to 10162
  157.6900  130.9224  150.0489 LP  0  0  0  0  0  0  0  0  0  0  0  0  # atno 17370 bound_to 10713
  156.1599  130.3643  149.9315 LP  0  0  0  0  0  0  0  0  0  0  0  0  # atno 17371 bound_to 10713
  139.9694  135.0132  156.9472 LP  0  0  0  0  0  0  0  0  0  0  0  0  # atno 17394 bound_to 11000
  140.5332  134.0793  155.7321 LP  0  0  0  0  0  0  0  0  0  0  0  0  # atno 17395 bound_to 11000

$$$$
