AV-unprocessed.smi:261|AV-procd|sdf|1989|dock4
  -GOLD-   2262021173D 1   1.00000     0.00000
 Structure written by MMmdl.
 51 54  0  0  0  0  0  0  0  0  1 V2000
  146.7584  133.6608  152.2703 C   0  0  0  0  0  0  0  0  0  0  0  0
  147.1577  134.8920  152.8498 O   0  0  0  0  0  0  0  0  0  0  0  0
  147.9917  134.7383  153.9890 C   0  0  1  0  0  0  0  0  0  0  0  0
  149.3367  134.0779  153.6725 C   0  0  0  0  0  0  0  0  0  0  0  0
  150.2768  134.5704  154.7863 C   0  0  2  0  0  0  0  0  0  0  0  0
  150.2690  133.6168  155.9952 C   0  0  0  0  0  0  0  0  0  0  0  0
  150.6905  132.3691  155.7765 N   0  0  0  0  0  0  0  0  0  0  0  0
  149.8816  133.9897  157.1018 O   0  0  0  0  0  0  0  0  0  0  0  0
  149.7371  135.8885  155.1216 N   0  0  0  0  0  0  0  0  0  0  0  0
  150.4336  136.8925  155.7242 C   0  0  0  0  0  0  0  0  0  0  0  0
  151.7914  136.8225  155.6999 N   0  0  0  0  0  0  0  0  0  0  0  0
  152.5376  137.7713  156.2704 C   0  0  0  0  0  0  0  0  0  0  0  0
  152.1400  138.8683  156.9137 N   0  0  0  0  0  0  0  0  0  0  0  0
  150.7801  138.9537  156.9464 C   0  0  0  0  0  0  0  0  0  0  0  0
  149.8575  138.0221  156.3841 C   0  0  0  0  0  0  0  0  0  0  0  0
  148.5592  138.4616  156.6266 N   0  0  0  0  0  0  0  0  0  0  0  0
  148.7053  139.5777  157.2847 C   0  0  0  0  0  0  0  0  0  0  0  0
  150.0074  139.9455  157.5244 N   0  0  0  0  0  0  0  0  0  0  0  0
  150.4559  141.1311  158.2342 C   0  0  0  0  0  0  0  0  0  0  0  0
  150.6945  142.3279  157.2923 C   0  0  1  0  0  0  0  0  0  0  0  0
  149.5670  142.5044  156.4544 O   0  0  0  0  0  0  0  0  0  0  0  0
  150.9869  143.6271  158.0709 C   0  0  2  0  0  0  0  0  0  0  0  0
  152.4632  143.9270  158.3907 C   0  0  0  0  0  0  0  0  0  0  0  0
  152.4857  144.0501  159.9042 C   0  0  0  0  0  0  0  0  0  0  0  0
  151.0407  144.4001  160.2354 C   0  0  0  0  0  0  0  0  0  0  0  0
  150.3041  143.6061  159.3202 O   0  0  0  0  0  0  0  0  0  0  0  0
  148.4165  136.1007  154.5369 C   0  0  0  0  0  0  0  0  0  0  0  0
  147.4767  134.1833  154.7757 H   0  0  0  0  0  0  0  0  0  0  0  0
  151.2861  134.6526  154.3818 H   0  0  0  0  0  0  0  0  0  0  0  0
  146.1064  133.8548  151.4189 H   0  0  0  0  0  0  0  0  0  0  0  0
  146.2043  133.0502  152.9842 H   0  0  0  0  0  0  0  0  0  0  0  0
  147.6144  133.0895  151.9102 H   0  0  0  0  0  0  0  0  0  0  0  0
  149.2677  132.9909  153.6109 H   0  0  0  0  0  0  0  0  0  0  0  0
  149.7023  134.4349  152.7084 H   0  0  0  0  0  0  0  0  0  0  0  0
  150.6992  131.7001  156.5325 H   0  0  0  0  0  0  0  0  0  0  0  0
  150.9924  132.0979  154.8520 H   0  0  0  0  0  0  0  0  0  0  0  0
  153.6062  137.6306  156.2012 H   0  0  0  0  0  0  0  0  0  0  0  0
  147.8624  140.1647  157.6194 H   0  0  0  0  0  0  0  0  0  0  0  0
  149.7187  141.3851  158.9968 H   0  0  0  0  0  0  0  0  0  0  0  0
  151.3750  140.8794  158.7641 H   0  0  0  0  0  0  0  0  0  0  0  0
  151.5511  142.1018  156.6560 H   0  0  0  0  0  0  0  0  0  0  0  0
  149.7753  143.1648  155.8112 H   0  0  0  0  0  0  0  0  0  0  0  0
  150.5749  144.4714  157.5155 H   0  0  0  0  0  0  0  0  0  0  0  0
  153.1571  143.1631  158.0380 H   0  0  0  0  0  0  0  0  0  0  0  0
  152.7572  144.8705  157.9290 H   0  0  0  0  0  0  0  0  0  0  0  0
  152.7417  143.0879  160.3500 H   0  0  0  0  0  0  0  0  0  0  0  0
  153.1983  144.7928  160.2641 H   0  0  0  0  0  0  0  0  0  0  0  0
  150.7771  144.1743  161.2689 H   0  0  0  0  0  0  0  0  0  0  0  0
  150.8411  145.4566  160.0485 H   0  0  0  0  0  0  0  0  0  0  0  0
  148.4999  136.8318  153.7310 H   0  0  0  0  0  0  0  0  0  0  0  0
  147.6972  136.4736  155.2670 H   0  0  0  0  0  0  0  0  0  0  0  0
  1  2  1  0  0  0  0
  1 30  1  0  0  0  0
  1 31  1  0  0  0  0
  1 32  1  0  0  0  0
  2  3  1  0  0  0  0
  3 28  1  0  0  0  0
  3 27  1  0  0  0  0
  3  4  1  0  0  0  0
  4  5  1  0  0  0  0
  4 33  1  0  0  0  0
  4 34  1  0  0  0  0
  5 29  1  0  0  0  0
  5  6  1  0  0  0  0
  5  9  1  0  0  0  0
  6  7  1  0  0  0  0
  6  8  2  0  0  0  0
  7 35  1  0  0  0  0
  7 36  1  0  0  0  0
  9 10  1  0  0  0  0
  9 27  1  0  0  0  0
 10 15  1  0  0  0  0
 10 11  2  0  0  0  0
 11 12  1  0  0  0  0
 12 13  2  0  0  0  0
 12 37  1  0  0  0  0
 13 14  1  0  0  0  0
 14 18  1  0  0  0  0
 14 15  2  0  0  0  0
 15 16  1  0  0  0  0
 16 17  2  0  0  0  0
 17 18  1  0  0  0  0
 17 38  1  0  0  0  0
 18 19  1  0  0  0  0
 19 20  1  0  0  0  0
 19 39  1  0  0  0  0
 19 40  1  0  0  0  0
 20 21  1  0  0  0  0
 20 22  1  0  0  0  0
 20 41  1  0  0  0  0
 21 42  1  0  0  0  0
 22 26  1  0  0  0  0
 22 23  1  0  0  0  0
 22 43  1  0  0  0  0
 23 24  1  0  0  0  0
 23 44  1  0  0  0  0
 23 45  1  0  0  0  0
 24 25  1  0  0  0  0
 24 46  1  0  0  0  0
 24 47  1  0  0  0  0
 25 26  1  0  0  0  0
 25 48  1  0  0  0  0
 25 49  1  0  0  0  0
 27 50  1  0  0  0  0
 27 51  1  0  0  0  0
M  END
> <s_m_source_file>
AV-unprocessed.smi

> <i_m_source_file_index>
261

> <i_lp_mmshare_version>
43012

> <i_f3d_flags>
0

> <s_epik_input>
W0NIM11PW0NASF0xW0NIMl1bQ0BASF0oQyg9TylbTkgyXSlOKFtDSDJdMSljKG5bY0hdbjIpYyhjMjMpbltjSF1uM1tDSDJdW0NASF0oW09IXSlbQ0BASF00W0NIMl1bQ0gyXVtDSDJdTzQ=

> <s_epik_cmdline>
J2VwaWtfcHl0aG9uJywgJy1waCcsICc3LjAnLCAnLXRuJywgJzgnLCAnLW1hJywgJzIwMCcsICctbWV0YWxfYmluZGluZycsICctaW1hZScsICc8aW5maWxlLm1hZT4nLCAnLW9tYWUnLCAnPG91dGZpbGUubWFlPic=

> <r_lp_tautomer_probability>
1

> <r_epik_Ionization_Penalty>
0.000713824

> <r_epik_Ionization_Penalty_Charging>
0

> <r_epik_Ionization_Penalty_Neutral>
0.000713824

> <r_epik_State_Penalty>
0.000402132

> <r_epik_Charging_Adjusted_Penalty>
0.000402132

> <i_epik_Tot_Q>
0

> <i_epik_Tot_abs_Q>
0

> <r_epik_Metal_State_Penalty>
-0

> <b_epik_Metal_Only>
0

> <s_lp_Force_Field>
OPLS_2005

> <r_lp_Energy>
44.9421

> <b_lp_Chiralities_Consistent>
1

> <s_lp_Variant>
AV-unprocessed.smi:261-7

> <Gold.Version>
5.8.1

> <Gold.Id.Protein>
6NUR|6NUR_protein|mol2

> <Gold.PLP.Fitness>
41.7159

> <Gold.PLP.PLP>
-36.6064

> <Gold.PLP.part.hbond>
-3.4290

> <Gold.PLP.part.metal>
0.0000

> <Gold.PLP.part.buried>
-6.2578

> <Gold.PLP.part.nonpolar>
-27.4170

> <Gold.PLP.part.repulsive>
0.3163

> <Gold.PLP.ligand.clash>
0.0000

> <Gold.PLP.ligand.torsion>
1.4615

> <Gold.PLP.Chemscore.Hbond>
2.6320

> <Gold.PLP.Chemscore.CHOScore>
0.0000

> <Gold.PLP.Chemscore.Metal>
0.0000

> <Gold.Chemscore.Hbonds>
donor molecule, donor type, donor heavy atom, donor atom, acceptor molecule, acceptor atom, score
      L1  H    21    42       P1  8028  0.48
      P1  H 10752 10765       L1    11  1.00

> <Gold.PLP.Chemscore.Internal.Correction>
0.1366

> <Gold.Rescore>
     Score         DG    S(hbond)    S(metal)    S(lipo)     H(rot)  DE(clash)    DE(int)     intcor
     13.61     -14.49       2.48        0.00      75.75       3.18       0.00       0.88       ----

> <Gold.Chemscore.Fitness>
13.6065

> <Gold.Chemscore.DG>
-14.4886

> <Gold.Chemscore.ZeroCoef>
-5.4800

> <Gold.Chemscore.Hbond>
2.4834

> <Gold.Chemscore.Metal>
0.0000

> <Gold.Chemscore.Lipo>
75.7505

> <Gold.Chemscore.Internal_Hbond>
0.0000

> <Gold.Chemscore.DEClash>
0.0019

> <Gold.Chemscore.DEInternal>
0.8803

> <Gold.Chemscore.Rot>
3.1831

> <Gold.Chemscore.Internal.Correction>
   9.000000E+99

> <Gold.Chemscore.Hbonds>
donor molecule, donor type, donor heavy atom, donor atom, acceptor molecule, acceptor atom, score
      L1  H    21    42       P1  8028  0.48
      P1  H  6896  6907       L1     8  0.03
      P1  H 10752 10765       L1    11  0.68

> <Gold.Chemscore.Hbond.Weighted>
-8.2945

> <Gold.Chemscore.Metal.Weighted>
-0.0000

> <Gold.Chemscore.Lipo.Weighted>
-8.8628

> <Gold.Chemscore.Internal_Hbond.Weighted>
0.0000

> <Gold.Chemscore.DEClash.Weighted>
0.0019

> <Gold.Chemscore.DEInternal.Weighted>
0.8803

> <Gold.Chemscore.Rot.Weighted>
8.1486

> <Gold.Chemscore.Internal.Correction.Weighted>
   9.000000E+99

> <Gold.Protein.RotatedTorsions>
[ 6907 6896 6895 6894 ] final -144.39 input  -60.11 | X-H torsion
[ 7974 7965 7964 7962 ] final -105.52 input  175.53 | X-H torsion
[ 8008 7997 7996 7995 ] final   21.71 input   59.86 | X-H torsion
[ 10167 10162 10161 10158 ] final  -78.44 input  -65.29 | X-H torsion
[ 10718 10713 10712 10709 ] final  -35.07 input   66.30 | X-H torsion
[ 10763 10752 10751 10750 ] final -173.72 input  -60.55 | X-H torsion
[ 11005 11000 10999 10996 ] final  -36.75 input  -57.11 | X-H torsion

> <Gold.Protein.ActiveResidues>
 VAL166  LYS551  ARG553  GLY616  TRP617  ASP618  TYR619  PRO620  LYS621  CYS622 
 ASP623  PHE694  ASN695  SER759  ASP760  ASP761  ALA762  ILE779  LEU786  VAL792 
 PHE793  MET794  SER795  GLU796  ALA797  LYS798  CYS799  TRP800  GLU811  SER814 

> <Gold.Protein.RotatedAtoms>
  151.1134  133.5156  159.2604 H   0  0  0  0  0  0  0  0  0  0  0  0  # atno 6907 bound_to 6896
  151.1942  135.0415  159.8855 H   0  0  0  0  0  0  0  0  0  0  0  0  # atno 6908 bound_to 6896
  152.5451  134.0970  159.8355 H   0  0  0  0  0  0  0  0  0  0  0  0  # atno 6909 bound_to 6896
  145.2295  140.9165  143.3213 H   0  0  0  0  0  0  0  0  0  0  0  0  # atno 7974 bound_to 7965
  154.9547  140.3070  155.5058 H   0  0  0  0  0  0  0  0  0  0  0  0  # atno 8008 bound_to 7997
  156.2983  140.2312  156.4566 H   0  0  0  0  0  0  0  0  0  0  0  0  # atno 8009 bound_to 7997
  154.8021  140.0433  157.1269 H   0  0  0  0  0  0  0  0  0  0  0  0  # atno 8010 bound_to 7997
  140.4682  143.2434  151.8245 H   0  0  0  0  0  0  0  0  0  0  0  0  # atno 10167 bound_to 10162
  156.3430  130.4296  149.7771 H   0  0  0  0  0  0  0  0  0  0  0  0  # atno 10718 bound_to 10713
  154.6046  135.2858  155.0498 H   0  0  0  0  0  0  0  0  0  0  0  0  # atno 10763 bound_to 10752
  154.1751  135.6466  153.5023 H   0  0  0  0  0  0  0  0  0  0  0  0  # atno 10764 bound_to 10752
  153.0170  135.5410  154.6777 H   0  0  0  0  0  0  0  0  0  0  0  0  # atno 10765 bound_to 10752
  140.9899  133.7010  156.1832 H   0  0  0  0  0  0  0  0  0  0  0  0  # atno 11005 bound_to 11000
  144.9690  139.3900  143.6318 LP  0  0  0  0  0  0  0  0  0  0  0  0  # atno 17320 bound_to 7965
  146.3356  139.8779  142.8829 LP  0  0  0  0  0  0  0  0  0  0  0  0  # atno 17321 bound_to 7965
  139.4815  144.4925  151.9167 LP  0  0  0  0  0  0  0  0  0  0  0  0  # atno 17342 bound_to 10162
  140.4010  144.2493  150.5893 LP  0  0  0  0  0  0  0  0  0  0  0  0  # atno 17343 bound_to 10162
  156.5000  130.8124  151.3128 LP  0  0  0  0  0  0  0  0  0  0  0  0  # atno 17370 bound_to 10713
  157.7450  130.9948  150.2720 LP  0  0  0  0  0  0  0  0  0  0  0  0  # atno 17371 bound_to 10713
  140.7056  134.4517  157.5584 LP  0  0  0  0  0  0  0  0  0  0  0  0  # atno 17394 bound_to 11000
  139.8987  134.8606  156.1989 LP  0  0  0  0  0  0  0  0  0  0  0  0  # atno 17395 bound_to 11000

$$$$
