AV-unprocessed.smi:191|AV-procd|sdf|1494|dock7
  -GOLD-   2262019313D 1   1.00000     0.00000
 Structure written by MMmdl.
 46 48  0  0  0  0  0  0  0  0  1 V2000
  152.2551  143.3507  160.0579 C   0  0  0  0  0  0  0  0  0  0  0  0
  153.1011  142.6139  159.0081 C   0  0  0  0  0  0  0  0  0  0  0  0
  152.8530  141.1692  158.9882 N   0  0  0  0  0  0  0  0  0  0  0  0
  152.8957  140.4455  160.2597 C   0  0  0  0  0  0  0  0  0  0  0  0
  153.7211  139.1464  160.1817 C   0  0  1  0  0  0  0  0  0  0  0  0
  154.4954  138.9024  161.4823 C   0  0  0  0  0  0  0  0  0  0  0  0
  152.9068  137.9706  159.8313 C   0  0  0  0  0  0  0  0  0  0  0  0
  152.2685  137.0463  159.5528 N   0  0  0  0  0  0  0  0  0  0  0  0
  152.3597  140.5753  157.8604 C   0  0  0  0  0  0  0  0  0  0  0  0
  152.8963  139.3867  157.4708 N   0  0  0  0  0  0  0  0  0  0  0  0
  152.4579  138.7548  156.3801 C   0  0  0  0  0  0  0  0  0  0  0  0
  151.4952  139.1229  155.5364 N   0  0  0  0  0  0  0  0  0  0  0  0
  150.9380  140.3077  155.9139 C   0  0  0  0  0  0  0  0  0  0  0  0
  151.3029  141.0945  157.0470 C   0  0  0  0  0  0  0  0  0  0  0  0
  150.4905  142.2236  157.0954 N   0  0  0  0  0  0  0  0  0  0  0  0
  149.7057  142.1142  156.0602 C   0  0  0  0  0  0  0  0  0  0  0  0
  149.9121  140.9957  155.2884 N   0  0  0  0  0  0  0  0  0  0  0  0
  149.1812  140.6181  154.0877 C   0  0  0  0  0  0  0  0  0  0  0  0
  147.6605  140.4905  154.2956 C   0  0  0  0  0  0  0  0  0  0  0  0
  147.0328  139.9381  153.0000 C   0  0  0  0  0  0  0  0  0  0  0  0
  147.5952  138.7004  152.6112 O   0  0  0  0  0  0  0  0  0  0  0  0
  147.2427  139.8014  155.6029 C   0  0  0  0  0  0  0  0  0  0  0  0
  146.3839  140.9011  155.9777 O   0  0  0  0  0  0  0  0  0  0  0  0
  146.9551  141.7031  154.9203 C   0  0  0  0  0  0  0  0  0  0  0  0
  152.4696  144.4193  160.0417 H   0  0  0  0  0  0  0  0  0  0  0  0
  152.4623  142.9903  161.0653 H   0  0  0  0  0  0  0  0  0  0  0  0
  151.1885  143.2262  159.8714 H   0  0  0  0  0  0  0  0  0  0  0  0
  152.9365  143.0445  158.0198 H   0  0  0  0  0  0  0  0  0  0  0  0
  154.1554  142.7865  159.2220 H   0  0  0  0  0  0  0  0  0  0  0  0
  153.3553  141.1007  160.9994 H   0  0  0  0  0  0  0  0  0  0  0  0
  151.9015  140.2504  160.6550 H   0  0  0  0  0  0  0  0  0  0  0  0
  154.4503  139.2437  159.3778 H   0  0  0  0  0  0  0  0  0  0  0  0
  155.1119  138.0062  161.4064 H   0  0  0  0  0  0  0  0  0  0  0  0
  153.8174  138.7696  162.3261 H   0  0  0  0  0  0  0  0  0  0  0  0
  155.1554  139.7396  161.7106 H   0  0  0  0  0  0  0  0  0  0  0  0
  152.9489  137.8202  156.1518 H   0  0  0  0  0  0  0  0  0  0  0  0
  148.9483  142.8508  155.8350 H   0  0  0  0  0  0  0  0  0  0  0  0
  149.4004  141.3458  153.3056 H   0  0  0  0  0  0  0  0  0  0  0  0
  149.5988  139.6743  153.7343 H   0  0  0  0  0  0  0  0  0  0  0  0
  145.9609  139.7805  153.1187 H   0  0  0  0  0  0  0  0  0  0  0  0
  147.1606  140.6410  152.1761 H   0  0  0  0  0  0  0  0  0  0  0  0
  148.3892  138.8695  152.1275 H   0  0  0  0  0  0  0  0  0  0  0  0
  146.6960  138.8673  155.4684 H   0  0  0  0  0  0  0  0  0  0  0  0
  148.0590  139.6682  156.3146 H   0  0  0  0  0  0  0  0  0  0  0  0
  147.6328  142.4599  155.3165 H   0  0  0  0  0  0  0  0  0  0  0  0
  146.1973  142.1575  154.2811 H   0  0  0  0  0  0  0  0  0  0  0  0
  1  2  1  0  0  0  0
  1 25  1  0  0  0  0
  1 26  1  0  0  0  0
  1 27  1  0  0  0  0
  2  3  1  0  0  0  0
  2 28  1  0  0  0  0
  2 29  1  0  0  0  0
  3  4  1  0  0  0  0
  3  9  1  0  0  0  0
  4  5  1  0  0  0  0
  4 30  1  0  0  0  0
  4 31  1  0  0  0  0
  5  6  1  0  0  0  0
  5  7  1  0  0  0  0
  5 32  1  0  0  0  0
  6 33  1  0  0  0  0
  6 34  1  0  0  0  0
  6 35  1  0  0  0  0
  7  8  3  0  0  0  0
  9 14  1  0  0  0  0
  9 10  2  0  0  0  0
 10 11  1  0  0  0  0
 11 12  2  0  0  0  0
 11 36  1  0  0  0  0
 12 13  1  0  0  0  0
 13 17  1  0  0  0  0
 13 14  2  0  0  0  0
 14 15  1  0  0  0  0
 15 16  2  0  0  0  0
 16 17  1  0  0  0  0
 16 37  1  0  0  0  0
 17 18  1  0  0  0  0
 18 19  1  0  0  0  0
 18 38  1  0  0  0  0
 18 39  1  0  0  0  0
 19 24  1  0  0  0  0
 19 20  1  0  0  0  0
 19 22  1  0  0  0  0
 20 21  1  0  0  0  0
 20 40  1  0  0  0  0
 20 41  1  0  0  0  0
 21 42  1  0  0  0  0
 22 23  1  0  0  0  0
 22 43  1  0  0  0  0
 22 44  1  0  0  0  0
 23 24  1  0  0  0  0
 24 45  1  0  0  0  0
 24 46  1  0  0  0  0
M  END
> <s_m_source_file>
AV-unprocessed.smi

> <i_m_source_file_index>
191

> <i_lp_mmshare_version>
43012

> <i_f3d_flags>
0

> <s_epik_input>
TiNDW0NAQEhdKFtDSDNdKVtDSDJdTihbQ0gyXVtDSDNdKWMobltjSF1uMSljKGMxMiluW2NIXW4yW0NIMl1DMyhbQ0gyXVtPSF0pW0NIMl1PW0NIMl0z

> <s_epik_cmdline>
J2VwaWtfcHl0aG9uJywgJy1waCcsICc3LjAnLCAnLXRuJywgJzgnLCAnLW1hJywgJzIwMCcsICctbWV0YWxfYmluZGluZycsICctaW1hZScsICc8aW5maWxlLm1hZT4nLCAnLW9tYWUnLCAnPG91dGZpbGUubWFlPic=

> <r_lp_tautomer_probability>
1

> <r_epik_Ionization_Penalty>
0.000569684

> <r_epik_Ionization_Penalty_Charging>
0

> <r_epik_Ionization_Penalty_Neutral>
0.000569684

> <r_epik_State_Penalty>
0.000286009

> <r_epik_Charging_Adjusted_Penalty>
0.000286009

> <i_epik_Tot_Q>
0

> <i_epik_Tot_abs_Q>
0

> <r_epik_Metal_State_Penalty>
-0

> <b_epik_Metal_Only>
0

> <s_lp_Force_Field>
OPLS_2005

> <r_lp_Energy>
30.7711

> <b_lp_Chiralities_Consistent>
1

> <s_lp_Variant>
AV-unprocessed.smi:191-2

> <Gold.Version>
5.8.1

> <Gold.Id.Protein>
6NUR|6NUR_protein|mol2

> <Gold.PLP.Fitness>
46.4834

> <Gold.PLP.PLP>
-37.0215

> <Gold.PLP.part.hbond>
-4.0000

> <Gold.PLP.part.metal>
0.0000

> <Gold.PLP.part.buried>
-1.2844

> <Gold.PLP.part.nonpolar>
-31.6976

> <Gold.PLP.part.repulsive>
0.1242

> <Gold.PLP.ligand.clash>
0.0000

> <Gold.PLP.ligand.torsion>
1.6197

> <Gold.PLP.Chemscore.Hbond>
3.0000

> <Gold.PLP.Chemscore.CHOScore>
0.9969

> <Gold.PLP.Chemscore.Metal>
0.0000

> <Gold.Chemscore.Hbonds>
donor molecule, donor type, donor heavy atom, donor atom, acceptor molecule, acceptor atom, score
      L1  H    21    42       P1  7957  1.00
      P1  H  6896  6909       L1     8  1.00
      P1  H  7997  8009       L1    10  0.79
      L1  C    16    37       P1  8028  0.61

> <Gold.PLP.Chemscore.Internal.Correction>
0.7105

> <Gold.Rescore>
     Score         DG    S(hbond)    S(metal)    S(lipo)     H(rot)  DE(clash)    DE(int)     intcor
      8.13     -13.33       2.11        0.00      74.99       3.11       0.98       4.22       ----

> <Gold.Chemscore.Fitness>
8.1331

> <Gold.Chemscore.DG>
-13.3349

> <Gold.Chemscore.ZeroCoef>
-5.4800

> <Gold.Chemscore.Hbond>
2.1062

> <Gold.Chemscore.Metal>
0.0000

> <Gold.Chemscore.Lipo>
74.9856

> <Gold.Chemscore.Internal_Hbond>
0.0000

> <Gold.Chemscore.DEClash>
0.9807

> <Gold.Chemscore.DEInternal>
4.2210

> <Gold.Chemscore.Rot>
3.1067

> <Gold.Chemscore.Internal.Correction>
   9.000000E+99

> <Gold.Chemscore.Hbonds>
donor molecule, donor type, donor heavy atom, donor atom, acceptor molecule, acceptor atom, score
      L1  H    21    42       P1  7957  0.93
      P1  H  6896  6909       L1     8  0.94
      P1  H  7997  8009       L1    10  0.08

> <Gold.Chemscore.Hbond.Weighted>
-7.0348

> <Gold.Chemscore.Metal.Weighted>
-0.0000

> <Gold.Chemscore.Lipo.Weighted>
-8.7733

> <Gold.Chemscore.Internal_Hbond.Weighted>
0.0000

> <Gold.Chemscore.DEClash.Weighted>
0.9807

> <Gold.Chemscore.DEInternal.Weighted>
4.2210

> <Gold.Chemscore.Rot.Weighted>
7.9532

> <Gold.Chemscore.Internal.Correction.Weighted>
   9.000000E+99

> <Gold.Protein.RotatedTorsions>
[ 6907 6896 6895 6894 ] final  130.90 input  -60.11 | X-H torsion
[ 7974 7965 7964 7962 ] final  -46.19 input  175.53 | X-H torsion
[ 8008 7997 7996 7995 ] final  147.15 input   59.86 | X-H torsion
[ 10167 10162 10161 10158 ] final   29.02 input  -65.29 | X-H torsion
[ 10718 10713 10712 10709 ] final  -42.42 input   66.30 | X-H torsion
[ 10763 10752 10751 10750 ] final   -0.63 input  -60.55 | X-H torsion
[ 11005 11000 10999 10996 ] final  -15.38 input  -57.11 | X-H torsion

> <Gold.Protein.ActiveResidues>
 VAL166  LYS551  ARG553  GLY616  TRP617  ASP618  TYR619  PRO620  LYS621  CYS622 
 ASP623  PHE694  ASN695  SER759  ASP760  ASP761  ALA762  ILE779  LEU786  VAL792 
 PHE793  MET794  SER795  GLU796  ALA797  LYS798  CYS799  TRP800  GLU811  SER814 

> <Gold.Protein.RotatedAtoms>
  152.3480  133.6145  159.5923 H   0  0  0  0  0  0  0  0  0  0  0  0  # atno 6907 bound_to 6896
  150.7519  133.9619  159.3527 H   0  0  0  0  0  0  0  0  0  0  0  0  # atno 6908 bound_to 6896
  151.7474  135.0841  160.0376 H   0  0  0  0  0  0  0  0  0  0  0  0  # atno 6909 bound_to 6896
  145.9744  140.7350  142.9394 H   0  0  0  0  0  0  0  0  0  0  0  0  # atno 7974 bound_to 7965
  156.2834  140.2163  156.5491 H   0  0  0  0  0  0  0  0  0  0  0  0  # atno 8008 bound_to 7997
  154.7306  140.0496  157.0745 H   0  0  0  0  0  0  0  0  0  0  0  0  # atno 8009 bound_to 7997
  155.0359  140.3140  155.4745 H   0  0  0  0  0  0  0  0  0  0  0  0  # atno 8010 bound_to 7997
  140.4802  144.0628  150.6263 H   0  0  0  0  0  0  0  0  0  0  0  0  # atno 10167 bound_to 10162
  156.2598  130.4196  149.8555 H   0  0  0  0  0  0  0  0  0  0  0  0  # atno 10718 bound_to 10713
  153.3344  135.6977  153.6920 H   0  0  0  0  0  0  0  0  0  0  0  0  # atno 10763 bound_to 10752
  153.5710  135.3516  155.2838 H   0  0  0  0  0  0  0  0  0  0  0  0  # atno 10764 bound_to 10752
  154.8624  135.4272  154.2541 H   0  0  0  0  0  0  0  0  0  0  0  0  # atno 10765 bound_to 10752
  140.7960  133.8250  155.9425 H   0  0  0  0  0  0  0  0  0  0  0  0  # atno 11005 bound_to 11000
  144.6845  140.2802  143.7293 LP  0  0  0  0  0  0  0  0  0  0  0  0  # atno 17320 bound_to 7965
  145.7860  139.1909  143.2130 LP  0  0  0  0  0  0  0  0  0  0  0  0  # atno 17321 bound_to 7965
  140.3868  143.2773  152.0107 LP  0  0  0  0  0  0  0  0  0  0  0  0  # atno 17342 bound_to 10162
  139.4832  144.6110  151.7433 LP  0  0  0  0  0  0  0  0  0  0  0  0  # atno 17343 bound_to 10162
  156.6074  130.8572  151.3446 LP  0  0  0  0  0  0  0  0  0  0  0  0  # atno 17370 bound_to 10713
  157.7246  130.9605  150.1581 LP  0  0  0  0  0  0  0  0  0  0  0  0  # atno 17371 bound_to 10713
  140.9342  134.1983  157.4843 LP  0  0  0  0  0  0  0  0  0  0  0  0  # atno 17394 bound_to 11000
  139.8726  134.9845  156.5243 LP  0  0  0  0  0  0  0  0  0  0  0  0  # atno 17395 bound_to 11000

$$$$
