AV-unprocessed.smi:888|AV-procd|sdf|4054|dock3
  -GOLD-   22720 1543D 1   1.00000     0.00000
 Structure written by MMmdl.
 45 46  0  0  0  0  0  0  0  0  1 V2000
  151.0646  140.7521  157.9945 C   0  0  0  0  0  0  0  0  0  0  0  0
  150.9752  140.8583  156.4672 C   0  0  0  0  0  0  0  0  0  0  0  0
  151.3247  139.5737  155.7757 C   0  0  0  0  0  0  0  0  0  0  0  0
  152.5294  139.0006  155.8944 N   0  0  0  0  0  0  0  0  0  0  0  0
  152.4779  137.8524  155.1326 N   0  0  0  0  0  0  0  0  0  0  0  0
  151.2423  137.8370  154.6378 C   0  0  0  0  0  0  0  0  0  0  0  0
  150.4670  138.8709  155.0000 N   0  0  0  0  0  0  0  0  0  0  0  0
  149.0781  139.0989  154.6310 C   0  0  0  0  0  0  0  0  0  0  0  0
  148.1324  138.0053  155.1644 C   0  0  0  0  0  0  0  0  0  0  0  0
  147.7290  137.0487  154.1336 N   0  0  0  0  0  0  0  0  0  0  0  0
  146.7107  136.1710  154.1717 C   0  0  0  0  0  0  0  0  0  0  0  0
  145.9755  136.0726  155.1519 O   0  0  0  0  0  0  0  0  0  0  0  0
  146.5823  135.4152  153.0685 N   0  0  0  0  0  0  0  0  0  0  0  0
  145.5841  134.3656  152.8696 C   0  0  2  0  0  0  0  0  0  0  0  0
  146.2810  133.0231  152.5727 C   0  0  0  0  0  0  0  0  0  0  0  0
  145.8544  132.6190  151.1642 C   0  0  0  0  0  0  0  0  0  0  0  0
  144.4864  133.2701  150.9913 C   0  0  0  0  0  0  0  0  0  0  0  0
  144.5982  134.6381  151.6898 C   0  0  0  0  0  0  0  0  0  0  0  0
  143.2233  135.0997  152.2086 C   0  0  0  0  0  0  0  0  0  0  0  0
  145.1194  135.6826  150.6726 C   0  0  0  0  0  0  0  0  0  0  0  0
  150.8333  141.7083  158.4640 H   0  0  0  0  0  0  0  0  0  0  0  0
  152.0630  140.4560  158.3152 H   0  0  0  0  0  0  0  0  0  0  0  0
  150.3609  140.0142  158.3804 H   0  0  0  0  0  0  0  0  0  0  0  0
  149.9610  141.1371  156.1799 H   0  0  0  0  0  0  0  0  0  0  0  0
  151.6179  141.6670  156.1254 H   0  0  0  0  0  0  0  0  0  0  0  0
  150.8890  137.0432  153.9959 H   0  0  0  0  0  0  0  0  0  0  0  0
  148.7805  140.0586  155.0551 H   0  0  0  0  0  0  0  0  0  0  0  0
  148.9918  139.2193  153.5523 H   0  0  0  0  0  0  0  0  0  0  0  0
  148.6214  137.4525  155.9670 H   0  0  0  0  0  0  0  0  0  0  0  0
  147.2480  138.4607  155.6130 H   0  0  0  0  0  0  0  0  0  0  0  0
  148.3041  137.0324  153.3032 H   0  0  0  0  0  0  0  0  0  0  0  0
  147.2318  135.5719  152.3117 H   0  0  0  0  0  0  0  0  0  0  0  0
  145.0254  134.2330  153.7984 H   0  0  0  0  0  0  0  0  0  0  0  0
  147.3672  133.0685  152.6644 H   0  0  0  0  0  0  0  0  0  0  0  0
  145.9337  132.2726  153.2842 H   0  0  0  0  0  0  0  0  0  0  0  0
  146.5547  133.0241  150.4328 H   0  0  0  0  0  0  0  0  0  0  0  0
  145.8236  131.5374  151.0304 H   0  0  0  0  0  0  0  0  0  0  0  0
  144.1908  133.3440  149.9442 H   0  0  0  0  0  0  0  0  0  0  0  0
  143.7396  132.6514  151.4912 H   0  0  0  0  0  0  0  0  0  0  0  0
  142.5128  135.2215  151.3905 H   0  0  0  0  0  0  0  0  0  0  0  0
  143.2979  136.0562  152.7266 H   0  0  0  0  0  0  0  0  0  0  0  0
  142.7966  134.3808  152.9091 H   0  0  0  0  0  0  0  0  0  0  0  0
  144.4514  135.7621  149.8141 H   0  0  0  0  0  0  0  0  0  0  0  0
  146.1074  135.4225  150.2920 H   0  0  0  0  0  0  0  0  0  0  0  0
  145.1858  136.6777  151.1139 H   0  0  0  0  0  0  0  0  0  0  0  0
  1  2  1  0  0  0  0
  1 21  1  0  0  0  0
  1 22  1  0  0  0  0
  1 23  1  0  0  0  0
  2  3  1  0  0  0  0
  2 24  1  0  0  0  0
  2 25  1  0  0  0  0
  3  7  1  0  0  0  0
  3  4  2  0  0  0  0
  4  5  1  0  0  0  0
  5  6  2  0  0  0  0
  6  7  1  0  0  0  0
  6 26  1  0  0  0  0
  7  8  1  0  0  0  0
  8  9  1  0  0  0  0
  8 27  1  0  0  0  0
  8 28  1  0  0  0  0
  9 10  1  0  0  0  0
  9 29  1  0  0  0  0
  9 30  1  0  0  0  0
 10 11  1  0  0  0  0
 10 31  1  0  0  0  0
 11 12  2  0  0  0  0
 11 13  1  0  0  0  0
 13 14  1  0  0  0  0
 13 32  1  0  0  0  0
 14 18  1  0  0  0  0
 14 15  1  0  0  0  0
 14 33  1  0  0  0  0
 15 16  1  0  0  0  0
 15 34  1  0  0  0  0
 15 35  1  0  0  0  0
 16 17  1  0  0  0  0
 16 36  1  0  0  0  0
 16 37  1  0  0  0  0
 17 18  1  0  0  0  0
 17 38  1  0  0  0  0
 17 39  1  0  0  0  0
 18 19  1  0  0  0  0
 18 20  1  0  0  0  0
 19 40  1  0  0  0  0
 19 41  1  0  0  0  0
 19 42  1  0  0  0  0
 20 43  1  0  0  0  0
 20 44  1  0  0  0  0
 20 45  1  0  0  0  0
M  END
> <s_m_source_file>
AV-unprocessed.smi

> <i_m_source_file_index>
888

> <i_lp_mmshare_version>
43012

> <i_f3d_flags>
0

> <s_epik_input>
W0NIM11bQ0gyXWMxbm5bY0hdbjFbQ0gyXVtDSDJdW05IXUMoPU8pW05IXVtDQEBIXShDMihbQ0gzXSlbQ0gzXSlbQ0gyXVtDSDJdW0NIMl0y

> <s_epik_cmdline>
J2VwaWtfcHl0aG9uJywgJy1waCcsICc3LjAnLCAnLXRuJywgJzgnLCAnLW1hJywgJzIwMCcsICctbWV0YWxfYmluZGluZycsICctaW1hZScsICc8aW5maWxlLm1hZT4nLCAnLW9tYWUnLCAnPG91dGZpbGUubWFlPic=

> <r_lp_tautomer_probability>
1

> <r_epik_Ionization_Penalty>
0.000379534

> <r_epik_Ionization_Penalty_Charging>
0

> <r_epik_Ionization_Penalty_Neutral>
0.000379534

> <r_epik_State_Penalty>
-0

> <r_epik_Charging_Adjusted_Penalty>
0

> <i_epik_Tot_Q>
0

> <i_epik_Tot_abs_Q>
0

> <r_epik_Metal_State_Penalty>
-0

> <b_epik_Metal_Only>
0

> <s_lp_Force_Field>
OPLS_2005

> <r_lp_Energy>
31.9266

> <b_lp_Chiralities_Consistent>
1

> <s_lp_Variant>
AV-unprocessed.smi:888-1

> <Gold.Version>
5.8.1

> <Gold.Id.Protein>
6NUR|6NUR_protein|mol2

> <Gold.PLP.Fitness>
46.9534

> <Gold.PLP.PLP>
-35.6692

> <Gold.PLP.part.hbond>
-4.0000

> <Gold.PLP.part.metal>
0.0000

> <Gold.PLP.part.buried>
-4.6997

> <Gold.PLP.part.nonpolar>
-27.6421

> <Gold.PLP.part.repulsive>
0.0848

> <Gold.PLP.ligand.clash>
0.0000

> <Gold.PLP.ligand.torsion>
0.4291

> <Gold.PLP.Chemscore.Hbond>
2.9869

> <Gold.PLP.Chemscore.CHOScore>
1.0427

> <Gold.PLP.Chemscore.Metal>
0.0000

> <Gold.Chemscore.Hbonds>
donor molecule, donor type, donor heavy atom, donor atom, acceptor molecule, acceptor atom, score
      L1  H    10    31       P1  7948  1.00
      L1  H    13    32       P1  7948  0.93
      P1  H  7997  8008       L1     4  0.55
      P1  H 10752 10765       L1     5  0.07
      L1  C     6    26       P1  7949  0.48

> <Gold.PLP.Chemscore.Internal.Correction>
0.0535

> <Gold.Rescore>
     Score         DG    S(hbond)    S(metal)    S(lipo)     H(rot)  DE(clash)    DE(int)     intcor
     15.73     -16.22       2.82        0.00      55.80       2.03       0.01       0.49       ----

> <Gold.Chemscore.Fitness>
15.7255

> <Gold.Chemscore.DG>
-16.2227

> <Gold.Chemscore.ZeroCoef>
-5.4800

> <Gold.Chemscore.Hbond>
2.8173

> <Gold.Chemscore.Metal>
0.0000

> <Gold.Chemscore.Lipo>
55.7962

> <Gold.Chemscore.Internal_Hbond>
0.0000

> <Gold.Chemscore.DEClash>
0.0096

> <Gold.Chemscore.DEInternal>
0.4876

> <Gold.Chemscore.Rot>
2.0293

> <Gold.Chemscore.Internal.Correction>
   9.000000E+99

> <Gold.Chemscore.Hbonds>
donor molecule, donor type, donor heavy atom, donor atom, acceptor molecule, acceptor atom, score
      L1  H    10    31       P1  7948  0.97
      L1  H    13    32       P1  7948  0.90
      P1  H  7997  8008       L1     4  0.54
      P1  H 10752 10765       L1     5  0.01

> <Gold.Chemscore.Hbond.Weighted>
-9.4096

> <Gold.Chemscore.Metal.Weighted>
-0.0000

> <Gold.Chemscore.Lipo.Weighted>
-6.5282

> <Gold.Chemscore.Internal_Hbond.Weighted>
0.0000

> <Gold.Chemscore.DEClash.Weighted>
0.0096

> <Gold.Chemscore.DEInternal.Weighted>
0.4876

> <Gold.Chemscore.Rot.Weighted>
5.1950

> <Gold.Chemscore.Internal.Correction.Weighted>
   9.000000E+99

> <Gold.Protein.RotatedTorsions>
[ 6907 6896 6895 6894 ] final  160.32 input  -60.11 | X-H torsion
[ 7974 7965 7964 7962 ] final -155.54 input  175.53 | X-H torsion
[ 8008 7997 7996 7995 ] final  -22.98 input   59.86 | X-H torsion
[ 10167 10162 10161 10158 ] final  -92.12 input  -65.29 | X-H torsion
[ 10718 10713 10712 10709 ] final -170.87 input   66.30 | X-H torsion
[ 10763 10752 10751 10750 ] final  169.28 input  -60.55 | X-H torsion
[ 11005 11000 10999 10996 ] final  -50.60 input  -57.11 | X-H torsion

> <Gold.Protein.ActiveResidues>
 VAL166  LYS551  ARG553  GLY616  TRP617  ASP618  TYR619  PRO620  LYS621  CYS622 
 ASP623  PHE694  ASN695  SER759  ASP760  ASP761  ALA762  ILE779  LEU786  VAL792 
 PHE793  MET794  SER795  GLU796  ALA797  LYS798  CYS799  TRP800  GLU811  SER814 

> <Gold.Protein.RotatedAtoms>
  151.9724  133.3730  159.4076 H   0  0  0  0  0  0  0  0  0  0  0  0  # atno 6907 bound_to 6896
  150.6947  134.4125  159.5177 H   0  0  0  0  0  0  0  0  0  0  0  0  # atno 6908 bound_to 6896
  152.1832  134.8736  160.0575 H   0  0  0  0  0  0  0  0  0  0  0  0  # atno 6909 bound_to 6896
  144.7635  140.4234  143.5959 H   0  0  0  0  0  0  0  0  0  0  0  0  # atno 7974 bound_to 7965
  154.4612  140.1993  156.0240 H   0  0  0  0  0  0  0  0  0  0  0  0  # atno 8008 bound_to 7997
  156.0843  140.3267  155.7705 H   0  0  0  0  0  0  0  0  0  0  0  0  # atno 8009 bound_to 7997
  155.5060  140.0558  157.2922 H   0  0  0  0  0  0  0  0  0  0  0  0  # atno 8010 bound_to 7997
  140.3380  143.2958  151.9868 H   0  0  0  0  0  0  0  0  0  0  0  0  # atno 10167 bound_to 10162
  156.7326  130.9312  151.3105 H   0  0  0  0  0  0  0  0  0  0  0  0  # atno 10718 bound_to 10713
  154.3808  135.2753  155.2212 H   0  0  0  0  0  0  0  0  0  0  0  0  # atno 10763 bound_to 10752
  154.4319  135.5975  153.6078 H   0  0  0  0  0  0  0  0  0  0  0  0  # atno 10764 bound_to 10752
  152.9834  135.5998  154.4051 H   0  0  0  0  0  0  0  0  0  0  0  0  # atno 10765 bound_to 10752
  141.0825  133.6650  156.3755 H   0  0  0  0  0  0  0  0  0  0  0  0  # atno 11005 bound_to 11000
  145.6543  139.1570  143.2844 LP  0  0  0  0  0  0  0  0  0  0  0  0  # atno 17320 bound_to 7965
  146.1721  140.6630  142.9228 LP  0  0  0  0  0  0  0  0  0  0  0  0  # atno 17321 bound_to 7965
  139.4845  144.6181  151.7308 LP  0  0  0  0  0  0  0  0  0  0  0  0  # atno 17342 bound_to 10162
  140.5336  144.0691  150.6062 LP  0  0  0  0  0  0  0  0  0  0  0  0  # atno 17343 bound_to 10162
  157.6852  130.9179  150.0369 LP  0  0  0  0  0  0  0  0  0  0  0  0  # atno 17370 bound_to 10713
  156.1519  130.3642  149.9426 LP  0  0  0  0  0  0  0  0  0  0  0  0  # atno 17371 bound_to 10713
  140.5437  134.6095  157.5387 LP  0  0  0  0  0  0  0  0  0  0  0  0  # atno 17394 bound_to 11000
  139.9640  134.7404  156.0177 LP  0  0  0  0  0  0  0  0  0  0  0  0  # atno 17395 bound_to 11000

$$$$
