AV-unprocessed.smi:3057|AV-procd|sdf|11667|dock9
  -GOLD-   2272017 73D 1   1.00000     0.00000
 Structure written by MMmdl.
 41 43  0  0  0  0  0  0  0  0  2 V2000
  159.1402  137.4750  162.5107 C   0  0  0  0  0  0  0  0  0  0  0  0
  158.0860  138.5982  162.5956 C   0  0  1  0  0  0  0  0  0  0  0  0
  158.6035  139.7879  163.4201 C   0  0  0  0  0  0  0  0  0  0  0  0
  159.2504  140.7106  162.3756 C   0  0  0  0  0  0  0  0  0  0  0  0
  158.5319  140.3125  161.0946 C   0  0  0  0  0  0  0  0  0  0  0  0
  158.5558  140.9924  160.0695 O   0  0  0  0  0  0  0  0  0  0  0  0
  157.8409  139.1775  161.2878 N   0  0  0  0  0  0  0  0  0  0  0  0
  156.7426  138.5979  160.4994 C   0  0  2  0  0  0  0  0  0  0  0  0
  155.7103  139.6414  160.0337 C   0  0  0  0  0  0  0  0  0  0  0  0
  156.0470  140.5563  159.2805 O   0  0  0  0  0  0  0  0  0  0  0  0
  154.4590  139.4960  160.4959 N   0  0  0  0  0  0  0  0  0  0  0  0
  153.3383  140.3589  160.1432 C   0  0  0  0  0  0  0  0  0  0  0  0
  153.4470  141.7305  160.8315 C   0  0  0  0  0  0  0  0  0  0  0  0
  152.4369  142.7249  160.2943 C   0  0  0  0  0  0  0  0  0  0  0  0
  151.5306  142.3959  159.2630 C   0  0  0  0  0  0  0  0  0  0  0  0
  150.6145  143.3705  158.8147 C   0  0  0  0  0  0  0  0  0  0  0  0
  150.6239  144.6510  159.4059 C   0  0  0  0  0  0  0  0  0  0  0  0
  151.5501  144.9249  160.4330 C   0  0  0  0  0  0  0  0  0  0  0  0
  152.4112  143.9645  160.8355 N   0  3  0  0  0  0  0  0  0  0  0  0
  156.1025  137.4985  161.3756 C   0  0  0  0  0  0  0  0  0  0  0  0
  156.4756  137.9529  163.0916 S   0  0  0  0  0  0  0  0  0  0  0  0
  160.1005  137.8523  162.1575 H   0  0  0  0  0  0  0  0  0  0  0  0
  158.8349  136.6797  161.8308 H   0  0  0  0  0  0  0  0  0  0  0  0
  159.3062  137.0234  163.4891 H   0  0  0  0  0  0  0  0  0  0  0  0
  157.7755  140.3089  163.9037 H   0  0  0  0  0  0  0  0  0  0  0  0
  159.3023  139.4881  164.2017 H   0  0  0  0  0  0  0  0  0  0  0  0
  159.1112  141.7660  162.6115 H   0  0  0  0  0  0  0  0  0  0  0  0
  160.3167  140.5092  162.2688 H   0  0  0  0  0  0  0  0  0  0  0  0
  157.1813  138.1309  159.6160 H   0  0  0  0  0  0  0  0  0  0  0  0
  154.2666  138.7231  161.1171 H   0  0  0  0  0  0  0  0  0  0  0  0
  153.3322  140.4858  159.0603 H   0  0  0  0  0  0  0  0  0  0  0  0
  152.3984  139.8696  160.4044 H   0  0  0  0  0  0  0  0  0  0  0  0
  153.2946  141.6300  161.9072 H   0  0  0  0  0  0  0  0  0  0  0  0
  154.4522  142.1339  160.7019 H   0  0  0  0  0  0  0  0  0  0  0  0
  151.5352  141.4105  158.8200 H   0  0  0  0  0  0  0  0  0  0  0  0
  149.9130  143.1380  158.0271 H   0  0  0  0  0  0  0  0  0  0  0  0
  149.9308  145.4114  159.0764 H   0  0  0  0  0  0  0  0  0  0  0  0
  151.6282  145.8751  160.9408 H   0  0  0  0  0  0  0  0  0  0  0  0
  155.0275  137.3906  161.2248 H   0  0  0  0  0  0  0  0  0  0  0  0
  156.5597  136.5320  161.1637 H   0  0  0  0  0  0  0  0  0  0  0  0
  153.0728  144.1841  161.5809 H   0  0  0  0  0  0  0  0  0  0  0  0
  1  2  1  0  0  0  0
  1 22  1  0  0  0  0
  1 23  1  0  0  0  0
  1 24  1  0  0  0  0
  2  7  1  0  0  0  0
  2 21  1  0  0  0  0
  2  3  1  0  0  0  0
  3  4  1  0  0  0  0
  3 25  1  0  0  0  0
  3 26  1  0  0  0  0
  4  5  1  0  0  0  0
  4 27  1  0  0  0  0
  4 28  1  0  0  0  0
  5  6  2  0  0  0  0
  5  7  1  0  0  0  0
  7  8  1  0  0  0  0
  8  9  1  0  0  0  0
  8 20  1  0  0  0  0
  8 29  1  0  0  0  0
  9 10  2  0  0  0  0
  9 11  1  0  0  0  0
 11 12  1  0  0  0  0
 11 30  1  0  0  0  0
 12 13  1  0  0  0  0
 12 31  1  0  0  0  0
 12 32  1  0  0  0  0
 13 14  1  0  0  0  0
 13 33  1  0  0  0  0
 13 34  1  0  0  0  0
 14 19  1  0  0  0  0
 14 15  2  0  0  0  0
 15 16  1  0  0  0  0
 15 35  1  0  0  0  0
 16 17  2  0  0  0  0
 16 36  1  0  0  0  0
 17 18  1  0  0  0  0
 17 37  1  0  0  0  0
 18 19  2  0  0  0  0
 18 38  1  0  0  0  0
 19 41  1  0  0  0  0
 20 21  1  0  0  0  0
 20 39  1  0  0  0  0
 20 40  1  0  0  0  0
M  CHG  1  19   1
M  END
> <s_m_source_file>
AV-unprocessed.smi

> <i_m_source_file_index>
3057

> <i_lp_mmshare_version>
43012

> <i_f3d_flags>
0

> <s_epik_input>
W0NIMl0xW0NIMl1DKD1PKU4oW0NAQF0xMltDSDNdKVtDQEhdKFtDSDJdUzIpQyg9TylbTkhdW0NIMl1bQ0gyXWMzW2NIXVtjSF1bY0hdW2NIXW4z

> <s_epik_cmdline>
J2VwaWtfcHl0aG9uJywgJy1waCcsICc3LjAnLCAnLXRuJywgJzgnLCAnLW1hJywgJzIwMCcsICctbWV0YWxfYmluZGluZycsICctaW1hZScsICc8aW5maWxlLm1hZT4nLCAnLW9tYWUnLCAnPG91dGZpbGUubWFlPic=

> <r_epik_Ionization_Penalty>
1.8888

> <r_epik_Ionization_Penalty_Charging>
1.8888

> <r_epik_Ionization_Penalty_Neutral>
1.66252e-07

> <r_epik_State_Penalty>
2.00916

> <r_epik_Charging_Adjusted_Penalty>
3.89796

> <i_epik_Tot_Q>
1

> <i_epik_Tot_abs_Q>
1

> <r_epik_Metal_State_Penalty>
2.03343

> <b_epik_Metal_Only>
0

> <s_lp_Force_Field>
OPLS_2005

> <r_lp_Energy>
30.9082

> <b_lp_Chiralities_Consistent>
1

> <s_lp_Variant>
AV-unprocessed.smi:3057-7

> <Gold.Version>
5.8.1

> <Gold.Id.Protein>
6NUR|6NUR_protein|mol2

> <Gold.PLP.Fitness>
44.5678

> <Gold.PLP.PLP>
-45.4478

> <Gold.PLP.part.hbond>
-1.8791

> <Gold.PLP.part.metal>
0.0000

> <Gold.PLP.part.buried>
-6.2427

> <Gold.PLP.part.nonpolar>
-37.9152

> <Gold.PLP.part.repulsive>
0.0747

> <Gold.PLP.ligand.clash>
0.6455

> <Gold.PLP.ligand.torsion>
0.1250

> <Gold.PLP.Chemscore.Hbond>
0.0000

> <Gold.PLP.Chemscore.CHOScore>
0.0000

> <Gold.PLP.Chemscore.Metal>
0.0000

> <Gold.Chemscore.Hbonds>
donor molecule, donor type, donor heavy atom, donor atom, acceptor molecule, acceptor atom, score
      P1  H  7997  8008       L1    10  0.37

> <Gold.PLP.Chemscore.Internal.Correction>
0.0154

> <Gold.Rescore>
     Score         DG    S(hbond)    S(metal)    S(lipo)     H(rot)  DE(clash)    DE(int)     intcor
     11.26     -14.38       0.00        0.00     111.62       1.62       0.31       2.81       ----

> <Gold.Chemscore.Fitness>
11.2613

> <Gold.Chemscore.DG>
-14.3839

> <Gold.Chemscore.ZeroCoef>
-5.4800

> <Gold.Chemscore.Hbond>
0.0000

> <Gold.Chemscore.Metal>
0.0000

> <Gold.Chemscore.Lipo>
111.6214

> <Gold.Chemscore.Internal_Hbond>
0.0000

> <Gold.Chemscore.DEClash>
0.3095

> <Gold.Chemscore.DEInternal>
2.8132

> <Gold.Chemscore.Rot>
1.6234

> <Gold.Chemscore.Internal.Correction>
   9.000000E+99

> <Gold.Chemscore.Hbonds>
donor molecule, donor type, donor heavy atom, donor atom, acceptor molecule, acceptor atom, score
      P1  H  7997  8008       L1    10  0.33

> <Gold.Chemscore.Hbond.Weighted>
-0.0000

> <Gold.Chemscore.Metal.Weighted>
-0.0000

> <Gold.Chemscore.Lipo.Weighted>
-13.0597

> <Gold.Chemscore.Internal_Hbond.Weighted>
0.0000

> <Gold.Chemscore.DEClash.Weighted>
0.3095

> <Gold.Chemscore.DEInternal.Weighted>
2.8132

> <Gold.Chemscore.Rot.Weighted>
4.1558

> <Gold.Chemscore.Internal.Correction.Weighted>
   9.000000E+99

> <Gold.Protein.RotatedTorsions>
[ 6907 6896 6895 6894 ] final  124.48 input  -60.11 | X-H torsion
[ 7974 7965 7964 7962 ] final   99.25 input  175.53 | X-H torsion
[ 8008 7997 7996 7995 ] final -172.96 input   59.86 | X-H torsion
[ 10167 10162 10161 10158 ] final  124.13 input  -65.29 | X-H torsion
[ 10718 10713 10712 10709 ] final   38.78 input   66.30 | X-H torsion
[ 10763 10752 10751 10750 ] final  130.14 input  -60.55 | X-H torsion
[ 11005 11000 10999 10996 ] final -176.63 input  -57.11 | X-H torsion

> <Gold.Protein.ActiveResidues>
 VAL166  LYS551  ARG553  GLY616  TRP617  ASP618  TYR619  PRO620  LYS621  CYS622 
 ASP623  PHE694  ASN695  SER759  ASP760  ASP761  ALA762  ILE779  LEU786  VAL792 
 PHE793  MET794  SER795  GLU796  ALA797  LYS798  CYS799  TRP800  GLU811  SER814 

> <Gold.Protein.RotatedAtoms>
  152.4074  133.6910  159.6367 H   0  0  0  0  0  0  0  0  0  0  0  0  # atno 6907 bound_to 6896
  150.7957  133.8685  159.3260 H   0  0  0  0  0  0  0  0  0  0  0  0  # atno 6908 bound_to 6896
  151.6435  135.1011  160.0198 H   0  0  0  0  0  0  0  0  0  0  0  0  # atno 6909 bound_to 6896
  145.4014  139.2347  143.3298 H   0  0  0  0  0  0  0  0  0  0  0  0  # atno 7974 bound_to 7965
  155.9513  140.1127  157.0974 H   0  0  0  0  0  0  0  0  0  0  0  0  # atno 8008 bound_to 7997
  154.4110  140.1200  156.5122 H   0  0  0  0  0  0  0  0  0  0  0  0  # atno 8009 bound_to 7997
  155.6839  140.3473  155.4868 H   0  0  0  0  0  0  0  0  0  0  0  0  # atno 8010 bound_to 7997
  139.5759  144.6963  151.3654 H   0  0  0  0  0  0  0  0  0  0  0  0  # atno 10167 bound_to 10162
  157.3628  130.7659  149.7060 H   0  0  0  0  0  0  0  0  0  0  0  0  # atno 10718 bound_to 10713
  153.7532  135.3207  155.3325 H   0  0  0  0  0  0  0  0  0  0  0  0  # atno 10763 bound_to 10752
  154.8256  135.4572  154.0911 H   0  0  0  0  0  0  0  0  0  0  0  0  # atno 10764 bound_to 10752
  153.2120  135.6937  153.8186 H   0  0  0  0  0  0  0  0  0  0  0  0  # atno 10765 bound_to 10752
  140.4499  134.6353  157.4796 H   0  0  0  0  0  0  0  0  0  0  0  0  # atno 11005 bound_to 11000
  146.2750  140.4712  142.8799 LP  0  0  0  0  0  0  0  0  0  0  0  0  # atno 17320 bound_to 7965
  144.8371  140.6799  143.6253 LP  0  0  0  0  0  0  0  0  0  0  0  0  # atno 17321 bound_to 7965
  140.7042  143.7556  150.7453 LP  0  0  0  0  0  0  0  0  0  0  0  0  # atno 17342 bound_to 10162
  140.1076  143.4729  152.2389 LP  0  0  0  0  0  0  0  0  0  0  0  0  # atno 17343 bound_to 10162
  155.9740  130.4109  150.3953 LP  0  0  0  0  0  0  0  0  0  0  0  0  # atno 17370 bound_to 10713
  157.2033  131.0443  151.2639 LP  0  0  0  0  0  0  0  0  0  0  0  0  # atno 17371 bound_to 10713
  140.0013  134.6831  155.9525 LP  0  0  0  0  0  0  0  0  0  0  0  0  # atno 17394 bound_to 11000
  141.1668  133.6537  156.4510 LP  0  0  0  0  0  0  0  0  0  0  0  0  # atno 17395 bound_to 11000

$$$$
