AV-unprocessed.smi:1524|AV-procd|sdf|6140|dock8
  -GOLD-   22720 6283D 1   1.00000     0.00000
 Structure written by MMmdl.
 34 35  0  0  0  0  0  0  0  0  2 V2000
  146.3586  137.2641  154.4582 O   0  0  0  0  0  0  0  0  0  0  0  0
  146.8838  137.4325  153.3597 C   0  0  0  0  0  0  0  0  0  0  0  0
  146.5001  136.8377  152.2116 N   0  0  0  0  0  0  0  0  0  0  0  0
  145.5013  135.8754  151.9883 C   0  0  0  0  0  0  0  0  0  0  0  0
  145.6421  134.7761  151.1966 C   0  0  0  0  0  0  0  0  0  0  0  0
  144.5593  133.8220  150.9907 C   0  0  0  0  0  0  0  0  0  0  0  0
  144.6648  132.5808  150.1237 C   0  0  0  0  0  0  0  0  0  0  0  0
  145.9251  132.4004  149.7303 F   0  0  0  0  0  0  0  0  0  0  0  0
  144.2900  131.5034  150.8126 F   0  0  0  0  0  0  0  0  0  0  0  0
  143.8952  132.6758  149.0393 F   0  0  0  0  0  0  0  0  0  0  0  0
  143.4094  134.1771  151.6671 C   0  0  0  0  0  0  0  0  0  0  0  0
  143.1849  135.2477  152.4601 N   0  5  0  0  0  0  0  0  0  0  0  0
  144.2055  136.1308  152.6513 C   0  0  0  0  0  0  0  0  0  0  0  0
  144.0692  137.1293  153.3596 O   0  0  0  0  0  0  0  0  0  0  0  0
  147.9156  138.2842  153.2140 N   0  0  0  0  0  0  0  0  0  0  0  0
  148.5813  139.0924  154.2388 C   0  0  0  0  0  0  0  0  0  0  0  0
  148.5732  140.5843  153.8580 C   0  0  0  0  0  0  0  0  0  0  0  0
  149.4239  141.4038  154.8419 C   0  0  0  0  0  0  0  0  0  0  0  0
  150.7495  140.8870  154.8906 O   0  0  0  0  0  0  0  0  0  0  0  0
  150.8021  139.5451  155.3623 C   0  0  0  0  0  0  0  0  0  0  0  0
  150.0342  138.6209  154.4034 C   0  0  0  0  0  0  0  0  0  0  0  0
  146.9788  137.1368  151.3745 H   0  0  0  0  0  0  0  0  0  0  0  0
  146.5654  134.5869  150.6750 H   0  0  0  0  0  0  0  0  0  0  0  0
  142.5393  133.4960  151.5515 H   0  0  0  0  0  0  0  0  0  0  0  0
  148.2599  138.4070  152.2729 H   0  0  0  0  0  0  0  0  0  0  0  0
  148.0777  138.9620  155.1986 H   0  0  0  0  0  0  0  0  0  0  0  0
  148.9712  140.7108  152.8502 H   0  0  0  0  0  0  0  0  0  0  0  0
  147.5539  140.9719  153.8412 H   0  0  0  0  0  0  0  0  0  0  0  0
  149.4640  142.4455  154.5232 H   0  0  0  0  0  0  0  0  0  0  0  0
  148.9814  141.3937  155.8391 H   0  0  0  0  0  0  0  0  0  0  0  0
  151.8453  139.2350  155.4256 H   0  0  0  0  0  0  0  0  0  0  0  0
  150.3917  139.4863  156.3716 H   0  0  0  0  0  0  0  0  0  0  0  0
  150.0597  137.5952  154.7734 H   0  0  0  0  0  0  0  0  0  0  0  0
  150.5361  138.6159  153.4345 H   0  0  0  0  0  0  0  0  0  0  0  0
  1  2  2  0  0  0  0
  2  3  1  0  0  0  0
  2 15  1  0  0  0  0
  3  4  1  0  0  0  0
  3 22  1  0  0  0  0
  4 13  1  0  0  0  0
  4  5  2  0  0  0  0
  5  6  1  0  0  0  0
  5 23  1  0  0  0  0
  6  7  1  0  0  0  0
  6 11  2  0  0  0  0
  7  8  1  0  0  0  0
  7  9  1  0  0  0  0
  7 10  1  0  0  0  0
 11 12  1  0  0  0  0
 11 24  1  0  0  0  0
 12 13  1  0  0  0  0
 13 14  2  0  0  0  0
 15 16  1  0  0  0  0
 15 25  1  0  0  0  0
 16 21  1  0  0  0  0
 16 17  1  0  0  0  0
 16 26  1  0  0  0  0
 17 18  1  0  0  0  0
 17 27  1  0  0  0  0
 17 28  1  0  0  0  0
 18 19  1  0  0  0  0
 18 29  1  0  0  0  0
 18 30  1  0  0  0  0
 19 20  1  0  0  0  0
 20 21  1  0  0  0  0
 20 31  1  0  0  0  0
 20 32  1  0  0  0  0
 21 33  1  0  0  0  0
 21 34  1  0  0  0  0
M  CHG  1  12  -1
M  END
> <s_m_source_file>
AV-unprocessed.smi

> <i_m_source_file_index>
1524

> <i_lp_mmshare_version>
43012

> <i_f3d_flags>
0

> <s_epik_input>
W0NIMl0xW0NIMl1PW0NIMl1bQ0gyXVtDSF0xW05IXUMoPU8pW05IXWMyW2NIXWMoQyhGKShGKUYpW2NIXVtuSF1jMj1P

> <s_epik_cmdline>
J2VwaWtfcHl0aG9uJywgJy1waCcsICc3LjAnLCAnLXRuJywgJzgnLCAnLW1hJywgJzIwMCcsICctbWV0YWxfYmluZGluZycsICctaW1hZScsICc8aW5maWxlLm1hZT4nLCAnLW9tYWUnLCAnPG91dGZpbGUubWFlPic=

> <r_lp_tautomer_probability>
1

> <r_epik_Ionization_Penalty>
3.17101

> <r_epik_Ionization_Penalty_Charging>
0.175581

> <r_epik_Ionization_Penalty_Neutral>
2.99543

> <r_epik_State_Penalty>
2.99161

> <r_epik_Charging_Adjusted_Penalty>
3.16719

> <i_epik_Tot_Q>
-1

> <i_epik_Tot_abs_Q>
1

> <r_epik_Metal_State_Penalty>
0.453119

> <b_epik_Metal_Only>
1

> <s_lp_Force_Field>
OPLS_2005

> <r_lp_Energy>
32.5819

> <b_lp_Chiralities_Consistent>
1

> <s_lp_Variant>
AV-unprocessed.smi:1524-2

> <Gold.Version>
5.8.1

> <Gold.Id.Protein>
6NUR|6NUR_protein|mol2

> <Gold.PLP.Fitness>
38.3860

> <Gold.PLP.PLP>
-36.6995

> <Gold.PLP.part.hbond>
-3.3910

> <Gold.PLP.part.metal>
0.0000

> <Gold.PLP.part.buried>
0.6355

> <Gold.PLP.part.nonpolar>
-33.8998

> <Gold.PLP.part.repulsive>
0.5888

> <Gold.PLP.ligand.clash>
0.0000

> <Gold.PLP.ligand.torsion>
0.5559

> <Gold.PLP.Chemscore.Hbond>
0.9316

> <Gold.PLP.Chemscore.CHOScore>
0.0000

> <Gold.PLP.Chemscore.Metal>
0.0000

> <Gold.Chemscore.Hbonds>
donor molecule, donor type, donor heavy atom, donor atom, acceptor molecule, acceptor atom, score
      L1  H    15    25       P1  7957  0.12
      P1  H  7989  7998       L1    19  0.78

> <Gold.PLP.Chemscore.Internal.Correction>
0.0036

> <Gold.Rescore>
     Score         DG    S(hbond)    S(metal)    S(lipo)     H(rot)  DE(clash)    DE(int)     intcor
      8.98     -12.29       0.73        0.00      59.24       1.00       0.14       3.17       ----

> <Gold.Chemscore.Fitness>
8.9801

> <Gold.Chemscore.DG>
-12.2877

> <Gold.Chemscore.ZeroCoef>
-5.4800

> <Gold.Chemscore.Hbond>
0.7296

> <Gold.Chemscore.Metal>
0.0000

> <Gold.Chemscore.Lipo>
59.2368

> <Gold.Chemscore.Internal_Hbond>
0.0000

> <Gold.Chemscore.DEClash>
0.1366

> <Gold.Chemscore.DEInternal>
3.1710

> <Gold.Chemscore.Rot>
1.0000

> <Gold.Chemscore.Internal.Correction>
   9.000000E+99

> <Gold.Chemscore.Hbonds>
donor molecule, donor type, donor heavy atom, donor atom, acceptor molecule, acceptor atom, score
      L1  H     3    22       P1  7948  0.02
      L1  H    15    25       P1  7957  0.11
      P1  H  7989  7998       L1    19  0.41

> <Gold.Chemscore.Hbond.Weighted>
-2.4370

> <Gold.Chemscore.Metal.Weighted>
-0.0000

> <Gold.Chemscore.Lipo.Weighted>
-6.9307

> <Gold.Chemscore.Internal_Hbond.Weighted>
0.0000

> <Gold.Chemscore.DEClash.Weighted>
0.1366

> <Gold.Chemscore.DEInternal.Weighted>
3.1710

> <Gold.Chemscore.Rot.Weighted>
2.5600

> <Gold.Chemscore.Internal.Correction.Weighted>
   9.000000E+99

> <Gold.Protein.RotatedTorsions>
[ 6907 6896 6895 6894 ] final -157.99 input  -60.11 | X-H torsion
[ 7974 7965 7964 7962 ] final  -59.28 input  175.53 | X-H torsion
[ 8008 7997 7996 7995 ] final   76.19 input   59.86 | X-H torsion
[ 10167 10162 10161 10158 ] final -103.24 input  -65.29 | X-H torsion
[ 10718 10713 10712 10709 ] final  -58.06 input   66.30 | X-H torsion
[ 10763 10752 10751 10750 ] final   27.81 input  -60.55 | X-H torsion
[ 11005 11000 10999 10996 ] final  -35.44 input  -57.11 | X-H torsion

> <Gold.Protein.ActiveResidues>
 VAL166  LYS551  ARG553  GLY616  TRP617  ASP618  TYR619  PRO620  LYS621  CYS622 
 ASP623  PHE694  ASN695  SER759  ASP760  ASP761  ALA762  ILE779  LEU786  VAL792 
 PHE793  MET794  SER795  GLU796  ALA797  LYS798  CYS799  TRP800  GLU811  SER814 

> <Gold.Protein.RotatedAtoms>
  151.3113  133.4079  159.2646 H   0  0  0  0  0  0  0  0  0  0  0  0  # atno 6907 bound_to 6896
  151.0112  134.9399  159.8018 H   0  0  0  0  0  0  0  0  0  0  0  0  # atno 6908 bound_to 6896
  152.5301  134.3077  159.9154 H   0  0  0  0  0  0  0  0  0  0  0  0  # atno 6909 bound_to 6896
  145.8293  140.8490  143.0092 H   0  0  0  0  0  0  0  0  0  0  0  0  # atno 7974 bound_to 7965
  155.8238  140.3469  155.5530 H   0  0  0  0  0  0  0  0  0  0  0  0  # atno 8008 bound_to 7997
  155.8314  140.0927  157.1810 H   0  0  0  0  0  0  0  0  0  0  0  0  # atno 8009 bound_to 7997
  154.4004  140.1411  156.3606 H   0  0  0  0  0  0  0  0  0  0  0  0  # atno 8010 bound_to 7997
  140.2221  143.3668  152.0961 H   0  0  0  0  0  0  0  0  0  0  0  0  # atno 10167 bound_to 10162
  156.1163  130.4170  150.0525 H   0  0  0  0  0  0  0  0  0  0  0  0  # atno 10718 bound_to 10713
  153.0531  135.6528  154.0643 H   0  0  0  0  0  0  0  0  0  0  0  0  # atno 10763 bound_to 10752
  154.0327  135.2910  155.3368 H   0  0  0  0  0  0  0  0  0  0  0  0  # atno 10764 bound_to 10752
  154.6832  135.5312  153.8357 H   0  0  0  0  0  0  0  0  0  0  0  0  # atno 10765 bound_to 10752
  140.9796  133.7064  156.1661 H   0  0  0  0  0  0  0  0  0  0  0  0  # atno 11005 bound_to 11000
  144.6741  140.0648  143.7475 LP  0  0  0  0  0  0  0  0  0  0  0  0  # atno 17320 bound_to 7965
  145.9589  139.2786  143.1167 LP  0  0  0  0  0  0  0  0  0  0  0  0  # atno 17321 bound_to 7965
  139.5140  144.6942  151.5677 LP  0  0  0  0  0  0  0  0  0  0  0  0  # atno 17342 bound_to 10162
  140.6247  143.9190  150.6555 LP  0  0  0  0  0  0  0  0  0  0  0  0  # atno 17343 bound_to 10162
  156.8476  130.9447  151.3628 LP  0  0  0  0  0  0  0  0  0  0  0  0  # atno 17370 bound_to 10713
  157.6347  130.8757  149.9337 LP  0  0  0  0  0  0  0  0  0  0  0  0  # atno 17371 bound_to 10713
  140.7206  134.4362  157.5575 LP  0  0  0  0  0  0  0  0  0  0  0  0  # atno 17394 bound_to 11000
  139.8945  134.8706  156.2176 LP  0  0  0  0  0  0  0  0  0  0  0  0  # atno 17395 bound_to 11000

$$$$
