AV-unprocessed.smi:54|AV-procd|sdf|549|dock3
  -GOLD-   2262016443D 1   1.00000     0.00000
 Structure written by MMmdl.
 43 45  0  0  0  0  0  0  0  0  2 V2000
  152.8698  143.0439  160.2525 C   0  0  0  0  0  0  0  0  0  0  0  0
  152.4489  143.3057  158.7966 C   0  0  0  0  0  0  0  0  0  0  0  0
  151.8373  144.7071  158.6355 C   0  0  0  0  0  0  0  0  0  0  0  0
  151.4709  142.2266  158.3099 C   0  0  0  0  0  0  0  0  0  0  0  0
  150.3493  142.5634  157.9239 O   0  0  0  0  0  0  0  0  0  0  0  0
  151.9471  140.9623  158.3349 N   0  0  0  0  0  0  0  0  0  0  0  0
  151.3104  139.7755  157.9551 C   0  0  0  0  0  0  0  0  0  0  0  0
  150.8386  139.8106  156.7326 N   0  0  0  0  0  0  0  0  0  0  0  0
  150.2405  138.6224  156.3569 C   0  0  0  0  0  0  0  0  0  0  0  0
  150.1016  137.4855  157.1052 C   0  0  0  0  0  0  0  0  0  0  0  0
  149.4118  136.5008  156.4103 N   0  0  0  0  0  0  0  0  0  0  0  0
  149.1621  137.1042  155.2501 C   0  0  0  0  0  0  0  0  0  0  0  0
  149.6517  138.3558  155.1231 N   0  0  0  0  0  0  0  0  0  0  0  0
  149.4902  139.2917  153.9591 C   0  0  2  0  0  0  0  0  0  0  0  0
  149.9945  140.5470  154.3199 O   0  0  0  0  0  0  0  0  0  0  0  0
  148.9361  141.4410  154.6507 C   0  0  2  0  0  0  0  0  0  0  0  0
  148.6133  141.3465  156.1592 C   0  0  0  0  0  0  0  0  0  0  0  0
  147.6403  142.3029  156.5261 O   0  0  0  0  0  0  0  0  0  0  0  0
  147.8257  141.0001  153.6877 C   0  0  2  0  0  0  0  0  0  0  0  0
  146.5313  141.3436  154.1414 O   0  0  0  0  0  0  0  0  0  0  0  0
  148.0036  139.4884  153.5960 C   0  0  1  0  0  0  0  0  0  0  0  0
  147.7281  139.0546  152.2789 O   0  0  0  0  0  0  0  0  0  0  0  0
  150.6643  137.5103  158.4757 C   0  0  0  0  0  0  0  0  0  0  0  0
  150.5634  136.5093  159.1825 O   0  0  0  0  0  0  0  0  0  0  0  0
  151.2646  138.6817  158.8423 N   0  5  0  0  0  0  0  0  0  0  0  0
  150.0944  138.8403  153.1712 H   0  0  0  0  0  0  0  0  0  0  0  0
  149.2656  142.4552  154.4212 H   0  0  0  0  0  0  0  0  0  0  0  0
  148.0036  141.4660  152.7170 H   0  0  0  0  0  0  0  0  0  0  0  0
  147.3634  138.9751  154.3152 H   0  0  0  0  0  0  0  0  0  0  0  0
  153.2884  142.0437  160.3703 H   0  0  0  0  0  0  0  0  0  0  0  0
  152.0259  143.1348  160.9373 H   0  0  0  0  0  0  0  0  0  0  0  0
  153.6313  143.7560  160.5716 H   0  0  0  0  0  0  0  0  0  0  0  0
  153.3468  143.2605  158.1780 H   0  0  0  0  0  0  0  0  0  0  0  0
  151.5281  144.8888  157.6051 H   0  0  0  0  0  0  0  0  0  0  0  0
  152.5596  145.4794  158.9009 H   0  0  0  0  0  0  0  0  0  0  0  0
  150.9631  144.8397  159.2740 H   0  0  0  0  0  0  0  0  0  0  0  0
  152.9168  140.8793  158.6020 H   0  0  0  0  0  0  0  0  0  0  0  0
  148.6004  136.6148  154.4686 H   0  0  0  0  0  0  0  0  0  0  0  0
  148.2785  140.3476  156.4405 H   0  0  0  0  0  0  0  0  0  0  0  0
  149.5074  141.5632  156.7432 H   0  0  0  0  0  0  0  0  0  0  0  0
  147.9308  143.1530  156.2326 H   0  0  0  0  0  0  0  0  0  0  0  0
  145.8987  140.9931  153.5330 H   0  0  0  0  0  0  0  0  0  0  0  0
  148.5139  139.1476  151.7629 H   0  0  0  0  0  0  0  0  0  0  0  0
  1  2  1  0  0  0  0
  1 30  1  0  0  0  0
  1 31  1  0  0  0  0
  1 32  1  0  0  0  0
  2  3  1  0  0  0  0
  2  4  1  0  0  0  0
  2 33  1  0  0  0  0
  3 34  1  0  0  0  0
  3 35  1  0  0  0  0
  3 36  1  0  0  0  0
  4  5  2  0  0  0  0
  4  6  1  0  0  0  0
  6 37  1  0  0  0  0
  6  7  1  0  0  0  0
  7 25  1  0  0  0  0
  7  8  2  0  0  0  0
  8  9  1  0  0  0  0
  9 13  1  0  0  0  0
  9 10  2  0  0  0  0
 10 11  1  0  0  0  0
 10 23  1  0  0  0  0
 11 12  2  0  0  0  0
 12 13  1  0  0  0  0
 12 38  1  0  0  0  0
 13 14  1  0  0  0  0
 14 26  1  0  0  0  0
 14 21  1  0  0  0  0
 14 15  1  0  0  0  0
 15 16  1  0  0  0  0
 16 27  1  0  0  0  0
 16 17  1  0  0  0  0
 16 19  1  0  0  0  0
 17 18  1  0  0  0  0
 17 39  1  0  0  0  0
 17 40  1  0  0  0  0
 18 41  1  0  0  0  0
 19 28  1  0  0  0  0
 19 20  1  0  0  0  0
 19 21  1  0  0  0  0
 20 42  1  0  0  0  0
 21 29  1  0  0  0  0
 21 22  1  0  0  0  0
 22 43  1  0  0  0  0
 23 24  2  0  0  0  0
 23 25  1  0  0  0  0
M  CHG  1  25  -1
M  END
> <s_m_source_file>
AV-unprocessed.smi

> <i_m_source_file_index>
54

> <i_lp_mmshare_version>
43012

> <i_f3d_flags>
0

> <s_epik_input>
W0NIM11bQ0hdKFtDSDNdKUMoPU8pW05IXWMobjEpW25IXWMoPU8pYyhjMTIpbltjSF1uMltDQEBIXTNPW0NASF0oW0NIMl1bT0hdKVtDQEBIXShbT0hdKVtDQEhdM1tPSF0=

> <s_epik_cmdline>
J2VwaWtfcHl0aG9uJywgJy1waCcsICc3LjAnLCAnLXRuJywgJzgnLCAnLW1hJywgJzIwMCcsICctbWV0YWxfYmluZGluZycsICctaW1hZScsICc8aW5maWxlLm1hZT4nLCAnLW9tYWUnLCAnPG91dGZpbGUubWFlPic=

> <r_lp_tautomer_probability>
0.85571

> <r_epik_Ionization_Penalty>
1.75936

> <r_epik_Ionization_Penalty_Charging>
4.55893e-11

> <r_epik_Ionization_Penalty_Neutral>
1.75936

> <r_epik_State_Penalty>
1.72072

> <r_epik_Charging_Adjusted_Penalty>
1.72072

> <i_epik_Tot_Q>
-1

> <i_epik_Tot_abs_Q>
1

> <r_epik_Metal_State_Penalty>
0.400338

> <b_epik_Metal_Only>
1

> <s_epik_Chemistry_Notes>
This compound contains an acetal/aminal-like group ( X-CH(R)-Y where X, Y are N, S, or O) that may be acid/base labile, releasing an aldehyde.

> <s_lp_Force_Field>
OPLS_2005

> <r_lp_Energy>
58.7514

> <b_lp_Chiralities_Consistent>
1

> <s_lp_Variant>
AV-unprocessed.smi:54-21

> <Gold.Version>
5.8.1

> <Gold.Id.Protein>
6NUR|6NUR_protein|mol2

> <Gold.PLP.Fitness>
49.3548

> <Gold.PLP.PLP>
-37.2667

> <Gold.PLP.part.hbond>
-4.6693

> <Gold.PLP.part.metal>
0.0000

> <Gold.PLP.part.buried>
-3.8973

> <Gold.PLP.part.nonpolar>
-29.1986

> <Gold.PLP.part.repulsive>
0.3526

> <Gold.PLP.ligand.clash>
0.0000

> <Gold.PLP.ligand.torsion>
0.5762

> <Gold.PLP.Chemscore.Hbond>
3.8320

> <Gold.PLP.Chemscore.CHOScore>
0.5504

> <Gold.PLP.Chemscore.Metal>
0.0000

> <Gold.Chemscore.Hbonds>
donor molecule, donor type, donor heavy atom, donor atom, acceptor molecule, acceptor atom, score
      L1  H    18    41       P1  8028  1.00
      L1  H    22    43       P1  7957  0.94
      P1  H  6896  6907       L1    24  1.00
      P1  H  7989  7998       L1    15  0.80
      L1  C    12    38       P1  7948  0.70

> <Gold.PLP.Chemscore.Internal.Correction>
0.0933

> <Gold.Rescore>
     Score         DG    S(hbond)    S(metal)    S(lipo)     H(rot)  DE(clash)    DE(int)     intcor
      9.67     -15.40       3.63        0.00      69.10       4.02       0.11       5.62       ----

> <Gold.Chemscore.Fitness>
9.6686

> <Gold.Chemscore.DG>
-15.3962

> <Gold.Chemscore.ZeroCoef>
-5.4800

> <Gold.Chemscore.Hbond>
3.6290

> <Gold.Chemscore.Metal>
0.0000

> <Gold.Chemscore.Lipo>
69.0993

> <Gold.Chemscore.Internal_Hbond>
0.0000

> <Gold.Chemscore.DEClash>
0.1115

> <Gold.Chemscore.DEInternal>
5.6161

> <Gold.Chemscore.Rot>
4.0192

> <Gold.Chemscore.Internal.Correction>
   9.000000E+99

> <Gold.Chemscore.Hbonds>
donor molecule, donor type, donor heavy atom, donor atom, acceptor molecule, acceptor atom, score
      L1  H    18    41       P1  8028  0.30
      L1  H    20    42       P1 10175  0.01
      L1  H    22    43       P1  7957  0.81
      P1  H  6896  6907       L1    24  1.00
      P1  H  7989  7998       L1    15  0.62

> <Gold.Chemscore.Hbond.Weighted>
-12.1208

> <Gold.Chemscore.Metal.Weighted>
-0.0000

> <Gold.Chemscore.Lipo.Weighted>
-8.0846

> <Gold.Chemscore.Internal_Hbond.Weighted>
0.0000

> <Gold.Chemscore.DEClash.Weighted>
0.1115

> <Gold.Chemscore.DEInternal.Weighted>
5.6161

> <Gold.Chemscore.Rot.Weighted>
10.2893

> <Gold.Chemscore.Internal.Correction.Weighted>
   9.000000E+99

> <Gold.Protein.RotatedTorsions>
[ 6907 6896 6895 6894 ] final  -29.30 input  -60.11 | X-H torsion
[ 7974 7965 7964 7962 ] final -105.08 input  175.53 | X-H torsion
[ 8008 7997 7996 7995 ] final -114.55 input   59.86 | X-H torsion
[ 10167 10162 10161 10158 ] final  126.40 input  -65.29 | X-H torsion
[ 10718 10713 10712 10709 ] final   31.51 input   66.30 | X-H torsion
[ 10763 10752 10751 10750 ] final -150.14 input  -60.55 | X-H torsion
[ 11005 11000 10999 10996 ] final   45.72 input  -57.11 | X-H torsion

> <Gold.Protein.ActiveResidues>
 VAL166  LYS551  ARG553  GLY616  TRP617  ASP618  TYR619  PRO620  LYS621  CYS622 
 ASP623  PHE694  ASN695  SER759  ASP760  ASP761  ALA762  ILE779  LEU786  VAL792 
 PHE793  MET794  SER795  GLU796  ALA797  LYS798  CYS799  TRP800  GLU811  SER814 

> <Gold.Protein.RotatedAtoms>
  151.1211  135.0080  159.8538 H   0  0  0  0  0  0  0  0  0  0  0  0  # atno 6907 bound_to 6896
  152.5448  134.1721  159.8611 H   0  0  0  0  0  0  0  0  0  0  0  0  # atno 6908 bound_to 6896
  151.1779  133.4698  159.2627 H   0  0  0  0  0  0  0  0  0  0  0  0  # atno 6909 bound_to 6896
  145.2350  140.9184  143.3183 H   0  0  0  0  0  0  0  0  0  0  0  0  # atno 7974 bound_to 7965
  155.0382  140.0392  157.2499 H   0  0  0  0  0  0  0  0  0  0  0  0  # atno 8008 bound_to 7997
  154.7239  140.2717  155.6493 H   0  0  0  0  0  0  0  0  0  0  0  0  # atno 8009 bound_to 7997
  156.2824  140.2697  156.1919 H   0  0  0  0  0  0  0  0  0  0  0  0  # atno 8010 bound_to 7997
  139.5633  144.6895  151.3981 H   0  0  0  0  0  0  0  0  0  0  0  0  # atno 10167 bound_to 10162
  157.2734  130.7219  149.6517 H   0  0  0  0  0  0  0  0  0  0  0  0  # atno 10718 bound_to 10713
  154.8136  135.3291  154.7237 H   0  0  0  0  0  0  0  0  0  0  0  0  # atno 10763 bound_to 10752
  153.7882  135.6913  153.4880 H   0  0  0  0  0  0  0  0  0  0  0  0  # atno 10764 bound_to 10752
  153.1934  135.4542  155.0125 H   0  0  0  0  0  0  0  0  0  0  0  0  # atno 10765 bound_to 10752
  140.1434  134.4553  155.8433 H   0  0  0  0  0  0  0  0  0  0  0  0  # atno 11005 bound_to 11000
  144.9642  139.3948  143.6341 LP  0  0  0  0  0  0  0  0  0  0  0  0  # atno 17320 bound_to 7965
  146.3343  139.8709  142.8840 LP  0  0  0  0  0  0  0  0  0  0  0  0  # atno 17321 bound_to 7965
  140.6915  143.7851  150.7262 LP  0  0  0  0  0  0  0  0  0  0  0  0  # atno 17342 bound_to 10162
  140.1334  143.4505  152.2239 LP  0  0  0  0  0  0  0  0  0  0  0  0  # atno 17343 bound_to 10162
  155.9663  130.4360  150.5117 LP  0  0  0  0  0  0  0  0  0  0  0  0  # atno 17370 bound_to 10713
  157.3046  131.0652  151.2044 LP  0  0  0  0  0  0  0  0  0  0  0  0  # atno 17371 bound_to 10713
  141.2189  133.6842  156.7289 LP  0  0  0  0  0  0  0  0  0  0  0  0  # atno 17394 bound_to 11000
  140.2693  134.8404  157.3832 LP  0  0  0  0  0  0  0  0  0  0  0  0  # atno 17395 bound_to 11000

$$$$
