AV-unprocessed.smi:79|AV-procd|sdf|781|dock2
  -GOLD-   2262017143D 1   1.00000     0.00000
 Structure written by MMmdl.
 56 59  0  0  0  0  0  0  0  0  2 V2000
  145.4856  131.6622  151.5677 C   0  0  0  0  0  0  0  0  0  0  0  0
  146.1185  132.9547  152.0999 C   0  0  2  0  0  0  0  0  0  0  0  0
  146.2445  133.8532  151.0159 O   0  0  0  0  0  0  0  0  0  0  0  0
  147.5082  132.6962  152.7176 C   0  0  0  0  0  0  0  0  0  0  0  0
  148.0625  133.8811  153.4224 N   0  3  2  0  0  0  0  0  0  0  0  0
  149.3960  133.6095  154.0125 C   0  0  0  0  0  0  0  0  0  0  0  0
  149.9839  134.8780  154.6477 C   0  0  0  0  0  0  0  0  0  0  0  0
  149.0563  135.4636  155.6111 N   0  0  0  0  0  0  0  0  0  0  0  0
  149.6241  136.4880  156.2868 C   0  0  0  0  0  0  0  0  0  0  0  0
  149.9598  136.3366  157.5950 N   0  0  0  0  0  0  0  0  0  0  0  0
  150.5371  137.3463  158.2541 C   0  0  0  0  0  0  0  0  0  0  0  0
  150.8614  138.5606  157.8035 N   0  0  0  0  0  0  0  0  0  0  0  0
  150.5224  138.7110  156.4906 C   0  0  0  0  0  0  0  0  0  0  0  0
  149.9028  137.7326  155.6655 C   0  0  0  0  0  0  0  0  0  0  0  0
  149.7118  138.2357  154.3857 N   0  0  0  0  0  0  0  0  0  0  0  0
  150.1941  139.4475  154.4493 C   0  0  0  0  0  0  0  0  0  0  0  0
  150.6958  139.8180  155.6777 N   0  0  0  0  0  0  0  0  0  0  0  0
  151.2966  141.0965  156.0268 C   0  0  0  0  0  0  0  0  0  0  0  0
  150.7604  141.7013  157.3373 C   0  0  0  0  0  0  0  0  0  0  0  0
  149.2236  141.5733  157.3465 C   0  0  0  0  0  0  0  0  0  0  0  0
  148.6219  142.1955  156.2285 O   0  0  0  0  0  0  0  0  0  0  0  0
  151.4896  141.2385  158.6068 C   0  0  0  0  0  0  0  0  0  0  0  0
  151.7396  142.5972  159.0299 O   0  0  0  0  0  0  0  0  0  0  0  0
  151.3231  143.0746  157.7314 C   0  0  0  0  0  0  0  0  0  0  0  0
  147.7145  135.7318  155.0803 C   0  0  2  0  0  0  0  0  0  0  0  0
  146.7415  136.2626  156.1530 C   0  0  0  0  0  0  0  0  0  0  0  0
  147.1352  134.4571  154.4310 C   0  0  0  0  0  0  0  0  0  0  0  0
  145.3441  130.9375  152.3702 H   0  0  0  0  0  0  0  0  0  0  0  0
  146.1107  131.1957  150.8054 H   0  0  0  0  0  0  0  0  0  0  0  0
  144.5078  131.8554  151.1246 H   0  0  0  0  0  0  0  0  0  0  0  0
  145.4380  133.3897  152.8306 H   0  0  0  0  0  0  0  0  0  0  0  0
  145.9426  134.7070  151.2857 H   0  0  0  0  0  0  0  0  0  0  0  0
  147.4654  131.8572  153.4139 H   0  0  0  0  0  0  0  0  0  0  0  0
  148.1875  132.3909  151.9197 H   0  0  0  0  0  0  0  0  0  0  0  0
  149.3080  132.8215  154.7624 H   0  0  0  0  0  0  0  0  0  0  0  0
  150.0769  133.2438  153.2429 H   0  0  0  0  0  0  0  0  0  0  0  0
  150.9275  134.6388  155.1405 H   0  0  0  0  0  0  0  0  0  0  0  0
  150.2078  135.6067  153.8670 H   0  0  0  0  0  0  0  0  0  0  0  0
  150.7760  137.1532  159.2897 H   0  0  0  0  0  0  0  0  0  0  0  0
  150.1990  140.1065  153.5934 H   0  0  0  0  0  0  0  0  0  0  0  0
  152.3783  140.9673  156.0802 H   0  0  0  0  0  0  0  0  0  0  0  0
  151.1241  141.7786  155.1932 H   0  0  0  0  0  0  0  0  0  0  0  0
  148.9158  140.5278  157.3347 H   0  0  0  0  0  0  0  0  0  0  0  0
  148.8021  142.0180  158.2484 H   0  0  0  0  0  0  0  0  0  0  0  0
  148.9652  143.0726  156.1512 H   0  0  0  0  0  0  0  0  0  0  0  0
  150.8660  140.6859  159.3103 H   0  0  0  0  0  0  0  0  0  0  0  0
  152.4189  140.7006  158.4135 H   0  0  0  0  0  0  0  0  0  0  0  0
  152.1759  143.3967  157.1330 H   0  0  0  0  0  0  0  0  0  0  0  0
  150.5734  143.8641  157.7941 H   0  0  0  0  0  0  0  0  0  0  0  0
  147.8094  136.4916  154.3026 H   0  0  0  0  0  0  0  0  0  0  0  0
  145.7436  136.4056  155.7374 H   0  0  0  0  0  0  0  0  0  0  0  0
  147.0588  137.2263  156.5522 H   0  0  0  0  0  0  0  0  0  0  0  0
  146.6555  135.5671  156.9886 H   0  0  0  0  0  0  0  0  0  0  0  0
  146.1777  134.6967  153.9705 H   0  0  0  0  0  0  0  0  0  0  0  0
  146.9359  133.7080  155.1993 H   0  0  0  0  0  0  0  0  0  0  0  0
  148.2105  134.5898  152.7184 H   0  0  0  0  0  0  0  0  0  0  0  0
  1  2  1  0  0  0  0
  1 28  1  0  0  0  0
  1 29  1  0  0  0  0
  1 30  1  0  0  0  0
  2  3  1  0  0  0  0
  2  4  1  0  0  0  0
  2 31  1  0  0  0  0
  3 32  1  0  0  0  0
  4  5  1  0  0  0  0
  4 33  1  0  0  0  0
  4 34  1  0  0  0  0
  5 27  1  0  0  0  0
  5  6  1  0  0  0  0
  5 56  1  0  0  0  0
  6  7  1  0  0  0  0
  6 35  1  0  0  0  0
  6 36  1  0  0  0  0
  7  8  1  0  0  0  0
  7 37  1  0  0  0  0
  7 38  1  0  0  0  0
  8  9  1  0  0  0  0
  8 25  1  0  0  0  0
  9 14  1  0  0  0  0
  9 10  2  0  0  0  0
 10 11  1  0  0  0  0
 11 12  2  0  0  0  0
 11 39  1  0  0  0  0
 12 13  1  0  0  0  0
 13 17  1  0  0  0  0
 13 14  2  0  0  0  0
 14 15  1  0  0  0  0
 15 16  2  0  0  0  0
 16 17  1  0  0  0  0
 16 40  1  0  0  0  0
 17 18  1  0  0  0  0
 18 19  1  0  0  0  0
 18 41  1  0  0  0  0
 18 42  1  0  0  0  0
 19 24  1  0  0  0  0
 19 20  1  0  0  0  0
 19 22  1  0  0  0  0
 20 21  1  0  0  0  0
 20 43  1  0  0  0  0
 20 44  1  0  0  0  0
 21 45  1  0  0  0  0
 22 23  1  0  0  0  0
 22 46  1  0  0  0  0
 22 47  1  0  0  0  0
 23 24  1  0  0  0  0
 24 48  1  0  0  0  0
 24 49  1  0  0  0  0
 25 26  1  0  0  0  0
 25 27  1  0  0  0  0
 25 50  1  0  0  0  0
 26 51  1  0  0  0  0
 26 52  1  0  0  0  0
 26 53  1  0  0  0  0
 27 54  1  0  0  0  0
 27 55  1  0  0  0  0
M  CHG  1   5   1
M  END
> <s_m_source_file>
AV-unprocessed.smi

> <i_m_source_file_index>
79

> <i_lp_mmshare_version>
43012

> <i_f3d_flags>
0

> <s_epik_input>
W0NIM11bQ0BIXShbT0hdKVtDSDJdTjFbQ0gyXVtDSDJdTihbQ0BASF0oW0NIM10pW0NIMl0xKWMobltjSF1uMiljKGMyMyluW2NIXW4zW0NIMl1DNChbQ0gyXVtPSF0pW0NIMl1PW0NIMl00

> <s_epik_cmdline>
J2VwaWtfcHl0aG9uJywgJy1waCcsICc3LjAnLCAnLXRuJywgJzgnLCAnLW1hJywgJzIwMCcsICctbWV0YWxfYmluZGluZycsICctaW1hZScsICc8aW5maWxlLm1hZT4nLCAnLW9tYWUnLCAnPG91dGZpbGUubWFlPic=

> <r_lp_tautomer_probability>
1

> <r_epik_Ionization_Penalty>
0.00515943

> <r_epik_Ionization_Penalty_Charging>
0.00509693

> <r_epik_Ionization_Penalty_Neutral>
6.25007e-05

> <r_epik_State_Penalty>
-0

> <r_epik_Charging_Adjusted_Penalty>
0.00509693

> <i_epik_Tot_Q>
1

> <i_epik_Tot_abs_Q>
1

> <r_epik_Metal_State_Penalty>
-0

> <b_epik_Metal_Only>
0

> <s_lp_Force_Field>
OPLS_2005

> <r_lp_Energy>
51.6894

> <b_lp_Chiralities_Consistent>
1

> <s_lp_Variant>
AV-unprocessed.smi:79-5

> <Gold.Version>
5.8.1

> <Gold.Id.Protein>
6NUR|6NUR_protein|mol2

> <Gold.PLP.Fitness>
46.3717

> <Gold.PLP.PLP>
-34.8684

> <Gold.PLP.part.hbond>
-1.8296

> <Gold.PLP.part.metal>
0.0000

> <Gold.PLP.part.buried>
-4.8817

> <Gold.PLP.part.nonpolar>
-27.5033

> <Gold.PLP.part.repulsive>
0.3155

> <Gold.PLP.ligand.clash>
0.0000

> <Gold.PLP.ligand.torsion>
0.6039

> <Gold.PLP.Chemscore.Hbond>
3.0000

> <Gold.PLP.Chemscore.CHOScore>
1.0000

> <Gold.PLP.Chemscore.Metal>
0.0000

> <Gold.Chemscore.Hbonds>
donor molecule, donor type, donor heavy atom, donor atom, acceptor molecule, acceptor atom, score
      L1  H     5    56       P1  7948  2.00
      L1  H    21    45       P1  8028  1.00
      L1  C    16    40       P1  7957  1.00

> <Gold.PLP.Chemscore.Internal.Correction>
0.7111

> <Gold.Rescore>
     Score         DG    S(hbond)    S(metal)    S(lipo)     H(rot)  DE(clash)    DE(int)     intcor
      8.34     -10.30       1.87        0.00      69.33       3.72       0.03       1.94       ----

> <Gold.Chemscore.Fitness>
8.3387

> <Gold.Chemscore.DG>
-10.3041

> <Gold.Chemscore.ZeroCoef>
-5.4800

> <Gold.Chemscore.Hbond>
1.8690

> <Gold.Chemscore.Metal>
0.0000

> <Gold.Chemscore.Lipo>
69.3267

> <Gold.Chemscore.Internal_Hbond>
0.0000

> <Gold.Chemscore.DEClash>
0.0255

> <Gold.Chemscore.DEInternal>
1.9399

> <Gold.Chemscore.Rot>
3.7226

> <Gold.Chemscore.Internal.Correction>
   9.000000E+99

> <Gold.Chemscore.Hbonds>
donor molecule, donor type, donor heavy atom, donor atom, acceptor molecule, acceptor atom, score
      L1  H     5    56       P1  7948  0.44
      L1  H    21    45       P1  8028  0.97

> <Gold.Chemscore.Hbond.Weighted>
-6.2426

> <Gold.Chemscore.Metal.Weighted>
-0.0000

> <Gold.Chemscore.Lipo.Weighted>
-8.1112

> <Gold.Chemscore.Internal_Hbond.Weighted>
0.0000

> <Gold.Chemscore.DEClash.Weighted>
0.0255

> <Gold.Chemscore.DEInternal.Weighted>
1.9399

> <Gold.Chemscore.Rot.Weighted>
9.5298

> <Gold.Chemscore.Internal.Correction.Weighted>
   9.000000E+99

> <Gold.Protein.RotatedTorsions>
[ 6907 6896 6895 6894 ] final  116.13 input  -60.11 | X-H torsion
[ 7974 7965 7964 7962 ] final   24.63 input  175.53 | X-H torsion
[ 8008 7997 7996 7995 ] final   76.01 input   59.86 | X-H torsion
[ 10167 10162 10161 10158 ] final -118.32 input  -65.29 | X-H torsion
[ 10718 10713 10712 10709 ] final   52.18 input   66.30 | X-H torsion
[ 10763 10752 10751 10750 ] final  -81.16 input  -60.55 | X-H torsion
[ 11005 11000 10999 10996 ] final  102.41 input  -57.11 | X-H torsion

> <Gold.Protein.ActiveResidues>
 VAL166  LYS551  ARG553  GLY616  TRP617  ASP618  TYR619  PRO620  LYS621  CYS622 
 ASP623  PHE694  ASN695  SER759  ASP760  ASP761  ALA762  ILE779  LEU786  VAL792 
 PHE793  MET794  SER795  GLU796  ALA797  LYS798  CYS799  TRP800  GLU811  SER814 

> <Gold.Protein.RotatedAtoms>
  152.4698  133.8003  159.6949 H   0  0  0  0  0  0  0  0  0  0  0  0  # atno 6907 bound_to 6896
  150.8681  133.7536  159.2976 H   0  0  0  0  0  0  0  0  0  0  0  0  # atno 6908 bound_to 6896
  151.5080  135.1067  159.9898 H   0  0  0  0  0  0  0  0  0  0  0  0  # atno 6909 bound_to 6896
  146.1928  139.7578  142.8819 H   0  0  0  0  0  0  0  0  0  0  0  0  # atno 7974 bound_to 7965
  155.8212  140.3469  155.5515 H   0  0  0  0  0  0  0  0  0  0  0  0  # atno 8008 bound_to 7997
  155.8340  140.0931  157.1795 H   0  0  0  0  0  0  0  0  0  0  0  0  # atno 8009 bound_to 7997
  154.4004  140.1407  156.3636 H   0  0  0  0  0  0  0  0  0  0  0  0  # atno 8010 bound_to 7997
  140.0588  143.4988  152.2043 H   0  0  0  0  0  0  0  0  0  0  0  0  # atno 10167 bound_to 10162
  157.5051  130.8463  149.8365 H   0  0  0  0  0  0  0  0  0  0  0  0  # atno 10718 bound_to 10713
  154.5601  135.5636  153.7000 H   0  0  0  0  0  0  0  0  0  0  0  0  # atno 10763 bound_to 10752
  153.0015  135.6272  154.2256 H   0  0  0  0  0  0  0  0  0  0  0  0  # atno 10764 bound_to 10752
  154.2193  135.2870  155.2910 H   0  0  0  0  0  0  0  0  0  0  0  0  # atno 10765 bound_to 10752
  139.8777  134.9223  156.5053 H   0  0  0  0  0  0  0  0  0  0  0  0  # atno 11005 bound_to 11000
  145.3738  141.0347  143.3216 LP  0  0  0  0  0  0  0  0  0  0  0  0  # atno 17320 bound_to 7965
  144.8520  139.5306  143.6852 LP  0  0  0  0  0  0  0  0  0  0  0  0  # atno 17321 bound_to 7965
  139.5907  144.7549  151.3409 LP  0  0  0  0  0  0  0  0  0  0  0  0  # atno 17342 bound_to 10162
  140.7182  143.7209  150.7696 LP  0  0  0  0  0  0  0  0  0  0  0  0  # atno 17343 bound_to 10162
  156.0253  130.3781  150.1841 LP  0  0  0  0  0  0  0  0  0  0  0  0  # atno 17370 bound_to 10713
  157.0031  130.9928  151.3386 LP  0  0  0  0  0  0  0  0  0  0  0  0  # atno 17371 bound_to 10713
  140.8559  133.8096  155.9216 LP  0  0  0  0  0  0  0  0  0  0  0  0  # atno 17394 bound_to 11000
  140.9098  134.2275  157.4993 LP  0  0  0  0  0  0  0  0  0  0  0  0  # atno 17395 bound_to 11000

$$$$
