AV-unprocessed.smi:2902|AV-procd|sdf|11154|dock5
  -GOLD-   2272016 33D 1   1.00000     0.00000
 Structure written by MMmdl.
 47 48  0  0  0  0  0  0  0  0  1 V2000
  145.3735  136.0169  156.0785 C   0  0  0  0  0  0  0  0  0  0  0  0
  145.0430  136.0495  154.5811 C   0  0  0  0  0  0  0  0  0  0  0  0
  146.2500  136.4477  153.7118 C   0  0  1  0  0  0  0  0  0  0  0  0
  145.8937  136.2319  152.3462 O   0  0  0  0  0  0  0  0  0  0  0  0
  145.4016  134.9376  152.0097 C   0  0  0  0  0  0  0  0  0  0  0  0
  146.5156  133.8811  152.0376 C   0  0  0  0  0  0  0  0  0  0  0  0
  146.2096  132.8992  150.8957 C   0  0  0  0  0  0  0  0  0  0  0  0
  144.9604  133.4370  150.1890 C   0  0  0  0  0  0  0  0  0  0  0  0
  144.9028  134.9156  150.5667 C   0  0  0  0  0  0  0  0  0  0  0  0
  146.6461  137.9146  153.9483 C   0  0  0  0  0  0  0  0  0  0  0  0
  145.9400  138.6478  154.6409 O   0  0  0  0  0  0  0  0  0  0  0  0
  147.7702  138.3270  153.3433 N   0  0  0  0  0  0  0  0  0  0  0  0
  148.3093  139.6859  153.3678 C   0  0  1  0  0  0  0  0  0  0  0  0
  147.1537  140.6862  153.1748 C   0  0  0  0  0  0  0  0  0  0  0  0
  149.0929  139.9104  154.6879 C   0  0  2  0  0  0  0  0  0  0  0  0
  149.2359  141.3960  155.0683 C   0  0  0  0  0  0  0  0  0  0  0  0
  150.4120  139.2908  154.6279 N   0  0  0  0  0  0  0  0  0  0  0  0
  150.7763  138.0319  154.3711 C   0  0  0  0  0  0  0  0  0  0  0  0
  152.0852  137.8304  154.4235 N   0  0  0  0  0  0  0  0  0  0  0  0
  152.4969  139.0897  154.7548 C   0  0  0  0  0  0  0  0  0  0  0  0
  151.5345  140.0015  154.8933 N   0  0  0  0  0  0  0  0  0  0  0  0
  144.4943  135.7468  156.6638 H   0  0  0  0  0  0  0  0  0  0  0  0
  145.7188  136.9904  156.4271 H   0  0  0  0  0  0  0  0  0  0  0  0
  146.1533  135.2866  156.2954 H   0  0  0  0  0  0  0  0  0  0  0  0
  144.6701  135.0712  154.2745 H   0  0  0  0  0  0  0  0  0  0  0  0
  144.2249  136.7533  154.4206 H   0  0  0  0  0  0  0  0  0  0  0  0
  147.0929  135.8009  153.9646 H   0  0  0  0  0  0  0  0  0  0  0  0
  144.5773  134.6309  152.6566 H   0  0  0  0  0  0  0  0  0  0  0  0
  147.4829  134.3526  151.8586 H   0  0  0  0  0  0  0  0  0  0  0  0
  146.5744  133.3831  153.0054 H   0  0  0  0  0  0  0  0  0  0  0  0
  147.0508  132.8672  150.2022 H   0  0  0  0  0  0  0  0  0  0  0  0
  146.0527  131.8840  151.2604 H   0  0  0  0  0  0  0  0  0  0  0  0
  144.9892  133.2806  149.1104 H   0  0  0  0  0  0  0  0  0  0  0  0
  144.0757  132.9282  150.5740 H   0  0  0  0  0  0  0  0  0  0  0  0
  143.9044  135.3411  150.4609 H   0  0  0  0  0  0  0  0  0  0  0  0
  145.5796  135.4843  149.9273 H   0  0  0  0  0  0  0  0  0  0  0  0
  148.2774  137.6517  152.7895 H   0  0  0  0  0  0  0  0  0  0  0  0
  149.0052  139.8029  152.5347 H   0  0  0  0  0  0  0  0  0  0  0  0
  147.5192  141.7073  153.0700 H   0  0  0  0  0  0  0  0  0  0  0  0
  146.4625  140.6614  154.0178 H   0  0  0  0  0  0  0  0  0  0  0  0
  146.5830  140.4624  152.2729 H   0  0  0  0  0  0  0  0  0  0  0  0
  148.5418  139.4249  155.4958 H   0  0  0  0  0  0  0  0  0  0  0  0
  148.2701  141.8494  155.2891 H   0  0  0  0  0  0  0  0  0  0  0  0
  149.6998  141.9716  154.2669 H   0  0  0  0  0  0  0  0  0  0  0  0
  149.8517  141.5122  155.9610 H   0  0  0  0  0  0  0  0  0  0  0  0
  150.0704  137.2468  154.1433 H   0  0  0  0  0  0  0  0  0  0  0  0
  153.5368  139.3412  154.9030 H   0  0  0  0  0  0  0  0  0  0  0  0
  1  2  1  0  0  0  0
  1 22  1  0  0  0  0
  1 23  1  0  0  0  0
  1 24  1  0  0  0  0
  2  3  1  0  0  0  0
  2 25  1  0  0  0  0
  2 26  1  0  0  0  0
  3  4  1  0  0  0  0
  3 10  1  0  0  0  0
  3 27  1  0  0  0  0
  4  5  1  0  0  0  0
  5  9  1  0  0  0  0
  5  6  1  0  0  0  0
  5 28  1  0  0  0  0
  6  7  1  0  0  0  0
  6 29  1  0  0  0  0
  6 30  1  0  0  0  0
  7  8  1  0  0  0  0
  7 31  1  0  0  0  0
  7 32  1  0  0  0  0
  8  9  1  0  0  0  0
  8 33  1  0  0  0  0
  8 34  1  0  0  0  0
  9 35  1  0  0  0  0
  9 36  1  0  0  0  0
 10 11  2  0  0  0  0
 10 12  1  0  0  0  0
 12 13  1  0  0  0  0
 12 37  1  0  0  0  0
 13 14  1  0  0  0  0
 13 15  1  0  0  0  0
 13 38  1  0  0  0  0
 14 39  1  0  0  0  0
 14 40  1  0  0  0  0
 14 41  1  0  0  0  0
 15 16  1  0  0  0  0
 15 17  1  0  0  0  0
 15 42  1  0  0  0  0
 16 43  1  0  0  0  0
 16 44  1  0  0  0  0
 16 45  1  0  0  0  0
 17 21  1  0  0  0  0
 17 18  1  0  0  0  0
 18 19  2  0  0  0  0
 18 46  1  0  0  0  0
 19 20  1  0  0  0  0
 20 21  2  0  0  0  0
 20 47  1  0  0  0  0
M  END
> <s_m_source_file>
AV-unprocessed.smi

> <i_m_source_file_index>
2902

> <i_lp_mmshare_version>
43012

> <i_f3d_flags>
0

> <s_epik_input>
W0NIMl0xW0NIMl1bQ0gyXVtDSDJdW0NIXTFPW0NAQEhdKFtDSDJdW0NIM10pQyg9TylbTkhdW0NASF0oW0NIM10pW0NASF0oW0NIM10pbjJbY0hdbltjSF1uMg==

> <s_epik_cmdline>
J2VwaWtfcHl0aG9uJywgJy1waCcsICc3LjAnLCAnLXRuJywgJzgnLCAnLW1hJywgJzIwMCcsICctbWV0YWxfYmluZGluZycsICctaW1hZScsICc8aW5maWxlLm1hZT4nLCAnLW9tYWUnLCAnPG91dGZpbGUubWFlPic=

> <r_lp_tautomer_probability>
1

> <r_epik_Ionization_Penalty>
6.95617e-05

> <r_epik_Ionization_Penalty_Charging>
0

> <r_epik_Ionization_Penalty_Neutral>
6.95617e-05

> <r_epik_State_Penalty>
-0

> <r_epik_Charging_Adjusted_Penalty>
0

> <i_epik_Tot_Q>
0

> <i_epik_Tot_abs_Q>
0

> <r_epik_Metal_State_Penalty>
-0

> <b_epik_Metal_Only>
0

> <s_lp_Force_Field>
OPLS_2005

> <r_lp_Energy>
29.0587

> <b_lp_Chiralities_Consistent>
1

> <s_lp_Variant>
AV-unprocessed.smi:2902-4

> <Gold.Version>
5.8.1

> <Gold.Id.Protein>
6NUR|6NUR_protein|mol2

> <Gold.PLP.Fitness>
43.1767

> <Gold.PLP.PLP>
-33.0052

> <Gold.PLP.part.hbond>
-3.1575

> <Gold.PLP.part.metal>
0.0000

> <Gold.PLP.part.buried>
-1.5083

> <Gold.PLP.part.nonpolar>
-29.8204

> <Gold.PLP.part.repulsive>
0.5059

> <Gold.PLP.ligand.clash>
0.0000

> <Gold.PLP.ligand.torsion>
0.9057

> <Gold.PLP.Chemscore.Hbond>
2.9280

> <Gold.PLP.Chemscore.CHOScore>
0.9987

> <Gold.PLP.Chemscore.Metal>
0.0000

> <Gold.Chemscore.Hbonds>
donor molecule, donor type, donor heavy atom, donor atom, acceptor molecule, acceptor atom, score
      L1  H    12    37       P1  7948  1.00
      P1  H  7989  7998       L1    21  1.00
      P1  H 10752 10763       L1    19  0.20
      L1  C    18    46       P1  7948  0.58

> <Gold.PLP.Chemscore.Internal.Correction>
0.2028

> <Gold.Rescore>
     Score         DG    S(hbond)    S(metal)    S(lipo)     H(rot)  DE(clash)    DE(int)     intcor
     11.24     -15.25       2.85        0.00      60.97       2.69       1.41       2.59       ----

> <Gold.Chemscore.Fitness>
11.2405

> <Gold.Chemscore.DG>
-15.2486

> <Gold.Chemscore.ZeroCoef>
-5.4800

> <Gold.Chemscore.Hbond>
2.8535

> <Gold.Chemscore.Metal>
0.0000

> <Gold.Chemscore.Lipo>
60.9674

> <Gold.Chemscore.Internal_Hbond>
0.0000

> <Gold.Chemscore.DEClash>
1.4138

> <Gold.Chemscore.DEInternal>
2.5943

> <Gold.Chemscore.Rot>
2.6935

> <Gold.Chemscore.Internal.Correction>
   9.000000E+99

> <Gold.Chemscore.Hbonds>
donor molecule, donor type, donor heavy atom, donor atom, acceptor molecule, acceptor atom, score
      L1  H    12    37       P1  7948  1.00
      P1  H  7989  7998       L1    21  0.10
      P1  H 10752 10763       L1    19  0.20

> <Gold.Chemscore.Hbond.Weighted>
-9.5307

> <Gold.Chemscore.Metal.Weighted>
-0.0000

> <Gold.Chemscore.Lipo.Weighted>
-7.1332

> <Gold.Chemscore.Internal_Hbond.Weighted>
0.0000

> <Gold.Chemscore.DEClash.Weighted>
1.4138

> <Gold.Chemscore.DEInternal.Weighted>
2.5943

> <Gold.Chemscore.Rot.Weighted>
6.8954

> <Gold.Chemscore.Internal.Correction.Weighted>
   9.000000E+99

> <Gold.Protein.RotatedTorsions>
[ 6907 6896 6895 6894 ] final -138.78 input  -60.11 | X-H torsion
[ 7974 7965 7964 7962 ] final -150.20 input  175.53 | X-H torsion
[ 8008 7997 7996 7995 ] final   51.12 input   59.86 | X-H torsion
[ 10167 10162 10161 10158 ] final -164.13 input  -65.29 | X-H torsion
[ 10718 10713 10712 10709 ] final   69.89 input   66.30 | X-H torsion
[ 10763 10752 10751 10750 ] final   41.60 input  -60.55 | X-H torsion
[ 11005 11000 10999 10996 ] final  -12.05 input  -57.11 | X-H torsion

> <Gold.Protein.ActiveResidues>
 VAL166  LYS551  ARG553  GLY616  TRP617  ASP618  TYR619  PRO620  LYS621  CYS622 
 ASP623  PHE694  ASN695  SER759  ASP760  ASP761  ALA762  ILE779  LEU786  VAL792 
 PHE793  MET794  SER795  GLU796  ALA797  LYS798  CYS799  TRP800  GLU811  SER814 

> <Gold.Protein.RotatedAtoms>
  151.0394  133.5720  159.2652 H   0  0  0  0  0  0  0  0  0  0  0  0  # atno 6907 bound_to 6896
  151.2772  135.0702  159.9166 H   0  0  0  0  0  0  0  0  0  0  0  0  # atno 6908 bound_to 6896
  152.5361  134.0114  159.7994 H   0  0  0  0  0  0  0  0  0  0  0  0  # atno 6909 bound_to 6896
  144.7922  140.4964  143.5765 H   0  0  0  0  0  0  0  0  0  0  0  0  # atno 7974 bound_to 7965
  155.4300  140.3450  155.4279 H   0  0  0  0  0  0  0  0  0  0  0  0  # atno 8008 bound_to 7997
  156.1342  140.1523  156.9051 H   0  0  0  0  0  0  0  0  0  0  0  0  # atno 8009 bound_to 7997
  154.4918  140.0839  156.7592 H   0  0  0  0  0  0  0  0  0  0  0  0  # atno 8010 bound_to 7997
  139.6272  144.0509  152.1985 H   0  0  0  0  0  0  0  0  0  0  0  0  # atno 10167 bound_to 10162
  157.6371  130.9449  150.0576 H   0  0  0  0  0  0  0  0  0  0  0  0  # atno 10718 bound_to 10713
  152.9904  135.6157  154.2814 H   0  0  0  0  0  0  0  0  0  0  0  0  # atno 10763 bound_to 10752
  154.2543  135.2784  155.2805 H   0  0  0  0  0  0  0  0  0  0  0  0  # atno 10764 bound_to 10752
  154.5261  135.5801  153.6777 H   0  0  0  0  0  0  0  0  0  0  0  0  # atno 10765 bound_to 10752
  140.7617  133.8510  155.9130 H   0  0  0  0  0  0  0  0  0  0  0  0  # atno 11005 bound_to 11000
  145.5765  139.1486  143.3259 LP  0  0  0  0  0  0  0  0  0  0  0  0  # atno 17320 bound_to 7965
  146.2178  140.5897  142.9031 LP  0  0  0  0  0  0  0  0  0  0  0  0  # atno 17321 bound_to 7965
  140.0166  144.6184  150.7602 LP  0  0  0  0  0  0  0  0  0  0  0  0  # atno 17342 bound_to 10162
  140.7418  143.2823  151.3563 LP  0  0  0  0  0  0  0  0  0  0  0  0  # atno 17343 bound_to 10162
  156.1619  130.3644  149.9288 LP  0  0  0  0  0  0  0  0  0  0  0  0  # atno 17370 bound_to 10713
  156.7284  130.9034  151.3624 LP  0  0  0  0  0  0  0  0  0  0  0  0  # atno 17371 bound_to 10713
  140.9657  134.1597  157.4618 LP  0  0  0  0  0  0  0  0  0  0  0  0  # atno 17394 bound_to 11000
  139.8770  134.9961  156.5776 LP  0  0  0  0  0  0  0  0  0  0  0  0  # atno 17395 bound_to 11000

$$$$
