AV-unprocessed.smi:664|AV-procd|sdf|3251|dock3
  -GOLD-   22720 0203D 1   1.00000     0.00000
 Structure written by MMmdl.
 31 32  0  0  0  0  0  0  0  0  1 V2000
  147.9352  139.6132  153.9636 C   0  0  0  0  0  0  0  0  0  0  0  0
  149.3566  139.4458  154.4137 C   0  0  0  0  0  0  0  0  0  0  0  0
  150.1565  138.2830  154.0795 C   0  0  0  0  0  0  0  0  0  0  0  0
  151.4300  138.2068  154.5213 C   0  0  0  0  0  0  0  0  0  0  0  0
  152.0282  139.2675  155.3292 C   0  0  0  0  0  0  0  0  0  0  0  0
  153.1861  139.2256  155.7442 O   0  0  0  0  0  0  0  0  0  0  0  0
  151.1823  140.3101  155.5793 N   0  0  0  0  0  0  0  0  0  0  0  0
  151.6177  141.4724  156.3634 C   0  0  0  0  0  0  0  0  0  0  0  0
  150.6363  141.8017  157.5092 C   0  0  2  0  0  0  0  0  0  0  0  0
  149.4187  142.2665  156.9594 O   0  0  0  0  0  0  0  0  0  0  0  0
  151.2383  142.8246  158.4609 C   0  0  0  0  0  0  0  0  0  0  0  0
  151.3094  144.1823  158.0813 C   0  0  0  0  0  0  0  0  0  0  0  0
  151.8560  145.1379  158.9598 C   0  0  0  0  0  0  0  0  0  0  0  0
  152.3335  144.7420  160.2238 C   0  0  0  0  0  0  0  0  0  0  0  0
  152.2618  143.3897  160.6107 C   0  0  0  0  0  0  0  0  0  0  0  0
  152.8431  142.9035  162.1607 Cl  0  0  0  0  0  0  0  0  0  0  0  0
  151.7139  142.4339  159.7327 C   0  0  0  0  0  0  0  0  0  0  0  0
  149.8746  140.3906  155.1280 N   0  0  0  0  0  0  0  0  0  0  0  0
  147.5551  138.6971  153.5111 H   0  0  0  0  0  0  0  0  0  0  0  0
  147.8550  140.4101  153.2239 H   0  0  0  0  0  0  0  0  0  0  0  0
  147.2855  139.8636  154.8030 H   0  0  0  0  0  0  0  0  0  0  0  0
  149.7299  137.4904  153.4827 H   0  0  0  0  0  0  0  0  0  0  0  0
  152.0244  137.3403  154.2714 H   0  0  0  0  0  0  0  0  0  0  0  0
  152.5901  141.2241  156.7934 H   0  0  0  0  0  0  0  0  0  0  0  0
  151.8048  142.3503  155.7419 H   0  0  0  0  0  0  0  0  0  0  0  0
  150.4148  140.8967  158.0770 H   0  0  0  0  0  0  0  0  0  0  0  0
  149.5347  143.1644  156.6892 H   0  0  0  0  0  0  0  0  0  0  0  0
  150.9428  144.4972  157.1152 H   0  0  0  0  0  0  0  0  0  0  0  0
  151.9080  146.1756  158.6643 H   0  0  0  0  0  0  0  0  0  0  0  0
  152.7522  145.4766  160.8960 H   0  0  0  0  0  0  0  0  0  0  0  0
  151.6576  141.3992  160.0386 H   0  0  0  0  0  0  0  0  0  0  0  0
  1  2  1  0  0  0  0
  1 19  1  0  0  0  0
  1 20  1  0  0  0  0
  1 21  1  0  0  0  0
  2 18  2  0  0  0  0
  2  3  1  0  0  0  0
  3  4  2  0  0  0  0
  3 22  1  0  0  0  0
  4  5  1  0  0  0  0
  4 23  1  0  0  0  0
  5  6  2  0  0  0  0
  5  7  1  0  0  0  0
  7  8  1  0  0  0  0
  7 18  1  0  0  0  0
  8  9  1  0  0  0  0
  8 24  1  0  0  0  0
  8 25  1  0  0  0  0
  9 10  1  0  0  0  0
  9 11  1  0  0  0  0
  9 26  1  0  0  0  0
 10 27  1  0  0  0  0
 11 17  1  0  0  0  0
 11 12  2  0  0  0  0
 12 13  1  0  0  0  0
 12 28  1  0  0  0  0
 13 14  2  0  0  0  0
 13 29  1  0  0  0  0
 14 15  1  0  0  0  0
 14 30  1  0  0  0  0
 15 16  1  0  0  0  0
 15 17  2  0  0  0  0
 17 31  1  0  0  0  0
M  END
> <s_m_source_file>
AV-unprocessed.smi

> <i_m_source_file_index>
664

> <i_lp_mmshare_version>
43012

> <i_f3d_flags>
0

> <s_epik_input>
W0NIM11jMVtjSF1bY0hdYyg9TyluKG4xKVtDSDJdW0NASF0oW09IXSljMltjSF1bY0hdW2NIXWMoQ2wpW2NIXTI=

> <s_epik_cmdline>
J2VwaWtfcHl0aG9uJywgJy1waCcsICc3LjAnLCAnLXRuJywgJzgnLCAnLW1hJywgJzIwMCcsICctbWV0YWxfYmluZGluZycsICctaW1hZScsICc8aW5maWxlLm1hZT4nLCAnLW9tYWUnLCAnPG91dGZpbGUubWFlPic=

> <r_lp_tautomer_probability>
1

> <r_epik_Ionization_Penalty>
5.38844e-06

> <r_epik_Ionization_Penalty_Charging>
5.19536e-06

> <r_epik_Ionization_Penalty_Neutral>
1.93084e-07

> <r_epik_State_Penalty>
-0

> <r_epik_Charging_Adjusted_Penalty>
5.19536e-06

> <i_epik_Tot_Q>
0

> <i_epik_Tot_abs_Q>
0

> <r_epik_Metal_State_Penalty>
-0

> <b_epik_Metal_Only>
0

> <s_lp_Force_Field>
OPLS_2005

> <r_lp_Energy>
26.5125

> <b_lp_Chiralities_Consistent>
1

> <s_lp_Variant>
AV-unprocessed.smi:664-1

> <Gold.Version>
5.8.1

> <Gold.Id.Protein>
6NUR|6NUR_protein|mol2

> <Gold.PLP.Fitness>
48.8194

> <Gold.PLP.PLP>
-43.7469

> <Gold.PLP.part.hbond>
-2.0120

> <Gold.PLP.part.metal>
0.0000

> <Gold.PLP.part.buried>
-4.9105

> <Gold.PLP.part.nonpolar>
-37.4249

> <Gold.PLP.part.repulsive>
0.0794

> <Gold.PLP.ligand.clash>
0.0000

> <Gold.PLP.ligand.torsion>
0.4557

> <Gold.PLP.Chemscore.Hbond>
1.9920

> <Gold.PLP.Chemscore.CHOScore>
0.0000

> <Gold.PLP.Chemscore.Metal>
0.0000

> <Gold.Chemscore.Hbonds>
donor molecule, donor type, donor heavy atom, donor atom, acceptor molecule, acceptor atom, score
      L1  H    10    27       P1  8028  0.99
      P1  H  7997  8008       L1     6  1.00

> <Gold.PLP.Chemscore.Internal.Correction>
0.0079

> <Gold.Rescore>
     Score         DG    S(hbond)    S(metal)    S(lipo)     H(rot)  DE(clash)    DE(int)     intcor
     18.80     -21.27       1.97        0.00     118.84       1.84       0.37       2.10       ----

> <Gold.Chemscore.Fitness>
18.7961

> <Gold.Chemscore.DG>
-21.2685

> <Gold.Chemscore.ZeroCoef>
-5.4800

> <Gold.Chemscore.Hbond>
1.9743

> <Gold.Chemscore.Metal>
0.0000

> <Gold.Chemscore.Lipo>
118.8446

> <Gold.Chemscore.Internal_Hbond>
0.0000

> <Gold.Chemscore.DEClash>
0.3708

> <Gold.Chemscore.DEInternal>
2.1016

> <Gold.Chemscore.Rot>
1.8400

> <Gold.Chemscore.Internal.Correction>
   9.000000E+99

> <Gold.Chemscore.Hbonds>
donor molecule, donor type, donor heavy atom, donor atom, acceptor molecule, acceptor atom, score
      L1  H    10    27       P1  8028  0.91
      P1  H  7997  8008       L1     6  0.94

> <Gold.Chemscore.Hbond.Weighted>
-6.5941

> <Gold.Chemscore.Metal.Weighted>
-0.0000

> <Gold.Chemscore.Lipo.Weighted>
-13.9048

> <Gold.Chemscore.Internal_Hbond.Weighted>
0.0000

> <Gold.Chemscore.DEClash.Weighted>
0.3708

> <Gold.Chemscore.DEInternal.Weighted>
2.1016

> <Gold.Chemscore.Rot.Weighted>
4.7105

> <Gold.Chemscore.Internal.Correction.Weighted>
   9.000000E+99

> <Gold.Protein.RotatedTorsions>
[ 6907 6896 6895 6894 ] final  127.38 input  -60.11 | X-H torsion
[ 7974 7965 7964 7962 ] final -132.88 input  175.53 | X-H torsion
[ 8008 7997 7996 7995 ] final  -32.84 input   59.86 | X-H torsion
[ 10167 10162 10161 10158 ] final -151.84 input  -65.29 | X-H torsion
[ 10718 10713 10712 10709 ] final   20.82 input   66.30 | X-H torsion
[ 10763 10752 10751 10750 ] final   -1.89 input  -60.55 | X-H torsion
[ 11005 11000 10999 10996 ] final -104.45 input  -57.11 | X-H torsion

> <Gold.Protein.ActiveResidues>
 VAL166  LYS551  ARG553  GLY616  TRP617  ASP618  TYR619  PRO620  LYS621  CYS622 
 ASP623  PHE694  ASN695  SER759  ASP760  ASP761  ALA762  ILE779  LEU786  VAL792 
 PHE793  MET794  SER795  GLU796  ALA797  LYS798  CYS799  TRP800  GLU811  SER814 

> <Gold.Protein.RotatedAtoms>
  152.3817  133.6556  159.6166 H   0  0  0  0  0  0  0  0  0  0  0  0  # atno 6907 bound_to 6896
  150.7746  133.9102  159.3376 H   0  0  0  0  0  0  0  0  0  0  0  0  # atno 6908 bound_to 6896
  151.6906  135.0948  160.0284 H   0  0  0  0  0  0  0  0  0  0  0  0  # atno 6909 bound_to 6896
  144.9245  140.7054  143.4944 H   0  0  0  0  0  0  0  0  0  0  0  0  # atno 7974 bound_to 7965
  154.4167  140.1726  156.1792 H   0  0  0  0  0  0  0  0  0  0  0  0  # atno 8008 bound_to 7997
  155.9696  140.3387  155.6540 H   0  0  0  0  0  0  0  0  0  0  0  0  # atno 8009 bound_to 7997
  155.6643  140.0704  157.2534 H   0  0  0  0  0  0  0  0  0  0  0  0  # atno 8010 bound_to 7997
  139.7233  143.8923  152.2510 H   0  0  0  0  0  0  0  0  0  0  0  0  # atno 10167 bound_to 10162
  157.1299  130.6586  149.5948 H   0  0  0  0  0  0  0  0  0  0  0  0  # atno 10718 bound_to 10713
  153.3508  135.6985  153.6790 H   0  0  0  0  0  0  0  0  0  0  0  0  # atno 10763 bound_to 10752
  153.5517  135.3552  155.2763 H   0  0  0  0  0  0  0  0  0  0  0  0  # atno 10764 bound_to 10752
  154.8653  135.4228  154.2743 H   0  0  0  0  0  0  0  0  0  0  0  0  # atno 10765 bound_to 10752
  141.1100  133.8724  157.1612 H   0  0  0  0  0  0  0  0  0  0  0  0  # atno 11005 bound_to 11000
  145.3242  139.1779  143.4571 LP  0  0  0  0  0  0  0  0  0  0  0  0  # atno 17320 bound_to 7965
  146.3220  140.3263  142.8637 LP  0  0  0  0  0  0  0  0  0  0  0  0  # atno 17321 bound_to 7965
  139.8825  144.7010  150.8861 LP  0  0  0  0  0  0  0  0  0  0  0  0  # atno 17342 bound_to 10162
  140.7758  143.3650  151.1757 LP  0  0  0  0  0  0  0  0  0  0  0  0  # atno 17343 bound_to 10162
  155.9810  130.4815  150.6804 LP  0  0  0  0  0  0  0  0  0  0  0  0  # atno 17370 bound_to 10713
  157.4402  131.0860  151.0951 LP  0  0  0  0  0  0  0  0  0  0  0  0  # atno 17371 bound_to 10713
  139.9989  135.0036  157.0144 LP  0  0  0  0  0  0  0  0  0  0  0  0  # atno 17394 bound_to 11000
  140.4801  134.1298  155.7215 LP  0  0  0  0  0  0  0  0  0  0  0  0  # atno 17395 bound_to 11000

$$$$
