AV-unprocessed.smi:2354|AV-procd|sdf|9384|dock8
  -GOLD-   2272013 13D 1   1.00000     0.00000
 Structure written by MMmdl.
 44 45  0  0  0  0  0  0  0  0  2 V2000
  150.4667  137.0916  155.6723 C   0  0  0  0  0  0  0  0  0  0  0  0
  150.3713  138.5004  155.2301 N   0  3  0  0  0  0  0  0  0  0  0  0
  151.7085  139.0820  154.9730 C   0  0  0  0  0  0  0  0  0  0  0  0
  149.5300  139.3303  156.1345 C   0  0  0  0  0  0  0  0  0  0  0  0
  148.9865  140.6172  155.4554 C   0  0  0  0  0  0  0  0  0  0  0  0
  150.1071  141.6817  155.2574 C   0  0  0  0  0  0  0  0  0  0  0  0
  150.4150  142.4408  156.4686 N   0  0  0  0  0  0  0  0  0  0  0  0
  151.1874  142.0157  157.4792 C   0  0  0  0  0  0  0  0  0  0  0  0
  151.7167  140.9048  157.5091 O   0  0  0  0  0  0  0  0  0  0  0  0
  151.2825  142.9478  158.4429 N   0  0  0  0  0  0  0  0  0  0  0  0
  151.9515  142.8555  159.6917 C   0  0  0  0  0  0  0  0  0  0  0  0
  151.7785  143.8489  160.6872 C   0  0  0  0  0  0  0  0  0  0  0  0
  152.4490  143.6853  161.9113 C   0  0  0  0  0  0  0  0  0  0  0  0
  153.2399  142.5342  162.0647 C   0  0  0  0  0  0  0  0  0  0  0  0
  153.3611  141.6044  161.0931 N   0  0  0  0  0  0  0  0  0  0  0  0
  152.7190  141.7645  159.9311 N   0  0  0  0  0  0  0  0  0  0  0  0
  148.3019  140.2626  154.1194 C   0  0  0  0  0  0  0  0  0  0  0  0
  147.3161  141.3987  153.8295 C   0  0  0  0  0  0  0  0  0  0  0  0
  146.9705  142.0072  155.1939 C   0  0  0  0  0  0  0  0  0  0  0  0
  147.8032  141.2344  156.2250 C   0  0  0  0  0  0  0  0  0  0  0  0
  150.9614  137.0184  156.6416 H   0  0  0  0  0  0  0  0  0  0  0  0
  151.0326  136.4988  154.9529 H   0  0  0  0  0  0  0  0  0  0  0  0
  149.4751  136.6461  155.7572 H   0  0  0  0  0  0  0  0  0  0  0  0
  152.2969  139.1279  155.8904 H   0  0  0  0  0  0  0  0  0  0  0  0
  151.6340  140.0891  154.5656 H   0  0  0  0  0  0  0  0  0  0  0  0
  152.2565  138.4777  154.2492 H   0  0  0  0  0  0  0  0  0  0  0  0
  148.6794  138.7438  156.4855 H   0  0  0  0  0  0  0  0  0  0  0  0
  150.0895  139.5751  157.0391 H   0  0  0  0  0  0  0  0  0  0  0  0
  151.0132  141.2232  154.8588 H   0  0  0  0  0  0  0  0  0  0  0  0
  149.8028  142.4027  154.4985 H   0  0  0  0  0  0  0  0  0  0  0  0
  150.0228  143.3685  156.5361 H   0  0  0  0  0  0  0  0  0  0  0  0
  150.7191  143.7758  158.3190 H   0  0  0  0  0  0  0  0  0  0  0  0
  151.1444  144.7100  160.5404 H   0  0  0  0  0  0  0  0  0  0  0  0
  152.3564  144.4124  162.7044 H   0  0  0  0  0  0  0  0  0  0  0  0
  153.7784  142.3512  162.9826 H   0  0  0  0  0  0  0  0  0  0  0  0
  148.9970  140.0959  153.2975 H   0  0  0  0  0  0  0  0  0  0  0  0
  147.7335  139.3380  154.2329 H   0  0  0  0  0  0  0  0  0  0  0  0
  147.7871  142.1518  153.1961 H   0  0  0  0  0  0  0  0  0  0  0  0
  146.4314  141.0377  153.3038 H   0  0  0  0  0  0  0  0  0  0  0  0
  147.2354  143.0652  155.2057 H   0  0  0  0  0  0  0  0  0  0  0  0
  145.9043  141.9368  155.4128 H   0  0  0  0  0  0  0  0  0  0  0  0
  147.1793  140.4421  156.6411 H   0  0  0  0  0  0  0  0  0  0  0  0
  148.1182  141.8664  157.0564 H   0  0  0  0  0  0  0  0  0  0  0  0
  149.8903  138.4771  154.3423 H   0  0  0  0  0  0  0  0  0  0  0  0
  1  2  1  0  0  0  0
  1 21  1  0  0  0  0
  1 22  1  0  0  0  0
  1 23  1  0  0  0  0
  2  3  1  0  0  0  0
  2  4  1  0  0  0  0
  2 44  1  0  0  0  0
  3 24  1  0  0  0  0
  3 25  1  0  0  0  0
  3 26  1  0  0  0  0
  4  5  1  0  0  0  0
  4 27  1  0  0  0  0
  4 28  1  0  0  0  0
  5 20  1  0  0  0  0
  5  6  1  0  0  0  0
  5 17  1  0  0  0  0
  6  7  1  0  0  0  0
  6 29  1  0  0  0  0
  6 30  1  0  0  0  0
  7  8  1  0  0  0  0
  7 31  1  0  0  0  0
  8  9  2  0  0  0  0
  8 10  1  0  0  0  0
 10 11  1  0  0  0  0
 10 32  1  0  0  0  0
 11 16  1  0  0  0  0
 11 12  2  0  0  0  0
 12 13  1  0  0  0  0
 12 33  1  0  0  0  0
 13 14  2  0  0  0  0
 13 34  1  0  0  0  0
 14 15  1  0  0  0  0
 14 35  1  0  0  0  0
 15 16  2  0  0  0  0
 17 18  1  0  0  0  0
 17 36  1  0  0  0  0
 17 37  1  0  0  0  0
 18 19  1  0  0  0  0
 18 38  1  0  0  0  0
 18 39  1  0  0  0  0
 19 20  1  0  0  0  0
 19 40  1  0  0  0  0
 19 41  1  0  0  0  0
 20 42  1  0  0  0  0
 20 43  1  0  0  0  0
M  CHG  1   2   1
M  END
> <s_m_source_file>
AV-unprocessed.smi

> <i_m_source_file_index>
2354

> <i_lp_mmshare_version>
43012

> <i_f3d_flags>
0

> <s_epik_input>
W0NIMl0xW0NIMl1bQ0gyXVtDSDJdQzEoW0NIMl1OKFtDSDNdKVtDSDNdKVtDSDJdW05IXUMoPU8pW05IXWMyW2NIXVtjSF1bY0hdbm4y

> <s_epik_cmdline>
J2VwaWtfcHl0aG9uJywgJy1waCcsICc3LjAnLCAnLXRuJywgJzgnLCAnLW1hJywgJzIwMCcsICctbWV0YWxfYmluZGluZycsICctaW1hZScsICc8aW5maWxlLm1hZT4nLCAnLW9tYWUnLCAnPG91dGZpbGUubWFlPic=

> <r_lp_tautomer_probability>
1

> <r_epik_Ionization_Penalty>
0.0045793

> <r_epik_Ionization_Penalty_Charging>
0.000516438

> <r_epik_Ionization_Penalty_Neutral>
0.00406287

> <r_epik_State_Penalty>
-0

> <r_epik_Charging_Adjusted_Penalty>
0.000516438

> <i_epik_Tot_Q>
1

> <i_epik_Tot_abs_Q>
1

> <r_epik_Metal_State_Penalty>
-0

> <b_epik_Metal_Only>
0

> <s_lp_Force_Field>
OPLS_2005

> <r_lp_Energy>
45.7912

> <b_lp_Chiralities_Consistent>
1

> <s_lp_Variant>
AV-unprocessed.smi:2354-1

> <Gold.Version>
5.8.1

> <Gold.Id.Protein>
6NUR|6NUR_protein|mol2

> <Gold.PLP.Fitness>
38.2162

> <Gold.PLP.PLP>
-36.4168

> <Gold.PLP.part.hbond>
-1.0000

> <Gold.PLP.part.metal>
0.0000

> <Gold.PLP.part.buried>
-5.6888

> <Gold.PLP.part.nonpolar>
-28.5835

> <Gold.PLP.part.repulsive>
0.1648

> <Gold.PLP.ligand.clash>
0.0000

> <Gold.PLP.ligand.torsion>
0.7007

> <Gold.PLP.Chemscore.Hbond>
0.9280

> <Gold.PLP.Chemscore.CHOScore>
0.0000

> <Gold.PLP.Chemscore.Metal>
0.0000

> <Gold.Chemscore.Hbonds>
donor molecule, donor type, donor heavy atom, donor atom, acceptor molecule, acceptor atom, score
      L1  H     7    31       P1  8028  0.93

> <Gold.PLP.Chemscore.Internal.Correction>
0.4168

> <Gold.Rescore>
     Score         DG    S(hbond)    S(metal)    S(lipo)     H(rot)  DE(clash)    DE(int)     intcor
     10.98     -14.09       1.00        0.00      84.72       1.81       0.23       2.88       ----

> <Gold.Chemscore.Fitness>
10.9834

> <Gold.Chemscore.DG>
-14.0882

> <Gold.Chemscore.ZeroCoef>
-5.4800

> <Gold.Chemscore.Hbond>
0.9955

> <Gold.Chemscore.Metal>
0.0000

> <Gold.Chemscore.Lipo>
84.7168

> <Gold.Chemscore.Internal_Hbond>
0.0000

> <Gold.Chemscore.DEClash>
0.2283

> <Gold.Chemscore.DEInternal>
2.8766

> <Gold.Chemscore.Rot>
1.8080

> <Gold.Chemscore.Internal.Correction>
   9.000000E+99

> <Gold.Chemscore.Hbonds>
donor molecule, donor type, donor heavy atom, donor atom, acceptor molecule, acceptor atom, score
      L1  H     7    31       P1  8028  0.88

> <Gold.Chemscore.Hbond.Weighted>
-3.3249

> <Gold.Chemscore.Metal.Weighted>
-0.0000

> <Gold.Chemscore.Lipo.Weighted>
-9.9119

> <Gold.Chemscore.Internal_Hbond.Weighted>
0.0000

> <Gold.Chemscore.DEClash.Weighted>
0.2283

> <Gold.Chemscore.DEInternal.Weighted>
2.8766

> <Gold.Chemscore.Rot.Weighted>
4.6286

> <Gold.Chemscore.Internal.Correction.Weighted>
   9.000000E+99

> <Gold.Protein.RotatedTorsions>
[ 6907 6896 6895 6894 ] final   55.43 input  -60.11 | X-H torsion
[ 7974 7965 7964 7962 ] final   49.90 input  175.53 | X-H torsion
[ 8008 7997 7996 7995 ] final   67.44 input   59.86 | X-H torsion
[ 10167 10162 10161 10158 ] final -116.88 input  -65.29 | X-H torsion
[ 10718 10713 10712 10709 ] final  142.68 input   66.30 | X-H torsion
[ 10763 10752 10751 10750 ] final  -68.52 input  -60.55 | X-H torsion
[ 11005 11000 10999 10996 ] final -103.08 input  -57.11 | X-H torsion

> <Gold.Protein.ActiveResidues>
 VAL166  LYS551  ARG553  GLY616  TRP617  ASP618  TYR619  PRO620  LYS621  CYS622 
 ASP623  PHE694  ASN695  SER759  ASP760  ASP761  ALA762  ILE779  LEU786  VAL792 
 PHE793  MET794  SER795  GLU796  ALA797  LYS798  CYS799  TRP800  GLU811  SER814 

> <Gold.Protein.RotatedAtoms>
  152.3538  134.6969  160.0228 H   0  0  0  0  0  0  0  0  0  0  0  0  # atno 6907 bound_to 6896
  151.7314  133.3312  159.3349 H   0  0  0  0  0  0  0  0  0  0  0  0  # atno 6908 bound_to 6896
  150.7558  134.6293  159.6222 H   0  0  0  0  0  0  0  0  0  0  0  0  # atno 6909 bound_to 6896
  146.0064  139.4495  142.9983 H   0  0  0  0  0  0  0  0  0  0  0  0  # atno 7974 bound_to 7965
  155.6929  140.3496  155.4901 H   0  0  0  0  0  0  0  0  0  0  0  0  # atno 8008 bound_to 7997
  155.9509  140.1119  157.1000 H   0  0  0  0  0  0  0  0  0  0  0  0  # atno 8009 bound_to 7997
  154.4121  140.1194  156.5037 H   0  0  0  0  0  0  0  0  0  0  0  0  # atno 8010 bound_to 7997
  140.0744  143.4846  152.1961 H   0  0  0  0  0  0  0  0  0  0  0  0  # atno 10167 bound_to 10162
  157.3778  131.0988  151.0768 H   0  0  0  0  0  0  0  0  0  0  0  0  # atno 10718 bound_to 10713
  154.3902  135.6054  153.5839 H   0  0  0  0  0  0  0  0  0  0  0  0  # atno 10763 bound_to 10752
  152.9787  135.5882  154.4307 H   0  0  0  0  0  0  0  0  0  0  0  0  # atno 10764 bound_to 10752
  154.4090  135.2844  155.2027 H   0  0  0  0  0  0  0  0  0  0  0  0  # atno 10765 bound_to 10752
  141.1161  133.8611  157.1441 H   0  0  0  0  0  0  0  0  0  0  0  0  # atno 11005 bound_to 11000
  145.7409  141.0008  143.1301 LP  0  0  0  0  0  0  0  0  0  0  0  0  # atno 17320 bound_to 7965
  144.6937  139.9098  143.7463 LP  0  0  0  0  0  0  0  0  0  0  0  0  # atno 17321 bound_to 7965
  139.5816  144.7513  151.3625 LP  0  0  0  0  0  0  0  0  0  0  0  0  # atno 17342 bound_to 10162
  140.7109  143.7392  150.7565 LP  0  0  0  0  0  0  0  0  0  0  0  0  # atno 17343 bound_to 10162
  157.1848  130.6325  149.5684 LP  0  0  0  0  0  0  0  0  0  0  0  0  # atno 17370 bound_to 10713
  155.9769  130.4741  150.6558 LP  0  0  0  0  0  0  0  0  0  0  0  0  # atno 17371 bound_to 10713
  140.0085  134.9998  157.0344 LP  0  0  0  0  0  0  0  0  0  0  0  0  # atno 17394 bound_to 11000
  140.4640  134.1454  155.7195 LP  0  0  0  0  0  0  0  0  0  0  0  0  # atno 17395 bound_to 11000

$$$$
