AV-unprocessed.smi:1406|AV-procd|sdf|5719|dock8
  -GOLD-   22720 5353D 1   1.00000     0.00000
 Structure written by MMmdl.
 41 43  0  0  0  0  0  0  0  0  2 V2000
  149.0496  136.4832  157.0133 C   0  0  0  0  0  0  0  0  0  0  0  0
  149.1125  136.4972  155.4725 C   0  0  2  0  0  0  0  0  0  0  0  0
  149.4754  135.1253  154.8837 C   0  0  0  0  0  0  0  0  0  0  0  0
  150.5410  134.5789  155.1707 O   0  0  0  0  0  0  0  0  0  0  0  0
  148.5781  134.5792  154.0482 N   0  0  0  0  0  0  0  0  0  0  0  0
  148.7598  133.3099  153.3523 C   0  0  1  0  0  0  0  0  0  0  0  0
  149.3203  132.1780  154.2354 C   0  0  0  0  0  0  0  0  0  0  0  0
  148.6016  130.8985  153.7637 C   0  0  0  0  0  0  0  0  0  0  0  0
  147.7590  131.3195  152.6277 N   0  3  1  0  0  0  0  0  0  0  0  0
  146.5679  130.4956  152.3278 C   0  0  0  0  0  0  0  0  0  0  0  0
  145.8736  131.0476  151.0660 C   0  0  0  0  0  0  0  0  0  0  0  0
  145.5680  132.5548  151.1915 C   0  0  0  0  0  0  0  0  0  0  0  0
  146.8260  133.3476  151.5969 C   0  0  0  0  0  0  0  0  0  0  0  0
  147.4305  132.7324  152.8693 C   0  0  2  0  0  0  0  0  0  0  0  0
  150.0258  137.5144  154.9668 N   0  0  0  0  0  0  0  0  0  0  0  0
  149.7677  138.6538  154.3211 C   0  0  0  0  0  0  0  0  0  0  0  0
  150.8512  139.3242  153.9562 N   0  0  0  0  0  0  0  0  0  0  0  0
  151.8131  138.4800  154.4337 C   0  0  0  0  0  0  0  0  0  0  0  0
  151.3735  137.3760  155.0369 N   0  0  0  0  0  0  0  0  0  0  0  0
  148.3163  135.7590  157.3697 H   0  0  0  0  0  0  0  0  0  0  0  0
  148.7560  137.4604  157.3982 H   0  0  0  0  0  0  0  0  0  0  0  0
  150.0101  136.2282  157.4626 H   0  0  0  0  0  0  0  0  0  0  0  0
  148.1150  136.7564  155.1129 H   0  0  0  0  0  0  0  0  0  0  0  0
  147.7269  135.0900  153.8630 H   0  0  0  0  0  0  0  0  0  0  0  0
  149.4180  133.4555  152.4930 H   0  0  0  0  0  0  0  0  0  0  0  0
  150.4032  132.0986  154.1319 H   0  0  0  0  0  0  0  0  0  0  0  0
  149.1043  132.3532  155.2903 H   0  0  0  0  0  0  0  0  0  0  0  0
  149.2996  130.1191  153.4563 H   0  0  0  0  0  0  0  0  0  0  0  0
  147.9806  130.5004  154.5677 H   0  0  0  0  0  0  0  0  0  0  0  0
  146.8695  129.4596  152.1695 H   0  0  0  0  0  0  0  0  0  0  0  0
  145.8835  130.5072  153.1774 H   0  0  0  0  0  0  0  0  0  0  0  0
  146.5177  130.8833  150.2012 H   0  0  0  0  0  0  0  0  0  0  0  0
  144.9540  130.4942  150.8732 H   0  0  0  0  0  0  0  0  0  0  0  0
  145.1700  132.9364  150.2508 H   0  0  0  0  0  0  0  0  0  0  0  0
  144.7885  132.7043  151.9398 H   0  0  0  0  0  0  0  0  0  0  0  0
  147.5549  133.3276  150.7855 H   0  0  0  0  0  0  0  0  0  0  0  0
  146.5719  134.3947  151.7651 H   0  0  0  0  0  0  0  0  0  0  0  0
  146.7004  132.7852  153.6807 H   0  0  0  0  0  0  0  0  0  0  0  0
  148.7662  138.9976  154.1082 H   0  0  0  0  0  0  0  0  0  0  0  0
  152.8689  138.6815  154.3273 H   0  0  0  0  0  0  0  0  0  0  0  0
  148.3512  131.3012  151.8097 H   0  0  0  0  0  0  0  0  0  0  0  0
  1  2  1  0  0  0  0
  1 20  1  0  0  0  0
  1 21  1  0  0  0  0
  1 22  1  0  0  0  0
  2  3  1  0  0  0  0
  2 15  1  0  0  0  0
  2 23  1  0  0  0  0
  3  4  2  0  0  0  0
  3  5  1  0  0  0  0
  5  6  1  0  0  0  0
  5 24  1  0  0  0  0
  6 14  1  0  0  0  0
  6  7  1  0  0  0  0
  6 25  1  0  0  0  0
  7  8  1  0  0  0  0
  7 26  1  0  0  0  0
  7 27  1  0  0  0  0
  8  9  1  0  0  0  0
  8 28  1  0  0  0  0
  8 29  1  0  0  0  0
  9 14  1  0  0  0  0
  9 10  1  0  0  0  0
  9 41  1  0  0  0  0
 10 11  1  0  0  0  0
 10 30  1  0  0  0  0
 10 31  1  0  0  0  0
 11 12  1  0  0  0  0
 11 32  1  0  0  0  0
 11 33  1  0  0  0  0
 12 13  1  0  0  0  0
 12 34  1  0  0  0  0
 12 35  1  0  0  0  0
 13 14  1  0  0  0  0
 13 36  1  0  0  0  0
 13 37  1  0  0  0  0
 14 38  1  0  0  0  0
 15 19  1  0  0  0  0
 15 16  1  0  0  0  0
 16 17  2  0  0  0  0
 16 39  1  0  0  0  0
 17 18  1  0  0  0  0
 18 19  2  0  0  0  0
 18 40  1  0  0  0  0
M  CHG  1   9   1
M  END
> <s_m_source_file>
AV-unprocessed.smi

> <i_m_source_file_index>
1406

> <i_lp_mmshare_version>
43012

> <i_f3d_flags>
0

> <s_epik_input>
bjFbY0hdbltjSF1uMVtDQEhdKFtDSDNdKUMoPU8pW05IXVtDQEhdKFtDSDJdW0NIMl0yKVtDQEBIXShOMjMpW0NIMl1bQ0gyXVtDSDJdW0NIMl0z

> <s_epik_cmdline>
J2VwaWtfcHl0aG9uJywgJy1waCcsICc3LjAnLCAnLXRuJywgJzgnLCAnLW1hJywgJzIwMCcsICctbWV0YWxfYmluZGluZycsICctaW1hZScsICc8aW5maWxlLm1hZT4nLCAnLW9tYWUnLCAnPG91dGZpbGUubWFlPic=

> <r_lp_tautomer_probability>
1

> <r_epik_Ionization_Penalty>
0.00197066

> <r_epik_Ionization_Penalty_Charging>
0.00196223

> <r_epik_Ionization_Penalty_Neutral>
8.43107e-06

> <r_epik_State_Penalty>
0.00133866

> <r_epik_Charging_Adjusted_Penalty>
0.00330089

> <i_epik_Tot_Q>
1

> <i_epik_Tot_abs_Q>
1

> <r_epik_Metal_State_Penalty>
-0

> <b_epik_Metal_Only>
0

> <s_lp_Force_Field>
OPLS_2005

> <r_lp_Energy>
39.7149

> <b_lp_Chiralities_Consistent>
1

> <s_lp_Variant>
AV-unprocessed.smi:1406-11

> <Gold.Version>
5.8.1

> <Gold.Id.Protein>
6NUR|6NUR_protein|mol2

> <Gold.PLP.Fitness>
41.6890

> <Gold.PLP.PLP>
-33.4750

> <Gold.PLP.part.hbond>
-4.0000

> <Gold.PLP.part.metal>
0.0000

> <Gold.PLP.part.buried>
-2.3929

> <Gold.PLP.part.nonpolar>
-26.9998

> <Gold.PLP.part.repulsive>
0.3314

> <Gold.PLP.ligand.clash>
0.0000

> <Gold.PLP.ligand.torsion>
0.4430

> <Gold.PLP.Chemscore.Hbond>
3.0000

> <Gold.PLP.Chemscore.CHOScore>
0.0000

> <Gold.PLP.Chemscore.Metal>
0.0000

> <Gold.Chemscore.Hbonds>
donor molecule, donor type, donor heavy atom, donor atom, acceptor molecule, acceptor atom, score
      L1  H     9    41       P1 10747  1.00
      P1  H  7989  7998       L1    17  1.00
      P1  H 10752 10765       L1    19  0.06

> <Gold.PLP.Chemscore.Internal.Correction>
0.0999

> <Gold.Rescore>
     Score         DG    S(hbond)    S(metal)    S(lipo)     H(rot)  DE(clash)    DE(int)     intcor
     13.00     -16.34       2.70        0.00      57.07       1.89       0.31       3.03       ----

> <Gold.Chemscore.Fitness>
12.9969

> <Gold.Chemscore.DG>
-16.3388

> <Gold.Chemscore.ZeroCoef>
-5.4800

> <Gold.Chemscore.Hbond>
2.6981

> <Gold.Chemscore.Metal>
0.0000

> <Gold.Chemscore.Lipo>
57.0665

> <Gold.Chemscore.Internal_Hbond>
0.0000

> <Gold.Chemscore.DEClash>
0.3128

> <Gold.Chemscore.DEInternal>
3.0292

> <Gold.Chemscore.Rot>
1.8865

> <Gold.Chemscore.Internal.Correction>
   9.000000E+99

> <Gold.Chemscore.Hbonds>
donor molecule, donor type, donor heavy atom, donor atom, acceptor molecule, acceptor atom, score
      L1  H     9    41       P1 10747  1.00
      P1  H  7989  7998       L1    17  0.64
      P1  H 10752 10765       L1    19  0.07

> <Gold.Chemscore.Hbond.Weighted>
-9.0116

> <Gold.Chemscore.Metal.Weighted>
-0.0000

> <Gold.Chemscore.Lipo.Weighted>
-6.6768

> <Gold.Chemscore.Internal_Hbond.Weighted>
0.0000

> <Gold.Chemscore.DEClash.Weighted>
0.3128

> <Gold.Chemscore.DEInternal.Weighted>
3.0292

> <Gold.Chemscore.Rot.Weighted>
4.8295

> <Gold.Chemscore.Internal.Correction.Weighted>
   9.000000E+99

> <Gold.Protein.RotatedTorsions>
[ 6907 6896 6895 6894 ] final   34.30 input  -60.11 | X-H torsion
[ 7974 7965 7964 7962 ] final -148.51 input  175.53 | X-H torsion
[ 8008 7997 7996 7995 ] final  -72.16 input   59.86 | X-H torsion
[ 10167 10162 10161 10158 ] final  104.11 input  -65.29 | X-H torsion
[ 10718 10713 10712 10709 ] final  -74.52 input   66.30 | X-H torsion
[ 10763 10752 10751 10750 ] final  174.33 input  -60.55 | X-H torsion
[ 11005 11000 10999 10996 ] final  -90.86 input  -57.11 | X-H torsion

> <Gold.Protein.ActiveResidues>
 VAL166  LYS551  ARG553  GLY616  TRP617  ASP618  TYR619  PRO620  LYS621  CYS622 
 ASP623  PHE694  ASN695  SER759  ASP760  ASP761  ALA762  ILE779  LEU786  VAL792 
 PHE793  MET794  SER795  GLU796  ALA797  LYS798  CYS799  TRP800  GLU811  SER814 

> <Gold.Protein.RotatedAtoms>
  152.1005  134.9345  160.0569 H   0  0  0  0  0  0  0  0  0  0  0  0  # atno 6907 bound_to 6896
  152.0561  133.4036  159.4406 H   0  0  0  0  0  0  0  0  0  0  0  0  # atno 6908 bound_to 6896
  150.6839  134.3174  159.4815 H   0  0  0  0  0  0  0  0  0  0  0  0  # atno 6909 bound_to 6896
  144.8025  140.5187  143.5697 H   0  0  0  0  0  0  0  0  0  0  0  0  # atno 7974 bound_to 7965
  154.5144  140.0802  156.8053 H   0  0  0  0  0  0  0  0  0  0  0  0  # atno 8008 bound_to 7997
  155.3712  140.3423  155.4225 H   0  0  0  0  0  0  0  0  0  0  0  0  # atno 8009 bound_to 7997
  156.1611  140.1589  156.8598 H   0  0  0  0  0  0  0  0  0  0  0  0  # atno 8010 bound_to 7997
  139.7205  144.7059  151.0880 H   0  0  0  0  0  0  0  0  0  0  0  0  # atno 10167 bound_to 10162
  156.0239  130.4419  150.2905 H   0  0  0  0  0  0  0  0  0  0  0  0  # atno 10718 bound_to 10713
  154.4524  135.2765  155.1771 H   0  0  0  0  0  0  0  0  0  0  0  0  # atno 10763 bound_to 10752
  154.3593  135.6133  153.5686 H   0  0  0  0  0  0  0  0  0  0  0  0  # atno 10764 bound_to 10752
  152.9848  135.5830  154.4871 H   0  0  0  0  0  0  0  0  0  0  0  0  # atno 10765 bound_to 10752
  141.1557  133.7719  156.9798 H   0  0  0  0  0  0  0  0  0  0  0  0  # atno 11005 bound_to 11000
  145.5518  139.1477  143.3390 LP  0  0  0  0  0  0  0  0  0  0  0  0  # atno 17320 bound_to 7965
  146.2310  140.5656  142.8975 LP  0  0  0  0  0  0  0  0  0  0  0  0  # atno 17321 bound_to 7965
  140.7752  143.5173  150.9580 LP  0  0  0  0  0  0  0  0  0  0  0  0  # atno 17342 bound_to 10162
  139.8859  143.7013  152.3151 LP  0  0  0  0  0  0  0  0  0  0  0  0  # atno 17343 bound_to 10162
  157.1008  131.0195  151.3086 LP  0  0  0  0  0  0  0  0  0  0  0  0  # atno 17370 bound_to 10713
  157.4781  130.7748  149.7387 LP  0  0  0  0  0  0  0  0  0  0  0  0  # atno 17371 bound_to 10713
  140.1074  134.9498  157.2014 LP  0  0  0  0  0  0  0  0  0  0  0  0  # atno 17394 bound_to 11000
  140.3239  134.2886  155.7241 LP  0  0  0  0  0  0  0  0  0  0  0  0  # atno 17395 bound_to 11000

$$$$
