AV-unprocessed.smi:652|AV-procd|sdf|3193|dock3
  -GOLD-   22720 0123D 1   1.00000     0.00000
 Structure written by MMmdl.
 48 49  0  0  0  0  0  0  0  0  2 V2000
  152.0377  143.9727  161.0081 C   0  0  0  0  0  0  0  0  0  0  0  0
  152.3252  143.5766  159.5516 C   0  0  0  0  0  0  0  0  0  0  0  0
  152.3928  144.8041  158.6333 C   0  0  0  0  0  0  0  0  0  0  0  0
  151.2988  142.6605  159.0624 N   0  0  0  0  0  0  0  0  0  0  0  0
  151.5178  141.4204  158.5982 C   0  0  0  0  0  0  0  0  0  0  0  0
  152.6373  140.9121  158.5314 O   0  0  0  0  0  0  0  0  0  0  0  0
  150.2738  140.6502  158.1420 C   0  0  0  0  0  0  0  0  0  0  0  0
  149.4686  141.3729  157.0408 C   0  0  0  0  0  0  0  0  0  0  0  0
  150.1885  141.4206  155.7393 N   0  3  2  0  0  0  0  0  0  0  0  0
  149.2849  141.5750  154.5729 C   0  0  0  0  0  0  0  0  0  0  0  0
  148.6090  140.2397  154.2110 C   0  0  0  0  0  0  0  0  0  0  0  0
  149.6042  139.2504  153.9775 O   0  0  0  0  0  0  0  0  0  0  0  0
  150.4075  138.9997  155.1270 C   0  0  1  0  0  0  0  0  0  0  0  0
  151.3961  137.8755  154.7891 C   0  0  0  0  0  0  0  0  0  0  0  0
  150.7154  136.7081  154.2465 N   0  0  0  0  0  0  0  0  0  0  0  0
  150.8283  135.4580  154.8691 C   0  0  0  0  0  0  0  0  0  0  0  0
  150.0235  134.3948  154.4140 C   0  0  0  0  0  0  0  0  0  0  0  0
  150.1544  133.1543  155.0616 C   0  0  0  0  0  0  0  0  0  0  0  0
  151.0818  133.0717  156.1162 C   0  0  0  0  0  0  0  0  0  0  0  0
  151.8305  134.1259  156.5115 N   0  0  0  0  0  0  0  0  0  0  0  0
  151.7042  135.3063  155.8943 N   0  0  0  0  0  0  0  0  0  0  0  0
  151.1409  140.3044  155.5052 C   0  0  0  0  0  0  0  0  0  0  0  0
  152.8066  144.6454  161.3887 H   0  0  0  0  0  0  0  0  0  0  0  0
  152.0160  143.0986  161.6597 H   0  0  0  0  0  0  0  0  0  0  0  0
  151.0769  144.4807  161.0996 H   0  0  0  0  0  0  0  0  0  0  0  0
  153.2966  143.0802  159.5122 H   0  0  0  0  0  0  0  0  0  0  0  0
  153.1701  145.4952  158.9603 H   0  0  0  0  0  0  0  0  0  0  0  0
  151.4473  145.3478  158.6250 H   0  0  0  0  0  0  0  0  0  0  0  0
  152.6214  144.5156  157.6069 H   0  0  0  0  0  0  0  0  0  0  0  0
  150.3474  142.9984  159.0805 H   0  0  0  0  0  0  0  0  0  0  0  0
  150.5953  139.6724  157.7808 H   0  0  0  0  0  0  0  0  0  0  0  0
  149.6526  140.4753  159.0200 H   0  0  0  0  0  0  0  0  0  0  0  0
  148.4858  140.9160  156.9235 H   0  0  0  0  0  0  0  0  0  0  0  0
  149.2914  142.4003  157.3629 H   0  0  0  0  0  0  0  0  0  0  0  0
  148.5403  142.3498  154.7590 H   0  0  0  0  0  0  0  0  0  0  0  0
  149.8773  141.9190  153.7239 H   0  0  0  0  0  0  0  0  0  0  0  0
  147.9270  139.9124  154.9969 H   0  0  0  0  0  0  0  0  0  0  0  0
  148.0131  140.3563  153.3057 H   0  0  0  0  0  0  0  0  0  0  0  0
  149.7769  138.6732  155.9553 H   0  0  0  0  0  0  0  0  0  0  0  0
  152.1459  138.2291  154.0800 H   0  0  0  0  0  0  0  0  0  0  0  0
  151.9252  137.5763  155.6951 H   0  0  0  0  0  0  0  0  0  0  0  0
  150.1772  136.8022  153.3975 H   0  0  0  0  0  0  0  0  0  0  0  0
  149.3276  134.5238  153.5979 H   0  0  0  0  0  0  0  0  0  0  0  0
  149.5662  132.2995  154.7627 H   0  0  0  0  0  0  0  0  0  0  0  0
  151.2268  132.1453  156.6521 H   0  0  0  0  0  0  0  0  0  0  0  0
  151.8023  140.5942  154.6873 H   0  0  0  0  0  0  0  0  0  0  0  0
  151.7872  140.1488  156.3677 H   0  0  0  0  0  0  0  0  0  0  0  0
  150.7403  142.2659  155.7749 H   0  0  0  0  0  0  0  0  0  0  0  0
  1  2  1  0  0  0  0
  1 23  1  0  0  0  0
  1 24  1  0  0  0  0
  1 25  1  0  0  0  0
  2  3  1  0  0  0  0
  2  4  1  0  0  0  0
  2 26  1  0  0  0  0
  3 27  1  0  0  0  0
  3 28  1  0  0  0  0
  3 29  1  0  0  0  0
  4  5  1  0  0  0  0
  4 30  1  0  0  0  0
  5  6  2  0  0  0  0
  5  7  1  0  0  0  0
  7  8  1  0  0  0  0
  7 31  1  0  0  0  0
  7 32  1  0  0  0  0
  8  9  1  0  0  0  0
  8 33  1  0  0  0  0
  8 34  1  0  0  0  0
  9 22  1  0  0  0  0
  9 10  1  0  0  0  0
  9 48  1  0  0  0  0
 10 11  1  0  0  0  0
 10 35  1  0  0  0  0
 10 36  1  0  0  0  0
 11 12  1  0  0  0  0
 11 37  1  0  0  0  0
 11 38  1  0  0  0  0
 12 13  1  0  0  0  0
 13 14  1  0  0  0  0
 13 22  1  0  0  0  0
 13 39  1  0  0  0  0
 14 15  1  0  0  0  0
 14 40  1  0  0  0  0
 14 41  1  0  0  0  0
 15 16  1  0  0  0  0
 15 42  1  0  0  0  0
 16 21  1  0  0  0  0
 16 17  2  0  0  0  0
 17 18  1  0  0  0  0
 17 43  1  0  0  0  0
 18 19  2  0  0  0  0
 18 44  1  0  0  0  0
 19 20  1  0  0  0  0
 19 45  1  0  0  0  0
 20 21  2  0  0  0  0
 22 46  1  0  0  0  0
 22 47  1  0  0  0  0
M  CHG  1   9   1
M  END
> <s_m_source_file>
AV-unprocessed.smi

> <i_m_source_file_index>
652

> <i_lp_mmshare_version>
43012

> <i_f3d_flags>
0

> <s_epik_input>
W0NIM11bQ0hdKFtDSDNdKVtOSF1DKD1PKVtDSDJdW0NIMl1OMVtDSDJdW0NIMl1PW0NASF0oW0NIMl0xKVtDSDJdW05IXWMyW2NIXVtjSF1bY0hdbm4y

> <s_epik_cmdline>
J2VwaWtfcHl0aG9uJywgJy1waCcsICc3LjAnLCAnLXRuJywgJzgnLCAnLW1hJywgJzIwMCcsICctbWV0YWxfYmluZGluZycsICctaW1hZScsICc8aW5maWxlLm1hZT4nLCAnLW9tYWUnLCAnPG91dGZpbGUubWFlPic=

> <r_lp_tautomer_probability>
0.999978

> <r_epik_Ionization_Penalty>
0.433079

> <r_epik_Ionization_Penalty_Charging>
0.413784

> <r_epik_Ionization_Penalty_Neutral>
0.0192945

> <r_epik_State_Penalty>
0.425138

> <r_epik_Charging_Adjusted_Penalty>
0.838922

> <i_epik_Tot_Q>
1

> <i_epik_Tot_abs_Q>
1

> <r_epik_Metal_State_Penalty>
0.422073

> <b_epik_Metal_Only>
0

> <s_lp_Force_Field>
OPLS_2005

> <r_lp_Energy>
24.1608

> <b_lp_Chiralities_Consistent>
1

> <s_lp_Variant>
AV-unprocessed.smi:652-2

> <Gold.Version>
5.8.1

> <Gold.Id.Protein>
6NUR|6NUR_protein|mol2

> <Gold.PLP.Fitness>
47.9730

> <Gold.PLP.PLP>
-42.6938

> <Gold.PLP.part.hbond>
-3.5757

> <Gold.PLP.part.metal>
0.0000

> <Gold.PLP.part.buried>
-5.2584

> <Gold.PLP.part.nonpolar>
-34.9035

> <Gold.PLP.part.repulsive>
0.9226

> <Gold.PLP.ligand.clash>
0.0000

> <Gold.PLP.ligand.torsion>
0.4182

> <Gold.PLP.Chemscore.Hbond>
2.0000

> <Gold.PLP.Chemscore.CHOScore>
0.0000

> <Gold.PLP.Chemscore.Metal>
0.0000

> <Gold.Chemscore.Hbonds>
donor molecule, donor type, donor heavy atom, donor atom, acceptor molecule, acceptor atom, score
      L1  H    15    42       P1  7948  0.65
      P1  H 10752 10763       L1    21  1.00

> <Gold.PLP.Chemscore.Internal.Correction>
0.1157

> <Gold.Rescore>
     Score         DG    S(hbond)    S(metal)    S(lipo)     H(rot)  DE(clash)    DE(int)     intcor
     14.24     -15.02       1.24        0.00      95.62       2.26       0.02       0.76       ----

> <Gold.Chemscore.Fitness>
14.2434

> <Gold.Chemscore.DG>
-15.0216

> <Gold.Chemscore.ZeroCoef>
-5.4800

> <Gold.Chemscore.Hbond>
1.2389

> <Gold.Chemscore.Metal>
0.0000

> <Gold.Chemscore.Lipo>
95.6223

> <Gold.Chemscore.Internal_Hbond>
0.0000

> <Gold.Chemscore.DEClash>
0.0189

> <Gold.Chemscore.DEInternal>
0.7593

> <Gold.Chemscore.Rot>
2.2594

> <Gold.Chemscore.Internal.Correction>
   9.000000E+99

> <Gold.Chemscore.Hbonds>
donor molecule, donor type, donor heavy atom, donor atom, acceptor molecule, acceptor atom, score
      L1  H    15    42       P1  7948  0.05
      P1  H 10752 10763       L1    21  0.10

> <Gold.Chemscore.Hbond.Weighted>
-4.1379

> <Gold.Chemscore.Metal.Weighted>
-0.0000

> <Gold.Chemscore.Lipo.Weighted>
-11.1878

> <Gold.Chemscore.Internal_Hbond.Weighted>
0.0000

> <Gold.Chemscore.DEClash.Weighted>
0.0189

> <Gold.Chemscore.DEInternal.Weighted>
0.7593

> <Gold.Chemscore.Rot.Weighted>
5.7841

> <Gold.Chemscore.Internal.Correction.Weighted>
   9.000000E+99

> <Gold.Protein.RotatedTorsions>
[ 6907 6896 6895 6894 ] final   74.47 input  -60.11 | X-H torsion
[ 7974 7965 7964 7962 ] final  124.51 input  175.53 | X-H torsion
[ 8008 7997 7996 7995 ] final   90.46 input   59.86 | X-H torsion
[ 10167 10162 10161 10158 ] final   43.41 input  -65.29 | X-H torsion
[ 10718 10713 10712 10709 ] final -113.03 input   66.30 | X-H torsion
[ 10763 10752 10751 10750 ] final   93.24 input  -60.55 | X-H torsion
[ 11005 11000 10999 10996 ] final -128.15 input  -57.11 | X-H torsion

> <Gold.Protein.ActiveResidues>
 VAL166  LYS551  ARG553  GLY616  TRP617  ASP618  TYR619  PRO620  LYS621  CYS622 
 ASP623  PHE694  ASN695  SER759  ASP760  ASP761  ALA762  ILE779  LEU786  VAL792 
 PHE793  MET794  SER795  GLU796  ALA797  LYS798  CYS799  TRP800  GLU811  SER814 

> <Gold.Protein.RotatedAtoms>
  152.4977  134.4267  159.9498 H   0  0  0  0  0  0  0  0  0  0  0  0  # atno 6907 bound_to 6896
  151.4243  133.3683  159.2768 H   0  0  0  0  0  0  0  0  0  0  0  0  # atno 6908 bound_to 6896
  150.9200  134.8640  159.7542 H   0  0  0  0  0  0  0  0  0  0  0  0  # atno 6909 bound_to 6896
  145.0835  139.3639  143.4897 H   0  0  0  0  0  0  0  0  0  0  0  0  # atno 7974 bound_to 7965
  156.0122  140.3349  155.6953 H   0  0  0  0  0  0  0  0  0  0  0  0  # atno 8008 bound_to 7997
  155.6141  140.0668  157.2715 H   0  0  0  0  0  0  0  0  0  0  0  0  # atno 8009 bound_to 7997
  154.4285  140.1788  156.1291 H   0  0  0  0  0  0  0  0  0  0  0  0  # atno 8010 bound_to 7997
  140.3446  144.2427  150.6152 H   0  0  0  0  0  0  0  0  0  0  0  0  # atno 10167 bound_to 10162
  156.0741  130.5951  150.8587 H   0  0  0  0  0  0  0  0  0  0  0  0  # atno 10718 bound_to 10713
  153.2281  135.4332  155.0564 H   0  0  0  0  0  0  0  0  0  0  0  0  # atno 10763 bound_to 10752
  154.8283  135.3372  154.6828 H   0  0  0  0  0  0  0  0  0  0  0  0  # atno 10764 bound_to 10752
  153.7256  135.7014  153.5058 H   0  0  0  0  0  0  0  0  0  0  0  0  # atno 10765 bound_to 10752
  140.9540  134.1027  157.4034 H   0  0  0  0  0  0  0  0  0  0  0  0  # atno 11005 bound_to 11000
  146.3531  140.0637  142.8627 LP  0  0  0  0  0  0  0  0  0  0  0  0  # atno 17320 bound_to 7965
  145.1150  140.9428  143.4634 LP  0  0  0  0  0  0  0  0  0  0  0  0  # atno 17321 bound_to 7965
  140.5276  143.2250  151.8289 LP  0  0  0  0  0  0  0  0  0  0  0  0  # atno 17342 bound_to 10162
  139.4835  144.4760  151.9366 LP  0  0  0  0  0  0  0  0  0  0  0  0  # atno 17343 bound_to 10162
  157.5828  131.0946  150.9244 LP  0  0  0  0  0  0  0  0  0  0  0  0  # atno 17370 bound_to 10713
  156.9436  130.5394  149.5280 LP  0  0  0  0  0  0  0  0  0  0  0  0  # atno 17371 bound_to 10713
  139.8856  135.0074  156.6447 LP  0  0  0  0  0  0  0  0  0  0  0  0  # atno 17394 bound_to 11000
  140.7562  133.8856  155.8384 LP  0  0  0  0  0  0  0  0  0  0  0  0  # atno 17395 bound_to 11000

$$$$
