#       Name:                AV-unprocessed.smi:2124
#       Creating user name   scv26
#       Creation time:       Fri Mar 27 11:41:13 2020


#       File generated by GOLD software.
#

@<TRIPOS>MOLECULE
AV-unprocessed.smi:2124
    52    54     1
SMALL
NO_CHARGES


@<TRIPOS>ATOM
      1 ****        -4.0398   5.6280  -0.3953 C.3            1 S1                 0.0000
      2 ****        -3.5029   4.2151  -0.4677 C.2            1 S1                 0.0000
      3 ****        -3.3417   3.7466  -1.7613 N.pl3          1 S1                 0.0000
      4 ****        -2.8688   2.4570  -1.9290 C.2            1 S1                 0.0000
      5 ****        -2.7320   2.0193  -3.3770 C.3            1 S1                 0.0000
      6 ****        -2.5628   1.6774  -0.8609 C.2            1 S1                 0.0000
      7 ****        -2.0340   0.2503  -0.9929 C.3            1 S1                 0.0000
      8 ****        -0.5135   0.1070  -1.0971 C.2            1 S1                 0.0000
      9 ****         0.1647   0.9967  -1.6109 O.2            1 S1                 0.0000
     10 ****         0.0072  -1.0244  -0.5986 N.am           1 S1                 0.0000
     11 ****         1.4283  -1.3651  -0.5619 C.3            1 S1                 0.0000
     12 ****         1.8048  -2.0732  -1.8761 C.3            1 S1                 0.0000
     13 ****         1.7178  -2.2285   0.6912 C.3            1 S1                 0.0000
     14 ****         1.2903  -1.5580   2.0219 C.3            1 S1                 0.0000
     15 ****         2.5662  -1.6219   2.8791 C.3            1 S1                 0.0000
     16 ****         2.8557  -3.0833   3.2669 C.3            1 S1                 0.0000
     17 ****         3.3371  -3.6956   1.9385 C.3            1 S1                 0.0000
     18 ****         3.2183  -2.5144   0.9559 C.3            1 S1                 0.0000
     19 ****         3.6436  -1.3457   1.8395 C.3            1 S1                 0.0000
     20 ****        -2.7378   2.2408   0.4983 C.2            1 S1                 0.0000
     21 ****        -2.4535   1.5917   1.5043 O.2            1 S1                 0.0000
     22 ****        -3.2353   3.5489   0.6141 N.2            1 S1                 0.0000
     23 ****        -3.5564   4.2929  -2.5830 H              1 S1                 0.0000
     24 ****        -4.1632   5.9461   0.6408 H              1 S1                 0.0000
     25 ****        -5.0102   5.6919  -0.8888 H              1 S1                 0.0000
     26 ****        -3.3543   6.3206  -0.8846 H              1 S1                 0.0000
     27 ****        -3.3962   1.1804  -3.5851 H              1 S1                 0.0000
     28 ****        -1.7082   1.7100  -3.5881 H              1 S1                 0.0000
     29 ****        -2.9857   2.8252  -4.0669 H              1 S1                 0.0000
     30 ****        -2.4639  -0.2104  -1.8820 H              1 S1                 0.0000
     31 ****        -2.4021  -0.3553  -0.1631 H              1 S1                 0.0000
     32 ****        -0.6287  -1.6967  -0.1949 H              1 S1                 0.0000
     33 ****         2.0111  -0.4455  -0.4877 H              1 S1                 0.0000
     34 ****         2.8721  -2.2816  -1.9346 H              1 S1                 0.0000
     35 ****         1.5552  -1.4557  -2.7395 H              1 S1                 0.0000
     36 ****         1.2740  -3.0198  -1.9825 H              1 S1                 0.0000
     37 ****         1.1840  -3.1734   0.5757 H              1 S1                 0.0000
     38 ****         1.0023  -0.5163   1.8733 H              1 S1                 0.0000
     39 ****         0.4481  -2.0680   2.4912 H              1 S1                 0.0000
     40 ****         2.5572  -0.9367   3.7272 H              1 S1                 0.0000
     41 ****         3.6407  -3.1392   4.0223 H              1 S1                 0.0000
     42 ****         1.9728  -3.5872   3.6619 H              1 S1                 0.0000
     43 ****         4.3740  -4.0231   2.0234 H              1 S1                 0.0000
     44 ****         2.7411  -4.5567   1.6341 H              1 S1                 0.0000
     45 ****         3.8241  -2.6503   0.0612 H              1 S1                 0.0000
     46 ****         3.5418  -0.3722   1.3573 H              1 S1                 0.0000
     47 ****         4.6578  -1.4455   2.2309 H              1 S1                 0.0000
     48 ****        -0.2771   1.8212  -1.9643 LP             1 S1                 0.0000
     49 ****         1.1575   0.8948  -1.6749 LP             1 S1                 0.0000
     50 ****        -2.0956   0.6622   1.4150 LP             1 S1                 0.0000
     51 ****        -2.5804   1.9936   2.4111 LP             1 S1                 0.0000
     52 ****        -3.3809   3.9600   1.5140 LP             1 S1                 0.0000
@<TRIPOS>BOND
    1    1   24 1     
    2    1   25 1     
    3    1   26 1     
    4    1    2 1     
    5    2    3 1     
    6    2   22 2     
    7    3    4 1     
    8    3   23 1     
    9    4    6 2     
   10    4    5 1     
   11    5   27 1     
   12    5   28 1     
   13    5   29 1     
   14    6   20 1     
   15    6    7 1     
   16    7    8 1     
   17    7   30 1     
   18    7   31 1     
   19    8    9 2     
   20    8   10 am    
   21   10   11 1     
   22   10   32 1     
   23   11   12 1     
   24   11   13 1     
   25   11   33 1     
   26   12   34 1     
   27   12   35 1     
   28   12   36 1     
   29   13   18 1     
   30   13   14 1     
   31   13   37 1     
   32   14   15 1     
   33   14   38 1     
   34   14   39 1     
   35   15   19 1     
   36   15   16 1     
   37   15   40 1     
   38   16   17 1     
   39   16   41 1     
   40   16   42 1     
   41   17   18 1     
   42   17   43 1     
   43   17   44 1     
   44   18   19 1     
   45   18   45 1     
   46   19   46 1     
   47   19   47 1     
   48   20   21 2     
   49   20   22 1     
   50    9   48 1     
   51    9   49 1     
   52   21   50 1     
   53   21   51 1     
   54   22   52 1     
@<TRIPOS>SUBSTRUCTURE
      1 S1             1
@<TRIPOS>SET
LONE_PAIRS      STATIC     ATOMS    <user>   **** ""
5 48 49 50 51 52
DONOR_HYDROGENS      STATIC     ATOMS    <user>   **** ""
2 23 32
ATOM$BLUE        STATIC     ATOMS    COLORGROUP SYSTEM
5 48 49 50 51 52
ATOM$RED        STATIC     ATOMS    COLORGROUP SYSTEM
2 23 32
