AV-unprocessed.smi:2089|AV-procd|sdf|8530|dock2
  -GOLD-   2272011253D 1   1.00000     0.00000
 Structure written by MMmdl.
 40 41  0  0  0  0  0  0  0  0  2 V2000
  154.5541  136.0078  158.0853 C   0  0  0  0  0  0  0  0  0  0  0  0
  154.2845  137.5497  157.1201 S   0  0  0  0  0  0  0  0  0  0  0  0
  154.3736  138.6925  158.0422 O   0  0  0  0  0  0  0  0  0  0  0  0
  155.1223  137.5157  155.9118 O   0  0  0  0  0  0  0  0  0  0  0  0
  152.6331  137.4099  156.6221 N   0  0  0  0  0  0  0  0  0  0  0  0
  151.9966  136.0858  156.6487 C   0  0  0  0  0  0  0  0  0  0  0  0
  150.8573  136.1558  155.6350 C   0  0  0  0  0  0  0  0  0  0  0  0
  151.3800  137.1439  154.6020 C   0  0  0  0  0  0  0  0  0  0  0  0
  152.1934  138.1544  155.4304 C   0  0  1  0  0  0  0  0  0  0  0  0
  151.4136  139.4284  155.7855 C   0  0  0  0  0  0  0  0  0  0  0  0
  150.9167  140.1326  154.9059 O   0  0  0  0  0  0  0  0  0  0  0  0
  151.3005  139.7049  157.0923 N   0  0  0  0  0  0  0  0  0  0  0  0
  150.5773  140.8460  157.6334 C   0  0  0  0  0  0  0  0  0  0  0  0
  151.0613  142.1496  156.9840 C   0  0  0  0  0  0  0  0  0  0  0  0
  151.2821  143.2498  158.0041 C   0  0  0  0  0  0  0  0  0  0  0  0
  152.1656  143.0980  159.0950 C   0  0  0  0  0  0  0  0  0  0  0  0
  152.3298  144.1657  160.0021 C   0  0  0  0  0  0  0  0  0  0  0  0
  151.6097  145.3614  159.7990 C   0  0  0  0  0  0  0  0  0  0  0  0
  150.7417  145.4592  158.6923 C   0  0  0  0  0  0  0  0  0  0  0  0
  150.6107  144.4138  157.8462 N   0  3  0  0  0  0  0  0  0  0  0  0
  155.5662  136.0069  158.4892 H   0  0  0  0  0  0  0  0  0  0  0  0
  154.4252  135.1410  157.4377 H   0  0  0  0  0  0  0  0  0  0  0  0
  153.8371  135.9603  158.9044 H   0  0  0  0  0  0  0  0  0  0  0  0
  152.7205  135.3287  156.3452 H   0  0  0  0  0  0  0  0  0  0  0  0
  151.6469  135.8423  157.6521 H   0  0  0  0  0  0  0  0  0  0  0  0
  150.6117  135.1839  155.2064 H   0  0  0  0  0  0  0  0  0  0  0  0
  149.9588  136.5519  156.1103 H   0  0  0  0  0  0  0  0  0  0  0  0
  152.0405  136.6302  153.9021 H   0  0  0  0  0  0  0  0  0  0  0  0
  150.5775  137.5944  154.0161 H   0  0  0  0  0  0  0  0  0  0  0  0
  153.0675  138.4462  154.8452 H   0  0  0  0  0  0  0  0  0  0  0  0
  151.7271  139.0701  157.7523 H   0  0  0  0  0  0  0  0  0  0  0  0
  149.5088  140.7114  157.4577 H   0  0  0  0  0  0  0  0  0  0  0  0
  150.7252  140.8882  158.7139 H   0  0  0  0  0  0  0  0  0  0  0  0
  151.9941  141.9760  156.4449 H   0  0  0  0  0  0  0  0  0  0  0  0
  150.3362  142.4895  156.2431 H   0  0  0  0  0  0  0  0  0  0  0  0
  152.7131  142.1773  159.2359 H   0  0  0  0  0  0  0  0  0  0  0  0
  153.0011  144.0691  160.8429 H   0  0  0  0  0  0  0  0  0  0  0  0
  151.7219  146.1909  160.4819 H   0  0  0  0  0  0  0  0  0  0  0  0
  150.1534  146.3347  158.4596 H   0  0  0  0  0  0  0  0  0  0  0  0
  149.9777  144.5073  157.0515 H   0  0  0  0  0  0  0  0  0  0  0  0
  1  2  1  0  0  0  0
  1 21  1  0  0  0  0
  1 22  1  0  0  0  0
  1 23  1  0  0  0  0
  2  3  2  0  0  0  0
  2  4  2  0  0  0  0
  2  5  1  0  0  0  0
  5  9  1  0  0  0  0
  5  6  1  0  0  0  0
  6  7  1  0  0  0  0
  6 24  1  0  0  0  0
  6 25  1  0  0  0  0
  7  8  1  0  0  0  0
  7 26  1  0  0  0  0
  7 27  1  0  0  0  0
  8  9  1  0  0  0  0
  8 28  1  0  0  0  0
  8 29  1  0  0  0  0
  9 10  1  0  0  0  0
  9 30  1  0  0  0  0
 10 11  2  0  0  0  0
 10 12  1  0  0  0  0
 12 13  1  0  0  0  0
 12 31  1  0  0  0  0
 13 14  1  0  0  0  0
 13 32  1  0  0  0  0
 13 33  1  0  0  0  0
 14 15  1  0  0  0  0
 14 34  1  0  0  0  0
 14 35  1  0  0  0  0
 15 20  1  0  0  0  0
 15 16  2  0  0  0  0
 16 17  1  0  0  0  0
 16 36  1  0  0  0  0
 17 18  2  0  0  0  0
 17 37  1  0  0  0  0
 18 19  1  0  0  0  0
 18 38  1  0  0  0  0
 19 20  2  0  0  0  0
 19 39  1  0  0  0  0
 20 40  1  0  0  0  0
M  CHG  1  20   1
M  END
> <s_m_source_file>
AV-unprocessed.smi

> <i_m_source_file_index>
2089

> <i_lp_mmshare_version>
43012

> <i_f3d_flags>
0

> <s_epik_input>
W0NIM11TKD1PKSg9TylOMVtDSDJdW0NIMl1bQ0gyXVtDQEhdMUMoPU8pW05IXVtDSDJdW0NIMl1jMltjSF1bY0hdW2NIXVtjSF1uMg==

> <s_epik_cmdline>
J2VwaWtfcHl0aG9uJywgJy1waCcsICc3LjAnLCAnLXRuJywgJzgnLCAnLW1hJywgJzIwMCcsICctbWV0YWxfYmluZGluZycsICctaW1hZScsICc8aW5maWxlLm1hZT4nLCAnLW9tYWUnLCAnPG91dGZpbGUubWFlPic=

> <r_epik_Ionization_Penalty>
1.90116

> <r_epik_Ionization_Penalty_Charging>
1.90116

> <r_epik_Ionization_Penalty_Neutral>
1.4017e-07

> <r_epik_State_Penalty>
2.02245

> <r_epik_Charging_Adjusted_Penalty>
3.9236

> <i_epik_Tot_Q>
1

> <i_epik_Tot_abs_Q>
1

> <r_epik_Metal_State_Penalty>
2.04621

> <b_epik_Metal_Only>
0

> <s_lp_Force_Field>
OPLS_2005

> <r_lp_Energy>
11.7086

> <b_lp_Chiralities_Consistent>
1

> <s_lp_Variant>
AV-unprocessed.smi:2089-3

> <Gold.Version>
5.8.1

> <Gold.Id.Protein>
6NUR|6NUR_protein|mol2

> <Gold.PLP.Fitness>
47.6528

> <Gold.PLP.PLP>
-37.0346

> <Gold.PLP.part.hbond>
-4.3749

> <Gold.PLP.part.metal>
0.0000

> <Gold.PLP.part.buried>
-4.3912

> <Gold.PLP.part.nonpolar>
-29.1302

> <Gold.PLP.part.repulsive>
0.1786

> <Gold.PLP.ligand.clash>
0.0000

> <Gold.PLP.ligand.torsion>
1.2233

> <Gold.PLP.Chemscore.Hbond>
4.1733

> <Gold.PLP.Chemscore.CHOScore>
0.0000

> <Gold.PLP.Chemscore.Metal>
0.0000

> <Gold.Chemscore.Hbonds>
donor molecule, donor type, donor heavy atom, donor atom, acceptor molecule, acceptor atom, score
      L1  H    20    40       P1  8028  2.00
      P1  H  7989  7998       L1    11  1.00
      P1  H  7997  8010       L1     3  0.96
      P1  H 10752 10765       L1     4  0.06

> <Gold.PLP.Chemscore.Internal.Correction>
0.5449

> <Gold.Rescore>
     Score         DG    S(hbond)    S(metal)    S(lipo)     H(rot)  DE(clash)    DE(int)     intcor
     20.44     -22.78       3.36        0.00      95.94       2.00       0.18       2.16       ----

> <Gold.Chemscore.Fitness>
20.4443

> <Gold.Chemscore.DG>
-22.7819

> <Gold.Chemscore.ZeroCoef>
-5.4800

> <Gold.Chemscore.Hbond>
3.3557

> <Gold.Chemscore.Metal>
0.0000

> <Gold.Chemscore.Lipo>
95.9367

> <Gold.Chemscore.Internal_Hbond>
0.0000

> <Gold.Chemscore.DEClash>
0.1803

> <Gold.Chemscore.DEInternal>
2.1572

> <Gold.Chemscore.Rot>
2.0043

> <Gold.Chemscore.Internal.Correction>
   9.000000E+99

> <Gold.Chemscore.Hbonds>
donor molecule, donor type, donor heavy atom, donor atom, acceptor molecule, acceptor atom, score
      L1  H    20    40       P1  8028  0.50
      P1  H  7989  7998       L1    11  1.00
      P1  H  7997  8010       L1     3  0.72
      P1  H 10752 10765       L1     4  0.02

> <Gold.Chemscore.Hbond.Weighted>
-11.2082

> <Gold.Chemscore.Metal.Weighted>
-0.0000

> <Gold.Chemscore.Lipo.Weighted>
-11.2246

> <Gold.Chemscore.Internal_Hbond.Weighted>
0.0000

> <Gold.Chemscore.DEClash.Weighted>
0.1803

> <Gold.Chemscore.DEInternal.Weighted>
2.1572

> <Gold.Chemscore.Rot.Weighted>
5.1309

> <Gold.Chemscore.Internal.Correction.Weighted>
   9.000000E+99

> <Gold.Protein.RotatedTorsions>
[ 6907 6896 6895 6894 ] final  -54.97 input  -60.11 | X-H torsion
[ 7974 7965 7964 7962 ] final   26.51 input  175.53 | X-H torsion
[ 8008 7997 7996 7995 ] final    0.30 input   59.86 | X-H torsion
[ 10167 10162 10161 10158 ] final   22.06 input  -65.29 | X-H torsion
[ 10718 10713 10712 10709 ] final -151.35 input   66.30 | X-H torsion
[ 10763 10752 10751 10750 ] final  -58.24 input  -60.55 | X-H torsion
[ 11005 11000 10999 10996 ] final  179.47 input  -57.11 | X-H torsion

> <Gold.Protein.ActiveResidues>
 VAL166  LYS551  ARG553  GLY616  TRP617  ASP618  TYR619  PRO620  LYS621  CYS622 
 ASP623  PHE694  ASN695  SER759  ASP760  ASP761  ALA762  ILE779  LEU786  VAL792 
 PHE793  MET794  SER795  GLU796  ALA797  LYS798  CYS799  TRP800  GLU811  SER814 

> <Gold.Protein.RotatedAtoms>
  150.8292  134.7537  159.6838 H   0  0  0  0  0  0  0  0  0  0  0  0  # atno 6907 bound_to 6896
  152.4399  134.5609  159.9903 H   0  0  0  0  0  0  0  0  0  0  0  0  # atno 6908 bound_to 6896
  151.5774  133.3344  159.3037 H   0  0  0  0  0  0  0  0  0  0  0  0  # atno 6909 bound_to 6896
  146.1833  139.7318  142.8884 H   0  0  0  0  0  0  0  0  0  0  0  0  # atno 7974 bound_to 7965
  154.6665  140.2602  155.7052 H   0  0  0  0  0  0  0  0  0  0  0  0  # atno 8008 bound_to 7997
  156.2641  140.2838  156.1080 H   0  0  0  0  0  0  0  0  0  0  0  0  # atno 8009 bound_to 7997
  155.1231  140.0377  157.2745 H   0  0  0  0  0  0  0  0  0  0  0  0  # atno 8010 bound_to 7997
  140.5378  143.9730  150.6502 H   0  0  0  0  0  0  0  0  0  0  0  0  # atno 10167 bound_to 10162
  156.4581  130.8200  151.2431 H   0  0  0  0  0  0  0  0  0  0  0  0  # atno 10718 bound_to 10713
  154.2351  135.6354  153.5188 H   0  0  0  0  0  0  0  0  0  0  0  0  # atno 10763 bound_to 10752
  152.9941  135.5528  154.5971 H   0  0  0  0  0  0  0  0  0  0  0  0  # atno 10764 bound_to 10752
  154.5463  135.2898  155.1024 H   0  0  0  0  0  0  0  0  0  0  0  0  # atno 10765 bound_to 10752
  140.4065  134.6730  157.4591 H   0  0  0  0  0  0  0  0  0  0  0  0  # atno 11005 bound_to 11000
  145.4011  141.0385  143.3070 LP  0  0  0  0  0  0  0  0  0  0  0  0  # atno 17320 bound_to 7965
  144.8353  139.5560  143.6925 LP  0  0  0  0  0  0  0  0  0  0  0  0  # atno 17321 bound_to 7965
  140.3122  143.3191  152.0867 LP  0  0  0  0  0  0  0  0  0  0  0  0  # atno 17342 bound_to 10162
  139.4977  144.6629  151.6424 LP  0  0  0  0  0  0  0  0  0  0  0  0  # atno 17343 bound_to 10162
  157.7499  131.0116  150.3352 LP  0  0  0  0  0  0  0  0  0  0  0  0  # atno 17370 bound_to 10713
  156.3745  130.3869  149.7149 LP  0  0  0  0  0  0  0  0  0  0  0  0  # atno 17371 bound_to 10713
  140.0298  134.6423  155.9122 LP  0  0  0  0  0  0  0  0  0  0  0  0  # atno 17394 bound_to 11000
  141.1837  133.6551  156.5128 LP  0  0  0  0  0  0  0  0  0  0  0  0  # atno 17395 bound_to 11000

$$$$
