AV-unprocessed.smi:252|AV-procd|sdf|1939|dock4
  -GOLD-   2262021 63D 1   1.00000     0.00000
 Structure written by MMmdl.
 56 59  0  0  0  0  0  0  0  0  1 V2000
  144.0442  132.2809  149.3616 C   0  0  0  0  0  0  0  0  0  0  0  0
  145.4667  132.5355  149.8849 C   0  0  0  0  0  0  0  0  0  0  0  0
  145.6491  132.1889  151.3663 C   0  0  0  0  0  0  0  0  0  0  0  0
  144.8718  132.6188  152.2195 O   0  0  0  0  0  0  0  0  0  0  0  0
  146.6960  131.4014  151.6565 N   0  0  0  0  0  0  0  0  0  0  0  0
  147.0560  130.9367  152.9922 C   0  0  1  0  0  0  0  0  0  0  0  0
  147.2991  129.4158  152.9639 C   0  0  0  0  0  0  0  0  0  0  0  0
  147.7759  128.9177  154.3375 C   0  0  0  0  0  0  0  0  0  0  0  0
  149.0086  129.7056  154.8074 C   0  0  0  0  0  0  0  0  0  0  0  0
  148.7306  131.1387  154.8000 N   0  0  0  0  0  0  0  0  0  0  0  0
  149.6808  131.8783  155.4090 C   0  0  0  0  0  0  0  0  0  0  0  0
  150.6513  131.2698  156.1399 N   0  0  0  0  0  0  0  0  0  0  0  0
  151.5903  132.0072  156.7414 C   0  0  0  0  0  0  0  0  0  0  0  0
  151.7371  133.3345  156.7425 N   0  0  0  0  0  0  0  0  0  0  0  0
  150.7592  133.9437  156.0115 C   0  0  0  0  0  0  0  0  0  0  0  0
  149.7046  133.2934  155.3129 C   0  0  0  0  0  0  0  0  0  0  0  0
  148.9069  134.2299  154.6685 N   0  0  0  0  0  0  0  0  0  0  0  0
  149.4604  135.3731  154.9691 C   0  0  0  0  0  0  0  0  0  0  0  0
  150.5679  135.2957  155.7848 N   0  0  0  0  0  0  0  0  0  0  0  0
  151.3674  136.4083  156.2745 C   0  0  0  0  0  0  0  0  0  0  0  0
  151.4474  137.6169  155.3025 C   0  0  2  0  0  0  0  0  0  0  0  0
  151.6930  137.1262  153.9962 O   0  0  0  0  0  0  0  0  0  0  0  0
  152.5323  138.6289  155.6570 C   0  0  0  0  0  0  0  0  0  0  0  0
  151.8260  139.5152  156.6700 C   0  0  0  0  0  0  0  0  0  0  0  0
  150.5169  139.6480  156.1374 O   0  0  0  0  0  0  0  0  0  0  0  0
  150.1638  138.4838  155.3885 C   0  0  1  0  0  0  0  0  0  0  0  0
  149.5946  138.9760  154.0468 C   0  0  0  0  0  0  0  0  0  0  0  0
  148.3093  131.6742  153.5086 C   0  0  0  0  0  0  0  0  0  0  0  0
  143.9761  132.5203  148.3004 H   0  0  0  0  0  0  0  0  0  0  0  0
  143.3113  132.8964  149.8850 H   0  0  0  0  0  0  0  0  0  0  0  0
  143.7564  131.2359  149.4827 H   0  0  0  0  0  0  0  0  0  0  0  0
  146.1770  131.9497  149.3000 H   0  0  0  0  0  0  0  0  0  0  0  0
  145.7279  133.5840  149.7376 H   0  0  0  0  0  0  0  0  0  0  0  0
  147.2834  131.0952  150.8946 H   0  0  0  0  0  0  0  0  0  0  0  0
  146.2247  131.1355  153.6719 H   0  0  0  0  0  0  0  0  0  0  0  0
  146.3876  128.8918  152.6743 H   0  0  0  0  0  0  0  0  0  0  0  0
  148.0519  129.1738  152.2122 H   0  0  0  0  0  0  0  0  0  0  0  0
  146.9722  129.0316  155.0664 H   0  0  0  0  0  0  0  0  0  0  0  0
  148.0066  127.8531  154.2925 H   0  0  0  0  0  0  0  0  0  0  0  0
  149.2931  129.3870  155.8114 H   0  0  0  0  0  0  0  0  0  0  0  0
  149.8552  129.4949  154.1520 H   0  0  0  0  0  0  0  0  0  0  0  0
  152.3304  131.4557  157.3021 H   0  0  0  0  0  0  0  0  0  0  0  0
  149.0673  136.3132  154.6095 H   0  0  0  0  0  0  0  0  0  0  0  0
  150.9527  136.7274  157.2320 H   0  0  0  0  0  0  0  0  0  0  0  0
  152.3666  136.0302  156.4940 H   0  0  0  0  0  0  0  0  0  0  0  0
  151.1458  137.6014  153.3899 H   0  0  0  0  0  0  0  0  0  0  0  0
  153.4569  138.1960  156.0356 H   0  0  0  0  0  0  0  0  0  0  0  0
  152.7907  139.2313  154.7844 H   0  0  0  0  0  0  0  0  0  0  0  0
  151.7778  139.0323  157.6467 H   0  0  0  0  0  0  0  0  0  0  0  0
  152.3087  140.4850  156.7908 H   0  0  0  0  0  0  0  0  0  0  0  0
  149.3776  137.9504  155.9248 H   0  0  0  0  0  0  0  0  0  0  0  0
  149.2617  138.1434  153.4265 H   0  0  0  0  0  0  0  0  0  0  0  0
  150.3361  139.5439  153.4838 H   0  0  0  0  0  0  0  0  0  0  0  0
  148.7342  139.6260  154.2079 H   0  0  0  0  0  0  0  0  0  0  0  0
  149.1253  131.5710  152.7914 H   0  0  0  0  0  0  0  0  0  0  0  0
  148.1038  132.7412  153.6069 H   0  0  0  0  0  0  0  0  0  0  0  0
  1  2  1  0  0  0  0
  1 29  1  0  0  0  0
  1 30  1  0  0  0  0
  1 31  1  0  0  0  0
  2  3  1  0  0  0  0
  2 32  1  0  0  0  0
  2 33  1  0  0  0  0
  3  4  2  0  0  0  0
  3  5  1  0  0  0  0
  5  6  1  0  0  0  0
  5 34  1  0  0  0  0
  6 28  1  0  0  0  0
  6  7  1  0  0  0  0
  6 35  1  0  0  0  0
  7  8  1  0  0  0  0
  7 36  1  0  0  0  0
  7 37  1  0  0  0  0
  8  9  1  0  0  0  0
  8 38  1  0  0  0  0
  8 39  1  0  0  0  0
  9 10  1  0  0  0  0
  9 40  1  0  0  0  0
  9 41  1  0  0  0  0
 10 11  1  0  0  0  0
 10 28  1  0  0  0  0
 11 16  1  0  0  0  0
 11 12  2  0  0  0  0
 12 13  1  0  0  0  0
 13 14  2  0  0  0  0
 13 42  1  0  0  0  0
 14 15  1  0  0  0  0
 15 19  1  0  0  0  0
 15 16  2  0  0  0  0
 16 17  1  0  0  0  0
 17 18  2  0  0  0  0
 18 19  1  0  0  0  0
 18 43  1  0  0  0  0
 19 20  1  0  0  0  0
 20 21  1  0  0  0  0
 20 44  1  0  0  0  0
 20 45  1  0  0  0  0
 21 26  1  0  0  0  0
 21 22  1  0  0  0  0
 21 23  1  0  0  0  0
 22 46  1  0  0  0  0
 23 24  1  0  0  0  0
 23 47  1  0  0  0  0
 23 48  1  0  0  0  0
 24 25  1  0  0  0  0
 24 49  1  0  0  0  0
 24 50  1  0  0  0  0
 25 26  1  0  0  0  0
 26 27  1  0  0  0  0
 26 51  1  0  0  0  0
 27 52  1  0  0  0  0
 27 53  1  0  0  0  0
 27 54  1  0  0  0  0
 28 55  1  0  0  0  0
 28 56  1  0  0  0  0
M  END
> <s_m_source_file>
AV-unprocessed.smi

> <i_m_source_file_index>
252

> <i_lp_mmshare_version>
43012

> <i_f3d_flags>
0

> <s_epik_input>
W0NIM11bQ0gyXUMoPU8pW05IXVtDQEBIXTFbQ0gyXVtDSDJdW0NIMl1OKFtDSDJdMSljKG5bY0hdbjIpYyhjMjMpbltjSF1uM1tDSDJdW0NAQF00KFtPSF0pW0NIMl1bQ0gyXU9bQ0BIXTRbQ0gzXQ==

> <s_epik_cmdline>
J2VwaWtfcHl0aG9uJywgJy1waCcsICc3LjAnLCAnLXRuJywgJzgnLCAnLW1hJywgJzIwMCcsICctbWV0YWxfYmluZGluZycsICctaW1hZScsICc8aW5maWxlLm1hZT4nLCAnLW9tYWUnLCAnPG91dGZpbGUubWFlPic=

> <r_lp_tautomer_probability>
1

> <r_epik_Ionization_Penalty>
0.00182575

> <r_epik_Ionization_Penalty_Charging>
0

> <r_epik_Ionization_Penalty_Neutral>
0.00182575

> <r_epik_State_Penalty>
0.00104524

> <r_epik_Charging_Adjusted_Penalty>
0.00104524

> <i_epik_Tot_Q>
0

> <i_epik_Tot_abs_Q>
0

> <r_epik_Metal_State_Penalty>
-0

> <b_epik_Metal_Only>
0

> <s_lp_Force_Field>
OPLS_2005

> <r_lp_Energy>
37.9455

> <b_lp_Chiralities_Consistent>
1

> <s_lp_Variant>
AV-unprocessed.smi:252-4

> <Gold.Version>
5.8.1

> <Gold.Id.Protein>
6NUR|6NUR_protein|mol2

> <Gold.PLP.Fitness>
46.6651

> <Gold.PLP.PLP>
-42.2502

> <Gold.PLP.part.hbond>
-3.0000

> <Gold.PLP.part.metal>
0.0000

> <Gold.PLP.part.buried>
-5.0234

> <Gold.PLP.part.nonpolar>
-34.3895

> <Gold.PLP.part.repulsive>
0.2742

> <Gold.PLP.ligand.clash>
0.0000

> <Gold.PLP.ligand.torsion>
1.2225

> <Gold.PLP.Chemscore.Hbond>
1.9440

> <Gold.PLP.Chemscore.CHOScore>
0.2258

> <Gold.PLP.Chemscore.Metal>
0.0000

> <Gold.Chemscore.Hbonds>
donor molecule, donor type, donor heavy atom, donor atom, acceptor molecule, acceptor atom, score
      L1  H     5    34       P1 10747  0.94
      P1  H 10752 10764       L1    22  1.00
      L1  C    18    43       P1  7948  0.28

> <Gold.PLP.Chemscore.Internal.Correction>
0.3504

> <Gold.Rescore>
     Score         DG    S(hbond)    S(metal)    S(lipo)     H(rot)  DE(clash)    DE(int)     intcor
     12.73     -15.05       1.86        0.00      87.78       2.70       0.18       2.14       ----

> <Gold.Chemscore.Fitness>
12.7285

> <Gold.Chemscore.DG>
-15.0467

> <Gold.Chemscore.ZeroCoef>
-5.4800

> <Gold.Chemscore.Hbond>
1.8621

> <Gold.Chemscore.Metal>
0.0000

> <Gold.Chemscore.Lipo>
87.7760

> <Gold.Chemscore.Internal_Hbond>
0.0000

> <Gold.Chemscore.DEClash>
0.1761

> <Gold.Chemscore.DEInternal>
2.1420

> <Gold.Chemscore.Rot>
2.7041

> <Gold.Chemscore.Internal.Correction>
   9.000000E+99

> <Gold.Chemscore.Hbonds>
donor molecule, donor type, donor heavy atom, donor atom, acceptor molecule, acceptor atom, score
      L1  H     5    34       P1 10747  0.92
      P1  H 10752 10764       L1    22  0.82

> <Gold.Chemscore.Hbond.Weighted>
-6.2194

> <Gold.Chemscore.Metal.Weighted>
-0.0000

> <Gold.Chemscore.Lipo.Weighted>
-10.2698

> <Gold.Chemscore.Internal_Hbond.Weighted>
0.0000

> <Gold.Chemscore.DEClash.Weighted>
0.1761

> <Gold.Chemscore.DEInternal.Weighted>
2.1420

> <Gold.Chemscore.Rot.Weighted>
6.9225

> <Gold.Chemscore.Internal.Correction.Weighted>
   9.000000E+99

> <Gold.Protein.RotatedTorsions>
[ 6907 6896 6895 6894 ] final  126.44 input  -60.11 | X-H torsion
[ 7974 7965 7964 7962 ] final -164.91 input  175.53 | X-H torsion
[ 8008 7997 7996 7995 ] final   63.14 input   59.86 | X-H torsion
[ 10167 10162 10161 10158 ] final   16.40 input  -65.29 | X-H torsion
[ 10718 10713 10712 10709 ] final -105.71 input   66.30 | X-H torsion
[ 10763 10752 10751 10750 ] final -101.03 input  -60.55 | X-H torsion
[ 11005 11000 10999 10996 ] final  -78.07 input  -57.11 | X-H torsion

> <Gold.Protein.ActiveResidues>
 VAL166  LYS551  ARG553  GLY616  TRP617  ASP618  TYR619  PRO620  LYS621  CYS622 
 ASP623  PHE694  ASN695  SER759  ASP760  ASP761  ALA762  ILE779  LEU786  VAL792 
 PHE793  MET794  SER795  GLU796  ALA797  LYS798  CYS799  TRP800  GLU811  SER814 

> <Gold.Protein.RotatedAtoms>
  152.3903  133.6670  159.6232 H   0  0  0  0  0  0  0  0  0  0  0  0  # atno 6907 bound_to 6896
  150.7813  133.8965  159.3337 H   0  0  0  0  0  0  0  0  0  0  0  0  # atno 6908 bound_to 6896
  151.6753  135.0971  160.0257 H   0  0  0  0  0  0  0  0  0  0  0  0  # atno 6909 bound_to 6896
  144.7284  140.2891  143.6223 H   0  0  0  0  0  0  0  0  0  0  0  0  # atno 7974 bound_to 7965
  155.6255  140.3496  155.4666 H   0  0  0  0  0  0  0  0  0  0  0  0  # atno 8008 bound_to 7997
  156.0045  140.1220  157.0538 H   0  0  0  0  0  0  0  0  0  0  0  0  # atno 8009 bound_to 7997
  154.4260  140.1094  156.5729 H   0  0  0  0  0  0  0  0  0  0  0  0  # atno 8010 bound_to 7997
  140.5800  143.8999  150.6782 H   0  0  0  0  0  0  0  0  0  0  0  0  # atno 10167 bound_to 10162
  156.0358  130.5577  150.7577 H   0  0  0  0  0  0  0  0  0  0  0  0  # atno 10718 bound_to 10713
  154.7626  135.4913  153.9493 H   0  0  0  0  0  0  0  0  0  0  0  0  # atno 10763 bound_to 10752
  153.1269  135.6744  153.9249 H   0  0  0  0  0  0  0  0  0  0  0  0  # atno 10764 bound_to 10752
  153.8964  135.3115  155.3427 H   0  0  0  0  0  0  0  0  0  0  0  0  # atno 10765 bound_to 10752
  141.1663  133.7048  156.7916 H   0  0  0  0  0  0  0  0  0  0  0  0  # atno 11005 bound_to 11000
  145.7873  139.1913  143.2123 LP  0  0  0  0  0  0  0  0  0  0  0  0  # atno 17320 bound_to 7965
  146.0785  140.7790  142.9653 LP  0  0  0  0  0  0  0  0  0  0  0  0  # atno 17321 bound_to 7965
  140.2496  143.3603  152.1417 LP  0  0  0  0  0  0  0  0  0  0  0  0  # atno 17342 bound_to 10162
  139.5164  144.6977  151.5582 LP  0  0  0  0  0  0  0  0  0  0  0  0  # atno 17343 bound_to 10162
  157.5105  131.0925  151.0204 LP  0  0  0  0  0  0  0  0  0  0  0  0  # atno 17370 bound_to 10713
  157.0561  130.5806  149.5378 LP  0  0  0  0  0  0  0  0  0  0  0  0  # atno 17371 bound_to 10713
  140.2321  134.8677  157.3488 LP  0  0  0  0  0  0  0  0  0  0  0  0  # atno 17394 bound_to 11000
  140.1880  134.4407  155.7732 LP  0  0  0  0  0  0  0  0  0  0  0  0  # atno 17395 bound_to 11000

$$$$
