#       Name:                AV-unprocessed.smi:2949
#       Creating user name   scv26
#       Creation time:       Fri Mar 27 16:17:58 2020


#       File generated by GOLD software.
#

@<TRIPOS>MOLECULE
AV-unprocessed.smi:2949
    39    40     1
SMALL
NO_CHARGES


@<TRIPOS>ATOM
      1 ****        -3.4776   2.0211   2.1740 N.2            1 S1                 0.0000
      2 ****        -3.6761   2.4342   0.9718 C.2            1 S1                 0.0000
      3 ****        -4.1073   4.1357   0.4638 S.3            1 S1                 0.0000
      4 ****        -4.1148   3.6248  -1.2105 C.2            1 S1                 0.0000
      5 ****        -3.8304   2.3302  -1.3419 C.2            1 S1                 0.0000
      6 ****        -3.5910   1.6376  -0.1725 N.pl3          1 S1                 0.0000
      7 ****        -3.1923   0.2301  -0.1659 C.3            1 S1                 0.0000
      8 ****        -1.6836  -0.0338  -0.2526 C.2            1 S1                 0.0000
      9 ****        -0.9048   0.9083  -0.4191 O.2            1 S1                 0.0000
     10 ****        -1.3320  -1.3352  -0.1371 N.am           1 S1                 0.0000
     11 ****        -0.1182  -1.9355  -0.1661 C.2            1 S1                 0.0000
     12 ****        -0.0210  -3.1558  -0.0471 O.2            1 S1                 0.0000
     13 ****         0.9568  -1.1412  -0.3272 N.am           1 S1                 0.0000
     14 ****         2.3432  -1.5945  -0.3902 C.3            1 S1                 0.0000
     15 ****         2.8997  -1.9342   1.0087 C.3            1 S1                 0.0000
     16 ****         4.2226  -1.1768   1.1367 C.3            1 S1                 0.0000
     17 ****         4.0473   0.0452   0.2412 C.3            1 S1                 0.0000
     18 ****         3.2454  -0.4798  -0.9494 C.3            1 S1                 0.0000
     19 ****        -3.2509   1.0375   2.1761 H              1 S1                 0.0000
     20 ****        -4.3277   4.3213  -2.0077 H              1 S1                 0.0000
     21 ****        -3.7690   1.7788  -2.2689 H              1 S1                 0.0000
     22 ****        -3.5861  -0.2620   0.7250 H              1 S1                 0.0000
     23 ****        -3.6701  -0.2707  -1.0092 H              1 S1                 0.0000
     24 ****        -2.1060  -1.9707  -0.0095 H              1 S1                 0.0000
     25 ****         0.7989  -0.1471  -0.4157 H              1 S1                 0.0000
     26 ****         2.4078  -2.4645  -1.0464 H              1 S1                 0.0000
     27 ****         2.2184  -1.5917   1.7894 H              1 S1                 0.0000
     28 ****         3.0319  -3.0076   1.1476 H              1 S1                 0.0000
     29 ****         4.4565  -0.9120   2.1681 H              1 S1                 0.0000
     30 ****         5.0384  -1.7936   0.7576 H              1 S1                 0.0000
     31 ****         3.4703   0.8071   0.7670 H              1 S1                 0.0000
     32 ****         4.9976   0.4898  -0.0554 H              1 S1                 0.0000
     33 ****         3.9320  -0.9074  -1.6811 H              1 S1                 0.0000
     34 ****         2.6931   0.3136  -1.4551 H              1 S1                 0.0000
     35 ****        -3.5393   2.5939   2.9914 LP             1 S1                 0.0000
     36 ****        -1.2575   1.8407  -0.4971 LP             1 S1                 0.0000
     37 ****         0.0792   0.7395  -0.4760 LP             1 S1                 0.0000
     38 ****        -0.8424  -3.7136   0.0723 LP             1 S1                 0.0000
     39 ****         0.8794  -3.5903  -0.0697 LP             1 S1                 0.0000
@<TRIPOS>BOND
    1    1    2 2     
    2    1   19 1     
    3    2    6 1     
    4    2    3 1     
    5    3    4 1     
    6    4    5 2     
    7    4   20 1     
    8    5    6 1     
    9    5   21 1     
   10    6    7 1     
   11    7    8 1     
   12    7   22 1     
   13    7   23 1     
   14    8    9 2     
   15    8   10 1     
   16   10   11 1     
   17   10   24 1     
   18   11   12 2     
   19   11   13 1     
   20   13   14 1     
   21   13   25 1     
   22   14   18 1     
   23   14   15 1     
   24   14   26 1     
   25   15   16 1     
   26   15   27 1     
   27   15   28 1     
   28   16   17 1     
   29   16   29 1     
   30   16   30 1     
   31   17   18 1     
   32   17   31 1     
   33   17   32 1     
   34   18   33 1     
   35   18   34 1     
   36    1   35 1     
   37    9   36 1     
   38    9   37 1     
   39   12   38 1     
   40   12   39 1     
@<TRIPOS>SUBSTRUCTURE
      1 S1             1
@<TRIPOS>SET
LONE_PAIRS      STATIC     ATOMS    <user>   **** ""
5 35 36 37 38 39
DONOR_HYDROGENS      STATIC     ATOMS    <user>   **** ""
3 19 24 25
ATOM$BLUE        STATIC     ATOMS    COLORGROUP SYSTEM
5 35 36 37 38 39
ATOM$RED        STATIC     ATOMS    COLORGROUP SYSTEM
3 19 24 25
