AV-unprocessed.smi:160|AV-procd|sdf|1367|dock3
  -GOLD-   2262019 83D 1   1.00000     0.00000
 Structure written by MMmdl.
 28 29  0  0  0  0  0  0  0  0  2 V2000
  153.1980  138.9304  156.0679 N   0  5  0  0  0  0  0  0  0  0  0  0
  152.2322  138.7037  155.1504 C   0  0  0  0  0  0  0  0  0  0  0  0
  152.1600  137.7364  154.3931 O   0  0  0  0  0  0  0  0  0  0  0  0
  151.1644  139.7699  155.0896 C   0  0  0  0  0  0  0  0  0  0  0  0
  151.1785  140.8242  155.9607 N   0  0  0  0  0  0  0  0  0  0  0  0
  150.0926  141.4598  155.5411 C   0  0  0  0  0  0  0  0  0  0  0  0
  149.4740  140.8719  154.5127 N   0  0  0  0  0  0  0  0  0  0  0  0
  148.2198  141.2746  153.7923 C   0  0  2  0  0  0  0  0  0  0  0  0
  147.5093  142.1298  154.6333 O   0  0  0  0  0  0  0  0  0  0  0  0
  146.3646  141.4812  155.1918 C   0  0  2  0  0  0  0  0  0  0  0  0
  146.3587  141.6505  156.7205 C   0  0  0  0  0  0  0  0  0  0  0  0
  147.5423  141.1166  157.2753 O   0  0  0  0  0  0  0  0  0  0  0  0
  146.4435  140.0129  154.7402 C   0  0  1  0  0  0  0  0  0  0  0  0
  145.1566  139.5160  154.4307 O   0  0  0  0  0  0  0  0  0  0  0  0
  147.2987  140.0832  153.4845 C   0  0  2  0  0  0  0  0  0  0  0  0
  147.9849  138.8665  153.2502 O   0  0  0  0  0  0  0  0  0  0  0  0
  150.1633  139.7456  154.2051 N   0  0  0  0  0  0  0  0  0  0  0  0
  148.5761  141.7935  152.9019 H   0  0  0  0  0  0  0  0  0  0  0  0
  145.4809  141.9471  154.7513 H   0  0  0  0  0  0  0  0  0  0  0  0
  146.9142  139.3926  155.5044 H   0  0  0  0  0  0  0  0  0  0  0  0
  146.6925  140.3490  152.6169 H   0  0  0  0  0  0  0  0  0  0  0  0
  153.1411  138.4393  156.9680 H   0  0  0  0  0  0  0  0  0  0  0  0
  149.7407  142.3749  155.9940 H   0  0  0  0  0  0  0  0  0  0  0  0
  146.3275  142.7091  156.9800 H   0  0  0  0  0  0  0  0  0  0  0  0
  145.4847  141.1818  157.1726 H   0  0  0  0  0  0  0  0  0  0  0  0
  148.2809  141.5394  156.8648 H   0  0  0  0  0  0  0  0  0  0  0  0
  144.7536  140.1058  153.8119 H   0  0  0  0  0  0  0  0  0  0  0  0
  148.6924  139.0302  152.6461 H   0  0  0  0  0  0  0  0  0  0  0  0
  1  2  1  0  0  0  0
  1 22  1  0  0  0  0
  2  3  2  0  0  0  0
  2  4  1  0  0  0  0
  4 17  2  0  0  0  0
  4  5  1  0  0  0  0
  5  6  2  0  0  0  0
  6  7  1  0  0  0  0
  6 23  1  0  0  0  0
  7  8  1  0  0  0  0
  7 17  1  0  0  0  0
  8 18  1  0  0  0  0
  8 15  1  0  0  0  0
  8  9  1  0  0  0  0
  9 10  1  0  0  0  0
 10 19  1  0  0  0  0
 10 11  1  0  0  0  0
 10 13  1  0  0  0  0
 11 12  1  0  0  0  0
 11 24  1  0  0  0  0
 11 25  1  0  0  0  0
 12 26  1  0  0  0  0
 13 20  1  0  0  0  0
 13 14  1  0  0  0  0
 13 15  1  0  0  0  0
 14 27  1  0  0  0  0
 15 21  1  0  0  0  0
 15 16  1  0  0  0  0
 16 28  1  0  0  0  0
M  CHG  1   1  -1
M  END
> <s_m_source_file>
AV-unprocessed.smi

> <i_m_source_file_index>
160

> <i_lp_mmshare_version>
43012

> <i_f3d_flags>
0

> <s_epik_input>
W05IMl1DKD1PKWMxbltjSF1uKG4xKVtDQEBIXTJPW0NASF0oW0NIMl1bT0hdKVtDQEBIXShbT0hdKVtDQEhdMltPSF0=

> <s_epik_cmdline>
J2VwaWtfcHl0aG9uJywgJy1waCcsICc3LjAnLCAnLXRuJywgJzgnLCAnLW1hJywgJzIwMCcsICctbWV0YWxfYmluZGluZycsICctaW1hZScsICc8aW5maWxlLm1hZT4nLCAnLW9tYWUnLCAnPG91dGZpbGUubWFlPic=

> <r_lp_tautomer_probability>
1

> <r_epik_Ionization_Penalty>
6.6993

> <r_epik_Ionization_Penalty_Charging>
6.6993

> <r_epik_Ionization_Penalty_Neutral>
6.01698e-06

> <r_epik_State_Penalty>
6.69929

> <r_epik_Charging_Adjusted_Penalty>
13.3986

> <i_epik_Tot_Q>
-1

> <i_epik_Tot_abs_Q>
1

> <r_epik_Metal_State_Penalty>
2.62798

> <b_epik_Metal_Only>
1

> <s_epik_Chemistry_Notes>
This compound contains an acetal/aminal-like group ( X-CH(R)-Y where X, Y are N, S, or O) that may be acid/base labile, releasing an aldehyde.

> <s_lp_Force_Field>
OPLS_2005

> <r_lp_Energy>
43.4077

> <b_lp_Chiralities_Consistent>
1

> <s_lp_Variant>
AV-unprocessed.smi:160-25

> <Gold.Version>
5.8.1

> <Gold.Id.Protein>
6NUR|6NUR_protein|mol2

> <Gold.PLP.Fitness>
41.5557

> <Gold.PLP.PLP>
-27.6807

> <Gold.PLP.part.hbond>
-5.8635

> <Gold.PLP.part.metal>
0.0000

> <Gold.PLP.part.buried>
-2.0783

> <Gold.PLP.part.nonpolar>
-19.8484

> <Gold.PLP.part.repulsive>
0.6626

> <Gold.PLP.ligand.clash>
0.0000

> <Gold.PLP.ligand.torsion>
0.5628

> <Gold.PLP.Chemscore.Hbond>
4.0000

> <Gold.PLP.Chemscore.CHOScore>
0.9961

> <Gold.PLP.Chemscore.Metal>
0.0000

> <Gold.Chemscore.Hbonds>
donor molecule, donor type, donor heavy atom, donor atom, acceptor molecule, acceptor atom, score
      L1  H    14    27       P1 10175  1.00
      L1  H    16    28       P1  7957  1.00
      P1  H  7997  8009       L1     1  1.90
      P1  H 10752 10764       L1     3  0.01
      L1  C     6    23       P1  8028  1.00

> <Gold.PLP.Chemscore.Internal.Correction>
0.0124

> <Gold.Rescore>
     Score         DG    S(hbond)    S(metal)    S(lipo)     H(rot)  DE(clash)    DE(int)     intcor
      4.16      -6.70       2.92        0.00      15.35       4.04       0.07       2.47       ----

> <Gold.Chemscore.Fitness>
4.1639

> <Gold.Chemscore.DG>
-6.6993

> <Gold.Chemscore.ZeroCoef>
-5.4800

> <Gold.Chemscore.Hbond>
2.9240

> <Gold.Chemscore.Metal>
0.0000

> <Gold.Chemscore.Lipo>
15.3514

> <Gold.Chemscore.Internal_Hbond>
0.0000

> <Gold.Chemscore.DEClash>
0.0699

> <Gold.Chemscore.DEInternal>
2.4655

> <Gold.Chemscore.Rot>
4.0403

> <Gold.Chemscore.Internal.Correction>
   9.000000E+99

> <Gold.Chemscore.Hbonds>
donor molecule, donor type, donor heavy atom, donor atom, acceptor molecule, acceptor atom, score
      L1  H    14    27       P1 10175  0.97
      L1  H    16    28       P1  7957  0.94
      P1  H  7997  8009       L1     1  0.21
      P1  H 10752 10764       L1     3  0.03

> <Gold.Chemscore.Hbond.Weighted>
-9.7662

> <Gold.Chemscore.Metal.Weighted>
-0.0000

> <Gold.Chemscore.Lipo.Weighted>
-1.7961

> <Gold.Chemscore.Internal_Hbond.Weighted>
0.0000

> <Gold.Chemscore.DEClash.Weighted>
0.0699

> <Gold.Chemscore.DEInternal.Weighted>
2.4655

> <Gold.Chemscore.Rot.Weighted>
10.3431

> <Gold.Chemscore.Internal.Correction.Weighted>
   9.000000E+99

> <Gold.Protein.RotatedTorsions>
[ 6907 6896 6895 6894 ] final  108.87 input  -60.11 | X-H torsion
[ 7974 7965 7964 7962 ] final   47.44 input  175.53 | X-H torsion
[ 8008 7997 7996 7995 ] final -172.06 input   59.86 | X-H torsion
[ 10167 10162 10161 10158 ] final  158.62 input  -65.29 | X-H torsion
[ 10718 10713 10712 10709 ] final  100.98 input   66.30 | X-H torsion
[ 10763 10752 10751 10750 ] final -124.06 input  -60.55 | X-H torsion
[ 11005 11000 10999 10996 ] final    5.79 input  -57.11 | X-H torsion

> <Gold.Protein.ActiveResidues>
 VAL166  LYS551  ARG553  GLY616  TRP617  ASP618  TYR619  PRO620  LYS621  CYS622 
 ASP623  PHE694  ASN695  SER759  ASP760  ASP761  ALA762  ILE779  LEU786  VAL792 
 PHE793  MET794  SER795  GLU796  ALA797  LYS798  CYS799  TRP800  GLU811  SER814 

> <Gold.Protein.RotatedAtoms>
  152.5093  133.9025  159.7447 H   0  0  0  0  0  0  0  0  0  0  0  0  # atno 6907 bound_to 6896
  150.9438  133.6618  159.2792 H   0  0  0  0  0  0  0  0  0  0  0  0  # atno 6908 bound_to 6896
  151.3920  135.0962  159.9582 H   0  0  0  0  0  0  0  0  0  0  0  0  # atno 6909 bound_to 6896
  146.0298  139.4749  142.9845 H   0  0  0  0  0  0  0  0  0  0  0  0  # atno 7974 bound_to 7965
  155.9396  140.1106  157.1066 H   0  0  0  0  0  0  0  0  0  0  0  0  # atno 8008 bound_to 7997
  154.4086  140.1221  156.4976 H   0  0  0  0  0  0  0  0  0  0  0  0  # atno 8009 bound_to 7997
  155.6978  140.3472  155.4922 H   0  0  0  0  0  0  0  0  0  0  0  0  # atno 8010 bound_to 7997
  139.4828  144.4807  151.8448 H   0  0  0  0  0  0  0  0  0  0  0  0  # atno 10167 bound_to 10162
  157.6841  131.0713  150.5182 H   0  0  0  0  0  0  0  0  0  0  0  0  # atno 10718 bound_to 10713
  154.8718  135.4076  154.3045 H   0  0  0  0  0  0  0  0  0  0  0  0  # atno 10763 bound_to 10752
  153.3899  135.7014  153.6508 H   0  0  0  0  0  0  0  0  0  0  0  0  # atno 10764 bound_to 10752
  153.5295  135.3670  155.2640 H   0  0  0  0  0  0  0  0  0  0  0  0  # atno 10765 bound_to 10752
  140.5668  134.0140  155.7993 H   0  0  0  0  0  0  0  0  0  0  0  0  # atno 11005 bound_to 11000
  145.7059  141.0121  143.1479 LP  0  0  0  0  0  0  0  0  0  0  0  0  # atno 17320 bound_to 7965
  144.7025  139.8700  143.7440 LP  0  0  0  0  0  0  0  0  0  0  0  0  # atno 17321 bound_to 7965
  140.4283  144.2150  150.5887 LP  0  0  0  0  0  0  0  0  0  0  0  0  # atno 17342 bound_to 10162
  140.4805  143.2381  151.8962 LP  0  0  0  0  0  0  0  0  0  0  0  0  # atno 17343 bound_to 10162
  156.5497  130.4228  149.6114 LP  0  0  0  0  0  0  0  0  0  0  0  0  # atno 17370 bound_to 10713
  156.2914  130.7126  151.1976 LP  0  0  0  0  0  0  0  0  0  0  0  0  # atno 17371 bound_to 10713
  141.1081  133.9661  157.2960 LP  0  0  0  0  0  0  0  0  0  0  0  0  # atno 17394 bound_to 11000
  139.9381  135.0194  156.8621 LP  0  0  0  0  0  0  0  0  0  0  0  0  # atno 17395 bound_to 11000

$$$$
