AV-unprocessed.smi:2025|AV-procd|sdf|8198|dock3
  -GOLD-   2272010453D 1   1.00000     0.00000
 Structure written by MMmdl.
 39 40  0  0  0  0  0  0  0  0  1 V2000
  153.4122  142.0577  162.0525 C   0  0  0  0  0  0  0  0  0  0  0  0
  153.4488  142.2417  160.5285 C   0  0  1  0  0  0  0  0  0  0  0  0
  152.5455  141.2689  159.9160 N   0  0  0  0  0  0  0  0  0  0  0  0
  152.9053  140.2465  159.1248 C   0  0  0  0  0  0  0  0  0  0  0  0
  154.0706  140.0177  158.7984 O   0  0  0  0  0  0  0  0  0  0  0  0
  151.7611  139.3676  158.6023 C   0  0  0  0  0  0  0  0  0  0  0  0
  151.1464  139.8965  157.3781 N   0  0  0  0  0  0  0  0  0  0  0  0
  150.6555  141.1893  157.3604 C   0  0  0  0  0  0  0  0  0  0  0  0
  150.0934  141.7574  156.2714 C   0  0  0  0  0  0  0  0  0  0  0  0
  149.9662  141.0171  155.0219 C   0  0  0  0  0  0  0  0  0  0  0  0
  149.4797  141.5034  154.0005 O   0  0  0  0  0  0  0  0  0  0  0  0
  150.4613  139.6920  155.0723 N   0  0  0  0  0  0  0  0  0  0  0  0
  150.3944  138.8836  153.8723 C   0  0  0  0  0  0  0  0  0  0  0  0
  151.0651  139.1099  156.2091 C   0  0  0  0  0  0  0  0  0  0  0  0
  151.5148  137.9613  156.1931 O   0  0  0  0  0  0  0  0  0  0  0  0
  153.0592  143.6747  160.1117 C   0  0  2  0  0  0  0  0  0  0  0  0
  151.7900  144.2166  160.7724 C   0  0  0  0  0  0  0  0  0  0  0  0
  151.3719  145.2901  159.7946 C   0  0  0  0  0  0  0  0  0  0  0  0
  151.7165  144.6458  158.4549 C   0  0  0  0  0  0  0  0  0  0  0  0
  152.7802  143.7327  158.7147 O   0  0  0  0  0  0  0  0  0  0  0  0
  154.1049  142.7381  162.5484 H   0  0  0  0  0  0  0  0  0  0  0  0
  153.6965  141.0425  162.3313 H   0  0  0  0  0  0  0  0  0  0  0  0
  152.4159  142.2471  162.4534 H   0  0  0  0  0  0  0  0  0  0  0  0
  154.4730  142.0561  160.2009 H   0  0  0  0  0  0  0  0  0  0  0  0
  151.5626  141.3791  160.1193 H   0  0  0  0  0  0  0  0  0  0  0  0
  152.1197  138.3510  158.4317 H   0  0  0  0  0  0  0  0  0  0  0  0
  151.0108  139.2860  159.3897 H   0  0  0  0  0  0  0  0  0  0  0  0
  150.7308  141.7811  158.2610 H   0  0  0  0  0  0  0  0  0  0  0  0
  149.7357  142.7752  156.3239 H   0  0  0  0  0  0  0  0  0  0  0  0
  150.1342  137.8618  154.1532 H   0  0  0  0  0  0  0  0  0  0  0  0
  151.3780  138.9316  153.4031 H   0  0  0  0  0  0  0  0  0  0  0  0
  149.6189  139.2582  153.2038 H   0  0  0  0  0  0  0  0  0  0  0  0
  153.8832  144.3612  160.3136 H   0  0  0  0  0  0  0  0  0  0  0  0
  151.0233  143.4422  160.8264 H   0  0  0  0  0  0  0  0  0  0  0  0
  151.9620  144.5997  161.7786 H   0  0  0  0  0  0  0  0  0  0  0  0
  150.3200  145.5635  159.8788 H   0  0  0  0  0  0  0  0  0  0  0  0
  151.9727  146.1876  159.9469 H   0  0  0  0  0  0  0  0  0  0  0  0
  150.8653  144.0828  158.0708 H   0  0  0  0  0  0  0  0  0  0  0  0
  152.0011  145.3833  157.7044 H   0  0  0  0  0  0  0  0  0  0  0  0
  1  2  1  0  0  0  0
  1 21  1  0  0  0  0
  1 22  1  0  0  0  0
  1 23  1  0  0  0  0
  2  3  1  0  0  0  0
  2 16  1  0  0  0  0
  2 24  1  0  0  0  0
  3  4  1  0  0  0  0
  3 25  1  0  0  0  0
  4  5  2  0  0  0  0
  4  6  1  0  0  0  0
  6  7  1  0  0  0  0
  6 26  1  0  0  0  0
  6 27  1  0  0  0  0
  7 14  1  0  0  0  0
  7  8  1  0  0  0  0
  8  9  2  0  0  0  0
  8 28  1  0  0  0  0
  9 10  1  0  0  0  0
  9 29  1  0  0  0  0
 10 11  2  0  0  0  0
 10 12  1  0  0  0  0
 12 13  1  0  0  0  0
 12 14  1  0  0  0  0
 13 30  1  0  0  0  0
 13 31  1  0  0  0  0
 13 32  1  0  0  0  0
 14 15  2  0  0  0  0
 16 20  1  0  0  0  0
 16 17  1  0  0  0  0
 16 33  1  0  0  0  0
 17 18  1  0  0  0  0
 17 34  1  0  0  0  0
 17 35  1  0  0  0  0
 18 19  1  0  0  0  0
 18 36  1  0  0  0  0
 18 37  1  0  0  0  0
 19 20  1  0  0  0  0
 19 38  1  0  0  0  0
 19 39  1  0  0  0  0
M  END
> <s_m_source_file>
AV-unprocessed.smi

> <i_m_source_file_index>
2025

> <i_lp_mmshare_version>
43012

> <i_f3d_flags>
0

> <s_epik_input>
TzFbQ0gyXVtDSDJdW0NIMl1bQ0BIXTFbQ0BIXShbQ0gzXSlbTkhdQyg9TylbQ0gyXW4yW2NIXVtjSF1jKD1PKW4oW0NIM10pYzI9Tw==

> <s_epik_cmdline>
J2VwaWtfcHl0aG9uJywgJy1waCcsICc3LjAnLCAnLXRuJywgJzgnLCAnLW1hJywgJzIwMCcsICctbWV0YWxfYmluZGluZycsICctaW1hZScsICc8aW5maWxlLm1hZT4nLCAnLW9tYWUnLCAnPG91dGZpbGUubWFlPic=

> <r_lp_tautomer_probability>
1

> <r_epik_Ionization_Penalty>
3.54787e-08

> <r_epik_Ionization_Penalty_Charging>
1.24654e-08

> <r_epik_Ionization_Penalty_Neutral>
2.30132e-08

> <r_epik_State_Penalty>
-0

> <r_epik_Charging_Adjusted_Penalty>
1.24654e-08

> <i_epik_Tot_Q>
0

> <i_epik_Tot_abs_Q>
0

> <r_epik_Metal_State_Penalty>
-0

> <b_epik_Metal_Only>
0

> <s_lp_Force_Field>
OPLS_2005

> <r_lp_Energy>
25.7305

> <b_lp_Chiralities_Consistent>
1

> <s_lp_Variant>
AV-unprocessed.smi:2025-2

> <Gold.Version>
5.8.1

> <Gold.Id.Protein>
6NUR|6NUR_protein|mol2

> <Gold.PLP.Fitness>
48.2551

> <Gold.PLP.PLP>
-44.2330

> <Gold.PLP.part.hbond>
-3.0000

> <Gold.PLP.part.metal>
0.0000

> <Gold.PLP.part.buried>
-4.8438

> <Gold.PLP.part.nonpolar>
-35.8139

> <Gold.PLP.part.repulsive>
0.3208

> <Gold.PLP.ligand.clash>
0.0000

> <Gold.PLP.ligand.torsion>
0.5925

> <Gold.PLP.Chemscore.Hbond>
1.7296

> <Gold.PLP.Chemscore.CHOScore>
0.0000

> <Gold.PLP.Chemscore.Metal>
0.0000

> <Gold.Chemscore.Hbonds>
donor molecule, donor type, donor heavy atom, donor atom, acceptor molecule, acceptor atom, score
      P1  H  7997  8008       L1     5  0.96
      P1  H  8011  8017       L1    11  0.67

> <Gold.PLP.Chemscore.Internal.Correction>
0.0185

> <Gold.Rescore>
     Score         DG    S(hbond)    S(metal)    S(lipo)     H(rot)  DE(clash)    DE(int)     intcor
     17.01     -17.92       1.77        0.00      95.71       1.82       0.29       0.62       ----

> <Gold.Chemscore.Fitness>
17.0102

> <Gold.Chemscore.DG>
-17.9185

> <Gold.Chemscore.ZeroCoef>
-5.4800

> <Gold.Chemscore.Hbond>
1.7686

> <Gold.Chemscore.Metal>
0.0000

> <Gold.Chemscore.Lipo>
95.7078

> <Gold.Chemscore.Internal_Hbond>
0.0000

> <Gold.Chemscore.DEClash>
0.2883

> <Gold.Chemscore.DEInternal>
0.6201

> <Gold.Chemscore.Rot>
1.8228

> <Gold.Chemscore.Internal.Correction>
   9.000000E+99

> <Gold.Chemscore.Hbonds>
donor molecule, donor type, donor heavy atom, donor atom, acceptor molecule, acceptor atom, score
      P1  H  7997  8008       L1     5  0.92
      P1  H  8011  8017       L1    11  0.68

> <Gold.Chemscore.Hbond.Weighted>
-5.9072

> <Gold.Chemscore.Metal.Weighted>
-0.0000

> <Gold.Chemscore.Lipo.Weighted>
-11.1978

> <Gold.Chemscore.Internal_Hbond.Weighted>
0.0000

> <Gold.Chemscore.DEClash.Weighted>
0.2883

> <Gold.Chemscore.DEInternal.Weighted>
0.6201

> <Gold.Chemscore.Rot.Weighted>
4.6665

> <Gold.Chemscore.Internal.Correction.Weighted>
   9.000000E+99

> <Gold.Protein.RotatedTorsions>
[ 6907 6896 6895 6894 ] final   41.13 input  -60.11 | X-H torsion
[ 7974 7965 7964 7962 ] final  -55.38 input  175.53 | X-H torsion
[ 8008 7997 7996 7995 ] final -116.26 input   59.86 | X-H torsion
[ 10167 10162 10161 10158 ] final  149.78 input  -65.29 | X-H torsion
[ 10718 10713 10712 10709 ] final -153.77 input   66.30 | X-H torsion
[ 10763 10752 10751 10750 ] final  171.29 input  -60.55 | X-H torsion
[ 11005 11000 10999 10996 ] final    6.90 input  -57.11 | X-H torsion

> <Gold.Protein.ActiveResidues>
 VAL166  LYS551  ARG553  GLY616  TRP617  ASP618  TYR619  PRO620  LYS621  CYS622 
 ASP623  PHE694  ASN695  SER759  ASP760  ASP761  ALA762  ILE779  LEU786  VAL792 
 PHE793  MET794  SER795  GLU796  ALA797  LYS798  CYS799  TRP800  GLU811  SER814 

> <Gold.Protein.RotatedAtoms>
  152.1913  134.8669  160.0517 H   0  0  0  0  0  0  0  0  0  0  0  0  # atno 6907 bound_to 6896
  151.9557  133.3674  159.4025 H   0  0  0  0  0  0  0  0  0  0  0  0  # atno 6908 bound_to 6896
  150.6936  134.4217  159.5252 H   0  0  0  0  0  0  0  0  0  0  0  0  # atno 6909 bound_to 6896
  145.8748  140.8189  142.9870 H   0  0  0  0  0  0  0  0  0  0  0  0  # atno 7974 bound_to 7965
  155.0650  140.0393  157.2589 H   0  0  0  0  0  0  0  0  0  0  0  0  # atno 8008 bound_to 7997
  154.7029  140.2677  155.6678 H   0  0  0  0  0  0  0  0  0  0  0  0  # atno 8009 bound_to 7997
  156.2766  140.2737  156.1645 H   0  0  0  0  0  0  0  0  0  0  0  0  # atno 8010 bound_to 7997
  139.4857  144.5574  151.7292 H   0  0  0  0  0  0  0  0  0  0  0  0  # atno 10167 bound_to 10162
  156.4904  130.8344  151.2568 H   0  0  0  0  0  0  0  0  0  0  0  0  # atno 10718 bound_to 10713
  154.4098  135.2756  155.2044 H   0  0  0  0  0  0  0  0  0  0  0  0  # atno 10763 bound_to 10752
  154.4034  135.6039  153.5914 H   0  0  0  0  0  0  0  0  0  0  0  0  # atno 10764 bound_to 10752
  152.9831  135.5932  154.4378 H   0  0  0  0  0  0  0  0  0  0  0  0  # atno 10765 bound_to 10752
  140.5543  134.0253  155.7948 H   0  0  0  0  0  0  0  0  0  0  0  0  # atno 11005 bound_to 11000
  144.6726  140.1294  143.7444 LP  0  0  0  0  0  0  0  0  0  0  0  0  # atno 17320 bound_to 7965
  145.9094  139.2478  143.1446 LP  0  0  0  0  0  0  0  0  0  0  0  0  # atno 17321 bound_to 7965
  140.5138  144.0984  150.6002 LP  0  0  0  0  0  0  0  0  0  0  0  0  # atno 17342 bound_to 10162
  140.3919  143.2748  152.0050 LP  0  0  0  0  0  0  0  0  0  0  0  0  # atno 17343 bound_to 10162
  157.7474  131.0015  150.2967 LP  0  0  0  0  0  0  0  0  0  0  0  0  # atno 17370 bound_to 10713
  156.3433  130.3819  149.7391 LP  0  0  0  0  0  0  0  0  0  0  0  0  # atno 17371 bound_to 10713
  141.1153  133.9550  157.2834 LP  0  0  0  0  0  0  0  0  0  0  0  0  # atno 17394 bound_to 11000
  139.9440  135.0187  156.8794 LP  0  0  0  0  0  0  0  0  0  0  0  0  # atno 17395 bound_to 11000

$$$$
