#       Name:                AV-unprocessed.smi:290
#       Creating user name   scv26
#       Creation time:       Thu Mar 26 22:05:11 2020


#       File generated by GOLD software.
#

@<TRIPOS>MOLECULE
AV-unprocessed.smi:290
    69    72     1
SMALL
NO_CHARGES


@<TRIPOS>ATOM
      1 ****        -5.9057  -3.8719   0.1201 C.3            1 S1                 0.0000
      2 ****        -5.5575  -2.6684   1.0088 C.3            1 S1                 0.0000
      3 ****        -6.3910  -1.5540   0.7014 O.3            1 S1                 0.0000
      4 ****        -5.6693  -0.3372   0.8742 C.3            1 S1                 0.0000
      5 ****        -4.3254  -0.7347   1.4780 C.3            1 S1                 0.0000
      6 ****        -4.1139  -2.1382   0.9225 C.3            1 S1                 0.0000
      7 ****        -3.2712  -2.8600   1.8018 O.3            1 S1                 0.0000
      8 ****        -3.5134  -2.1646  -0.5094 C.3            1 S1                 0.0000
      9 ****        -2.2450  -1.4628  -0.6266 N.pl3          1 S1                 0.0000
     10 ****        -1.0001  -1.9431  -0.2873 C.2            1 S1                 0.0000
     11 ****        -0.0104  -1.1163  -0.4886 N.2            1 S1                 0.0000
     12 ****        -0.6193   0.0193  -1.0091 C.ar           1 S1                 0.0000
     13 ****        -0.1497   1.2901  -1.4459 C.ar           1 S1                 0.0000
     14 ****         1.1421   1.6818  -1.4338 N.3            1 S1                 0.0000
     15 ****         1.9608   1.1128  -2.5022 C.3            1 S1                 0.0000
     16 ****         3.3689   0.9533  -1.9242 C.3            1 S1                 0.0000
     17 ****         3.0541   0.6805  -0.4514 C.3            1 S1                 0.0000
     18 ****         4.1831   0.7276   0.5294 N.4            1 S1                 1.0000
     19 ****         4.7347  -0.6256   0.7896 C.3            1 S1                 0.0000
     20 ****         5.2472   1.7292   0.2371 C.3            1 S1                 0.0000
     21 ****         6.0662   2.1191   1.4809 C.3            1 S1                 0.0000
     22 ****         5.2391   2.7598   2.4286 O.3            1 S1                 0.0000
     23 ****         1.8496   1.5968  -0.1560 C.3            1 S1                 0.0000
     24 ****         2.1739   3.0151   0.3410 C.3            1 S1                 0.0000
     25 ****        -1.0567   2.1748  -1.9260 N.ar           1 S1                 0.0000
     26 ****        -2.3519   1.8469  -1.9661 C.ar           1 S1                 0.0000
     27 ****        -2.9372   0.7087  -1.5866 N.ar           1 S1                 0.0000
     28 ****        -2.0234  -0.1859  -1.1117 C.ar           1 S1                 0.0000
     29 ****         2.6452  -0.3311  -0.4181 H              1 S1                 0.0000
     30 ****         1.2290   1.1226   0.6059 H              1 S1                 0.0000
     31 ****        -5.2488  -4.7166   0.3290 H              1 S1                 0.0000
     32 ****        -5.8216  -3.6308  -0.9395 H              1 S1                 0.0000
     33 ****        -6.9306  -4.1976   0.2988 H              1 S1                 0.0000
     34 ****        -5.7740  -2.9303   2.0463 H              1 S1                 0.0000
     35 ****        -5.5302   0.1284  -0.1021 H              1 S1                 0.0000
     36 ****        -6.2153   0.3625   1.5073 H              1 S1                 0.0000
     37 ****        -3.5278  -0.0273   1.2543 H              1 S1                 0.0000
     38 ****        -4.4261  -0.7713   2.5642 H              1 S1                 0.0000
     39 ****        -3.2611  -3.7652   1.5309 H              1 S1                 0.0000
     40 ****        -3.3570  -3.1929  -0.8380 H              1 S1                 0.0000
     41 ****        -4.2117  -1.7230  -1.2212 H              1 S1                 0.0000
     42 ****        -0.8494  -2.9319   0.1209 H              1 S1                 0.0000
     43 ****         1.5691   0.1409  -2.8074 H              1 S1                 0.0000
     44 ****         1.9603   1.7613  -3.3787 H              1 S1                 0.0000
     45 ****         3.9314   0.1492  -2.3994 H              1 S1                 0.0000
     46 ****         3.9161   1.8844  -2.0670 H              1 S1                 0.0000
     47 ****         5.2007  -1.0337  -0.1083 H              1 S1                 0.0000
     48 ****         3.9481  -1.3115   1.1065 H              1 S1                 0.0000
     49 ****         5.4775  -0.6179   1.5853 H              1 S1                 0.0000
     50 ****         5.9088   1.3378  -0.5369 H              1 S1                 0.0000
     51 ****         4.8164   2.6431  -0.1669 H              1 S1                 0.0000
     52 ****         6.5611   1.2648   1.9408 H              1 S1                 0.0000
     53 ****         6.8545   2.8158   1.1946 H              1 S1                 0.0000
     54 ****         5.7747   3.0428   3.1547 H              1 S1                 0.0000
     55 ****         2.7144   2.9948   1.2864 H              1 S1                 0.0000
     56 ****         1.2562   3.5793   0.5099 H              1 S1                 0.0000
     57 ****         2.7655   3.5737  -0.3841 H              1 S1                 0.0000
     58 ****        -3.0142   2.6052  -2.3573 H              1 S1                 0.0000
     59 ****         3.7626   1.0202   1.4004 H              1 S1                 0.0000
     60 ****        -7.1843  -1.5569   1.3103 LP             1 S1                 0.0000
     61 ****        -6.6989  -1.6235  -0.2475 LP             1 S1                 0.0000
     62 ****        -3.6205  -2.7913   2.7363 LP             1 S1                 0.0000
     63 ****        -2.3446  -2.4860   1.7640 LP             1 S1                 0.0000
     64 ****         0.9620  -1.2656  -0.3095 LP             1 S1                 0.0000
     65 ****         1.0269   2.6593  -1.6104 LP             1 S1                 0.0000
     66 ****         4.5416   2.1210   2.7534 LP             1 S1                 0.0000
     67 ****         4.7960   3.5516   2.0082 LP             1 S1                 0.0000
     68 ****        -0.7574   3.0723  -2.2500 LP             1 S1                 0.0000
     69 ****        -3.9203   0.5342  -1.6432 LP             1 S1                 0.0000
@<TRIPOS>BOND
    1    1    2 1     
    2    1   31 1     
    3    1   32 1     
    4    1   33 1     
    5    2    6 1     
    6    2    3 1     
    7    2   34 1     
    8    3    4 1     
    9    4    5 1     
   10    4   35 1     
   11    4   36 1     
   12    5    6 1     
   13    5   37 1     
   14    5   38 1     
   15    6    7 1     
   16    6    8 1     
   17    7   39 1     
   18    8    9 1     
   19    8   40 1     
   20    8   41 1     
   21    9   28 1     
   22    9   10 1     
   23   10   11 2     
   24   10   42 1     
   25   11   12 1     
   26   12   28 ar    
   27   12   13 ar    
   28   13   14 1     
   29   13   25 ar    
   30   14   23 1     
   31   14   15 1     
   32   15   16 1     
   33   15   43 1     
   34   15   44 1     
   35   16   17 1     
   36   16   45 1     
   37   16   46 1     
   38   17   29 1     
   39   17   18 1     
   40   17   23 1     
   41   18   19 1     
   42   18   20 1     
   43   18   59 1     
   44   19   47 1     
   45   19   48 1     
   46   19   49 1     
   47   20   21 1     
   48   20   50 1     
   49   20   51 1     
   50   21   22 1     
   51   21   52 1     
   52   21   53 1     
   53   22   54 1     
   54   23   30 1     
   55   23   24 1     
   56   24   55 1     
   57   24   56 1     
   58   24   57 1     
   59   25   26 ar    
   60   26   27 ar    
   61   26   58 1     
   62   27   28 ar    
   63    3   60 1     
   64    3   61 1     
   65    7   62 1     
   66    7   63 1     
   67   11   64 1     
   68   14   65 1     
   69   22   66 1     
   70   22   67 1     
   71   25   68 1     
   72   27   69 1     
@<TRIPOS>SUBSTRUCTURE
      1 S1             1
@<TRIPOS>SET
LONE_PAIRS      STATIC     ATOMS    <user>   **** ""
10 60 61 62 63 64 65 66 67 68 69
DONOR_HYDROGENS      STATIC     ATOMS    <user>   **** ""
3 39 59 54
ATOM$BLUE        STATIC     ATOMS    COLORGROUP SYSTEM
10 60 61 62 63 64 65 66 67 68 69
ATOM$RED        STATIC     ATOMS    COLORGROUP SYSTEM
3 39 59 54
