#       Name:                AV-unprocessed.smi:3278
#       Creating user name   scv26
#       Creation time:       Fri Mar 27 18:46:17 2020


#       File generated by GOLD software.
#

@<TRIPOS>MOLECULE
AV-unprocessed.smi:3278
    42    43     1
SMALL
NO_CHARGES


@<TRIPOS>ATOM
      1 ****        -3.7108  -2.1216   2.7128 C.3            1 S1                 0.0000
      2 ****        -3.0943  -1.9008   1.4223 N.pl3          1 S1                 0.0000
      3 ****        -2.7756  -0.7065   0.8139 C.2            1 S1                 0.0000
      4 ****        -2.2082  -0.9955  -0.3976 C.2            1 S1                 0.0000
      5 ****        -1.6665  -0.0573  -1.4568 C.3            1 S1                 0.0000
      6 ****        -2.2718   1.3563  -1.3472 C.3            1 S1                 0.0000
      7 ****        -2.0086  -0.5180  -2.7483 O.3            1 S1                 0.0000
      8 ****        -0.1235  -0.0148  -1.4222 C.3            1 S1                 0.0000
      9 ****         0.3875   0.3931  -0.1107 N.3            1 S1                 0.0000
     10 ****         1.8399   0.3016   0.0611 C.3            1 S1                 0.0000
     11 ****         2.5961   1.2863  -0.8613 C.3            1 S1                 0.0000
     12 ****         4.1240   1.1749  -0.7289 C.3            1 S1                 0.0000
     13 ****         4.6181   1.4741   0.6921 C.3            1 S1                 0.0000
     14 ****         3.9449   0.2816   1.8777 S.3            1 S1                 0.0000
     15 ****         2.1828   0.5457   1.5421 C.3            1 S1                 0.0000
     16 ****        -2.2229  -2.4211  -0.4268 C.2            1 S1                 0.0000
     17 ****        -2.7535  -2.9582   0.6593 N.2            1 S1                 0.0000
     18 ****        -4.0386  -1.1727   3.1382 H              1 S1                 0.0000
     19 ****        -2.9919  -2.5844   3.3892 H              1 S1                 0.0000
     20 ****        -4.5753  -2.7773   2.6038 H              1 S1                 0.0000
     21 ****        -2.9751   0.2419   1.2906 H              1 S1                 0.0000
     22 ****        -2.0370   1.8224  -0.3899 H              1 S1                 0.0000
     23 ****        -3.3580   1.3324  -1.4426 H              1 S1                 0.0000
     24 ****        -1.8875   2.0138  -2.1283 H              1 S1                 0.0000
     25 ****        -2.9498  -0.5052  -2.8312 H              1 S1                 0.0000
     26 ****         0.2652  -1.0042  -1.6680 H              1 S1                 0.0000
     27 ****         0.2343   0.6603  -2.1993 H              1 S1                 0.0000
     28 ****        -0.0709  -0.1559   0.6097 H              1 S1                 0.0000
     29 ****         2.1542  -0.7132  -0.1872 H              1 S1                 0.0000
     30 ****         2.3438   1.1023  -1.9049 H              1 S1                 0.0000
     31 ****         2.2835   2.3094  -0.6469 H              1 S1                 0.0000
     32 ****         4.4472   0.1770  -1.0278 H              1 S1                 0.0000
     33 ****         4.5954   1.8692  -1.4252 H              1 S1                 0.0000
     34 ****         5.7065   1.4293   0.7308 H              1 S1                 0.0000
     35 ****         4.3270   2.4809   0.9935 H              1 S1                 0.0000
     36 ****         1.9156   1.5615   1.8362 H              1 S1                 0.0000
     37 ****         1.6137  -0.1308   2.1807 H              1 S1                 0.0000
     38 ****        -1.8610  -3.0780  -1.2041 H              1 S1                 0.0000
     39 ****        -1.6714  -1.4510  -2.8740 LP             1 S1                 0.0000
     40 ****        -1.6009   0.0796  -3.4387 LP             1 S1                 0.0000
     41 ****         0.1765   1.3677  -0.0354 LP             1 S1                 0.0000
     42 ****        -2.8743  -3.9288   0.8672 LP             1 S1                 0.0000
@<TRIPOS>BOND
    1    1    2 1     
    2    1   18 1     
    3    1   19 1     
    4    1   20 1     
    5    2   17 1     
    6    2    3 1     
    7    3    4 2     
    8    3   21 1     
    9    4    5 1     
   10    4   16 1     
   11    5    6 1     
   12    5    7 1     
   13    5    8 1     
   14    6   22 1     
   15    6   23 1     
   16    6   24 1     
   17    7   25 1     
   18    8    9 1     
   19    8   26 1     
   20    8   27 1     
   21    9   10 1     
   22    9   28 1     
   23   10   15 1     
   24   10   11 1     
   25   10   29 1     
   26   11   12 1     
   27   11   30 1     
   28   11   31 1     
   29   12   13 1     
   30   12   32 1     
   31   12   33 1     
   32   13   14 1     
   33   13   34 1     
   34   13   35 1     
   35   14   15 1     
   36   15   36 1     
   37   15   37 1     
   38   16   17 2     
   39   16   38 1     
   40    7   39 1     
   41    7   40 1     
   42    9   41 1     
   43   17   42 1     
@<TRIPOS>SUBSTRUCTURE
      1 S1             1
@<TRIPOS>SET
LONE_PAIRS      STATIC     ATOMS    <user>   **** ""
4 39 40 41 42
DONOR_HYDROGENS      STATIC     ATOMS    <user>   **** ""
2 25 28
ATOM$BLUE        STATIC     ATOMS    COLORGROUP SYSTEM
4 39 40 41 42
ATOM$RED        STATIC     ATOMS    COLORGROUP SYSTEM
2 25 28
