AV-unprocessed.smi:1260|AV-procd|sdf|5293|dock8
  -GOLD-   22720 4413D 1   1.00000     0.00000
 Structure written by MMmdl.
 37 39  0  0  0  0  0  0  0  0  2 V2000
  147.4523  132.9869  154.7063 O   0  0  0  0  0  0  0  0  0  0  0  0
  148.1494  133.6520  153.9409 C   0  0  0  0  0  0  0  0  0  0  0  0
  149.6434  133.8159  154.2167 C   0  0  0  0  0  0  0  0  0  0  0  0
  150.0249  133.0872  155.4116 N   0  0  0  0  0  0  0  0  0  0  0  0
  149.9993  131.7818  155.6888 C   0  0  0  0  0  0  0  0  0  0  0  0
  150.4580  131.5307  156.9050 N   0  0  0  0  0  0  0  0  0  0  0  0
  150.7781  132.7892  157.3863 N   0  0  0  0  0  0  0  0  0  0  0  0
  150.5246  133.7167  156.5041 N   0  0  0  0  0  0  0  0  0  0  0  0
  147.6676  134.2793  152.8562 N   0  0  0  0  0  0  0  0  0  0  0  0
  146.2664  134.2926  152.4456 C   0  0  2  0  0  0  0  0  0  0  0  0
  145.4125  135.2770  153.2564 C   0  0  0  0  0  0  0  0  0  0  0  0
  144.0452  134.5852  153.4297 C   0  0  0  0  0  0  0  0  0  0  0  0
  144.1244  133.2934  152.7083 N   0  3  1  0  0  0  0  0  0  0  0  0
  143.4967  133.3676  151.3596 C   0  0  0  0  0  0  0  0  0  0  0  0
  143.7826  132.1182  150.5162 C   0  0  0  0  0  0  0  0  0  0  0  0
  145.2924  131.9118  150.3717 C   0  0  0  0  0  0  0  0  0  0  0  0
  145.9201  131.7760  151.7621 C   0  0  0  0  0  0  0  0  0  0  0  0
  145.5675  132.9510  152.7028 C   0  0  1  0  0  0  0  0  0  0  0  0
  150.2219  133.4487  153.3676 H   0  0  0  0  0  0  0  0  0  0  0  0
  149.8960  134.8689  154.3491 H   0  0  0  0  0  0  0  0  0  0  0  0
  149.6543  131.0220  155.0032 H   0  0  0  0  0  0  0  0  0  0  0  0
  148.3169  134.7971  152.2817 H   0  0  0  0  0  0  0  0  0  0  0  0
  146.1810  134.5585  151.3905 H   0  0  0  0  0  0  0  0  0  0  0  0
  145.8517  135.4726  154.2359 H   0  0  0  0  0  0  0  0  0  0  0  0
  145.3210  136.2344  152.7420 H   0  0  0  0  0  0  0  0  0  0  0  0
  143.8694  134.3801  154.4864 H   0  0  0  0  0  0  0  0  0  0  0  0
  143.2190  135.2074  153.0818 H   0  0  0  0  0  0  0  0  0  0  0  0
  142.4200  133.4954  151.4766 H   0  0  0  0  0  0  0  0  0  0  0  0
  143.8580  134.2499  150.8290 H   0  0  0  0  0  0  0  0  0  0  0  0
  143.3281  131.2419  150.9805 H   0  0  0  0  0  0  0  0  0  0  0  0
  143.3252  132.2214  149.5318 H   0  0  0  0  0  0  0  0  0  0  0  0
  145.4958  131.0190  149.7795 H   0  0  0  0  0  0  0  0  0  0  0  0
  145.7387  132.7501  149.8355 H   0  0  0  0  0  0  0  0  0  0  0  0
  145.5597  130.8503  152.2131 H   0  0  0  0  0  0  0  0  0  0  0  0
  147.0008  131.6610  151.6788 H   0  0  0  0  0  0  0  0  0  0  0  0
  145.8167  132.6376  153.7191 H   0  0  0  0  0  0  0  0  0  0  0  0
  143.6262  132.5869  153.2307 H   0  0  0  0  0  0  0  0  0  0  0  0
  1  2  2  0  0  0  0
  2  3  1  0  0  0  0
  2  9  1  0  0  0  0
  3  4  1  0  0  0  0
  3 19  1  0  0  0  0
  3 20  1  0  0  0  0
  4  8  1  0  0  0  0
  4  5  1  0  0  0  0
  5  6  2  0  0  0  0
  5 21  1  0  0  0  0
  6  7  1  0  0  0  0
  7  8  2  0  0  0  0
  9 10  1  0  0  0  0
  9 22  1  0  0  0  0
 10 18  1  0  0  0  0
 10 11  1  0  0  0  0
 10 23  1  0  0  0  0
 11 12  1  0  0  0  0
 11 24  1  0  0  0  0
 11 25  1  0  0  0  0
 12 13  1  0  0  0  0
 12 26  1  0  0  0  0
 12 27  1  0  0  0  0
 13 18  1  0  0  0  0
 13 14  1  0  0  0  0
 13 37  1  0  0  0  0
 14 15  1  0  0  0  0
 14 28  1  0  0  0  0
 14 29  1  0  0  0  0
 15 16  1  0  0  0  0
 15 30  1  0  0  0  0
 15 31  1  0  0  0  0
 16 17  1  0  0  0  0
 16 32  1  0  0  0  0
 16 33  1  0  0  0  0
 17 18  1  0  0  0  0
 17 34  1  0  0  0  0
 17 35  1  0  0  0  0
 18 36  1  0  0  0  0
M  CHG  1  13   1
M  END
> <s_m_source_file>
AV-unprocessed.smi

> <i_m_source_file_index>
1260

> <i_lp_mmshare_version>
43012

> <i_f3d_flags>
0

> <s_epik_input>
bjFubltjSF1uMVtDSDJdQyg9TylbTkhdW0NASF0oW0NIMl1bQ0gyXTIpW0NAQEhdKE4yMylbQ0gyXVtDSDJdW0NIMl1bQ0gyXTM=

> <s_epik_cmdline>
J2VwaWtfcHl0aG9uJywgJy1waCcsICc3LjAnLCAnLXRuJywgJzgnLCAnLW1hJywgJzIwMCcsICctbWV0YWxfYmluZGluZycsICctaW1hZScsICc8aW5maWxlLm1hZT4nLCAnLW9tYWUnLCAnPG91dGZpbGUubWFlPic=

> <r_lp_tautomer_probability>
1

> <r_epik_Ionization_Penalty>
0.00234324

> <r_epik_Ionization_Penalty_Charging>
0.00233897

> <r_epik_Ionization_Penalty_Neutral>
4.26861e-06

> <r_epik_State_Penalty>
0.00161477

> <r_epik_Charging_Adjusted_Penalty>
0.00395374

> <i_epik_Tot_Q>
1

> <i_epik_Tot_abs_Q>
1

> <r_epik_Metal_State_Penalty>
-0

> <b_epik_Metal_Only>
0

> <s_lp_Force_Field>
OPLS_2005

> <r_lp_Energy>
39.6077

> <b_lp_Chiralities_Consistent>
1

> <s_lp_Variant>
AV-unprocessed.smi:1260-1

> <Gold.Version>
5.8.1

> <Gold.Id.Protein>
6NUR|6NUR_protein|mol2

> <Gold.PLP.Fitness>
38.0966

> <Gold.PLP.PLP>
-26.6764

> <Gold.PLP.part.hbond>
-2.9050

> <Gold.PLP.part.metal>
0.0000

> <Gold.PLP.part.buried>
-3.7487

> <Gold.PLP.part.nonpolar>
-20.6993

> <Gold.PLP.part.repulsive>
0.0229

> <Gold.PLP.ligand.clash>
0.0000

> <Gold.PLP.ligand.torsion>
0.2955

> <Gold.PLP.Chemscore.Hbond>
4.0000

> <Gold.PLP.Chemscore.CHOScore>
0.0000

> <Gold.PLP.Chemscore.Metal>
0.0000

> <Gold.Chemscore.Hbonds>
donor molecule, donor type, donor heavy atom, donor atom, acceptor molecule, acceptor atom, score
      L1  H     9    22       P1  7948  0.95
      L1  H    13    37       P1 10957  2.00
      P1  H  6896  6909       L1     7  1.00

> <Gold.PLP.Chemscore.Internal.Correction>
0.0112

> <Gold.Rescore>
     Score         DG    S(hbond)    S(metal)    S(lipo)     H(rot)  DE(clash)    DE(int)     intcor
     12.98     -15.25       2.88        0.00      44.60       1.98       0.00       2.27       ----

> <Gold.Chemscore.Fitness>
12.9753

> <Gold.Chemscore.DG>
-15.2497

> <Gold.Chemscore.ZeroCoef>
-5.4800

> <Gold.Chemscore.Hbond>
2.8771

> <Gold.Chemscore.Metal>
0.0000

> <Gold.Chemscore.Lipo>
44.5966

> <Gold.Chemscore.Internal_Hbond>
0.0000

> <Gold.Chemscore.DEClash>
0.0048

> <Gold.Chemscore.DEInternal>
2.2695

> <Gold.Chemscore.Rot>
1.9757

> <Gold.Chemscore.Internal.Correction>
   9.000000E+99

> <Gold.Chemscore.Hbonds>
donor molecule, donor type, donor heavy atom, donor atom, acceptor molecule, acceptor atom, score
      L1  H     9    22       P1  7948  0.20
      L1  H    13    37       P1 10957  0.25
      P1  H  6896  6909       L1     7  0.90

> <Gold.Chemscore.Hbond.Weighted>
-9.6096

> <Gold.Chemscore.Metal.Weighted>
-0.0000

> <Gold.Chemscore.Lipo.Weighted>
-5.2178

> <Gold.Chemscore.Internal_Hbond.Weighted>
0.0000

> <Gold.Chemscore.DEClash.Weighted>
0.0048

> <Gold.Chemscore.DEInternal.Weighted>
2.2695

> <Gold.Chemscore.Rot.Weighted>
5.0578

> <Gold.Chemscore.Internal.Correction.Weighted>
   9.000000E+99

> <Gold.Protein.RotatedTorsions>
[ 6907 6896 6895 6894 ] final  -31.51 input  -60.11 | X-H torsion
[ 7974 7965 7964 7962 ] final  -75.12 input  175.53 | X-H torsion
[ 8008 7997 7996 7995 ] final -126.72 input   59.86 | X-H torsion
[ 10167 10162 10161 10158 ] final    2.89 input  -65.29 | X-H torsion
[ 10718 10713 10712 10709 ] final  147.95 input   66.30 | X-H torsion
[ 10763 10752 10751 10750 ] final -176.39 input  -60.55 | X-H torsion
[ 11005 11000 10999 10996 ] final   81.93 input  -57.11 | X-H torsion

> <Gold.Protein.ActiveResidues>
 VAL166  LYS551  ARG553  GLY616  TRP617  ASP618  TYR619  PRO620  LYS621  CYS622 
 ASP623  PHE694  ASN695  SER759  ASP760  ASP761  ALA762  ILE779  LEU786  VAL792 
 PHE793  MET794  SER795  GLU796  ALA797  LYS798  CYS799  TRP800  GLU811  SER814 

> <Gold.Protein.RotatedAtoms>
  151.0911  134.9916  159.8402 H   0  0  0  0  0  0  0  0  0  0  0  0  # atno 6907 bound_to 6896
  152.5429  134.2065  159.8743 H   0  0  0  0  0  0  0  0  0  0  0  0  # atno 6908 bound_to 6896
  151.2101  133.4517  159.2631 H   0  0  0  0  0  0  0  0  0  0  0  0  # atno 6909 bound_to 6896
  145.6302  140.9340  143.1091 H   0  0  0  0  0  0  0  0  0  0  0  0  # atno 7974 bound_to 7965
  155.2343  140.0426  157.2966 H   0  0  0  0  0  0  0  0  0  0  0  0  # atno 8008 bound_to 7997
  154.5868  140.2416  155.7946 H   0  0  0  0  0  0  0  0  0  0  0  0  # atno 8009 bound_to 7997
  156.2232  140.2963  156.0011 H   0  0  0  0  0  0  0  0  0  0  0  0  # atno 8010 bound_to 7997
  140.6613  143.7297  150.7743 H   0  0  0  0  0  0  0  0  0  0  0  0  # atno 10167 bound_to 10162
  157.3146  131.0894  151.1289 H   0  0  0  0  0  0  0  0  0  0  0  0  # atno 10718 bound_to 10713
  154.5730  135.2829  155.0809 H   0  0  0  0  0  0  0  0  0  0  0  0  # atno 10763 bound_to 10752
  154.2174  135.6397  153.5138 H   0  0  0  0  0  0  0  0  0  0  0  0  # atno 10764 bound_to 10752
  153.0063  135.5506  154.6359 H   0  0  0  0  0  0  0  0  0  0  0  0  # atno 10765 bound_to 10752
  139.9081  134.8034  156.2107 H   0  0  0  0  0  0  0  0  0  0  0  0  # atno 11005 bound_to 11000
  144.7197  139.8074  143.7386 LP  0  0  0  0  0  0  0  0  0  0  0  0  # atno 17320 bound_to 7965
  146.1363  139.4409  143.0137 LP  0  0  0  0  0  0  0  0  0  0  0  0  # atno 17321 bound_to 7965
  140.0966  143.4827  152.2449 LP  0  0  0  0  0  0  0  0  0  0  0  0  # atno 17342 bound_to 10162
  139.5847  144.7526  151.3549 LP  0  0  0  0  0  0  0  0  0  0  0  0  # atno 17343 bound_to 10162
  157.2598  130.6653  149.5969 LP  0  0  0  0  0  0  0  0  0  0  0  0  # atno 17370 bound_to 10713
  155.9680  130.4512  150.5727 LP  0  0  0  0  0  0  0  0  0  0  0  0  # atno 17371 bound_to 10713
  141.0467  133.6910  156.1696 LP  0  0  0  0  0  0  0  0  0  0  0  0  # atno 17394 bound_to 11000
  140.6873  134.4703  157.5589 LP  0  0  0  0  0  0  0  0  0  0  0  0  # atno 17395 bound_to 11000

$$$$
