AV-unprocessed.smi:218|AV-procd|sdf|1673|dock3
  -GOLD-   2262020 93D 1   1.00000     0.00000
 Structure written by MMmdl.
 54 57  0  0  0  0  0  0  0  0  1 V2000
  151.0418  142.2531  158.9111 C   0  0  0  0  0  0  0  0  0  0  0  0
  151.1491  140.7899  158.4654 C   0  0  0  0  0  0  0  0  0  0  0  0
  152.3448  140.0903  159.1350 C   0  0  0  0  0  0  0  0  0  0  0  0
  151.3113  140.8001  157.0458 O   0  0  0  0  0  0  0  0  0  0  0  0
  151.0681  139.6561  156.3104 C   0  0  0  0  0  0  0  0  0  0  0  0
  151.0690  138.4176  156.9836 C   0  0  0  0  0  0  0  0  0  0  0  0
  150.8211  137.2397  156.2475 C   0  0  0  0  0  0  0  0  0  0  0  0
  150.8085  135.8788  156.9245 C   0  0  0  0  0  0  0  0  0  0  0  0
  150.4235  134.7636  156.0652 N   0  0  0  0  0  0  0  0  0  0  0  0
  149.1208  134.4544  155.8815 C   0  0  0  0  0  0  0  0  0  0  0  0
  148.1431  135.0869  156.5818 N   0  0  0  0  0  0  0  0  0  0  0  0
  146.8621  134.7656  156.3788 C   0  0  0  0  0  0  0  0  0  0  0  0
  146.3515  133.8649  155.5366 N   0  0  0  0  0  0  0  0  0  0  0  0
  147.3285  133.2305  154.8260 C   0  0  0  0  0  0  0  0  0  0  0  0
  148.7269  133.4672  154.9415 C   0  0  0  0  0  0  0  0  0  0  0  0
  149.4191  132.6393  154.0675 N   0  0  0  0  0  0  0  0  0  0  0  0
  148.4798  131.9558  153.4705 C   0  0  0  0  0  0  0  0  0  0  0  0
  147.1932  132.2501  153.8637 N   0  0  0  0  0  0  0  0  0  0  0  0
  145.9262  131.6442  153.3538 C   0  0  1  0  0  0  0  0  0  0  0  0
  145.2546  132.6051  152.6027 O   0  0  0  0  0  0  0  0  0  0  0  0
  144.5983  131.9637  151.5208 C   0  0  1  0  0  0  0  0  0  0  0  0
  144.2163  132.9812  150.4316 C   0  0  0  0  0  0  0  0  0  0  0  0
  143.2005  132.4564  149.6033 O   0  0  0  0  0  0  0  0  0  0  0  0
  145.5606  130.8350  151.1184 C   0  0  1  0  0  0  0  0  0  0  0  0
  146.5338  131.2744  150.1903 O   0  0  0  0  0  0  0  0  0  0  0  0
  146.2195  130.4407  152.4390 C   0  0  2  0  0  0  0  0  0  0  0  0
  145.6083  129.2668  152.9359 O   0  0  0  0  0  0  0  0  0  0  0  0
  150.5926  137.3481  154.8614 C   0  0  0  0  0  0  0  0  0  0  0  0
  150.6127  138.6291  154.2770 C   0  0  0  0  0  0  0  0  0  0  0  0
  150.8458  139.7597  154.9764 N   0  0  0  0  0  0  0  0  0  0  0  0
  145.3542  131.3884  154.2471 H   0  0  0  0  0  0  0  0  0  0  0  0
  143.6891  131.5157  151.9263 H   0  0  0  0  0  0  0  0  0  0  0  0
  145.0216  130.0072  150.6546 H   0  0  0  0  0  0  0  0  0  0  0  0
  147.2930  130.2706  152.3372 H   0  0  0  0  0  0  0  0  0  0  0  0
  150.9089  142.3270  159.9907 H   0  0  0  0  0  0  0  0  0  0  0  0
  150.1898  142.7424  158.4385 H   0  0  0  0  0  0  0  0  0  0  0  0
  151.9376  142.8149  158.6447 H   0  0  0  0  0  0  0  0  0  0  0  0
  150.2191  140.2966  158.7519 H   0  0  0  0  0  0  0  0  0  0  0  0
  152.2530  140.1153  160.2210 H   0  0  0  0  0  0  0  0  0  0  0  0
  153.2834  140.5767  158.8689 H   0  0  0  0  0  0  0  0  0  0  0  0
  152.4198  139.0444  158.8389 H   0  0  0  0  0  0  0  0  0  0  0  0
  151.2532  138.3770  158.0471 H   0  0  0  0  0  0  0  0  0  0  0  0
  151.7855  135.6746  157.3645 H   0  0  0  0  0  0  0  0  0  0  0  0
  150.1036  135.9220  157.7548 H   0  0  0  0  0  0  0  0  0  0  0  0
  151.1759  134.1594  155.7679 H   0  0  0  0  0  0  0  0  0  0  0  0
  146.1434  135.3085  156.9745 H   0  0  0  0  0  0  0  0  0  0  0  0
  148.7013  131.2153  152.7158 H   0  0  0  0  0  0  0  0  0  0  0  0
  143.8430  133.8951  150.8941 H   0  0  0  0  0  0  0  0  0  0  0  0
  145.0779  133.2640  149.8263 H   0  0  0  0  0  0  0  0  0  0  0  0
  142.5070  133.0954  149.5375 H   0  0  0  0  0  0  0  0  0  0  0  0
  147.3787  130.9583  150.4724 H   0  0  0  0  0  0  0  0  0  0  0  0
  144.8994  129.5192  153.5075 H   0  0  0  0  0  0  0  0  0  0  0  0
  150.4000  136.4729  154.2584 H   0  0  0  0  0  0  0  0  0  0  0  0
  150.4378  138.7490  153.2180 H   0  0  0  0  0  0  0  0  0  0  0  0
  1  2  1  0  0  0  0
  1 35  1  0  0  0  0
  1 36  1  0  0  0  0
  1 37  1  0  0  0  0
  2  3  1  0  0  0  0
  2  4  1  0  0  0  0
  2 38  1  0  0  0  0
  3 39  1  0  0  0  0
  3 40  1  0  0  0  0
  3 41  1  0  0  0  0
  4  5  1  0  0  0  0
  5 30  1  0  0  0  0
  5  6  2  0  0  0  0
  6  7  1  0  0  0  0
  6 42  1  0  0  0  0
  7  8  1  0  0  0  0
  7 28  2  0  0  0  0
  8  9  1  0  0  0  0
  8 43  1  0  0  0  0
  8 44  1  0  0  0  0
  9 10  1  0  0  0  0
  9 45  1  0  0  0  0
 10 15  1  0  0  0  0
 10 11  2  0  0  0  0
 11 12  1  0  0  0  0
 12 13  2  0  0  0  0
 12 46  1  0  0  0  0
 13 14  1  0  0  0  0
 14 18  1  0  0  0  0
 14 15  2  0  0  0  0
 15 16  1  0  0  0  0
 16 17  2  0  0  0  0
 17 18  1  0  0  0  0
 17 47  1  0  0  0  0
 18 19  1  0  0  0  0
 19 31  1  0  0  0  0
 19 26  1  0  0  0  0
 19 20  1  0  0  0  0
 20 21  1  0  0  0  0
 21 32  1  0  0  0  0
 21 22  1  0  0  0  0
 21 24  1  0  0  0  0
 22 23  1  0  0  0  0
 22 48  1  0  0  0  0
 22 49  1  0  0  0  0
 23 50  1  0  0  0  0
 24 33  1  0  0  0  0
 24 25  1  0  0  0  0
 24 26  1  0  0  0  0
 25 51  1  0  0  0  0
 26 34  1  0  0  0  0
 26 27  1  0  0  0  0
 27 52  1  0  0  0  0
 28 29  1  0  0  0  0
 28 53  1  0  0  0  0
 29 30  2  0  0  0  0
 29 54  1  0  0  0  0
M  END
> <s_m_source_file>
AV-unprocessed.smi

> <i_m_source_file_index>
218

> <i_lp_mmshare_version>
43012

> <i_f3d_flags>
0

> <s_epik_input>
W0NIM11bQ0hdKFtDSDNdKU9jMVtjSF1jKFtjSF1bY0hdbjEpW0NIMl1bTkhdYyhuW2NIXW4yKWMoYzIzKW5bY0hdbjNbQ0BASF00T1tDQEhdKFtDSDJdW09IXSlbQ0BASF0oW09IXSlbQ0BIXTRbT0hd

> <s_epik_cmdline>
J2VwaWtfcHl0aG9uJywgJy1waCcsICc3LjAnLCAnLXRuJywgJzgnLCAnLW1hJywgJzIwMCcsICctbWV0YWxfYmluZGluZycsICctaW1hZScsICc8aW5maWxlLm1hZT4nLCAnLW9tYWUnLCAnPG91dGZpbGUubWFlPic=

> <r_lp_tautomer_probability>
1

> <r_epik_Ionization_Penalty>
0.00457014

> <r_epik_Ionization_Penalty_Charging>
0

> <r_epik_Ionization_Penalty_Neutral>
0.00457014

> <r_epik_State_Penalty>
-0

> <r_epik_Charging_Adjusted_Penalty>
0

> <i_epik_Tot_Q>
0

> <i_epik_Tot_abs_Q>
0

> <r_epik_Metal_State_Penalty>
-0

> <b_epik_Metal_Only>
0

> <s_epik_Chemistry_Notes>
This compound contains an acetal/aminal-like group ( X-CH(R)-Y where X, Y are N, S, or O) that may be acid/base labile, releasing an aldehyde.

> <s_lp_Force_Field>
OPLS_2005

> <r_lp_Energy>
38.5835

> <b_lp_Chiralities_Consistent>
1

> <s_lp_Variant>
AV-unprocessed.smi:218-12

> <Gold.Version>
5.8.1

> <Gold.Id.Protein>
6NUR|6NUR_protein|mol2

> <Gold.PLP.Fitness>
58.0768

> <Gold.PLP.PLP>
-41.8510

> <Gold.PLP.part.hbond>
-4.4678

> <Gold.PLP.part.metal>
0.0000

> <Gold.PLP.part.buried>
-10.6457

> <Gold.PLP.part.nonpolar>
-28.2331

> <Gold.PLP.part.repulsive>
0.4781

> <Gold.PLP.ligand.clash>
0.0000

> <Gold.PLP.ligand.torsion>
0.9819

> <Gold.PLP.Chemscore.Hbond>
3.9913

> <Gold.PLP.Chemscore.CHOScore>
2.0000

> <Gold.PLP.Chemscore.Metal>
0.0000

> <Gold.Chemscore.Hbonds>
donor molecule, donor type, donor heavy atom, donor atom, acceptor molecule, acceptor atom, score
      L1  H    23    50       P1 10186  1.00
      L1  H    25    51       P1 10747  1.00
      L1  H    27    52       P1 10956  0.96
      P1  H  7989  7998       L1    30  0.95
      L1  C    17    47       P1 10747  1.00
      L1  C    29    54       P1  7957  0.96

> <Gold.PLP.Chemscore.Internal.Correction>
0.2158

> <Gold.Rescore>
     Score         DG    S(hbond)    S(metal)    S(lipo)     H(rot)  DE(clash)    DE(int)     intcor
     12.91     -16.85       4.09        0.00      87.76       4.90       1.69       2.25       ----

> <Gold.Chemscore.Fitness>
12.9093

> <Gold.Chemscore.DG>
-16.8545

> <Gold.Chemscore.ZeroCoef>
-5.4800

> <Gold.Chemscore.Hbond>
4.0892

> <Gold.Chemscore.Metal>
0.0000

> <Gold.Chemscore.Lipo>
87.7618

> <Gold.Chemscore.Internal_Hbond>
0.0000

> <Gold.Chemscore.DEClash>
1.6933

> <Gold.Chemscore.DEInternal>
2.2518

> <Gold.Chemscore.Rot>
4.9029

> <Gold.Chemscore.Internal.Correction>
   9.000000E+99

> <Gold.Chemscore.Hbonds>
donor molecule, donor type, donor heavy atom, donor atom, acceptor molecule, acceptor atom, score
      L1  H    23    50       P1 10186  0.96
      L1  H    25    51       P1 10747  0.93
      L1  H    27    52       P1 10956  0.36
      P1  H  7989  7998       L1    30  0.21
      P1  H 10785 10796       L1    23  0.03

> <Gold.Chemscore.Hbond.Weighted>
-13.6579

> <Gold.Chemscore.Metal.Weighted>
-0.0000

> <Gold.Chemscore.Lipo.Weighted>
-10.2681

> <Gold.Chemscore.Internal_Hbond.Weighted>
0.0000

> <Gold.Chemscore.DEClash.Weighted>
1.6933

> <Gold.Chemscore.DEInternal.Weighted>
2.2518

> <Gold.Chemscore.Rot.Weighted>
12.5515

> <Gold.Chemscore.Internal.Correction.Weighted>
   9.000000E+99

> <Gold.Protein.RotatedTorsions>
[ 6907 6896 6895 6894 ] final   60.85 input  -60.11 | X-H torsion
[ 7974 7965 7964 7962 ] final  -66.87 input  175.53 | X-H torsion
[ 8008 7997 7996 7995 ] final -179.42 input   59.86 | X-H torsion
[ 10167 10162 10161 10158 ] final   97.67 input  -65.29 | X-H torsion
[ 10718 10713 10712 10709 ] final  118.12 input   66.30 | X-H torsion
[ 10763 10752 10751 10750 ] final   12.74 input  -60.55 | X-H torsion
[ 11005 11000 10999 10996 ] final -138.21 input  -57.11 | X-H torsion

> <Gold.Protein.ActiveResidues>
 VAL166  LYS551  ARG553  GLY616  TRP617  ASP618  TYR619  PRO620  LYS621  CYS622 
 ASP623  PHE694  ASN695  SER759  ASP760  ASP761  ALA762  ILE779  LEU786  VAL792 
 PHE793  MET794  SER795  GLU796  ALA797  LYS798  CYS799  TRP800  GLU811  SER814 

> <Gold.Protein.RotatedAtoms>
  152.4039  134.6240  160.0058 H   0  0  0  0  0  0  0  0  0  0  0  0  # atno 6907 bound_to 6896
  151.6438  133.3319  159.3144 H   0  0  0  0  0  0  0  0  0  0  0  0  # atno 6908 bound_to 6896
  150.7936  134.7020  159.6600 H   0  0  0  0  0  0  0  0  0  0  0  0  # atno 6909 bound_to 6896
  145.7363  140.8974  143.0553 H   0  0  0  0  0  0  0  0  0  0  0  0  # atno 7974 bound_to 7965
  156.0302  140.1280  157.0266 H   0  0  0  0  0  0  0  0  0  0  0  0  # atno 8008 bound_to 7997
  154.4347  140.1051  156.6159 H   0  0  0  0  0  0  0  0  0  0  0  0  # atno 8009 bound_to 7997
  155.5817  140.3468  155.4544 H   0  0  0  0  0  0  0  0  0  0  0  0  # atno 8010 bound_to 7997
  139.7779  144.6899  151.0063 H   0  0  0  0  0  0  0  0  0  0  0  0  # atno 10167 bound_to 10162
  157.6051  131.1044  150.7712 H   0  0  0  0  0  0  0  0  0  0  0  0  # atno 10718 bound_to 10713
  153.1791  135.6825  153.8502 H   0  0  0  0  0  0  0  0  0  0  0  0  # atno 10763 bound_to 10752
  153.7840  135.3178  155.3371 H   0  0  0  0  0  0  0  0  0  0  0  0  # atno 10764 bound_to 10752
  154.8048  135.4755  154.0459 H   0  0  0  0  0  0  0  0  0  0  0  0  # atno 10765 bound_to 10752
  140.8637  134.2137  157.4692 H   0  0  0  0  0  0  0  0  0  0  0  0  # atno 11005 bound_to 11000
  144.6881  139.9399  143.7475 LP  0  0  0  0  0  0  0  0  0  0  0  0  # atno 17320 bound_to 7965
  146.0490  139.3493  143.0651 LP  0  0  0  0  0  0  0  0  0  0  0  0  # atno 17321 bound_to 7965
  140.7817  143.4515  151.0406 LP  0  0  0  0  0  0  0  0  0  0  0  0  # atno 17342 bound_to 10162
  139.8197  143.7838  152.3176 LP  0  0  0  0  0  0  0  0  0  0  0  0  # atno 17343 bound_to 10162
  156.8102  130.4950  149.5357 LP  0  0  0  0  0  0  0  0  0  0  0  0  # atno 17370 bound_to 10713
  156.1135  130.6058  151.0084 LP  0  0  0  0  0  0  0  0  0  0  0  0  # atno 17371 bound_to 10713
  139.8708  134.9742  156.4836 LP  0  0  0  0  0  0  0  0  0  0  0  0  # atno 17394 bound_to 11000
  140.8653  133.8029  155.9308 LP  0  0  0  0  0  0  0  0  0  0  0  0  # atno 17395 bound_to 11000

$$$$
