AV-unprocessed.smi:2547|AV-procd|sdf|10002|dock2
  -GOLD-   2272014 53D 1   1.00000     0.00000
 Structure written by MMmdl.
 44 45  0  0  0  0  0  0  0  0  2 V2000
  148.4873  135.5161  155.1924 C   0  0  0  0  0  0  0  0  0  0  0  0
  149.1221  136.7109  154.5963 N   0  3  2  0  0  0  0  0  0  0  0  0
  150.4978  136.9337  155.1065 C   0  0  0  0  0  0  0  0  0  0  0  0
  151.1791  138.1052  154.3754 C   0  0  0  0  0  0  0  0  0  0  0  0
  150.3457  139.3972  154.4507 C   0  0  2  0  0  0  0  0  0  0  0  0
  150.3797  139.9505  155.8043 N   0  0  0  0  0  0  0  0  0  0  0  0
  151.4740  140.0464  156.5739 C   0  0  0  0  0  0  0  0  0  0  0  0
  152.5919  139.6812  156.2089 O   0  0  0  0  0  0  0  0  0  0  0  0
  151.1824  140.5879  157.7699 N   0  0  0  0  0  0  0  0  0  0  0  0
  152.0665  140.8557  158.8488 C   0  0  0  0  0  0  0  0  0  0  0  0
  153.1000  139.9128  159.0279 C   0  0  0  0  0  0  0  0  0  0  0  0
  154.0229  140.0971  160.0729 C   0  0  0  0  0  0  0  0  0  0  0  0
  153.8898  141.2183  160.9111 C   0  0  0  0  0  0  0  0  0  0  0  0
  152.8302  142.1272  160.6765 C   0  0  0  0  0  0  0  0  0  0  0  0
  152.6436  143.2718  161.4845 N   0  0  0  0  0  0  0  0  0  0  0  0
  152.0493  144.4747  160.9095 C   0  0  0  0  0  0  0  0  0  0  0  0
  153.1498  143.2937  162.8511 C   0  0  0  0  0  0  0  0  0  0  0  0
  151.9502  141.9311  159.6646 N   0  0  0  0  0  0  0  0  0  0  0  0
  148.9037  139.1159  153.9807 C   0  0  0  0  0  0  0  0  0  0  0  0
  148.2768  137.9237  154.7254 C   0  0  0  0  0  0  0  0  0  0  0  0
  148.3556  135.6382  156.2685 H   0  0  0  0  0  0  0  0  0  0  0  0
  149.0980  134.6293  155.0205 H   0  0  0  0  0  0  0  0  0  0  0  0
  147.5088  135.3364  154.7456 H   0  0  0  0  0  0  0  0  0  0  0  0
  150.4628  137.1251  156.1801 H   0  0  0  0  0  0  0  0  0  0  0  0
  151.0893  136.0279  154.9670 H   0  0  0  0  0  0  0  0  0  0  0  0
  152.1768  138.2735  154.7827 H   0  0  0  0  0  0  0  0  0  0  0  0
  151.3224  137.8343  153.3283 H   0  0  0  0  0  0  0  0  0  0  0  0
  150.7980  140.1290  153.7785 H   0  0  0  0  0  0  0  0  0  0  0  0
  149.5029  140.2707  156.1887 H   0  0  0  0  0  0  0  0  0  0  0  0
  150.2179  140.8379  157.9289 H   0  0  0  0  0  0  0  0  0  0  0  0
  153.1892  139.0564  158.3755 H   0  0  0  0  0  0  0  0  0  0  0  0
  154.8222  139.3879  160.2297 H   0  0  0  0  0  0  0  0  0  0  0  0
  154.5984  141.3569  161.7134 H   0  0  0  0  0  0  0  0  0  0  0  0
  152.6783  144.8675  160.1101 H   0  0  0  0  0  0  0  0  0  0  0  0
  151.9313  145.2579  161.6583 H   0  0  0  0  0  0  0  0  0  0  0  0
  151.0627  144.2579  160.4987 H   0  0  0  0  0  0  0  0  0  0  0  0
  154.2253  143.1149  162.8651 H   0  0  0  0  0  0  0  0  0  0  0  0
  152.6596  142.5288  163.4539 H   0  0  0  0  0  0  0  0  0  0  0  0
  152.9673  144.2577  163.3263 H   0  0  0  0  0  0  0  0  0  0  0  0
  148.2787  140.0018  154.0993 H   0  0  0  0  0  0  0  0  0  0  0  0
  148.9141  138.8997  152.9116 H   0  0  0  0  0  0  0  0  0  0  0  0
  147.2860  137.7228  154.3162 H   0  0  0  0  0  0  0  0  0  0  0  0
  148.1392  138.1654  155.7806 H   0  0  0  0  0  0  0  0  0  0  0  0
  149.2084  136.5250  153.6072 H   0  0  0  0  0  0  0  0  0  0  0  0
  1  2  1  0  0  0  0
  1 21  1  0  0  0  0
  1 22  1  0  0  0  0
  1 23  1  0  0  0  0
  2 20  1  0  0  0  0
  2  3  1  0  0  0  0
  2 44  1  0  0  0  0
  3  4  1  0  0  0  0
  3 24  1  0  0  0  0
  3 25  1  0  0  0  0
  4  5  1  0  0  0  0
  4 26  1  0  0  0  0
  4 27  1  0  0  0  0
  5  6  1  0  0  0  0
  5 19  1  0  0  0  0
  5 28  1  0  0  0  0
  6  7  1  0  0  0  0
  6 29  1  0  0  0  0
  7  8  2  0  0  0  0
  7  9  1  0  0  0  0
  9 10  1  0  0  0  0
  9 30  1  0  0  0  0
 10 18  1  0  0  0  0
 10 11  2  0  0  0  0
 11 12  1  0  0  0  0
 11 31  1  0  0  0  0
 12 13  2  0  0  0  0
 12 32  1  0  0  0  0
 13 14  1  0  0  0  0
 13 33  1  0  0  0  0
 14 15  1  0  0  0  0
 14 18  2  0  0  0  0
 15 16  1  0  0  0  0
 15 17  1  0  0  0  0
 16 34  1  0  0  0  0
 16 35  1  0  0  0  0
 16 36  1  0  0  0  0
 17 37  1  0  0  0  0
 17 38  1  0  0  0  0
 17 39  1  0  0  0  0
 19 20  1  0  0  0  0
 19 40  1  0  0  0  0
 19 41  1  0  0  0  0
 20 42  1  0  0  0  0
 20 43  1  0  0  0  0
M  CHG  1   2   1
M  END
> <s_m_source_file>
AV-unprocessed.smi

> <i_m_source_file_index>
2547

> <i_lp_mmshare_version>
43012

> <i_f3d_flags>
0

> <s_epik_input>
W0NIM11OMVtDSDJdW0NIMl1bQ0hdKFtDSDJdW0NIMl0xKVtOSF1DKD1PKVtOSF1jMltjSF1bY0hdW2NIXWMobjIpTihbQ0gzXSlbQ0gzXQ==

> <s_epik_cmdline>
J2VwaWtfcHl0aG9uJywgJy1waCcsICc3LjAnLCAnLXRuJywgJzgnLCAnLW1hJywgJzIwMCcsICctbWV0YWxfYmluZGluZycsICctaW1hZScsICc8aW5maWxlLm1hZT4nLCAnLW9tYWUnLCAnPG91dGZpbGUubWFlPic=

> <r_lp_tautomer_probability>
1

> <r_epik_Ionization_Penalty>
0.0212039

> <r_epik_Ionization_Penalty_Charging>
0.00366825

> <r_epik_Ionization_Penalty_Neutral>
0.0175357

> <r_epik_State_Penalty>
0.0137702

> <r_epik_Charging_Adjusted_Penalty>
0.0174385

> <i_epik_Tot_Q>
1

> <i_epik_Tot_abs_Q>
1

> <r_epik_Metal_State_Penalty>
0.0148742

> <b_epik_Metal_Only>
0

> <s_lp_Force_Field>
OPLS_2005

> <r_lp_Energy>
18.1173

> <b_lp_Chiralities_Consistent>
1

> <s_lp_Variant>
AV-unprocessed.smi:2547-2

> <Gold.Version>
5.8.1

> <Gold.Id.Protein>
6NUR|6NUR_protein|mol2

> <Gold.PLP.Fitness>
49.3510

> <Gold.PLP.PLP>
-41.8741

> <Gold.PLP.part.hbond>
-2.0000

> <Gold.PLP.part.metal>
0.0000

> <Gold.PLP.part.buried>
-4.9732

> <Gold.PLP.part.nonpolar>
-34.7970

> <Gold.PLP.part.repulsive>
0.1475

> <Gold.PLP.ligand.clash>
0.0000

> <Gold.PLP.ligand.torsion>
0.7714

> <Gold.PLP.Chemscore.Hbond>
3.0000

> <Gold.PLP.Chemscore.CHOScore>
0.0000

> <Gold.PLP.Chemscore.Metal>
0.0000

> <Gold.Chemscore.Hbonds>
donor molecule, donor type, donor heavy atom, donor atom, acceptor molecule, acceptor atom, score
      L1  H     2    44       P1  7948  2.00
      P1  H  7997  8008       L1     8  1.00

> <Gold.PLP.Chemscore.Internal.Correction>
0.0197

> <Gold.Rescore>
     Score         DG    S(hbond)    S(metal)    S(lipo)     H(rot)  DE(clash)    DE(int)     intcor
     15.90     -19.21       1.99        0.00      82.49       1.00       0.08       3.23       ----

> <Gold.Chemscore.Fitness>
15.8982

> <Gold.Chemscore.DG>
-19.2105

> <Gold.Chemscore.ZeroCoef>
-5.4800

> <Gold.Chemscore.Hbond>
1.9877

> <Gold.Chemscore.Metal>
0.0000

> <Gold.Chemscore.Lipo>
82.4934

> <Gold.Chemscore.Internal_Hbond>
0.0000

> <Gold.Chemscore.DEClash>
0.0840

> <Gold.Chemscore.DEInternal>
3.2284

> <Gold.Chemscore.Rot>
1.0000

> <Gold.Chemscore.Internal.Correction>
   9.000000E+99

> <Gold.Chemscore.Hbonds>
donor molecule, donor type, donor heavy atom, donor atom, acceptor molecule, acceptor atom, score
      L1  H     2    44       P1  7948  0.97
      P1  H  7997  8008       L1     8  0.99

> <Gold.Chemscore.Hbond.Weighted>
-6.6388

> <Gold.Chemscore.Metal.Weighted>
-0.0000

> <Gold.Chemscore.Lipo.Weighted>
-9.6517

> <Gold.Chemscore.Internal_Hbond.Weighted>
0.0000

> <Gold.Chemscore.DEClash.Weighted>
0.0840

> <Gold.Chemscore.DEInternal.Weighted>
3.2284

> <Gold.Chemscore.Rot.Weighted>
2.5600

> <Gold.Chemscore.Internal.Correction.Weighted>
   9.000000E+99

> <Gold.Protein.RotatedTorsions>
[ 6907 6896 6895 6894 ] final  149.47 input  -60.11 | X-H torsion
[ 7974 7965 7964 7962 ] final   88.73 input  175.53 | X-H torsion
[ 8008 7997 7996 7995 ] final  -28.64 input   59.86 | X-H torsion
[ 10167 10162 10161 10158 ] final   11.84 input  -65.29 | X-H torsion
[ 10718 10713 10712 10709 ] final  121.30 input   66.30 | X-H torsion
[ 10763 10752 10751 10750 ] final  -22.99 input  -60.55 | X-H torsion
[ 11005 11000 10999 10996 ] final   70.52 input  -57.11 | X-H torsion

> <Gold.Protein.ActiveResidues>
 VAL166  LYS551  ARG553  GLY616  TRP617  ASP618  TYR619  PRO620  LYS621  CYS622 
 ASP623  PHE694  ASN695  SER759  ASP760  ASP761  ALA762  ILE779  LEU786  VAL792 
 PHE793  MET794  SER795  GLU796  ALA797  LYS798  CYS799  TRP800  GLU811  SER814 

> <Gold.Protein.RotatedAtoms>
  152.1276  133.4389  159.4705 H   0  0  0  0  0  0  0  0  0  0  0  0  # atno 6907 bound_to 6896
  150.6876  134.2459  159.4500 H   0  0  0  0  0  0  0  0  0  0  0  0  # atno 6908 bound_to 6896
  152.0341  134.9750  160.0623 H   0  0  0  0  0  0  0  0  0  0  0  0  # atno 6909 bound_to 6896
  145.5417  139.2289  143.2562 H   0  0  0  0  0  0  0  0  0  0  0  0  # atno 7974 bound_to 7965
  154.4324  140.1840  156.1121 H   0  0  0  0  0  0  0  0  0  0  0  0  # atno 8008 bound_to 7997
  156.0209  140.3341  155.7013 H   0  0  0  0  0  0  0  0  0  0  0  0  # atno 8009 bound_to 7997
  155.5977  140.0637  157.2732 H   0  0  0  0  0  0  0  0  0  0  0  0  # atno 8010 bound_to 7997
  140.6106  143.8415  150.7061 H   0  0  0  0  0  0  0  0  0  0  0  0  # atno 10167 bound_to 10162
  157.5827  131.1073  150.8155 H   0  0  0  0  0  0  0  0  0  0  0  0  # atno 10718 bound_to 10713
  153.6607  135.6976  153.5178 H   0  0  0  0  0  0  0  0  0  0  0  0  # atno 10763 bound_to 10752
  153.2634  135.4237  155.0915 H   0  0  0  0  0  0  0  0  0  0  0  0  # atno 10764 bound_to 10752
  154.8452  135.3560  154.6152 H   0  0  0  0  0  0  0  0  0  0  0  0  # atno 10765 bound_to 10752
  139.9593  134.7089  156.0681 H   0  0  0  0  0  0  0  0  0  0  0  0  # atno 11005 bound_to 11000
  146.1976  140.6237  142.9117 LP  0  0  0  0  0  0  0  0  0  0  0  0  # atno 17320 bound_to 7965
  144.7573  140.5339  143.6760 LP  0  0  0  0  0  0  0  0  0  0  0  0  # atno 17321 bound_to 7965
  140.1983  143.3980  152.1811 LP  0  0  0  0  0  0  0  0  0  0  0  0  # atno 17342 bound_to 10162
  139.5358  144.7208  151.4897 LP  0  0  0  0  0  0  0  0  0  0  0  0  # atno 17343 bound_to 10162
  156.8597  130.5109  149.5305 LP  0  0  0  0  0  0  0  0  0  0  0  0  # atno 17370 bound_to 10713
  156.0874  130.5869  150.9673 LP  0  0  0  0  0  0  0  0  0  0  0  0  # atno 17371 bound_to 10713
  141.1269  133.6597  156.3359 LP  0  0  0  0  0  0  0  0  0  0  0  0  # atno 17394 bound_to 11000
  140.5536  134.6003  157.5414 LP  0  0  0  0  0  0  0  0  0  0  0  0  # atno 17395 bound_to 11000

$$$$
