AV-unprocessed.smi:1884|AV-procd|sdf|7648|dock10
  -GOLD-   22720 9373D 1   1.00000     0.00000
 Structure written by MMmdl.
 41 43  0  0  0  0  0  0  0  0  2 V2000
  146.8113  142.0197  153.5862 C   0  0  0  0  0  0  0  0  0  0  0  0
  148.0448  141.5407  154.2750 C   0  0  0  0  0  0  0  0  0  0  0  0
  148.7657  142.2315  155.2023 N   0  3  0  0  0  0  0  0  0  0  0  0
  149.8526  141.4638  155.6230 C   0  0  0  0  0  0  0  0  0  0  0  0
  150.8577  141.7375  156.5456 C   0  0  0  0  0  0  0  0  0  0  0  0
  151.8229  140.7294  156.7477 C   0  0  0  0  0  0  0  0  0  0  0  0
  151.7657  139.5072  156.0470 C   0  0  0  0  0  0  0  0  0  0  0  0
  150.7424  139.2413  155.1132 C   0  0  0  0  0  0  0  0  0  0  0  0
  149.7923  140.2439  154.9176 C   0  0  0  0  0  0  0  0  0  0  0  0
  148.6613  140.3376  154.0967 N   0  0  0  0  0  0  0  0  0  0  0  0
  148.3046  139.2197  153.2086 C   0  0  0  0  0  0  0  0  0  0  0  0
  147.0364  138.4729  153.6676 C   0  0  2  0  0  0  0  0  0  0  0  0
  147.3572  137.1396  154.0089 O   0  0  0  0  0  0  0  0  0  0  0  0
  145.9443  138.4507  152.5885 C   0  0  0  0  0  0  0  0  0  0  0  0
  144.9069  137.5714  153.0028 O   0  0  0  0  0  0  0  0  0  0  0  0
  144.7100  136.4107  152.2864 C   0  0  0  0  0  0  0  0  0  0  0  0
  143.6740  135.5587  152.7211 C   0  0  0  0  0  0  0  0  0  0  0  0
  143.4015  134.3517  152.0487 C   0  0  0  0  0  0  0  0  0  0  0  0
  144.1683  133.9818  150.9262 C   0  0  0  0  0  0  0  0  0  0  0  0
  143.8893  132.7377  150.2287 C   0  0  0  0  0  0  0  0  0  0  0  0
  143.6675  131.7472  149.6733 N   0  0  0  0  0  0  0  0  0  0  0  0
  145.2067  134.8238  150.4824 C   0  0  0  0  0  0  0  0  0  0  0  0
  145.4776  136.0308  151.1564 C   0  0  0  0  0  0  0  0  0  0  0  0
  146.5326  143.0113  153.9438 H   0  0  0  0  0  0  0  0  0  0  0  0
  145.9834  141.3370  153.7775 H   0  0  0  0  0  0  0  0  0  0  0  0
  146.9779  142.0732  152.5103 H   0  0  0  0  0  0  0  0  0  0  0  0
  150.9027  142.6725  157.0848 H   0  0  0  0  0  0  0  0  0  0  0  0
  152.6225  140.8960  157.4552 H   0  0  0  0  0  0  0  0  0  0  0  0
  152.5218  138.7573  156.2298 H   0  0  0  0  0  0  0  0  0  0  0  0
  150.7069  138.2991  154.5867 H   0  0  0  0  0  0  0  0  0  0  0  0
  148.1505  139.6387  152.2136 H   0  0  0  0  0  0  0  0  0  0  0  0
  149.1536  138.5418  153.1195 H   0  0  0  0  0  0  0  0  0  0  0  0
  146.6354  138.9491  154.5630 H   0  0  0  0  0  0  0  0  0  0  0  0
  147.6844  136.7045  153.2366 H   0  0  0  0  0  0  0  0  0  0  0  0
  145.5570  139.4580  152.4246 H   0  0  0  0  0  0  0  0  0  0  0  0
  146.3671  138.0923  151.6480 H   0  0  0  0  0  0  0  0  0  0  0  0
  143.0800  135.8339  153.5804 H   0  0  0  0  0  0  0  0  0  0  0  0
  142.6021  133.7149  152.3998 H   0  0  0  0  0  0  0  0  0  0  0  0
  145.8018  134.5499  149.6231 H   0  0  0  0  0  0  0  0  0  0  0  0
  146.2817  136.6478  150.7855 H   0  0  0  0  0  0  0  0  0  0  0  0
  148.5291  143.1620  155.5222 H   0  0  0  0  0  0  0  0  0  0  0  0
  1  2  1  0  0  0  0
  1 24  1  0  0  0  0
  1 25  1  0  0  0  0
  1 26  1  0  0  0  0
  2 10  1  0  0  0  0
  2  3  2  0  0  0  0
  3  4  1  0  0  0  0
  3 41  1  0  0  0  0
  4  9  2  0  0  0  0
  4  5  1  0  0  0  0
  5  6  2  0  0  0  0
  5 27  1  0  0  0  0
  6  7  1  0  0  0  0
  6 28  1  0  0  0  0
  7  8  2  0  0  0  0
  7 29  1  0  0  0  0
  8  9  1  0  0  0  0
  8 30  1  0  0  0  0
  9 10  1  0  0  0  0
 10 11  1  0  0  0  0
 11 12  1  0  0  0  0
 11 31  1  0  0  0  0
 11 32  1  0  0  0  0
 12 13  1  0  0  0  0
 12 14  1  0  0  0  0
 12 33  1  0  0  0  0
 13 34  1  0  0  0  0
 14 15  1  0  0  0  0
 14 35  1  0  0  0  0
 14 36  1  0  0  0  0
 15 16  1  0  0  0  0
 16 23  1  0  0  0  0
 16 17  2  0  0  0  0
 17 18  1  0  0  0  0
 17 37  1  0  0  0  0
 18 19  2  0  0  0  0
 18 38  1  0  0  0  0
 19 20  1  0  0  0  0
 19 22  1  0  0  0  0
 20 21  3  0  0  0  0
 22 23  2  0  0  0  0
 22 39  1  0  0  0  0
 23 40  1  0  0  0  0
M  CHG  1   3   1
M  END
> <s_m_source_file>
AV-unprocessed.smi

> <i_m_source_file_index>
1884

> <i_lp_mmshare_version>
43012

> <i_f3d_flags>
0

> <s_epik_input>
W2NIXTFbY0hdW2NIXVtjSF1jKGMxMiluKGMobjIpW0NIM10pW0NIMl1bQ0BIXShbT0hdKVtDSDJdT2MzW2NIXVtjSF1jKEMjTilbY0hdW2NIXTM=

> <s_epik_cmdline>
J2VwaWtfcHl0aG9uJywgJy1waCcsICc3LjAnLCAnLXRuJywgJzgnLCAnLW1hJywgJzIwMCcsICctbWV0YWxfYmluZGluZycsICctaW1hZScsICc8aW5maWxlLm1hZT4nLCAnLW9tYWUnLCAnPG91dGZpbGUubWFlPic=

> <r_epik_Ionization_Penalty>
1.04791

> <r_epik_Ionization_Penalty_Charging>
1.04791

> <r_epik_Ionization_Penalty_Neutral>
2.3993e-06

> <r_epik_State_Penalty>
1.10051

> <r_epik_Charging_Adjusted_Penalty>
2.14841

> <i_epik_Tot_Q>
1

> <i_epik_Tot_abs_Q>
1

> <r_epik_Metal_State_Penalty>
5.09283

> <b_epik_Metal_Only>
0

> <s_lp_Force_Field>
OPLS_2005

> <r_lp_Energy>
18.2912

> <b_lp_Chiralities_Consistent>
1

> <s_lp_Variant>
AV-unprocessed.smi:1884-3

> <Gold.Version>
5.8.1

> <Gold.Id.Protein>
6NUR|6NUR_protein|mol2

> <Gold.PLP.Fitness>
51.9033

> <Gold.PLP.PLP>
-42.6381

> <Gold.PLP.part.hbond>
-3.0000

> <Gold.PLP.part.metal>
0.0000

> <Gold.PLP.part.buried>
-0.7034

> <Gold.PLP.part.nonpolar>
-40.6362

> <Gold.PLP.part.repulsive>
0.5619

> <Gold.PLP.ligand.clash>
0.0000

> <Gold.PLP.ligand.torsion>
1.2678

> <Gold.PLP.Chemscore.Hbond>
3.9120

> <Gold.PLP.Chemscore.CHOScore>
0.0000

> <Gold.PLP.Chemscore.Metal>
0.0000

> <Gold.Chemscore.Hbonds>
donor molecule, donor type, donor heavy atom, donor atom, acceptor molecule, acceptor atom, score
      L1  H     3    41       P1  8028  2.00
      L1  H    13    34       P1  7948  1.00
      P1  H 10785 10796       L1    21  0.91

> <Gold.PLP.Chemscore.Internal.Correction>
0.0648

> <Gold.Rescore>
     Score         DG    S(hbond)    S(metal)    S(lipo)     H(rot)  DE(clash)    DE(int)     intcor
     17.29     -20.22       2.89        0.00      95.83       2.39       1.62       1.31       ----

> <Gold.Chemscore.Fitness>
17.2946

> <Gold.Chemscore.DG>
-20.2212

> <Gold.Chemscore.ZeroCoef>
-5.4800

> <Gold.Chemscore.Hbond>
2.8897

> <Gold.Chemscore.Metal>
0.0000

> <Gold.Chemscore.Lipo>
95.8317

> <Gold.Chemscore.Internal_Hbond>
0.0000

> <Gold.Chemscore.DEClash>
1.6171

> <Gold.Chemscore.DEInternal>
1.3096

> <Gold.Chemscore.Rot>
2.3917

> <Gold.Chemscore.Internal.Correction>
   9.000000E+99

> <Gold.Chemscore.Hbonds>
donor molecule, donor type, donor heavy atom, donor atom, acceptor molecule, acceptor atom, score
      L1  H     3    41       P1  8028  0.93
      L1  H    13    34       P1  7948  0.98
      P1  H 10785 10796       L1    21  0.89

> <Gold.Chemscore.Hbond.Weighted>
-9.6517

> <Gold.Chemscore.Metal.Weighted>
-0.0000

> <Gold.Chemscore.Lipo.Weighted>
-11.2123

> <Gold.Chemscore.Internal_Hbond.Weighted>
0.0000

> <Gold.Chemscore.DEClash.Weighted>
1.6171

> <Gold.Chemscore.DEInternal.Weighted>
1.3096

> <Gold.Chemscore.Rot.Weighted>
6.1229

> <Gold.Chemscore.Internal.Correction.Weighted>
   9.000000E+99

> <Gold.Protein.RotatedTorsions>
[ 6907 6896 6895 6894 ] final -139.98 input  -60.11 | X-H torsion
[ 7974 7965 7964 7962 ] final   -7.59 input  175.53 | X-H torsion
[ 8008 7997 7996 7995 ] final  -10.37 input   59.86 | X-H torsion
[ 10167 10162 10161 10158 ] final  105.11 input  -65.29 | X-H torsion
[ 10718 10713 10712 10709 ] final   11.83 input   66.30 | X-H torsion
[ 10763 10752 10751 10750 ] final   89.66 input  -60.55 | X-H torsion
[ 11005 11000 10999 10996 ] final  127.83 input  -57.11 | X-H torsion

> <Gold.Protein.ActiveResidues>
 VAL166  LYS551  ARG553  GLY616  TRP617  ASP618  TYR619  PRO620  LYS621  CYS622 
 ASP623  PHE694  ASN695  SER759  ASP760  ASP761  ALA762  ILE779  LEU786  VAL792 
 PHE793  MET794  SER795  GLU796  ALA797  LYS798  CYS799  TRP800  GLU811  SER814 

> <Gold.Protein.RotatedAtoms>
  151.0548  133.5593  159.2638 H   0  0  0  0  0  0  0  0  0  0  0  0  # atno 6907 bound_to 6896
  151.2591  135.0647  159.9101 H   0  0  0  0  0  0  0  0  0  0  0  0  # atno 6908 bound_to 6896
  152.5388  134.0297  159.8073 H   0  0  0  0  0  0  0  0  0  0  0  0  # atno 6909 bound_to 6896
  146.2303  140.2342  142.8341 H   0  0  0  0  0  0  0  0  0  0  0  0  # atno 7974 bound_to 7965
  154.5561  140.2330  155.8408 H   0  0  0  0  0  0  0  0  0  0  0  0  # atno 8008 bound_to 7997
  156.1989  140.3058  155.9445 H   0  0  0  0  0  0  0  0  0  0  0  0  # atno 8009 bound_to 7997
  155.2978  140.0429  157.3018 H   0  0  0  0  0  0  0  0  0  0  0  0  # atno 8010 bound_to 7997
  139.7120  144.7076  151.1012 H   0  0  0  0  0  0  0  0  0  0  0  0  # atno 10167 bound_to 10162
  157.0013  130.6080  149.5696 H   0  0  0  0  0  0  0  0  0  0  0  0  # atno 10718 bound_to 10713
  153.1894  135.4462  155.0130 H   0  0  0  0  0  0  0  0  0  0  0  0  # atno 10763 bound_to 10752
  154.8081  135.3282  154.7381 H   0  0  0  0  0  0  0  0  0  0  0  0  # atno 10764 bound_to 10752
  153.7837  135.6975  153.4939 H   0  0  0  0  0  0  0  0  0  0  0  0  # atno 10765 bound_to 10752
  139.9528  134.9619  156.8912 H   0  0  0  0  0  0  0  0  0  0  0  0  # atno 11005 bound_to 11000
  144.9534  140.8202  143.5558 LP  0  0  0  0  0  0  0  0  0  0  0  0  # atno 17320 bound_to 7965
  145.2305  139.2117  143.5045 LP  0  0  0  0  0  0  0  0  0  0  0  0  # atno 17321 bound_to 7965
  140.7735  143.5280  150.9457 LP  0  0  0  0  0  0  0  0  0  0  0  0  # atno 17342 bound_to 10162
  139.8965  143.6888  152.3138 LP  0  0  0  0  0  0  0  0  0  0  0  0  # atno 17343 bound_to 10162
  156.0170  130.5264  150.8164 LP  0  0  0  0  0  0  0  0  0  0  0  0  # atno 17370 bound_to 10713
  157.5388  131.0940  150.9855 LP  0  0  0  0  0  0  0  0  0  0  0  0  # atno 17371 bound_to 10713
  140.5679  134.0472  155.7420 LP  0  0  0  0  0  0  0  0  0  0  0  0  # atno 17394 bound_to 11000
  141.1194  133.9486  157.2759 LP  0  0  0  0  0  0  0  0  0  0  0  0  # atno 17395 bound_to 11000

$$$$
