AV-unprocessed.smi:1328|AV-procd|sdf|5479|dock1
  -GOLD-   22720 5 53D 1   1.00000     0.00000
 Structure written by MMmdl.
 38 39  0  0  0  0  0  0  0  0  1 V2000
  154.8233  137.8970  159.1384 C   0  0  0  0  0  0  0  0  0  0  0  0
  153.7911  137.0506  158.4502 C   0  0  0  0  0  0  0  0  0  0  0  0
  154.1691  135.9553  157.8128 N   0  0  0  0  0  0  0  0  0  0  0  0
  153.0015  135.3974  157.2837 O   0  0  0  0  0  0  0  0  0  0  0  0
  151.9531  136.1867  157.6299 C   0  0  0  0  0  0  0  0  0  0  0  0
  150.6085  135.7593  157.1469 C   0  0  0  0  0  0  0  0  0  0  0  0
  152.3828  137.2527  158.3721 C   0  0  0  0  0  0  0  0  0  0  0  0
  151.5703  138.3769  158.9613 C   0  0  0  0  0  0  0  0  0  0  0  0
  152.0740  139.7110  158.4123 C   0  0  0  0  0  0  0  0  0  0  0  0
  152.0758  139.9146  157.1986 O   0  0  0  0  0  0  0  0  0  0  0  0
  152.5053  140.6021  159.3191 N   0  0  0  0  0  0  0  0  0  0  0  0
  153.0857  141.9120  159.0313 C   0  0  2  0  0  0  0  0  0  0  0  0
  154.3768  142.0618  159.8494 C   0  0  0  0  0  0  0  0  0  0  0  0
  152.0756  143.0365  159.3416 C   0  0  2  0  0  0  0  0  0  0  0  0
  152.3237  144.3535  158.6023 C   0  0  0  0  0  0  0  0  0  0  0  0
  151.6398  145.3483  159.5109 C   0  0  0  0  0  0  0  0  0  0  0  0
  151.9884  144.7960  160.8890 C   0  0  0  0  0  0  0  0  0  0  0  0
  152.1259  143.3870  160.7237 O   0  0  0  0  0  0  0  0  0  0  0  0
  154.9050  137.6295  160.1918 H   0  0  0  0  0  0  0  0  0  0  0  0
  154.5667  138.9548  159.0829 H   0  0  0  0  0  0  0  0  0  0  0  0
  155.8079  137.7754  158.6856 H   0  0  0  0  0  0  0  0  0  0  0  0
  150.4448  136.0929  156.1222 H   0  0  0  0  0  0  0  0  0  0  0  0
  149.8179  136.1796  157.7686 H   0  0  0  0  0  0  0  0  0  0  0  0
  150.5132  134.6737  157.1699 H   0  0  0  0  0  0  0  0  0  0  0  0
  150.5121  138.2704  158.7201 H   0  0  0  0  0  0  0  0  0  0  0  0
  151.6297  138.3883  160.0503 H   0  0  0  0  0  0  0  0  0  0  0  0
  152.4570  140.3374  160.2921 H   0  0  0  0  0  0  0  0  0  0  0  0
  153.3568  141.9720  157.9757 H   0  0  0  0  0  0  0  0  0  0  0  0
  154.8702  143.0111  159.6386 H   0  0  0  0  0  0  0  0  0  0  0  0
  155.0847  141.2664  159.6142 H   0  0  0  0  0  0  0  0  0  0  0  0
  154.1754  142.0227  160.9207 H   0  0  0  0  0  0  0  0  0  0  0  0
  151.0607  142.6980  159.1257 H   0  0  0  0  0  0  0  0  0  0  0  0
  153.3915  144.5718  158.5506 H   0  0  0  0  0  0  0  0  0  0  0  0
  151.9237  144.3562  157.5880 H   0  0  0  0  0  0  0  0  0  0  0  0
  151.9804  146.3733  159.3630 H   0  0  0  0  0  0  0  0  0  0  0  0
  150.5607  145.3187  159.3543 H   0  0  0  0  0  0  0  0  0  0  0  0
  152.9433  145.1979  161.2293 H   0  0  0  0  0  0  0  0  0  0  0  0
  151.2330  145.0382  161.6369 H   0  0  0  0  0  0  0  0  0  0  0  0
  1  2  1  0  0  0  0
  1 19  1  0  0  0  0
  1 20  1  0  0  0  0
  1 21  1  0  0  0  0
  2  7  1  0  0  0  0
  2  3  2  0  0  0  0
  3  4  1  0  0  0  0
  4  5  1  0  0  0  0
  5  6  1  0  0  0  0
  5  7  2  0  0  0  0
  6 22  1  0  0  0  0
  6 23  1  0  0  0  0
  6 24  1  0  0  0  0
  7  8  1  0  0  0  0
  8  9  1  0  0  0  0
  8 25  1  0  0  0  0
  8 26  1  0  0  0  0
  9 10  2  0  0  0  0
  9 11  1  0  0  0  0
 11 12  1  0  0  0  0
 11 27  1  0  0  0  0
 12 13  1  0  0  0  0
 12 14  1  0  0  0  0
 12 28  1  0  0  0  0
 13 29  1  0  0  0  0
 13 30  1  0  0  0  0
 13 31  1  0  0  0  0
 14 18  1  0  0  0  0
 14 15  1  0  0  0  0
 14 32  1  0  0  0  0
 15 16  1  0  0  0  0
 15 33  1  0  0  0  0
 15 34  1  0  0  0  0
 16 17  1  0  0  0  0
 16 35  1  0  0  0  0
 16 36  1  0  0  0  0
 17 18  1  0  0  0  0
 17 37  1  0  0  0  0
 17 38  1  0  0  0  0
M  END
> <s_m_source_file>
AV-unprocessed.smi

> <i_m_source_file_index>
1328

> <i_lp_mmshare_version>
43012

> <i_f3d_flags>
0

> <s_epik_input>
W0NIM11jMW5vYyhbQ0gzXSljMVtDSDJdQyg9TylbTkhdW0NASF0oW0NIM10pW0NAQEhdMltDSDJdW0NIMl1bQ0gyXU8y

> <s_epik_cmdline>
J2VwaWtfcHl0aG9uJywgJy1waCcsICc3LjAnLCAnLXRuJywgJzgnLCAnLW1hJywgJzIwMCcsICctbWV0YWxfYmluZGluZycsICctaW1hZScsICc8aW5maWxlLm1hZT4nLCAnLW9tYWUnLCAnPG91dGZpbGUubWFlPic=

> <r_lp_tautomer_probability>
1

> <r_epik_Ionization_Penalty>
2.66156e-08

> <r_epik_Ionization_Penalty_Charging>
0

> <r_epik_Ionization_Penalty_Neutral>
2.66156e-08

> <r_epik_State_Penalty>
-0

> <r_epik_Charging_Adjusted_Penalty>
0

> <i_epik_Tot_Q>
0

> <i_epik_Tot_abs_Q>
0

> <r_epik_Metal_State_Penalty>
-0

> <b_epik_Metal_Only>
0

> <s_lp_Force_Field>
OPLS_2005

> <r_lp_Energy>
12.1854

> <b_lp_Chiralities_Consistent>
1

> <s_lp_Variant>
AV-unprocessed.smi:1328-1

> <Gold.Version>
5.8.1

> <Gold.Id.Protein>
6NUR|6NUR_protein|mol2

> <Gold.PLP.Fitness>
40.5627

> <Gold.PLP.PLP>
-35.8317

> <Gold.PLP.part.hbond>
-2.6207

> <Gold.PLP.part.metal>
0.0000

> <Gold.PLP.part.buried>
-5.4515

> <Gold.PLP.part.nonpolar>
-27.5600

> <Gold.PLP.part.repulsive>
0.2145

> <Gold.PLP.ligand.clash>
0.0000

> <Gold.PLP.ligand.torsion>
0.6429

> <Gold.PLP.Chemscore.Hbond>
2.0000

> <Gold.PLP.Chemscore.CHOScore>
0.0000

> <Gold.PLP.Chemscore.Metal>
0.0000

> <Gold.Chemscore.Hbonds>
donor molecule, donor type, donor heavy atom, donor atom, acceptor molecule, acceptor atom, score
      P1  H  7997  8009       L1    10  0.08
      P1  H 10752 10765       L1     4  0.90

> <Gold.PLP.Chemscore.Internal.Correction>
0.0169

> <Gold.Rescore>
     Score         DG    S(hbond)    S(metal)    S(lipo)     H(rot)  DE(clash)    DE(int)     intcor
     18.08     -18.98       1.85        0.00      95.75       1.52       0.02       0.89       ----

> <Gold.Chemscore.Fitness>
18.0829

> <Gold.Chemscore.DG>
-18.9838

> <Gold.Chemscore.ZeroCoef>
-5.4800

> <Gold.Chemscore.Hbond>
1.8510

> <Gold.Chemscore.Metal>
0.0000

> <Gold.Chemscore.Lipo>
95.7458

> <Gold.Chemscore.Internal_Hbond>
0.0000

> <Gold.Chemscore.DEClash>
0.0153

> <Gold.Chemscore.DEInternal>
0.8856

> <Gold.Chemscore.Rot>
1.5159

> <Gold.Chemscore.Internal.Correction>
   9.000000E+99

> <Gold.Chemscore.Hbonds>
donor molecule, donor type, donor heavy atom, donor atom, acceptor molecule, acceptor atom, score
      P1  H  7997  8009       L1    10  0.08
      P1  H 10752 10765       L1     4  0.17

> <Gold.Chemscore.Hbond.Weighted>
-6.1823

> <Gold.Chemscore.Metal.Weighted>
-0.0000

> <Gold.Chemscore.Lipo.Weighted>
-11.2023

> <Gold.Chemscore.Internal_Hbond.Weighted>
0.0000

> <Gold.Chemscore.DEClash.Weighted>
0.0153

> <Gold.Chemscore.DEInternal.Weighted>
0.8856

> <Gold.Chemscore.Rot.Weighted>
3.8807

> <Gold.Chemscore.Internal.Correction.Weighted>
   9.000000E+99

> <Gold.Protein.RotatedTorsions>
[ 6907 6896 6895 6894 ] final   48.53 input  -60.11 | X-H torsion
[ 7974 7965 7964 7962 ] final   58.65 input  175.53 | X-H torsion
[ 8008 7997 7996 7995 ] final -166.11 input   59.86 | X-H torsion
[ 10167 10162 10161 10158 ] final  -99.60 input  -65.29 | X-H torsion
[ 10718 10713 10712 10709 ] final -157.03 input   66.30 | X-H torsion
[ 10763 10752 10751 10750 ] final -119.55 input  -60.55 | X-H torsion
[ 11005 11000 10999 10996 ] final  -25.83 input  -57.11 | X-H torsion

> <Gold.Protein.ActiveResidues>
 VAL166  LYS551  ARG553  GLY616  TRP617  ASP618  TYR619  PRO620  LYS621  CYS622 
 ASP623  PHE694  ASN695  SER759  ASP760  ASP761  ALA762  ILE779  LEU786  VAL792 
 PHE793  MET794  SER795  GLU796  ALA797  LYS798  CYS799  TRP800  GLU811  SER814 

> <Gold.Protein.RotatedAtoms>
  152.2806  134.7833  160.0397 H   0  0  0  0  0  0  0  0  0  0  0  0  # atno 6907 bound_to 6896
  151.8413  133.3419  159.3652 H   0  0  0  0  0  0  0  0  0  0  0  0  # atno 6908 bound_to 6896
  150.7188  134.5316  159.5747 H   0  0  0  0  0  0  0  0  0  0  0  0  # atno 6909 bound_to 6896
  145.9158  139.3690  143.0508 H   0  0  0  0  0  0  0  0  0  0  0  0  # atno 7974 bound_to 7965
  155.8592  140.0975  157.1625 H   0  0  0  0  0  0  0  0  0  0  0  0  # atno 8008 bound_to 7997
  154.3989  140.1368  156.4002 H   0  0  0  0  0  0  0  0  0  0  0  0  # atno 8009 bound_to 7997
  155.7876  140.3456  155.5334 H   0  0  0  0  0  0  0  0  0  0  0  0  # atno 8010 bound_to 7997
  140.2607  143.3409  152.0628 H   0  0  0  0  0  0  0  0  0  0  0  0  # atno 10167 bound_to 10162
  156.5347  130.8536  151.2728 H   0  0  0  0  0  0  0  0  0  0  0  0  # atno 10718 bound_to 10713
  154.8620  135.4234  154.2318 H   0  0  0  0  0  0  0  0  0  0  0  0  # atno 10763 bound_to 10752
  153.3301  135.6987  153.6961 H   0  0  0  0  0  0  0  0  0  0  0  0  # atno 10764 bound_to 10752
  153.5981  135.3542  155.2909 H   0  0  0  0  0  0  0  0  0  0  0  0  # atno 10765 bound_to 10752
  140.8974  133.7547  156.0499 H   0  0  0  0  0  0  0  0  0  0  0  0  # atno 11005 bound_to 11000
  145.8613  140.9473  143.0698 LP  0  0  0  0  0  0  0  0  0  0  0  0  # atno 17320 bound_to 7965
  144.6747  140.0534  143.7478 LP  0  0  0  0  0  0  0  0  0  0  0  0  # atno 17321 bound_to 7965
  139.5017  144.6720  151.6219 LP  0  0  0  0  0  0  0  0  0  0  0  0  # atno 17342 bound_to 10162
  140.5968  143.9682  150.6359 LP  0  0  0  0  0  0  0  0  0  0  0  0  # atno 17343 bound_to 10162
  157.7416  130.9872  150.2454 LP  0  0  0  0  0  0  0  0  0  0  0  0  # atno 17370 bound_to 10713
  156.3027  130.3760  149.7735 LP  0  0  0  0  0  0  0  0  0  0  0  0  # atno 17371 bound_to 10713
  140.8272  134.3220  157.5361 LP  0  0  0  0  0  0  0  0  0  0  0  0  # atno 17394 bound_to 11000
  139.8737  134.9343  156.3603 LP  0  0  0  0  0  0  0  0  0  0  0  0  # atno 17395 bound_to 11000

$$$$
