AV-unprocessed.smi:287|AV-procd|sdf|2199|dock8
  -GOLD-   2262022 13D 1   1.00000     0.00000
 Structure written by MMmdl.
 55 58  0  0  0  0  0  0  0  0  1 V2000
  151.8914  142.1754  158.1381 C   0  0  0  0  0  0  0  0  0  0  0  0
  151.1601  141.4529  157.0592 C   0  0  0  0  0  0  0  0  0  0  0  0
  149.8992  141.5474  156.5468 C   0  0  0  0  0  0  0  0  0  0  0  0
  149.7814  140.5643  155.5194 C   0  0  0  0  0  0  0  0  0  0  0  0
  148.5411  140.3005  154.6757 C   0  0  1  0  0  0  0  0  0  0  0  0
  148.1524  141.5742  153.9072 C   0  0  0  0  0  0  0  0  0  0  0  0
  148.7498  139.3135  153.6841 O   0  0  0  0  0  0  0  0  0  0  0  0
  147.3482  139.8060  155.5261 C   0  0  0  0  0  0  0  0  0  0  0  0
  146.3161  139.1572  154.7246 N   0  0  0  0  0  0  0  0  0  0  0  0
  146.1276  137.8240  154.8047 C   0  0  0  0  0  0  0  0  0  0  0  0
  146.5053  137.1268  155.9078 N   0  0  0  0  0  0  0  0  0  0  0  0
  146.3109  135.8055  155.9583 C   0  0  0  0  0  0  0  0  0  0  0  0
  145.7695  135.0059  155.0369 N   0  0  0  0  0  0  0  0  0  0  0  0
  145.3851  135.7028  153.9282 C   0  0  0  0  0  0  0  0  0  0  0  0
  145.5300  137.1052  153.7381 C   0  0  0  0  0  0  0  0  0  0  0  0
  145.0328  137.4670  152.4931 N   0  0  0  0  0  0  0  0  0  0  0  0
  144.6169  136.3403  151.9807 C   0  0  0  0  0  0  0  0  0  0  0  0
  144.7895  135.2292  152.7762 N   0  0  0  0  0  0  0  0  0  0  0  0
  144.4090  133.8199  152.4604 C   0  0  1  0  0  0  0  0  0  0  0  0
  143.9750  133.7693  151.1392 O   0  0  0  0  0  0  0  0  0  0  0  0
  144.3709  132.5304  150.5693 C   0  0  1  0  0  0  0  0  0  0  0  0
  144.3413  132.5975  149.0325 C   0  0  0  0  0  0  0  0  0  0  0  0
  143.5299  133.6729  148.6111 O   0  0  0  0  0  0  0  0  0  0  0  0
  145.7481  132.2743  151.2013 C   0  0  1  0  0  0  0  0  0  0  0  0
  146.7832  132.9151  150.4793 O   0  0  0  0  0  0  0  0  0  0  0  0
  145.6171  132.8767  152.5986 C   0  0  2  0  0  0  0  0  0  0  0  0
  145.3518  131.8481  153.5322 O   0  0  0  0  0  0  0  0  0  0  0  0
  151.0100  139.9493  155.4804 C   0  0  0  0  0  0  0  0  0  0  0  0
  151.5970  138.8531  154.6535 C   0  0  0  0  0  0  0  0  0  0  0  0
  151.8499  140.4804  156.4126 O   0  0  0  0  0  0  0  0  0  0  0  0
  143.5887  133.5891  153.1421 H   0  0  0  0  0  0  0  0  0  0  0  0
  143.6880  131.7560  150.9247 H   0  0  0  0  0  0  0  0  0  0  0  0
  145.9816  131.2088  151.2242 H   0  0  0  0  0  0  0  0  0  0  0  0
  146.5129  133.4189  152.9074 H   0  0  0  0  0  0  0  0  0  0  0  0
  151.2186  142.8292  158.6933 H   0  0  0  0  0  0  0  0  0  0  0  0
  152.6897  142.7882  157.7197 H   0  0  0  0  0  0  0  0  0  0  0  0
  152.3359  141.4722  158.8426 H   0  0  0  0  0  0  0  0  0  0  0  0
  149.1396  142.2402  156.8775 H   0  0  0  0  0  0  0  0  0  0  0  0
  147.9301  142.3956  154.5894 H   0  0  0  0  0  0  0  0  0  0  0  0
  147.2677  141.4148  153.2895 H   0  0  0  0  0  0  0  0  0  0  0  0
  148.9594  141.9028  153.2509 H   0  0  0  0  0  0  0  0  0  0  0  0
  148.8134  139.7416  152.8442 H   0  0  0  0  0  0  0  0  0  0  0  0
  147.7147  139.0665  156.2399 H   0  0  0  0  0  0  0  0  0  0  0  0
  146.9198  140.6201  156.1128 H   0  0  0  0  0  0  0  0  0  0  0  0
  145.8291  139.7500  154.0672 H   0  0  0  0  0  0  0  0  0  0  0  0
  146.6355  135.3189  156.8660 H   0  0  0  0  0  0  0  0  0  0  0  0
  144.1657  136.2891  151.0005 H   0  0  0  0  0  0  0  0  0  0  0  0
  145.3459  132.6968  148.6199 H   0  0  0  0  0  0  0  0  0  0  0  0
  143.9082  131.6845  148.6235 H   0  0  0  0  0  0  0  0  0  0  0  0
  142.7821  133.7292  149.1862 H   0  0  0  0  0  0  0  0  0  0  0  0
  147.4868  132.2987  150.3480 H   0  0  0  0  0  0  0  0  0  0  0  0
  144.6010  132.0976  154.0486 H   0  0  0  0  0  0  0  0  0  0  0  0
  151.5329  139.0933  153.5923 H   0  0  0  0  0  0  0  0  0  0  0  0
  151.0669  137.9159  154.8230 H   0  0  0  0  0  0  0  0  0  0  0  0
  152.6472  138.6924  154.8976 H   0  0  0  0  0  0  0  0  0  0  0  0
  1  2  1  0  0  0  0
  1 35  1  0  0  0  0
  1 36  1  0  0  0  0
  1 37  1  0  0  0  0
  2 30  1  0  0  0  0
  2  3  2  0  0  0  0
  3  4  1  0  0  0  0
  3 38  1  0  0  0  0
  4  5  1  0  0  0  0
  4 28  2  0  0  0  0
  5  6  1  0  0  0  0
  5  7  1  0  0  0  0
  5  8  1  0  0  0  0
  6 39  1  0  0  0  0
  6 40  1  0  0  0  0
  6 41  1  0  0  0  0
  7 42  1  0  0  0  0
  8  9  1  0  0  0  0
  8 43  1  0  0  0  0
  8 44  1  0  0  0  0
  9 10  1  0  0  0  0
  9 45  1  0  0  0  0
 10 15  1  0  0  0  0
 10 11  2  0  0  0  0
 11 12  1  0  0  0  0
 12 13  2  0  0  0  0
 12 46  1  0  0  0  0
 13 14  1  0  0  0  0
 14 18  1  0  0  0  0
 14 15  2  0  0  0  0
 15 16  1  0  0  0  0
 16 17  2  0  0  0  0
 17 18  1  0  0  0  0
 17 47  1  0  0  0  0
 18 19  1  0  0  0  0
 19 31  1  0  0  0  0
 19 26  1  0  0  0  0
 19 20  1  0  0  0  0
 20 21  1  0  0  0  0
 21 32  1  0  0  0  0
 21 22  1  0  0  0  0
 21 24  1  0  0  0  0
 22 23  1  0  0  0  0
 22 48  1  0  0  0  0
 22 49  1  0  0  0  0
 23 50  1  0  0  0  0
 24 33  1  0  0  0  0
 24 25  1  0  0  0  0
 24 26  1  0  0  0  0
 25 51  1  0  0  0  0
 26 34  1  0  0  0  0
 26 27  1  0  0  0  0
 27 52  1  0  0  0  0
 28 29  1  0  0  0  0
 28 30  1  0  0  0  0
 29 53  1  0  0  0  0
 29 54  1  0  0  0  0
 29 55  1  0  0  0  0
M  END
> <s_m_source_file>
AV-unprocessed.smi

> <i_m_source_file_index>
287

> <i_lp_mmshare_version>
43012

> <i_f3d_flags>
0

> <s_epik_input>
W0NIM11jMVtjSF1jKGMobzEpW0NIM10pW0NAQF0oW0NIM10pKFtPSF0pW0NIMl1bTkhdYyhuW2NIXW4yKWMoYzIzKW5bY0hdbjNbQ0BASF00T1tDQEhdKFtDSDJdW09IXSlbQ0BASF0oW09IXSlbQ0BIXTRbT0hd

> <s_epik_cmdline>
J2VwaWtfcHl0aG9uJywgJy1waCcsICc3LjAnLCAnLXRuJywgJzgnLCAnLW1hJywgJzIwMCcsICctbWV0YWxfYmluZGluZycsICctaW1hZScsICc8aW5maWxlLm1hZT4nLCAnLW9tYWUnLCAnPG91dGZpbGUubWFlPic=

> <r_lp_tautomer_probability>
1

> <r_epik_Ionization_Penalty>
0.000992612

> <r_epik_Ionization_Penalty_Charging>
0

> <r_epik_Ionization_Penalty_Neutral>
0.000992612

> <r_epik_State_Penalty>
-0

> <r_epik_Charging_Adjusted_Penalty>
0

> <i_epik_Tot_Q>
0

> <i_epik_Tot_abs_Q>
0

> <r_epik_Metal_State_Penalty>
-0

> <b_epik_Metal_Only>
0

> <s_epik_Chemistry_Notes>
This compound contains an acetal/aminal-like group ( X-CH(R)-Y where X, Y are N, S, or O) that may be acid/base labile, releasing an aldehyde.

> <s_lp_Force_Field>
OPLS_2005

> <r_lp_Energy>
38.8116

> <b_lp_Chiralities_Consistent>
1

> <s_lp_Variant>
AV-unprocessed.smi:287-23

> <Gold.Version>
5.8.1

> <Gold.Id.Protein>
6NUR|6NUR_protein|mol2

> <Gold.PLP.Fitness>
50.5108

> <Gold.PLP.PLP>
-39.0545

> <Gold.PLP.part.hbond>
-5.0623

> <Gold.PLP.part.metal>
0.0000

> <Gold.PLP.part.buried>
-4.1660

> <Gold.PLP.part.nonpolar>
-28.8609

> <Gold.PLP.part.repulsive>
0.9667

> <Gold.PLP.ligand.clash>
0.0000

> <Gold.PLP.ligand.torsion>
1.1052

> <Gold.PLP.Chemscore.Hbond>
3.9103

> <Gold.PLP.Chemscore.CHOScore>
0.6175

> <Gold.PLP.Chemscore.Metal>
0.0000

> <Gold.Chemscore.Hbonds>
donor molecule, donor type, donor heavy atom, donor atom, acceptor molecule, acceptor atom, score
      L1  H     7    42       P1  7957  1.00
      L1  H    23    50       P1 10186  0.98
      L1  H    25    51       P1 10747  0.91
      L1  H    27    52       P1 10957  0.72
      L1  C    17    47       P1 10171  0.60

> <Gold.PLP.Chemscore.Internal.Correction>
0.0834

> <Gold.Rescore>
     Score         DG    S(hbond)    S(metal)    S(lipo)     H(rot)  DE(clash)    DE(int)     intcor
     10.22     -12.42       2.92        0.00      91.29       5.27       0.17       2.04       ----

> <Gold.Chemscore.Fitness>
10.2174

> <Gold.Chemscore.DG>
-12.4227

> <Gold.Chemscore.ZeroCoef>
-5.4800

> <Gold.Chemscore.Hbond>
2.9180

> <Gold.Chemscore.Metal>
0.0000

> <Gold.Chemscore.Lipo>
91.2850

> <Gold.Chemscore.Internal_Hbond>
0.0000

> <Gold.Chemscore.DEClash>
0.1702

> <Gold.Chemscore.DEInternal>
2.0351

> <Gold.Chemscore.Rot>
5.2672

> <Gold.Chemscore.Internal.Correction>
   9.000000E+99

> <Gold.Chemscore.Hbonds>
donor molecule, donor type, donor heavy atom, donor atom, acceptor molecule, acceptor atom, score
      L1  H     7    42       P1  7957  0.97
      L1  H    23    50       P1 10186  0.93
      L1  H    25    51       P1 10747  0.89
      L1  H    27    52       P1 10957  0.10
      P1  H  7997  8008       L1    30  0.01

> <Gold.Chemscore.Hbond.Weighted>
-9.7462

> <Gold.Chemscore.Metal.Weighted>
-0.0000

> <Gold.Chemscore.Lipo.Weighted>
-10.6803

> <Gold.Chemscore.Internal_Hbond.Weighted>
0.0000

> <Gold.Chemscore.DEClash.Weighted>
0.1702

> <Gold.Chemscore.DEInternal.Weighted>
2.0351

> <Gold.Chemscore.Rot.Weighted>
13.4839

> <Gold.Chemscore.Internal.Correction.Weighted>
   9.000000E+99

> <Gold.Protein.RotatedTorsions>
[ 6907 6896 6895 6894 ] final  -22.01 input  -60.11 | X-H torsion
[ 7974 7965 7964 7962 ] final  174.44 input  175.53 | X-H torsion
[ 8008 7997 7996 7995 ] final  -45.19 input   59.86 | X-H torsion
[ 10167 10162 10161 10158 ] final  -16.60 input  -65.29 | X-H torsion
[ 10718 10713 10712 10709 ] final  174.22 input   66.30 | X-H torsion
[ 10763 10752 10751 10750 ] final  -11.11 input  -60.55 | X-H torsion
[ 11005 11000 10999 10996 ] final   45.11 input  -57.11 | X-H torsion

> <Gold.Protein.ActiveResidues>
 VAL166  LYS551  ARG553  GLY616  TRP617  ASP618  TYR619  PRO620  LYS621  CYS622 
 ASP623  PHE694  ASN695  SER759  ASP760  ASP761  ALA762  ILE779  LEU786  VAL792 
 PHE793  MET794  SER795  GLU796  ALA797  LYS798  CYS799  TRP800  GLU811  SER814 

> <Gold.Protein.RotatedAtoms>
  151.2249  135.0532  159.8964 H   0  0  0  0  0  0  0  0  0  0  0  0  # atno 6907 bound_to 6896
  152.5411  134.0600  159.8158 H   0  0  0  0  0  0  0  0  0  0  0  0  # atno 6908 bound_to 6896
  151.0772  133.5371  159.2654 H   0  0  0  0  0  0  0  0  0  0  0  0  # atno 6909 bound_to 6896
  144.7221  139.9798  143.6438 H   0  0  0  0  0  0  0  0  0  0  0  0  # atno 7974 bound_to 7965
  154.4000  140.1403  156.3807 H   0  0  0  0  0  0  0  0  0  0  0  0  # atno 8008 bound_to 7997
  155.8006  140.3476  155.5380 H   0  0  0  0  0  0  0  0  0  0  0  0  # atno 8009 bound_to 7997
  155.8487  140.0938  157.1679 H   0  0  0  0  0  0  0  0  0  0  0  0  # atno 8010 bound_to 7997
  140.7236  143.5100  150.9762 H   0  0  0  0  0  0  0  0  0  0  0  0  # atno 10167 bound_to 10162
  156.9528  131.0036  151.2945 H   0  0  0  0  0  0  0  0  0  0  0  0  # atno 10718 bound_to 10713
  153.4790  135.7017  153.5949 H   0  0  0  0  0  0  0  0  0  0  0  0  # atno 10763 bound_to 10752
  153.4170  135.3834  155.2087 H   0  0  0  0  0  0  0  0  0  0  0  0  # atno 10764 bound_to 10752
  154.8722  135.3918  154.4237 H   0  0  0  0  0  0  0  0  0  0  0  0  # atno 10765 bound_to 10752
  140.1490  134.4486  155.8395 H   0  0  0  0  0  0  0  0  0  0  0  0  # atno 11005 bound_to 11000
  146.0497  139.3499  143.0647 LP  0  0  0  0  0  0  0  0  0  0  0  0  # atno 17320 bound_to 7965
  145.8231  140.9669  143.0888 LP  0  0  0  0  0  0  0  0  0  0  0  0  # atno 17321 bound_to 7965
  139.8813  143.7069  152.3156 LP  0  0  0  0  0  0  0  0  0  0  0  0  # atno 17342 bound_to 10162
  139.7352  144.7573  151.0739 LP  0  0  0  0  0  0  0  0  0  0  0  0  # atno 17343 bound_to 10162
  157.5710  130.8311  149.8392 LP  0  0  0  0  0  0  0  0  0  0  0  0  # atno 17370 bound_to 10713
  156.0355  130.3752  150.1571 LP  0  0  0  0  0  0  0  0  0  0  0  0  # atno 17371 bound_to 10713
  141.2196  133.6864  156.7386 LP  0  0  0  0  0  0  0  0  0  0  0  0  # atno 17394 bound_to 11000
  140.2628  134.8453  157.3775 LP  0  0  0  0  0  0  0  0  0  0  0  0  # atno 17395 bound_to 11000

$$$$
