AV-unprocessed.smi:2156|AV-procd|sdf|8779|dock2
  -GOLD-   2272011563D 1   1.00000     0.00000
 Structure written by MMmdl.
 34 34  0  0  0  0  0  0  0  0  1 V2000
  152.4340  144.9167  158.4394 C   0  0  0  0  0  0  0  0  0  0  0  0
  152.3401  144.2153  159.7986 C   0  0  0  0  0  0  0  0  0  0  0  0
  153.0154  142.8326  159.7967 C   0  0  0  0  0  0  0  0  0  0  0  0
  152.1321  141.7014  159.2325 C   0  0  2  0  0  0  0  0  0  0  0  0
  152.9173  140.3902  159.0909 C   0  0  0  0  0  0  0  0  0  0  0  0
  151.5846  142.0715  157.9282 N   0  0  0  0  0  0  0  0  0  0  0  0
  150.6653  141.3829  157.2332 C   0  0  0  0  0  0  0  0  0  0  0  0
  150.1550  140.3366  157.6362 O   0  0  0  0  0  0  0  0  0  0  0  0
  150.2457  141.9961  155.8895 C   0  0  0  0  0  0  0  0  0  0  0  0
  149.2662  141.1777  155.1602 N   0  0  0  0  0  0  0  0  0  0  0  0
  147.9419  141.5834  155.0734 C   0  0  0  0  0  0  0  0  0  0  0  0
  146.9858  140.8745  154.4280 C   0  0  0  0  0  0  0  0  0  0  0  0
  147.3164  139.6123  153.7751 C   0  0  0  0  0  0  0  0  0  0  0  0
  146.5221  138.9003  153.1650 O   0  0  0  0  0  0  0  0  0  0  0  0
  148.6576  139.2365  153.8876 N   0  0  0  0  0  0  0  0  0  0  0  0
  149.6476  139.9613  154.5529 C   0  0  0  0  0  0  0  0  0  0  0  0
  150.8015  139.5362  154.5965 O   0  0  0  0  0  0  0  0  0  0  0  0
  148.9332  138.3676  153.4536 H   0  0  0  0  0  0  0  0  0  0  0  0
  151.9529  145.8942  158.4735 H   0  0  0  0  0  0  0  0  0  0  0  0
  151.9445  144.3319  157.6603 H   0  0  0  0  0  0  0  0  0  0  0  0
  153.4726  145.0678  158.1436 H   0  0  0  0  0  0  0  0  0  0  0  0
  152.8009  144.8448  160.5606 H   0  0  0  0  0  0  0  0  0  0  0  0
  151.2893  144.1196  160.0721 H   0  0  0  0  0  0  0  0  0  0  0  0
  153.9480  142.8846  159.2329 H   0  0  0  0  0  0  0  0  0  0  0  0
  153.2958  142.5818  160.8207 H   0  0  0  0  0  0  0  0  0  0  0  0
  151.3224  141.5155  159.9404 H   0  0  0  0  0  0  0  0  0  0  0  0
  153.3151  140.0649  160.0528 H   0  0  0  0  0  0  0  0  0  0  0  0
  153.7575  140.5011  158.4046 H   0  0  0  0  0  0  0  0  0  0  0  0
  152.2802  139.5902  158.7128 H   0  0  0  0  0  0  0  0  0  0  0  0
  151.9377  142.9241  157.5183 H   0  0  0  0  0  0  0  0  0  0  0  0
  149.8353  142.9879  156.0843 H   0  0  0  0  0  0  0  0  0  0  0  0
  151.1297  142.1671  155.2717 H   0  0  0  0  0  0  0  0  0  0  0  0
  147.6500  142.5101  155.5467 H   0  0  0  0  0  0  0  0  0  0  0  0
  145.9706  141.2426  154.3957 H   0  0  0  0  0  0  0  0  0  0  0  0
  1  2  1  0  0  0  0
  1 19  1  0  0  0  0
  1 20  1  0  0  0  0
  1 21  1  0  0  0  0
  2  3  1  0  0  0  0
  2 22  1  0  0  0  0
  2 23  1  0  0  0  0
  3  4  1  0  0  0  0
  3 24  1  0  0  0  0
  3 25  1  0  0  0  0
  4  5  1  0  0  0  0
  4  6  1  0  0  0  0
  4 26  1  0  0  0  0
  5 27  1  0  0  0  0
  5 28  1  0  0  0  0
  5 29  1  0  0  0  0
  6  7  1  0  0  0  0
  6 30  1  0  0  0  0
  7  8  2  0  0  0  0
  7  9  1  0  0  0  0
  9 10  1  0  0  0  0
  9 31  1  0  0  0  0
  9 32  1  0  0  0  0
 10 16  1  0  0  0  0
 10 11  1  0  0  0  0
 11 12  2  0  0  0  0
 11 33  1  0  0  0  0
 12 13  1  0  0  0  0
 12 34  1  0  0  0  0
 13 14  2  0  0  0  0
 13 15  1  0  0  0  0
 15 18  1  0  0  0  0
 15 16  1  0  0  0  0
 16 17  2  0  0  0  0
M  END
> <s_m_source_file>
AV-unprocessed.smi

> <i_m_source_file_index>
2156

> <i_lp_mmshare_version>
43012

> <i_f3d_flags>
0

> <s_epik_input>
W0NIM11bQ0gyXVtDSDJdW0NASF0oW0NIM10pW05IXUMoPU8pW0NIMl1uMVtjSF1bY0hdYyg9TylbbkhdYzE9Tw==

> <s_epik_cmdline>
J2VwaWtfcHl0aG9uJywgJy1waCcsICc3LjAnLCAnLXRuJywgJzgnLCAnLW1hJywgJzIwMCcsICctbWV0YWxfYmluZGluZycsICctaW1hZScsICc8aW5maWxlLm1hZT4nLCAnLW9tYWUnLCAnPG91dGZpbGUubWFlPic=

> <r_lp_tautomer_probability>
0.999537

> <r_epik_Ionization_Penalty>
0.00324917

> <r_epik_Ionization_Penalty_Charging>
0.00324916

> <r_epik_Ionization_Penalty_Neutral>
1.93017e-08

> <r_epik_State_Penalty>
0.00229371

> <r_epik_Charging_Adjusted_Penalty>
0.00554286

> <i_epik_Tot_Q>
0

> <i_epik_Tot_abs_Q>
0

> <r_epik_Metal_State_Penalty>
0.364744

> <b_epik_Metal_Only>
0

> <s_lp_Force_Field>
OPLS_2005

> <r_lp_Energy>
3.31869

> <b_lp_Chiralities_Consistent>
1

> <s_lp_Variant>
AV-unprocessed.smi:2156-1

> <Gold.Version>
5.8.1

> <Gold.Id.Protein>
6NUR|6NUR_protein|mol2

> <Gold.PLP.Fitness>
40.6194

> <Gold.PLP.PLP>
-35.8215

> <Gold.PLP.part.hbond>
-2.0000

> <Gold.PLP.part.metal>
0.0000

> <Gold.PLP.part.buried>
-2.5708

> <Gold.PLP.part.nonpolar>
-30.7831

> <Gold.PLP.part.repulsive>
0.5360

> <Gold.PLP.ligand.clash>
0.0000

> <Gold.PLP.ligand.torsion>
0.3343

> <Gold.PLP.Chemscore.Hbond>
0.8000

> <Gold.PLP.Chemscore.CHOScore>
1.0000

> <Gold.PLP.Chemscore.Metal>
0.0000

> <Gold.Chemscore.Hbonds>
donor molecule, donor type, donor heavy atom, donor atom, acceptor molecule, acceptor atom, score
      P1  H  7989  7998       L1    17  0.95
      L1  C    11    33       P1  8028  1.00

> <Gold.PLP.Chemscore.Internal.Correction>
0.0666

> <Gold.Rescore>
     Score         DG    S(hbond)    S(metal)    S(lipo)     H(rot)  DE(clash)    DE(int)     intcor
     10.31     -11.71       1.01        0.00      72.49       2.19       0.14       1.26       ----

> <Gold.Chemscore.Fitness>
10.3073

> <Gold.Chemscore.DG>
-11.7057

> <Gold.Chemscore.ZeroCoef>
-5.4800

> <Gold.Chemscore.Hbond>
1.0070

> <Gold.Chemscore.Metal>
0.0000

> <Gold.Chemscore.Lipo>
72.4893

> <Gold.Chemscore.Internal_Hbond>
0.0000

> <Gold.Chemscore.DEClash>
0.1363

> <Gold.Chemscore.DEInternal>
1.2621

> <Gold.Chemscore.Rot>
2.1949

> <Gold.Chemscore.Internal.Correction>
   9.000000E+99

> <Gold.Chemscore.Hbonds>
donor molecule, donor type, donor heavy atom, donor atom, acceptor molecule, acceptor atom, score
      P1  H  7989  7998       L1    17  0.21

> <Gold.Chemscore.Hbond.Weighted>
-3.3633

> <Gold.Chemscore.Metal.Weighted>
-0.0000

> <Gold.Chemscore.Lipo.Weighted>
-8.4813

> <Gold.Chemscore.Internal_Hbond.Weighted>
0.0000

> <Gold.Chemscore.DEClash.Weighted>
0.1363

> <Gold.Chemscore.DEInternal.Weighted>
1.2621

> <Gold.Chemscore.Rot.Weighted>
5.6188

> <Gold.Chemscore.Internal.Correction.Weighted>
   9.000000E+99

> <Gold.Protein.RotatedTorsions>
[ 6907 6896 6895 6894 ] final -166.51 input  -60.11 | X-H torsion
[ 7974 7965 7964 7962 ] final   36.12 input  175.53 | X-H torsion
[ 8008 7997 7996 7995 ] final -147.39 input   59.86 | X-H torsion
[ 10167 10162 10161 10158 ] final  104.70 input  -65.29 | X-H torsion
[ 10718 10713 10712 10709 ] final  159.62 input   66.30 | X-H torsion
[ 10763 10752 10751 10750 ] final -172.05 input  -60.55 | X-H torsion
[ 11005 11000 10999 10996 ] final -125.11 input  -57.11 | X-H torsion

> <Gold.Protein.ActiveResidues>
 VAL166  LYS551  ARG553  GLY616  TRP617  ASP618  TYR619  PRO620  LYS621  CYS622 
 ASP623  PHE694  ASN695  SER759  ASP760  ASP761  ALA762  ILE779  LEU786  VAL792 
 PHE793  MET794  SER795  GLU796  ALA797  LYS798  CYS799  TRP800  GLU811  SER814 

> <Gold.Protein.RotatedAtoms>
  151.4448  133.3633  159.2786 H   0  0  0  0  0  0  0  0  0  0  0  0  # atno 6907 bound_to 6896
  150.9132  134.8551  159.7450 H   0  0  0  0  0  0  0  0  0  0  0  0  # atno 6908 bound_to 6896
  152.4943  134.4379  159.9586 H   0  0  0  0  0  0  0  0  0  0  0  0  # atno 6909 bound_to 6896
  146.1234  139.6057  142.9275 H   0  0  0  0  0  0  0  0  0  0  0  0  # atno 7974 bound_to 7965
  155.5748  140.0637  157.2798 H   0  0  0  0  0  0  0  0  0  0  0  0  # atno 8008 bound_to 7997
  154.4350  140.1862  156.0962 H   0  0  0  0  0  0  0  0  0  0  0  0  # atno 8009 bound_to 7997
  156.0349  140.3302  155.7184 H   0  0  0  0  0  0  0  0  0  0  0  0  # atno 8010 bound_to 7997
  139.7155  144.7069  151.0957 H   0  0  0  0  0  0  0  0  0  0  0  0  # atno 10167 bound_to 10162
  157.1617  131.0589  151.2229 H   0  0  0  0  0  0  0  0  0  0  0  0  # atno 10718 bound_to 10713
  154.6236  135.2878  155.0297 H   0  0  0  0  0  0  0  0  0  0  0  0  # atno 10763 bound_to 10752
  154.1483  135.6507  153.4961 H   0  0  0  0  0  0  0  0  0  0  0  0  # atno 10764 bound_to 10752
  153.0247  135.5349  154.7036 H   0  0  0  0  0  0  0  0  0  0  0  0  # atno 10765 bound_to 10752
  140.9788  134.0703  157.3789 H   0  0  0  0  0  0  0  0  0  0  0  0  # atno 11005 bound_to 11000
  145.5417  141.0420  143.2327 LP  0  0  0  0  0  0  0  0  0  0  0  0  # atno 17320 bound_to 7965
  144.7619  139.6937  143.7231 LP  0  0  0  0  0  0  0  0  0  0  0  0  # atno 17321 bound_to 7965
  140.7743  143.5236  150.9507 LP  0  0  0  0  0  0  0  0  0  0  0  0  # atno 17342 bound_to 10162
  139.8921  143.6940  152.3143 LP  0  0  0  0  0  0  0  0  0  0  0  0  # atno 17343 bound_to 10162
  157.4126  130.7394  149.6851 LP  0  0  0  0  0  0  0  0  0  0  0  0  # atno 17370 bound_to 10713
  155.9753  130.4091  150.3862 LP  0  0  0  0  0  0  0  0  0  0  0  0  # atno 17371 bound_to 10713
  139.8941  135.0134  156.6935 LP  0  0  0  0  0  0  0  0  0  0  0  0  # atno 17394 bound_to 11000
  140.7219  133.9134  155.8152 LP  0  0  0  0  0  0  0  0  0  0  0  0  # atno 17395 bound_to 11000

$$$$
