AV-unprocessed.smi:270|AV-procd|sdf|2047|dock3
  -GOLD-   2262021273D 1   1.00000     0.00000
 Structure written by MMmdl.
 54 57  0  0  0  0  0  0  0  0  1 V2000
  144.9403  132.1158  151.6054 C   0  0  0  0  0  0  0  0  0  0  0  0
  144.6454  133.5807  151.9675 C   0  0  2  0  0  0  0  0  0  0  0  0
  144.1151  134.2819  150.8430 O   0  0  0  0  0  0  0  0  0  0  0  0
  144.9244  135.4107  150.5449 C   0  0  0  0  0  0  0  0  0  0  0  0
  145.5631  135.7786  151.8778 C   0  0  0  0  0  0  0  0  0  0  0  0
  145.8343  134.4155  152.4990 C   0  0  2  0  0  0  0  0  0  0  0  0
  147.0645  133.9288  151.9856 O   0  0  0  0  0  0  0  0  0  0  0  0
  145.9175  134.4330  154.0437 C   0  0  0  0  0  0  0  0  0  0  0  0
  146.9857  135.2779  154.5543 N   0  0  0  0  0  0  0  0  0  0  0  0
  148.1384  134.8621  155.1805 C   0  0  0  0  0  0  0  0  0  0  0  0
  148.9436  135.8186  155.5536 N   0  0  0  0  0  0  0  0  0  0  0  0
  148.3030  136.9850  155.1498 C   0  0  0  0  0  0  0  0  0  0  0  0
  148.6242  138.3709  155.2459 C   0  0  0  0  0  0  0  0  0  0  0  0
  149.8169  138.8772  155.8398 N   0  0  0  0  0  0  0  0  0  0  0  0
  150.7023  139.6264  154.9603 C   0  0  0  0  0  0  0  0  0  0  0  0
  151.8632  138.8479  155.5871 C   0  0  0  0  0  0  0  0  0  0  0  0
  152.5933  139.5827  156.5571 O   0  0  0  0  0  0  0  0  0  0  0  0
  151.7560  140.2297  157.5024 C   0  0  0  0  0  0  0  0  0  0  0  0
  152.5379  140.4253  158.8069 C   0  0  0  0  0  0  0  0  0  0  0  0
  152.8926  139.4233  159.4296 O   0  0  0  0  0  0  0  0  0  0  0  0
  152.8177  141.6801  159.2309 N   0  0  0  0  0  0  0  0  0  0  0  0
  153.5558  141.9633  160.4658 C   0  0  0  0  0  0  0  0  0  0  0  0
  152.3752  142.8395  158.4513 C   0  0  0  0  0  0  0  0  0  0  0  0
  150.8385  137.9112  156.2279 C   0  0  0  0  0  0  0  0  0  0  0  0
  147.7341  139.2334  154.6851 N   0  0  0  0  0  0  0  0  0  0  0  0
  146.6115  138.7934  154.1097 C   0  0  0  0  0  0  0  0  0  0  0  0
  146.1836  137.5387  153.9715 N   0  0  0  0  0  0  0  0  0  0  0  0
  147.0739  136.6582  154.5082 C   0  0  0  0  0  0  0  0  0  0  0  0
  145.3618  131.5791  152.4556 H   0  0  0  0  0  0  0  0  0  0  0  0
  145.6433  132.0403  150.7754 H   0  0  0  0  0  0  0  0  0  0  0  0
  144.0273  131.6003  151.3073 H   0  0  0  0  0  0  0  0  0  0  0  0
  143.8494  133.5891  152.7134 H   0  0  0  0  0  0  0  0  0  0  0  0
  145.6860  135.1227  149.8187 H   0  0  0  0  0  0  0  0  0  0  0  0
  144.3363  136.2237  150.1188 H   0  0  0  0  0  0  0  0  0  0  0  0
  146.4534  136.3999  151.7697 H   0  0  0  0  0  0  0  0  0  0  0  0
  144.8404  136.3309  152.4804 H   0  0  0  0  0  0  0  0  0  0  0  0
  147.7469  134.5442  152.2061 H   0  0  0  0  0  0  0  0  0  0  0  0
  144.9778  134.7891  154.4681 H   0  0  0  0  0  0  0  0  0  0  0  0
  146.0604  133.4215  154.4266 H   0  0  0  0  0  0  0  0  0  0  0  0
  148.3621  133.8202  155.3580 H   0  0  0  0  0  0  0  0  0  0  0  0
  150.5626  139.3995  153.9023 H   0  0  0  0  0  0  0  0  0  0  0  0
  150.7047  140.6974  155.1638 H   0  0  0  0  0  0  0  0  0  0  0  0
  152.4960  138.3380  154.8585 H   0  0  0  0  0  0  0  0  0  0  0  0
  151.4474  141.2018  157.1143 H   0  0  0  0  0  0  0  0  0  0  0  0
  150.8455  139.6596  157.6895 H   0  0  0  0  0  0  0  0  0  0  0  0
  153.0386  141.5476  161.3310 H   0  0  0  0  0  0  0  0  0  0  0  0
  153.6732  143.0309  160.6512 H   0  0  0  0  0  0  0  0  0  0  0  0
  154.5584  141.5363  160.4258 H   0  0  0  0  0  0  0  0  0  0  0  0
  152.7887  142.8021  157.4424 H   0  0  0  0  0  0  0  0  0  0  0  0
  152.6787  143.7905  158.8889 H   0  0  0  0  0  0  0  0  0  0  0  0
  151.2872  142.8519  158.3710 H   0  0  0  0  0  0  0  0  0  0  0  0
  150.9418  137.7994  157.3075 H   0  0  0  0  0  0  0  0  0  0  0  0
  150.7719  136.9520  155.7124 H   0  0  0  0  0  0  0  0  0  0  0  0
  145.9641  139.5561  153.7025 H   0  0  0  0  0  0  0  0  0  0  0  0
  1  2  1  0  0  0  0
  1 29  1  0  0  0  0
  1 30  1  0  0  0  0
  1 31  1  0  0  0  0
  2  6  1  0  0  0  0
  2  3  1  0  0  0  0
  2 32  1  0  0  0  0
  3  4  1  0  0  0  0
  4  5  1  0  0  0  0
  4 33  1  0  0  0  0
  4 34  1  0  0  0  0
  5  6  1  0  0  0  0
  5 35  1  0  0  0  0
  5 36  1  0  0  0  0
  6  7  1  0  0  0  0
  6  8  1  0  0  0  0
  7 37  1  0  0  0  0
  8  9  1  0  0  0  0
  8 38  1  0  0  0  0
  8 39  1  0  0  0  0
  9 28  1  0  0  0  0
  9 10  1  0  0  0  0
 10 11  2  0  0  0  0
 10 40  1  0  0  0  0
 11 12  1  0  0  0  0
 12 28  2  0  0  0  0
 12 13  1  0  0  0  0
 13 14  1  0  0  0  0
 13 25  2  0  0  0  0
 14 24  1  0  0  0  0
 14 15  1  0  0  0  0
 15 16  1  0  0  0  0
 15 41  1  0  0  0  0
 15 42  1  0  0  0  0
 16 17  1  0  0  0  0
 16 24  1  0  0  0  0
 16 43  1  0  0  0  0
 17 18  1  0  0  0  0
 18 19  1  0  0  0  0
 18 44  1  0  0  0  0
 18 45  1  0  0  0  0
 19 20  2  0  0  0  0
 19 21  1  0  0  0  0
 21 22  1  0  0  0  0
 21 23  1  0  0  0  0
 22 46  1  0  0  0  0
 22 47  1  0  0  0  0
 22 48  1  0  0  0  0
 23 49  1  0  0  0  0
 23 50  1  0  0  0  0
 23 51  1  0  0  0  0
 24 52  1  0  0  0  0
 24 53  1  0  0  0  0
 25 26  1  0  0  0  0
 26 27  2  0  0  0  0
 26 54  1  0  0  0  0
 27 28  1  0  0  0  0
M  END
> <s_m_source_file>
AV-unprocessed.smi

> <i_m_source_file_index>
270

> <i_lp_mmshare_version>
43012

> <i_f3d_flags>
0

> <s_epik_input>
W0NIMl0xW0NIMl1PW0NAQEhdKFtDSDNdKVtDQEBdMShbT0hdKVtDSDJdbihbY0hdbjIpYyhjMjMpbltjSF1uYzNONFtDSDJdW0NIXShbQ0gyXTQpT1tDSDJdQyg9TylOKFtDSDNdKVtDSDNd

> <s_epik_cmdline>
J2VwaWtfcHl0aG9uJywgJy1waCcsICc3LjAnLCAnLXRuJywgJzgnLCAnLW1hJywgJzIwMCcsICctbWV0YWxfYmluZGluZycsICctaW1hZScsICc8aW5maWxlLm1hZT4nLCAnLW9tYWUnLCAnPG91dGZpbGUubWFlPic=

> <r_lp_tautomer_probability>
1

> <r_epik_Ionization_Penalty>
0.00375854

> <r_epik_Ionization_Penalty_Charging>
0

> <r_epik_Ionization_Penalty_Neutral>
0.00375854

> <r_epik_State_Penalty>
-0

> <r_epik_Charging_Adjusted_Penalty>
0

> <i_epik_Tot_Q>
0

> <i_epik_Tot_abs_Q>
0

> <r_epik_Metal_State_Penalty>
-0

> <b_epik_Metal_Only>
0

> <s_lp_Force_Field>
OPLS_2005

> <r_lp_Energy>
53.9225

> <b_lp_Chiralities_Consistent>
1

> <s_lp_Variant>
AV-unprocessed.smi:270-3

> <Gold.Version>
5.8.1

> <Gold.Id.Protein>
6NUR|6NUR_protein|mol2

> <Gold.PLP.Fitness>
44.0920

> <Gold.PLP.PLP>
-35.5665

> <Gold.PLP.part.hbond>
-2.0000

> <Gold.PLP.part.metal>
0.0000

> <Gold.PLP.part.buried>
-3.3944

> <Gold.PLP.part.nonpolar>
-30.0418

> <Gold.PLP.part.repulsive>
0.5341

> <Gold.PLP.ligand.clash>
0.0000

> <Gold.PLP.ligand.torsion>
0.3857

> <Gold.PLP.Chemscore.Hbond>
2.0000

> <Gold.PLP.Chemscore.CHOScore>
1.0000

> <Gold.PLP.Chemscore.Metal>
0.0000

> <Gold.Chemscore.Hbonds>
donor molecule, donor type, donor heavy atom, donor atom, acceptor molecule, acceptor atom, score
      L1  H     7    37       P1  7948  0.94
      P1  H  7997  8009       L1    17  1.00
      L1  C    26    54       P1 10175  0.45

> <Gold.PLP.Chemscore.Internal.Correction>
0.2969

> <Gold.Rescore>
     Score         DG    S(hbond)    S(metal)    S(lipo)     H(rot)  DE(clash)    DE(int)     intcor
      8.11     -12.60       1.82        0.00      77.15       3.12       0.18       4.31       ----

> <Gold.Chemscore.Fitness>
8.1135

> <Gold.Chemscore.DG>
-12.6040

> <Gold.Chemscore.ZeroCoef>
-5.4800

> <Gold.Chemscore.Hbond>
1.8243

> <Gold.Chemscore.Metal>
0.0000

> <Gold.Chemscore.Lipo>
77.1517

> <Gold.Chemscore.Internal_Hbond>
0.0000

> <Gold.Chemscore.DEClash>
0.1780

> <Gold.Chemscore.DEInternal>
4.3124

> <Gold.Chemscore.Rot>
3.1234

> <Gold.Chemscore.Internal.Correction>
   9.000000E+99

> <Gold.Chemscore.Hbonds>
donor molecule, donor type, donor heavy atom, donor atom, acceptor molecule, acceptor atom, score
      L1  H     7    37       P1  7948  0.44
      P1  H  7997  8009       L1    17  0.96

> <Gold.Chemscore.Hbond.Weighted>
-6.0931

> <Gold.Chemscore.Metal.Weighted>
-0.0000

> <Gold.Chemscore.Lipo.Weighted>
-9.0267

> <Gold.Chemscore.Internal_Hbond.Weighted>
0.0000

> <Gold.Chemscore.DEClash.Weighted>
0.1780

> <Gold.Chemscore.DEInternal.Weighted>
4.3124

> <Gold.Chemscore.Rot.Weighted>
7.9959

> <Gold.Chemscore.Internal.Correction.Weighted>
   9.000000E+99

> <Gold.Protein.RotatedTorsions>
[ 6907 6896 6895 6894 ] final -138.45 input  -60.11 | X-H torsion
[ 7974 7965 7964 7962 ] final    7.77 input  175.53 | X-H torsion
[ 8008 7997 7996 7995 ] final -169.68 input   59.86 | X-H torsion
[ 10167 10162 10161 10158 ] final  156.40 input  -65.29 | X-H torsion
[ 10718 10713 10712 10709 ] final  100.20 input   66.30 | X-H torsion
[ 10763 10752 10751 10750 ] final  104.11 input  -60.55 | X-H torsion
[ 11005 11000 10999 10996 ] final -122.23 input  -57.11 | X-H torsion

> <Gold.Protein.ActiveResidues>
 VAL166  LYS551  ARG553  GLY616  TRP617  ASP618  TYR619  PRO620  LYS621  CYS622 
 ASP623  PHE694  ASN695  SER759  ASP760  ASP761  ALA762  ILE779  LEU786  VAL792 
 PHE793  MET794  SER795  GLU796  ALA797  LYS798  CYS799  TRP800  GLU811  SER814 

> <Gold.Protein.RotatedAtoms>
  151.0352  133.5755  159.2656 H   0  0  0  0  0  0  0  0  0  0  0  0  # atno 6907 bound_to 6896
  151.2821  135.0716  159.9183 H   0  0  0  0  0  0  0  0  0  0  0  0  # atno 6908 bound_to 6896
  152.5353  134.0065  159.7972 H   0  0  0  0  0  0  0  0  0  0  0  0  # atno 6909 bound_to 6896
  146.2423  140.0033  142.8414 H   0  0  0  0  0  0  0  0  0  0  0  0  # atno 7974 bound_to 7965
  155.9082  140.1053  157.1299 H   0  0  0  0  0  0  0  0  0  0  0  0  # atno 8008 bound_to 7997
  154.4035  140.1279  156.4588 H   0  0  0  0  0  0  0  0  0  0  0  0  # atno 8009 bound_to 7997
  155.7341  140.3468  155.5076 H   0  0  0  0  0  0  0  0  0  0  0  0  # atno 8010 bound_to 7997
  139.4821  144.5012  151.8165 H   0  0  0  0  0  0  0  0  0  0  0  0  # atno 10167 bound_to 10162
  157.6859  131.0691  150.5064 H   0  0  0  0  0  0  0  0  0  0  0  0  # atno 10718 bound_to 10713
  153.3615  135.3954  155.1722 H   0  0  0  0  0  0  0  0  0  0  0  0  # atno 10763 bound_to 10752
  154.8680  135.3681  154.5093 H   0  0  0  0  0  0  0  0  0  0  0  0  # atno 10764 bound_to 10752
  153.5553  135.7082  153.5633 H   0  0  0  0  0  0  0  0  0  0  0  0  # atno 10765 bound_to 10752
  141.0011  134.0402  157.3536 H   0  0  0  0  0  0  0  0  0  0  0  0  # atno 11005 bound_to 11000
  145.1395  140.9563  143.4497 LP  0  0  0  0  0  0  0  0  0  0  0  0  # atno 17320 bound_to 7965
  145.0309  139.3341  143.6025 LP  0  0  0  0  0  0  0  0  0  0  0  0  # atno 17321 bound_to 7965
  140.4506  144.1861  150.5897 LP  0  0  0  0  0  0  0  0  0  0  0  0  # atno 17342 bound_to 10162
  140.4589  143.2457  151.9247 LP  0  0  0  0  0  0  0  0  0  0  0  0  # atno 17343 bound_to 10162
  156.5383  130.4202  149.6166 LP  0  0  0  0  0  0  0  0  0  0  0  0  # atno 17370 bound_to 10713
  156.3008  130.7175  151.2046 LP  0  0  0  0  0  0  0  0  0  0  0  0  # atno 17371 bound_to 10713
  139.9039  135.0174  156.7397 LP  0  0  0  0  0  0  0  0  0  0  0  0  # atno 17394 bound_to 11000
  140.6888  133.9409  155.7953 LP  0  0  0  0  0  0  0  0  0  0  0  0  # atno 17395 bound_to 11000

$$$$
