AV-unprocessed.smi:2881|AV-procd|sdf|11060|dock7
  -GOLD-   2272015533D 1   1.00000     0.00000
 Structure written by MMmdl.
 40 42  0  0  0  0  0  0  0  0  1 V2000
  149.5833  136.4916  155.3992 C   0  0  0  0  0  0  0  0  0  0  0  0
  149.8614  137.9434  155.2055 C   0  0  0  0  0  0  0  0  0  0  0  0
  149.5223  139.0359  155.9527 C   0  0  0  0  0  0  0  0  0  0  0  0
  150.0870  140.1387  155.2443 C   0  0  0  0  0  0  0  0  0  0  0  0
  150.0368  141.5992  155.6068 C   0  0  0  0  0  0  0  0  0  0  0  0
  150.5640  141.8058  157.0271 C   0  0  0  0  0  0  0  0  0  0  0  0
  151.3818  141.0190  157.5035 O   0  0  0  0  0  0  0  0  0  0  0  0
  150.0860  142.8680  157.6928 N   0  0  0  0  0  0  0  0  0  0  0  0
  150.4338  143.2215  159.0665 C   0  0  1  0  0  0  0  0  0  0  0  0
  151.9497  143.1167  159.3699 C   0  0  1  0  0  0  0  0  0  0  0  0
  152.7900  143.8908  158.3313 C   0  0  0  0  0  0  0  0  0  0  0  0
  152.4619  145.3591  158.6600 C   0  0  0  0  0  0  0  0  0  0  0  0
  151.4997  145.2339  159.8572 C   0  0  2  0  0  0  0  0  0  0  0  0
  152.0781  144.0255  160.5853 C   0  0  0  0  0  0  0  0  0  0  0  0
  150.1296  144.7133  159.3598 C   0  0  2  0  0  0  0  0  0  0  0  0
  148.9878  144.8978  160.3779 C   0  0  0  0  0  0  0  0  0  0  0  0
  147.7528  144.5245  159.8043 O   0  0  0  0  0  0  0  0  0  0  0  0
  150.7162  139.7583  154.1409 N   0  0  0  0  0  0  0  0  0  0  0  0
  150.5737  138.4201  154.1297 N   0  0  0  0  0  0  0  0  0  0  0  0
  150.9644  137.8524  153.3912 H   0  0  0  0  0  0  0  0  0  0  0  0
  149.2598  136.2907  156.4208 H   0  0  0  0  0  0  0  0  0  0  0  0
  150.4748  135.8944  155.2056 H   0  0  0  0  0  0  0  0  0  0  0  0
  148.7962  136.1557  154.7240 H   0  0  0  0  0  0  0  0  0  0  0  0
  148.9592  139.0475  156.8740 H   0  0  0  0  0  0  0  0  0  0  0  0
  150.6292  142.1964  154.9119 H   0  0  0  0  0  0  0  0  0  0  0  0
  149.0142  141.9730  155.5396 H   0  0  0  0  0  0  0  0  0  0  0  0
  149.4200  143.4634  157.2227 H   0  0  0  0  0  0  0  0  0  0  0  0
  149.8799  142.5813  159.7565 H   0  0  0  0  0  0  0  0  0  0  0  0
  152.2921  142.0938  159.5293 H   0  0  0  0  0  0  0  0  0  0  0  0
  153.8530  143.6985  158.4822 H   0  0  0  0  0  0  0  0  0  0  0  0
  152.5574  143.6285  157.2993 H   0  0  0  0  0  0  0  0  0  0  0  0
  153.3665  145.8986  158.9431 H   0  0  0  0  0  0  0  0  0  0  0  0
  152.0113  145.8842  157.8169 H   0  0  0  0  0  0  0  0  0  0  0  0
  151.4397  146.1440  160.4545 H   0  0  0  0  0  0  0  0  0  0  0  0
  151.4799  143.6963  161.4363 H   0  0  0  0  0  0  0  0  0  0  0  0
  153.1094  144.1696  160.9125 H   0  0  0  0  0  0  0  0  0  0  0  0
  149.8498  145.2374  158.4436 H   0  0  0  0  0  0  0  0  0  0  0  0
  149.1611  144.2701  161.2526 H   0  0  0  0  0  0  0  0  0  0  0  0
  148.9263  145.9280  160.7286 H   0  0  0  0  0  0  0  0  0  0  0  0
  147.6486  144.9869  158.9866 H   0  0  0  0  0  0  0  0  0  0  0  0
  1  2  1  0  0  0  0
  1 21  1  0  0  0  0
  1 22  1  0  0  0  0
  1 23  1  0  0  0  0
  2 19  1  0  0  0  0
  2  3  2  0  0  0  0
  3  4  1  0  0  0  0
  3 24  1  0  0  0  0
  4  5  1  0  0  0  0
  4 18  2  0  0  0  0
  5  6  1  0  0  0  0
  5 25  1  0  0  0  0
  5 26  1  0  0  0  0
  6  7  2  0  0  0  0
  6  8  1  0  0  0  0
  8  9  1  0  0  0  0
  8 27  1  0  0  0  0
  9 15  1  0  0  0  0
  9 10  1  0  0  0  0
  9 28  1  0  0  0  0
 10 14  1  0  0  0  0
 10 11  1  0  0  0  0
 10 29  1  0  0  0  0
 11 12  1  0  0  0  0
 11 30  1  0  0  0  0
 11 31  1  0  0  0  0
 12 13  1  0  0  0  0
 12 32  1  0  0  0  0
 12 33  1  0  0  0  0
 13 14  1  0  0  0  0
 13 15  1  0  0  0  0
 13 34  1  0  0  0  0
 14 35  1  0  0  0  0
 14 36  1  0  0  0  0
 15 16  1  0  0  0  0
 15 37  1  0  0  0  0
 16 17  1  0  0  0  0
 16 38  1  0  0  0  0
 16 39  1  0  0  0  0
 17 40  1  0  0  0  0
 18 19  1  0  0  0  0
 19 20  1  0  0  0  0
M  END
> <s_m_source_file>
AV-unprocessed.smi

> <i_m_source_file_index>
2881

> <i_lp_mmshare_version>
43012

> <i_f3d_flags>
0

> <s_epik_input>
W0NIM11jMVtjSF1jKG5bbkhdMSlbQ0gyXUMoPU8pW05IXVtDQEhdKFtDQEBIXTIzKVtDQEhdKFtDSDJdW09IXSlbQ0BASF0oW0NIMl0zKVtDSDJdW0NIMl0y

> <s_epik_cmdline>
J2VwaWtfcHl0aG9uJywgJy1waCcsICc3LjAnLCAnLXRuJywgJzgnLCAnLW1hJywgJzIwMCcsICctbWV0YWxfYmluZGluZycsICctaW1hZScsICc8aW5maWxlLm1hZT4nLCAnLW9tYWUnLCAnPG91dGZpbGUubWFlPic=

> <r_lp_tautomer_probability>
0.5

> <r_epik_Ionization_Penalty>
9.4349e-05

> <r_epik_Ionization_Penalty_Charging>
0

> <r_epik_Ionization_Penalty_Neutral>
9.4349e-05

> <r_epik_State_Penalty>
0.41068

> <r_epik_Charging_Adjusted_Penalty>
0.41068

> <i_epik_Tot_Q>
0

> <i_epik_Tot_abs_Q>
0

> <r_epik_Metal_State_Penalty>
0.4107

> <b_epik_Metal_Only>
0

> <s_lp_Force_Field>
OPLS_2005

> <r_lp_Energy>
47.9612

> <b_lp_Chiralities_Consistent>
1

> <s_lp_Variant>
AV-unprocessed.smi:2881-6

> <Gold.Version>
5.8.1

> <Gold.Id.Protein>
6NUR|6NUR_protein|mol2

> <Gold.PLP.Fitness>
44.3373

> <Gold.PLP.PLP>
-36.6645

> <Gold.PLP.part.hbond>
-2.9538

> <Gold.PLP.part.metal>
0.0000

> <Gold.PLP.part.buried>
-6.1469

> <Gold.PLP.part.nonpolar>
-26.9769

> <Gold.PLP.part.repulsive>
0.2910

> <Gold.PLP.ligand.clash>
0.0000

> <Gold.PLP.ligand.torsion>
0.6735

> <Gold.PLP.Chemscore.Hbond>
3.0000

> <Gold.PLP.Chemscore.CHOScore>
0.0000

> <Gold.PLP.Chemscore.Metal>
0.0000

> <Gold.Chemscore.Hbonds>
donor molecule, donor type, donor heavy atom, donor atom, acceptor molecule, acceptor atom, score
      L1  H     8    27       P1  8028  0.91
      L1  H    17    40       P1  8029  1.00
      P1  H  7989  7998       L1    18  1.00

> <Gold.PLP.Chemscore.Internal.Correction>
0.0198

> <Gold.Rescore>
     Score         DG    S(hbond)    S(metal)    S(lipo)     H(rot)  DE(clash)    DE(int)     intcor
     19.36     -21.27       2.73        0.00     106.74       2.28       0.19       1.73       ----

> <Gold.Chemscore.Fitness>
19.3634

> <Gold.Chemscore.DG>
-21.2749

> <Gold.Chemscore.ZeroCoef>
-5.4800

> <Gold.Chemscore.Hbond>
2.7340

> <Gold.Chemscore.Metal>
0.0000

> <Gold.Chemscore.Lipo>
106.7402

> <Gold.Chemscore.Internal_Hbond>
0.0000

> <Gold.Chemscore.DEClash>
0.1855

> <Gold.Chemscore.DEInternal>
1.7260

> <Gold.Chemscore.Rot>
2.2755

> <Gold.Chemscore.Internal.Correction>
   9.000000E+99

> <Gold.Chemscore.Hbonds>
donor molecule, donor type, donor heavy atom, donor atom, acceptor molecule, acceptor atom, score
      L1  H     8    27       P1  8028  0.70
      L1  H    17    40       P1  8029  0.98
      P1  H  7989  7998       L1    18  0.88

> <Gold.Chemscore.Hbond.Weighted>
-9.1315

> <Gold.Chemscore.Metal.Weighted>
-0.0000

> <Gold.Chemscore.Lipo.Weighted>
-12.4886

> <Gold.Chemscore.Internal_Hbond.Weighted>
0.0000

> <Gold.Chemscore.DEClash.Weighted>
0.1855

> <Gold.Chemscore.DEInternal.Weighted>
1.7260

> <Gold.Chemscore.Rot.Weighted>
5.8252

> <Gold.Chemscore.Internal.Correction.Weighted>
   9.000000E+99

> <Gold.Protein.RotatedTorsions>
[ 6907 6896 6895 6894 ] final -155.41 input  -60.11 | X-H torsion
[ 7974 7965 7964 7962 ] final   92.32 input  175.53 | X-H torsion
[ 8008 7997 7996 7995 ] final -108.20 input   59.86 | X-H torsion
[ 10167 10162 10161 10158 ] final   33.07 input  -65.29 | X-H torsion
[ 10718 10713 10712 10709 ] final -115.97 input   66.30 | X-H torsion
[ 10763 10752 10751 10750 ] final   26.53 input  -60.55 | X-H torsion
[ 11005 11000 10999 10996 ] final    9.85 input  -57.11 | X-H torsion

> <Gold.Protein.ActiveResidues>
 VAL166  LYS551  ARG553  GLY616  TRP617  ASP618  TYR619  PRO620  LYS621  CYS622 
 ASP623  PHE694  ASN695  SER759  ASP760  ASP761  ALA762  ILE779  LEU786  VAL792 
 PHE793  MET794  SER795  GLU796  ALA797  LYS798  CYS799  TRP800  GLU811  SER814 

> <Gold.Protein.RotatedAtoms>
  151.2721  133.4250  159.2621 H   0  0  0  0  0  0  0  0  0  0  0  0  # atno 6907 bound_to 6896
  151.0436  134.9624  159.8185 H   0  0  0  0  0  0  0  0  0  0  0  0  # atno 6908 bound_to 6896
  152.5370  134.2678  159.9012 H   0  0  0  0  0  0  0  0  0  0  0  0  # atno 6909 bound_to 6896
  145.4939  139.2276  143.2815 H   0  0  0  0  0  0  0  0  0  0  0  0  # atno 7974 bound_to 7965
  154.9407  140.0403  157.2095 H   0  0  0  0  0  0  0  0  0  0  0  0  # atno 8008 bound_to 7997
  154.8072  140.2862  155.5857 H   0  0  0  0  0  0  0  0  0  0  0  0  # atno 8009 bound_to 7997
  156.2968  140.2544  156.2952 H   0  0  0  0  0  0  0  0  0  0  0  0  # atno 8010 bound_to 7997
  140.4441  144.1144  150.6179 H   0  0  0  0  0  0  0  0  0  0  0  0  # atno 10167 bound_to 10162
  156.0932  130.6110  150.8975 H   0  0  0  0  0  0  0  0  0  0  0  0  # atno 10718 bound_to 10713
  153.0616  135.6558  154.0449 H   0  0  0  0  0  0  0  0  0  0  0  0  # atno 10763 bound_to 10752
  154.0115  135.2928  155.3393 H   0  0  0  0  0  0  0  0  0  0  0  0  # atno 10764 bound_to 10752
  154.6957  135.5265  153.8523 H   0  0  0  0  0  0  0  0  0  0  0  0  # atno 10765 bound_to 10752
  140.5211  134.0558  155.7845 H   0  0  0  0  0  0  0  0  0  0  0  0  # atno 11005 bound_to 11000
  146.2267  140.5735  142.8993 LP  0  0  0  0  0  0  0  0  0  0  0  0  # atno 17320 bound_to 7965
  144.7818  140.5856  143.6600 LP  0  0  0  0  0  0  0  0  0  0  0  0  # atno 17321 bound_to 7965
  140.4284  143.2579  151.9627 LP  0  0  0  0  0  0  0  0  0  0  0  0  # atno 17342 bound_to 10162
  139.4791  144.5767  151.8000 LP  0  0  0  0  0  0  0  0  0  0  0  0  # atno 17343 bound_to 10162
  157.6086  131.0937  150.8835 LP  0  0  0  0  0  0  0  0  0  0  0  0  # atno 17370 bound_to 10713
  156.8979  130.5236  149.5284 LP  0  0  0  0  0  0  0  0  0  0  0  0  # atno 17371 bound_to 10713
  141.1333  133.9264  157.2488 LP  0  0  0  0  0  0  0  0  0  0  0  0  # atno 17394 bound_to 11000
  139.9605  135.0155  156.9248 LP  0  0  0  0  0  0  0  0  0  0  0  0  # atno 17395 bound_to 11000

$$$$
