#       Name:                AV-unprocessed.smi:1244
#       Creating user name   scv26
#       Creation time:       Fri Mar 27 04:33:09 2020


#       File generated by GOLD software.
#

@<TRIPOS>MOLECULE
AV-unprocessed.smi:1244
    61    63     1
SMALL
NO_CHARGES


@<TRIPOS>ATOM
      1 ****        -5.1922  -0.3039   0.7373 C.3            1 S1                 0.0000
      2 ****        -3.7593   0.0668   1.1330 C.3            1 S1                 0.0000
      3 ****        -2.9997  -1.1207   1.7543 C.3            1 S1                 0.0000
      4 ****        -1.6635  -0.7397   2.1953 N.3            1 S1                 0.0000
      5 ****        -0.9463  -1.8831   2.7608 C.3            1 S1                 0.0000
      6 ****         0.5523  -1.6470   3.0382 C.3            1 S1                 0.0000
      7 ****         1.2439  -1.1216   1.8655 N.am           1 S1                 0.0000
      8 ****         1.5881  -1.8404   0.7886 C.2            1 S1                 0.0000
      9 ****         1.4288  -3.0578   0.6994 O.2            1 S1                 0.0000
     10 ****         2.0923  -1.0554  -0.1772 N.am           1 S1                 0.0000
     11 ****         2.4705  -1.4366  -1.4945 C.ar           1 S1                 0.0000
     12 ****         3.0727  -2.6916  -1.7641 C.ar           1 S1                 0.0000
     13 ****         3.4364  -3.0231  -3.0836 C.ar           1 S1                 0.0000
     14 ****         3.2002  -2.0920  -4.1107 C.ar           1 S1                 0.0000
     15 ****         2.6388  -0.9003  -3.8179 N.pl3          1 S1                 1.0000
     16 ****         2.2676  -0.5277  -2.5682 C.ar           1 S1                 0.0000
     17 ****         1.7085   0.7531  -2.3744 N.3            1 S1                 0.0000
     18 ****         2.5897   1.6924  -1.6856 C.3            1 S1                 0.0000
     19 ****         2.3370   3.0645  -2.3145 C.3            1 S1                 0.0000
     20 ****         1.8623   2.7186  -3.7206 C.3            1 S1                 0.0000
     21 ****         1.0615   1.4380  -3.4923 C.3            1 S1                 0.0000
     22 ****        -1.7722   0.3755   3.1312 C.3            1 S1                 0.0000
     23 ****        -2.5319   1.5670   2.5170 C.3            1 S1                 0.0000
     24 ****        -2.7263   2.7094   3.5194 C.3            1 S1                 0.0000
     25 ****        -3.8161   1.1292   2.0813 O.3            1 S1                 0.0000
     26 ****        -5.2004  -1.1069  -0.0001 H              1 S1                 0.0000
     27 ****        -5.7098   0.5516   0.3028 H              1 S1                 0.0000
     28 ****        -5.7666  -0.6368   1.6022 H              1 S1                 0.0000
     29 ****        -3.2291   0.4144   0.2445 H              1 S1                 0.0000
     30 ****        -3.5679  -1.5163   2.5981 H              1 S1                 0.0000
     31 ****        -2.9298  -1.9255   1.0213 H              1 S1                 0.0000
     32 ****        -1.4366  -2.2093   3.6791 H              1 S1                 0.0000
     33 ****        -1.0265  -2.7239   2.0706 H              1 S1                 0.0000
     34 ****         0.6844  -0.9429   3.8595 H              1 S1                 0.0000
     35 ****         1.0225  -2.5766   3.3623 H              1 S1                 0.0000
     36 ****         1.4136  -0.1268   1.8503 H              1 S1                 0.0000
     37 ****         2.0721  -0.0625   0.0028 H              1 S1                 0.0000
     38 ****         3.2703  -3.4012  -0.9747 H              1 S1                 0.0000
     39 ****         3.8937  -3.9769  -3.3025 H              1 S1                 0.0000
     40 ****         3.4483  -2.2590  -5.1489 H              1 S1                 0.0000
     41 ****         2.3897   1.7072  -0.6141 H              1 S1                 0.0000
     42 ****         3.6325   1.4030  -1.8281 H              1 S1                 0.0000
     43 ****         1.5409   3.5789  -1.7741 H              1 S1                 0.0000
     44 ****         3.2193   3.7049  -2.3064 H              1 S1                 0.0000
     45 ****         1.2728   3.5121  -4.1809 H              1 S1                 0.0000
     46 ****         2.7198   2.5137  -4.3632 H              1 S1                 0.0000
     47 ****         0.9774   0.8452  -4.4032 H              1 S1                 0.0000
     48 ****         0.0453   1.6863  -3.1837 H              1 S1                 0.0000
     49 ****        -2.2811   0.0466   4.0388 H              1 S1                 0.0000
     50 ****        -0.7805   0.7113   3.4329 H              1 S1                 0.0000
     51 ****        -1.9784   1.9466   1.6562 H              1 S1                 0.0000
     52 ****        -1.7675   3.0887   3.8734 H              1 S1                 0.0000
     53 ****        -3.2980   2.3793   4.3873 H              1 S1                 0.0000
     54 ****        -3.2642   3.5405   3.0627 H              1 S1                 0.0000
     55 ****         2.4889  -0.2407  -4.5816 H              1 S1                 0.0000
     56 ****        -1.1215  -0.4380   1.4109 LP             1 S1                 0.0000
     57 ****         1.0216  -3.5657   1.4585 LP             1 S1                 0.0000
     58 ****         1.7066  -3.5388  -0.1322 LP             1 S1                 0.0000
     59 ****         0.9484   0.4751  -1.7871 LP             1 S1                 0.0000
     60 ****        -4.3315   0.8154   2.8787 LP             1 S1                 0.0000
     61 ****        -4.2897   1.9037   1.6619 LP             1 S1                 0.0000
@<TRIPOS>BOND
    1    1    2 1     
    2    1   26 1     
    3    1   27 1     
    4    1   28 1     
    5    2   25 1     
    6    2    3 1     
    7    2   29 1     
    8    3    4 1     
    9    3   30 1     
   10    3   31 1     
   11    4    5 1     
   12    4   22 1     
   13    5    6 1     
   14    5   32 1     
   15    5   33 1     
   16    6    7 1     
   17    6   34 1     
   18    6   35 1     
   19    7    8 am    
   20    7   36 1     
   21    8    9 2     
   22    8   10 am    
   23   10   11 1     
   24   10   37 1     
   25   11   16 ar    
   26   11   12 ar    
   27   12   13 ar    
   28   12   38 1     
   29   13   14 ar    
   30   13   39 1     
   31   14   15 ar    
   32   14   40 1     
   33   15   16 ar    
   34   15   55 1     
   35   16   17 1     
   36   17   21 1     
   37   17   18 1     
   38   18   19 1     
   39   18   41 1     
   40   18   42 1     
   41   19   20 1     
   42   19   43 1     
   43   19   44 1     
   44   20   21 1     
   45   20   45 1     
   46   20   46 1     
   47   21   47 1     
   48   21   48 1     
   49   22   23 1     
   50   22   49 1     
   51   22   50 1     
   52   23   24 1     
   53   23   25 1     
   54   23   51 1     
   55   24   52 1     
   56   24   53 1     
   57   24   54 1     
   58    4   56 1     
   59    9   57 1     
   60    9   58 1     
   61   17   59 1     
   62   25   60 1     
   63   25   61 1     
@<TRIPOS>SUBSTRUCTURE
      1 S1             1
@<TRIPOS>SET
LONE_PAIRS      STATIC     ATOMS    <user>   **** ""
6 56 57 58 59 60 61
DONOR_HYDROGENS      STATIC     ATOMS    <user>   **** ""
3 36 37 55
ATOM$BLUE        STATIC     ATOMS    COLORGROUP SYSTEM
6 56 57 58 59 60 61
ATOM$RED        STATIC     ATOMS    COLORGROUP SYSTEM
3 36 37 55
