AV-unprocessed.smi:2324|AV-procd|sdf|9291|dock6
  -GOLD-   2272012513D 1   1.00000     0.00000
 Structure written by MMmdl.
 37 39  0  0  0  0  0  0  0  0  1 V2000
  145.3611  137.8784  153.6874 O   0  0  0  0  0  0  0  0  0  0  0  0
  146.3868  137.4524  153.1591 C   0  0  0  0  0  0  0  0  0  0  0  0
  146.3711  136.3158  152.4310 N   0  0  0  0  0  0  0  0  0  0  0  0
  145.3159  135.4131  152.1079 C   0  0  0  0  0  0  0  0  0  0  0  0
  145.5935  134.5422  151.0325 C   0  0  0  0  0  0  0  0  0  0  0  0
  144.6079  133.6175  150.6474 C   0  0  0  0  0  0  0  0  0  0  0  0
  143.4020  133.6250  151.3685 C   0  0  0  0  0  0  0  0  0  0  0  0
  143.1765  134.4758  152.3924 N   0  0  0  0  0  0  0  0  0  0  0  0
  144.1199  135.3524  152.7519 N   0  0  0  0  0  0  0  0  0  0  0  0
  147.5720  138.0752  153.2701 N   0  0  0  0  0  0  0  0  0  0  0  0
  147.8139  139.3102  154.0091 C   0  0  2  0  0  0  0  0  0  0  0  0
  147.1129  140.4818  153.3093 C   0  0  0  0  0  0  0  0  0  0  0  0
  147.4488  141.8085  154.0069 C   0  0  0  0  0  0  0  0  0  0  0  0
  148.8608  142.0049  154.0533 O   0  0  0  0  0  0  0  0  0  0  0  0
  149.5980  140.9859  154.7315 C   0  0  1  0  0  0  0  0  0  0  0  0
  149.3617  141.0178  156.2357 C   0  0  0  0  0  0  0  0  0  0  0  0
  150.1247  141.9805  157.1148 C   0  0  0  0  0  0  0  0  0  0  0  0
  150.4111  140.4998  157.1910 C   0  0  0  0  0  0  0  0  0  0  0  0
  149.3207  139.6072  154.1010 C   0  0  0  0  0  0  0  0  0  0  0  0
  147.2685  136.0587  152.0462 H   0  0  0  0  0  0  0  0  0  0  0  0
  146.5398  134.5787  150.5124 H   0  0  0  0  0  0  0  0  0  0  0  0
  144.7703  132.9288  149.8316 H   0  0  0  0  0  0  0  0  0  0  0  0
  142.6058  132.9381  151.1225 H   0  0  0  0  0  0  0  0  0  0  0  0
  148.3676  137.6586  152.8071 H   0  0  0  0  0  0  0  0  0  0  0  0
  147.3986  139.2093  155.0132 H   0  0  0  0  0  0  0  0  0  0  0  0
  147.4284  140.5352  152.2663 H   0  0  0  0  0  0  0  0  0  0  0  0
  146.0332  140.3278  153.3013 H   0  0  0  0  0  0  0  0  0  0  0  0
  147.0031  142.6379  153.4579 H   0  0  0  0  0  0  0  0  0  0  0  0
  147.0226  141.8389  155.0098 H   0  0  0  0  0  0  0  0  0  0  0  0
  150.6512  141.2172  154.5682 H   0  0  0  0  0  0  0  0  0  0  0  0
  148.3336  140.8253  156.5341 H   0  0  0  0  0  0  0  0  0  0  0  0
  150.8743  142.6132  156.6435 H   0  0  0  0  0  0  0  0  0  0  0  0
  149.5881  142.4335  157.9460 H   0  0  0  0  0  0  0  0  0  0  0  0
  150.0645  139.9638  158.0719 H   0  0  0  0  0  0  0  0  0  0  0  0
  151.3505  140.1468  156.7702 H   0  0  0  0  0  0  0  0  0  0  0  0
  149.8337  138.8277  154.6657 H   0  0  0  0  0  0  0  0  0  0  0  0
  149.7503  139.5905  153.0982 H   0  0  0  0  0  0  0  0  0  0  0  0
  1  2  2  0  0  0  0
  2  3  1  0  0  0  0
  2 10  1  0  0  0  0
  3  4  1  0  0  0  0
  3 20  1  0  0  0  0
  4  9  1  0  0  0  0
  4  5  2  0  0  0  0
  5  6  1  0  0  0  0
  5 21  1  0  0  0  0
  6  7  2  0  0  0  0
  6 22  1  0  0  0  0
  7  8  1  0  0  0  0
  7 23  1  0  0  0  0
  8  9  2  0  0  0  0
 10 11  1  0  0  0  0
 10 24  1  0  0  0  0
 11 19  1  0  0  0  0
 11 12  1  0  0  0  0
 11 25  1  0  0  0  0
 12 13  1  0  0  0  0
 12 26  1  0  0  0  0
 12 27  1  0  0  0  0
 13 14  1  0  0  0  0
 13 28  1  0  0  0  0
 13 29  1  0  0  0  0
 14 15  1  0  0  0  0
 15 16  1  0  0  0  0
 15 19  1  0  0  0  0
 15 30  1  0  0  0  0
 16 18  1  0  0  0  0
 16 17  1  0  0  0  0
 16 31  1  0  0  0  0
 17 18  1  0  0  0  0
 17 32  1  0  0  0  0
 17 33  1  0  0  0  0
 18 34  1  0  0  0  0
 18 35  1  0  0  0  0
 19 36  1  0  0  0  0
 19 37  1  0  0  0  0
M  END
> <s_m_source_file>
AV-unprocessed.smi

> <i_m_source_file_index>
2324

> <i_lp_mmshare_version>
43012

> <i_f3d_flags>
0

> <s_epik_input>
bjFuW2NIXVtjSF1bY0hdYzFbTkhdQyg9TylbTkhdW0NAQEhdMltDSDJdW0NIMl1PW0NASF0oW0NIMl0yKVtDSF0zW0NIMl1bQ0gyXTM=

> <s_epik_cmdline>
J2VwaWtfcHl0aG9uJywgJy1waCcsICc3LjAnLCAnLXRuJywgJzgnLCAnLW1hJywgJzIwMCcsICctbWV0YWxfYmluZGluZycsICctaW1hZScsICc8aW5maWxlLm1hZT4nLCAnLW9tYWUnLCAnPG91dGZpbGUubWFlPic=

> <r_lp_tautomer_probability>
1

> <r_epik_Ionization_Penalty>
0.00521499

> <r_epik_Ionization_Penalty_Charging>
0

> <r_epik_Ionization_Penalty_Neutral>
0.00521499

> <r_epik_State_Penalty>
-0

> <r_epik_Charging_Adjusted_Penalty>
0

> <i_epik_Tot_Q>
0

> <i_epik_Tot_abs_Q>
0

> <r_epik_Metal_State_Penalty>
-0

> <b_epik_Metal_Only>
0

> <s_lp_Force_Field>
OPLS_2005

> <r_lp_Energy>
28.1305

> <b_lp_Chiralities_Consistent>
1

> <s_lp_Variant>
AV-unprocessed.smi:2324-1

> <Gold.Version>
5.8.1

> <Gold.Id.Protein>
6NUR|6NUR_protein|mol2

> <Gold.PLP.Fitness>
36.4505

> <Gold.PLP.PLP>
-28.2364

> <Gold.PLP.part.hbond>
-3.0000

> <Gold.PLP.part.metal>
0.0000

> <Gold.PLP.part.buried>
-1.4732

> <Gold.PLP.part.nonpolar>
-24.9219

> <Gold.PLP.part.repulsive>
0.7867

> <Gold.PLP.ligand.clash>
0.0000

> <Gold.PLP.ligand.torsion>
0.6705

> <Gold.PLP.Chemscore.Hbond>
2.3440

> <Gold.PLP.Chemscore.CHOScore>
0.4817

> <Gold.PLP.Chemscore.Metal>
0.0000

> <Gold.Chemscore.Hbonds>
donor molecule, donor type, donor heavy atom, donor atom, acceptor molecule, acceptor atom, score
      L1  H     3    20       P1  7948  1.00
      L1  H    10    24       P1  7948  0.93
      P1  H  8011  8017       L1    14  0.42
      L1  C     7    23       P1 10186  0.29

> <Gold.PLP.Chemscore.Internal.Correction>
1.0781

> <Gold.Rescore>
     Score         DG    S(hbond)    S(metal)    S(lipo)     H(rot)  DE(clash)    DE(int)     intcor
     16.13     -18.12       2.40        0.00      66.98       1.25       0.11       1.88       ----

> <Gold.Chemscore.Fitness>
16.1350

> <Gold.Chemscore.DG>
-18.1224

> <Gold.Chemscore.ZeroCoef>
-5.4800

> <Gold.Chemscore.Hbond>
2.3951

> <Gold.Chemscore.Metal>
0.0000

> <Gold.Chemscore.Lipo>
66.9791

> <Gold.Chemscore.Internal_Hbond>
0.0000

> <Gold.Chemscore.DEClash>
0.1066

> <Gold.Chemscore.DEInternal>
1.8808

> <Gold.Chemscore.Rot>
1.2476

> <Gold.Chemscore.Internal.Correction>
   9.000000E+99

> <Gold.Chemscore.Hbonds>
donor molecule, donor type, donor heavy atom, donor atom, acceptor molecule, acceptor atom, score
      L1  H     3    20       P1  7948  0.98
      L1  H    10    24       P1  7948  0.90
      P1  H  8011  8017       L1    14  0.27

> <Gold.Chemscore.Hbond.Weighted>
-7.9996

> <Gold.Chemscore.Metal.Weighted>
-0.0000

> <Gold.Chemscore.Lipo.Weighted>
-7.8366

> <Gold.Chemscore.Internal_Hbond.Weighted>
0.0000

> <Gold.Chemscore.DEClash.Weighted>
0.1066

> <Gold.Chemscore.DEInternal.Weighted>
1.8808

> <Gold.Chemscore.Rot.Weighted>
3.1938

> <Gold.Chemscore.Internal.Correction.Weighted>
   9.000000E+99

> <Gold.Protein.RotatedTorsions>
[ 6907 6896 6895 6894 ] final  -18.66 input  -60.11 | X-H torsion
[ 7974 7965 7964 7962 ] final -148.25 input  175.53 | X-H torsion
[ 8008 7997 7996 7995 ] final  -18.52 input   59.86 | X-H torsion
[ 10167 10162 10161 10158 ] final   52.25 input  -65.29 | X-H torsion
[ 10718 10713 10712 10709 ] final    0.48 input   66.30 | X-H torsion
[ 10763 10752 10751 10750 ] final  158.57 input  -60.55 | X-H torsion
[ 11005 11000 10999 10996 ] final -109.36 input  -57.11 | X-H torsion

> <Gold.Protein.ActiveResidues>
 VAL166  LYS551  ARG553  GLY616  TRP617  ASP618  TYR619  PRO620  LYS621  CYS622 
 ASP623  PHE694  ASN695  SER759  ASP760  ASP761  ALA762  ILE779  LEU786  VAL792 
 PHE793  MET794  SER795  GLU796  ALA797  LYS798  CYS799  TRP800  GLU811  SER814 

> <Gold.Protein.RotatedAtoms>
  151.2749  135.0696  159.9147 H   0  0  0  0  0  0  0  0  0  0  0  0  # atno 6907 bound_to 6896
  152.5344  134.0092  159.7940 H   0  0  0  0  0  0  0  0  0  0  0  0  # atno 6908 bound_to 6896
  151.0336  133.5718  159.2689 H   0  0  0  0  0  0  0  0  0  0  0  0  # atno 6909 bound_to 6896
  144.8041  140.5220  143.5687 H   0  0  0  0  0  0  0  0  0  0  0  0  # atno 7974 bound_to 7965
  154.4901  140.2113  155.9568 H   0  0  0  0  0  0  0  0  0  0  0  0  # atno 8008 bound_to 7997
  156.1292  140.3200  155.8292 H   0  0  0  0  0  0  0  0  0  0  0  0  # atno 8009 bound_to 7997
  155.4327  140.0504  157.3008 H   0  0  0  0  0  0  0  0  0  0  0  0  # atno 8010 bound_to 7997
  140.2534  144.3454  150.6341 H   0  0  0  0  0  0  0  0  0  0  0  0  # atno 10167 bound_to 10162
  156.8339  130.5498  149.5684 H   0  0  0  0  0  0  0  0  0  0  0  0  # atno 10718 bound_to 10713
  154.2181  135.2783  155.2934 H   0  0  0  0  0  0  0  0  0  0  0  0  # atno 10763 bound_to 10752
  154.5724  135.5614  153.7111 H   0  0  0  0  0  0  0  0  0  0  0  0  # atno 10764 bound_to 10752
  153.0048  135.6324  154.2321 H   0  0  0  0  0  0  0  0  0  0  0  0  # atno 10765 bound_to 10752
  141.0852  133.9152  157.2202 H   0  0  0  0  0  0  0  0  0  0  0  0  # atno 11005 bound_to 11000
  145.5481  139.1476  143.3409 LP  0  0  0  0  0  0  0  0  0  0  0  0  # atno 17320 bound_to 7965
  146.2329  140.5620  142.8967 LP  0  0  0  0  0  0  0  0  0  0  0  0  # atno 17321 bound_to 7965
  140.6023  143.2167  151.7049 LP  0  0  0  0  0  0  0  0  0  0  0  0  # atno 17342 bound_to 10162
  139.5039  144.3774  152.0410 LP  0  0  0  0  0  0  0  0  0  0  0  0  # atno 17343 bound_to 10162
  156.0918  130.5902  150.9746 LP  0  0  0  0  0  0  0  0  0  0  0  0  # atno 17370 bound_to 10713
  157.6392  131.0912  150.8287 LP  0  0  0  0  0  0  0  0  0  0  0  0  # atno 17371 bound_to 10713
  139.9669  135.0139  156.9411 LP  0  0  0  0  0  0  0  0  0  0  0  0  # atno 17394 bound_to 11000
  140.5380  134.0748  155.7333 LP  0  0  0  0  0  0  0  0  0  0  0  0  # atno 17395 bound_to 11000

$$$$
