AV-unprocessed.smi:2252|AV-procd|sdf|9111|dock2
  -GOLD-   2272012313D 1   1.00000     0.00000
 Structure written by MMmdl.
 44 46  0  0  0  0  0  0  0  0  3 V2000
  152.0215  144.6499  159.3155 C   0  0  0  0  0  0  0  0  0  0  0  0
  152.3052  143.5986  160.2739 N   0  0  0  0  0  0  0  0  0  0  0  0
  152.3922  143.7603  161.6505 C   0  0  0  0  0  0  0  0  0  0  0  0
  152.6801  142.5248  162.1763 C   0  0  0  0  0  0  0  0  0  0  0  0
  152.7748  141.5977  161.1455 N   0  0  0  0  0  0  0  0  0  0  0  0
  152.5357  142.2905  160.0319 C   0  0  0  0  0  0  0  0  0  0  0  0
  152.5305  141.6852  158.6491 C   0  0  0  0  0  0  0  0  0  0  0  0
  151.1929  141.7940  157.8771 C   0  0  0  0  0  0  0  0  0  0  0  0
  151.3570  141.3552  156.4931 N   0  5  0  0  0  0  0  0  0  0  0  0
  150.3324  140.9728  155.6801 C   0  0  0  0  0  0  0  0  0  0  0  0
  150.3511  140.4593  154.5573 O   0  0  0  0  0  0  0  0  0  0  0  0
  148.9669  141.2130  156.3513 C   0  0  2  0  0  0  0  0  0  0  0  0
  148.1898  139.8820  156.4879 C   0  0  0  0  0  0  0  0  0  0  0  0
  147.1342  139.6945  157.5563 C   0  0  0  0  0  0  0  0  0  0  0  0
  148.4440  138.9564  157.6579 C   0  0  0  0  0  0  0  0  0  0  0  0
  148.1838  142.2529  155.6243 N   0  3  0  0  0  0  0  0  0  0  0  0
  147.9594  142.0059  154.1833 C   0  0  0  0  0  0  0  0  0  0  0  0
  146.7007  142.7936  153.7934 C   0  0  0  0  0  0  0  0  0  0  0  0
  146.1384  143.3482  155.1045 C   0  0  0  0  0  0  0  0  0  0  0  0
  146.8537  142.5535  156.1928 C   0  0  0  0  0  0  0  0  0  0  0  0
  151.8415  145.5925  159.8334 H   0  0  0  0  0  0  0  0  0  0  0  0
  151.1348  144.3944  158.7350 H   0  0  0  0  0  0  0  0  0  0  0  0
  152.8699  144.7749  158.6424 H   0  0  0  0  0  0  0  0  0  0  0  0
  152.2460  144.7169  162.1299 H   0  0  0  0  0  0  0  0  0  0  0  0
  152.8261  142.2338  163.2061 H   0  0  0  0  0  0  0  0  0  0  0  0
  153.3204  142.1499  158.0591 H   0  0  0  0  0  0  0  0  0  0  0  0
  152.8171  140.6363  158.7361 H   0  0  0  0  0  0  0  0  0  0  0  0
  150.4410  141.1941  158.3901 H   0  0  0  0  0  0  0  0  0  0  0  0
  150.8324  142.8214  157.9411 H   0  0  0  0  0  0  0  0  0  0  0  0
  149.1585  141.5916  157.3571 H   0  0  0  0  0  0  0  0  0  0  0  0
  147.9989  139.3850  155.5381 H   0  0  0  0  0  0  0  0  0  0  0  0
  146.9653  140.5112  158.2554 H   0  0  0  0  0  0  0  0  0  0  0  0
  146.2502  139.1186  157.2903 H   0  0  0  0  0  0  0  0  0  0  0  0
  148.4385  137.8867  157.4589 H   0  0  0  0  0  0  0  0  0  0  0  0
  149.1458  139.2849  158.4220 H   0  0  0  0  0  0  0  0  0  0  0  0
  148.8290  142.3039  153.5964 H   0  0  0  0  0  0  0  0  0  0  0  0
  147.7846  140.9427  154.0124 H   0  0  0  0  0  0  0  0  0  0  0  0
  146.9317  143.6012  153.0978 H   0  0  0  0  0  0  0  0  0  0  0  0
  145.9793  142.1361  153.3070 H   0  0  0  0  0  0  0  0  0  0  0  0
  146.3951  144.4043  155.1948 H   0  0  0  0  0  0  0  0  0  0  0  0
  145.0532  143.2638  155.1693 H   0  0  0  0  0  0  0  0  0  0  0  0
  146.3175  141.6228  156.3855 H   0  0  0  0  0  0  0  0  0  0  0  0
  146.9186  143.1068  157.1304 H   0  0  0  0  0  0  0  0  0  0  0  0
  148.7180  143.1085  155.6916 H   0  0  0  0  0  0  0  0  0  0  0  0
  1  2  1  0  0  0  0
  1 21  1  0  0  0  0
  1 22  1  0  0  0  0
  1 23  1  0  0  0  0
  2  6  1  0  0  0  0
  2  3  1  0  0  0  0
  3  4  2  0  0  0  0
  3 24  1  0  0  0  0
  4  5  1  0  0  0  0
  4 25  1  0  0  0  0
  5  6  2  0  0  0  0
  6  7  1  0  0  0  0
  7  8  1  0  0  0  0
  7 26  1  0  0  0  0
  7 27  1  0  0  0  0
  8  9  1  0  0  0  0
  8 28  1  0  0  0  0
  8 29  1  0  0  0  0
  9 10  1  0  0  0  0
 10 11  2  0  0  0  0
 10 12  1  0  0  0  0
 12 13  1  0  0  0  0
 12 16  1  0  0  0  0
 12 30  1  0  0  0  0
 13 15  1  0  0  0  0
 13 14  1  0  0  0  0
 13 31  1  0  0  0  0
 14 15  1  0  0  0  0
 14 32  1  0  0  0  0
 14 33  1  0  0  0  0
 15 34  1  0  0  0  0
 15 35  1  0  0  0  0
 16 20  1  0  0  0  0
 16 17  1  0  0  0  0
 16 44  1  0  0  0  0
 17 18  1  0  0  0  0
 17 36  1  0  0  0  0
 17 37  1  0  0  0  0
 18 19  1  0  0  0  0
 18 38  1  0  0  0  0
 18 39  1  0  0  0  0
 19 20  1  0  0  0  0
 19 40  1  0  0  0  0
 19 41  1  0  0  0  0
 20 42  1  0  0  0  0
 20 43  1  0  0  0  0
M  CHG  1   9  -1
M  CHG  1  16   1
M  END
> <s_m_source_file>
AV-unprocessed.smi

> <i_m_source_file_index>
2252

> <i_lp_mmshare_version>
43012

> <i_f3d_flags>
0

> <s_epik_input>
W0NIM11uMVtjSF1bY0hdbmMxW0NIMl1bQ0gyXVtOSF1DKD1PKVtDQEhdKFtDSF0yW0NIMl1bQ0gyXTIpTjNbQ0gyXVtDSDJdW0NIMl1bQ0gyXTM=

> <s_epik_cmdline>
J2VwaWtfcHl0aG9uJywgJy1waCcsICc3LjAnLCAnLXRuJywgJzgnLCAnLW1hJywgJzIwMCcsICctbWV0YWxfYmluZGluZycsICctaW1hZScsICc8aW5maWxlLm1hZT4nLCAnLW9tYWUnLCAnPG91dGZpbGUubWFlPic=

> <r_lp_tautomer_probability>
1

> <r_epik_Ionization_Penalty>
7.86289

> <r_epik_Ionization_Penalty_Charging>
7.86289

> <r_epik_Ionization_Penalty_Neutral>
4.79398e-13

> <r_epik_State_Penalty>
7.18546

> <r_epik_Charging_Adjusted_Penalty>
15.0484

> <i_epik_Tot_Q>
0

> <i_epik_Tot_abs_Q>
2

> <r_epik_Metal_State_Penalty>
3.4294

> <b_epik_Metal_Only>
1

> <s_lp_Force_Field>
OPLS_2005

> <r_lp_Energy>
29.989

> <b_lp_Chiralities_Consistent>
1

> <s_lp_Variant>
AV-unprocessed.smi:2252-9

> <Gold.Version>
5.8.1

> <Gold.Id.Protein>
6NUR|6NUR_protein|mol2

> <Gold.PLP.Fitness>
52.9206

> <Gold.PLP.PLP>
-44.1863

> <Gold.PLP.part.hbond>
-2.0000

> <Gold.PLP.part.metal>
0.0000

> <Gold.PLP.part.buried>
-7.0591

> <Gold.PLP.part.nonpolar>
-35.3858

> <Gold.PLP.part.repulsive>
0.2419

> <Gold.PLP.ligand.clash>
0.0000

> <Gold.PLP.ligand.torsion>
0.7796

> <Gold.PLP.Chemscore.Hbond>
3.0000

> <Gold.PLP.Chemscore.CHOScore>
0.0000

> <Gold.PLP.Chemscore.Metal>
0.0000

> <Gold.Chemscore.Hbonds>
donor molecule, donor type, donor heavy atom, donor atom, acceptor molecule, acceptor atom, score
      L1  H    16    44       P1  8028  2.00
      P1  H  7989  7998       L1    11  0.99

> <Gold.PLP.Chemscore.Internal.Correction>
1.2935

> <Gold.Rescore>
     Score         DG    S(hbond)    S(metal)    S(lipo)     H(rot)  DE(clash)    DE(int)     intcor
     14.91     -17.09       1.92        0.00      85.70       1.88       0.08       2.10       ----

> <Gold.Chemscore.Fitness>
14.9076

> <Gold.Chemscore.DG>
-17.0905

> <Gold.Chemscore.ZeroCoef>
-5.4800

> <Gold.Chemscore.Hbond>
1.9160

> <Gold.Chemscore.Metal>
0.0000

> <Gold.Chemscore.Lipo>
85.7039

> <Gold.Chemscore.Internal_Hbond>
0.0000

> <Gold.Chemscore.DEClash>
0.0814

> <Gold.Chemscore.DEInternal>
2.1015

> <Gold.Chemscore.Rot>
1.8814

> <Gold.Chemscore.Internal.Correction>
   9.000000E+99

> <Gold.Chemscore.Hbonds>
donor molecule, donor type, donor heavy atom, donor atom, acceptor molecule, acceptor atom, score
      L1  H    16    44       P1  8028  0.95
      P1  H  7989  7998       L1    11  0.90

> <Gold.Chemscore.Hbond.Weighted>
-6.3994

> <Gold.Chemscore.Metal.Weighted>
-0.0000

> <Gold.Chemscore.Lipo.Weighted>
-10.0274

> <Gold.Chemscore.Internal_Hbond.Weighted>
0.0000

> <Gold.Chemscore.DEClash.Weighted>
0.0814

> <Gold.Chemscore.DEInternal.Weighted>
2.1015

> <Gold.Chemscore.Rot.Weighted>
4.8163

> <Gold.Chemscore.Internal.Correction.Weighted>
   9.000000E+99

> <Gold.Protein.RotatedTorsions>
[ 6907 6896 6895 6894 ] final -108.10 input  -60.11 | X-H torsion
[ 7974 7965 7964 7962 ] final  -24.08 input  175.53 | X-H torsion
[ 8008 7997 7996 7995 ] final   -4.99 input   59.86 | X-H torsion
[ 10167 10162 10161 10158 ] final  130.63 input  -65.29 | X-H torsion
[ 10718 10713 10712 10709 ] final  -17.51 input   66.30 | X-H torsion
[ 10763 10752 10751 10750 ] final  102.87 input  -60.55 | X-H torsion
[ 11005 11000 10999 10996 ] final   82.53 input  -57.11 | X-H torsion

> <Gold.Protein.ActiveResidues>
 VAL166  LYS551  ARG553  GLY616  TRP617  ASP618  TYR619  PRO620  LYS621  CYS622 
 ASP623  PHE694  ASN695  SER759  ASP760  ASP761  ALA762  ILE779  LEU786  VAL792 
 PHE793  MET794  SER795  GLU796  ALA797  LYS798  CYS799  TRP800  GLU811  SER814 

> <Gold.Protein.RotatedAtoms>
  150.7482  133.9728  159.3550 H   0  0  0  0  0  0  0  0  0  0  0  0  # atno 6907 bound_to 6896
  151.7663  135.0795  160.0362 H   0  0  0  0  0  0  0  0  0  0  0  0  # atno 6908 bound_to 6896
  152.3369  133.5985  159.5885 H   0  0  0  0  0  0  0  0  0  0  0  0  # atno 6909 bound_to 6896
  146.1576  140.4704  142.8585 H   0  0  0  0  0  0  0  0  0  0  0  0  # atno 7974 bound_to 7965
  154.6086  140.2470  155.7699 H   0  0  0  0  0  0  0  0  0  0  0  0  # atno 8008 bound_to 7997
  156.2356  140.2951  156.0255 H   0  0  0  0  0  0  0  0  0  0  0  0  # atno 8009 bound_to 7997
  155.2090  140.0396  157.2920 H   0  0  0  0  0  0  0  0  0  0  0  0  # atno 8010 bound_to 7997
  139.5421  144.6740  151.4591 H   0  0  0  0  0  0  0  0  0  0  0  0  # atno 10167 bound_to 10162
  156.5725  130.4753  149.6356 H   0  0  0  0  0  0  0  0  0  0  0  0  # atno 10718 bound_to 10713
  153.3453  135.3995  155.1604 H   0  0  0  0  0  0  0  0  0  0  0  0  # atno 10763 bound_to 10752
  154.8652  135.3643  154.5293 H   0  0  0  0  0  0  0  0  0  0  0  0  # atno 10764 bound_to 10752
  153.5740  135.7078  153.5552 H   0  0  0  0  0  0  0  0  0  0  0  0  # atno 10765 bound_to 10752
  139.9061  134.8078  156.2187 H   0  0  0  0  0  0  0  0  0  0  0  0  # atno 11005 bound_to 11000
  144.7984  140.6167  143.6494 LP  0  0  0  0  0  0  0  0  0  0  0  0  # atno 17320 bound_to 7965
  145.4668  139.1507  143.3836 LP  0  0  0  0  0  0  0  0  0  0  0  0  # atno 17321 bound_to 7965
  140.6655  143.8407  150.6937 LP  0  0  0  0  0  0  0  0  0  0  0  0  # atno 17342 bound_to 10162
  140.1815  143.4111  152.1930 LP  0  0  0  0  0  0  0  0  0  0  0  0  # atno 17343 bound_to 10162
  156.2702  130.7012  151.1807 LP  0  0  0  0  0  0  0  0  0  0  0  0  # atno 17370 bound_to 10713
  157.7345  131.0581  150.5521 LP  0  0  0  0  0  0  0  0  0  0  0  0  # atno 17371 bound_to 10713
  141.0419  133.6933  156.1614 LP  0  0  0  0  0  0  0  0  0  0  0  0  # atno 17394 bound_to 11000
  140.6942  134.4634  157.5588 LP  0  0  0  0  0  0  0  0  0  0  0  0  # atno 17395 bound_to 11000

$$$$
