AV-unprocessed.smi:3335|AV-procd|sdf|12844|dock1
  -GOLD-   2272019233D 1   1.00000     0.00000
 Structure written by MMmdl.
 47 48  0  0  0  0  0  0  0  0  2 V2000
  144.7095  133.4506  149.8022 C   0  0  0  0  0  0  0  0  0  0  0  0
  144.4131  134.3333  150.9803 C   0  0  0  0  0  0  0  0  0  0  0  0
  143.8320  133.9619  152.2256 C   0  0  0  0  0  0  0  0  0  0  0  0
  143.7056  134.9820  153.0580 N   0  0  0  0  0  0  0  0  0  0  0  0
  144.2008  136.0399  152.3777 N   0  0  0  0  0  0  0  0  0  0  0  0
  144.2235  137.3615  152.9916 C   0  0  1  0  0  0  0  0  0  0  0  0
  143.4420  137.3378  154.3196 C   0  0  0  0  0  0  0  0  0  0  0  0
  145.6672  137.9051  153.1615 C   0  0  1  0  0  0  0  0  0  0  0  0
  146.4452  137.9623  151.8302 C   0  0  0  0  0  0  0  0  0  0  0  0
  145.6249  139.2527  153.7795 N   0  3  0  0  0  0  0  0  0  0  0  0
  146.9358  139.9010  154.0244 C   0  0  1  0  0  0  0  0  0  0  0  0
  146.8273  141.4006  153.7064 C   0  0  0  0  0  0  0  0  0  0  0  0
  147.3960  139.7060  155.4836 C   0  0  0  0  0  0  0  0  0  0  0  0
  146.6792  139.0611  156.2506 O   0  0  0  0  0  0  0  0  0  0  0  0
  148.5608  140.2559  155.8897 N   0  0  0  0  0  0  0  0  0  0  0  0
  149.4782  141.0494  155.0715 C   0  0  0  0  0  0  0  0  0  0  0  0
  150.4919  141.6483  156.0464 C   0  0  0  0  0  0  0  0  0  0  0  0
  150.4994  140.6767  157.2176 C   0  0  0  0  0  0  0  0  0  0  0  0
  149.0741  140.1249  157.2527 C   0  0  0  0  0  0  0  0  0  0  0  0
  144.6321  135.6747  151.1194 C   0  0  0  0  0  0  0  0  0  0  0  0
  144.0520  132.5815  149.7730 H   0  0  0  0  0  0  0  0  0  0  0  0
  145.7337  133.0783  149.8273 H   0  0  0  0  0  0  0  0  0  0  0  0
  144.5821  133.9801  148.8579 H   0  0  0  0  0  0  0  0  0  0  0  0
  143.5003  132.9857  152.5473 H   0  0  0  0  0  0  0  0  0  0  0  0
  143.6920  138.0282  152.3105 H   0  0  0  0  0  0  0  0  0  0  0  0
  143.3205  138.3390  154.7329 H   0  0  0  0  0  0  0  0  0  0  0  0
  143.9472  136.7298  155.0710 H   0  0  0  0  0  0  0  0  0  0  0  0
  142.4427  136.9250  154.1770 H   0  0  0  0  0  0  0  0  0  0  0  0
  146.1979  137.2285  153.8332 H   0  0  0  0  0  0  0  0  0  0  0  0
  146.5613  136.9739  151.3854 H   0  0  0  0  0  0  0  0  0  0  0  0
  147.4503  138.3611  151.9651 H   0  0  0  0  0  0  0  0  0  0  0  0
  145.9345  138.5943  151.1030 H   0  0  0  0  0  0  0  0  0  0  0  0
  145.0678  139.8504  153.1863 H   0  0  0  0  0  0  0  0  0  0  0  0
  147.6577  139.4616  153.3378 H   0  0  0  0  0  0  0  0  0  0  0  0
  147.7770  141.9141  153.8598 H   0  0  0  0  0  0  0  0  0  0  0  0
  146.0820  141.8906  154.3345 H   0  0  0  0  0  0  0  0  0  0  0  0
  146.5381  141.5586  152.6669 H   0  0  0  0  0  0  0  0  0  0  0  0
  149.9803  140.3914  154.3609 H   0  0  0  0  0  0  0  0  0  0  0  0
  148.9691  141.8339  154.5108 H   0  0  0  0  0  0  0  0  0  0  0  0
  151.4783  141.7839  155.6019 H   0  0  0  0  0  0  0  0  0  0  0  0
  150.1412  142.6243  156.3848 H   0  0  0  0  0  0  0  0  0  0  0  0
  151.2012  139.8665  157.0147 H   0  0  0  0  0  0  0  0  0  0  0  0
  150.7946  141.1467  158.1562 H   0  0  0  0  0  0  0  0  0  0  0  0
  148.4515  140.7173  157.9247 H   0  0  0  0  0  0  0  0  0  0  0  0
  149.0595  139.0908  157.6005 H   0  0  0  0  0  0  0  0  0  0  0  0
  145.0572  136.3918  150.4324 H   0  0  0  0  0  0  0  0  0  0  0  0
  145.1650  139.1736  154.6757 H   0  0  0  0  0  0  0  0  0  0  0  0
  1  2  1  0  0  0  0
  1 21  1  0  0  0  0
  1 22  1  0  0  0  0
  1 23  1  0  0  0  0
  2 20  2  0  0  0  0
  2  3  1  0  0  0  0
  3  4  2  0  0  0  0
  3 24  1  0  0  0  0
  4  5  1  0  0  0  0
  5  6  1  0  0  0  0
  5 20  1  0  0  0  0
  6  7  1  0  0  0  0
  6  8  1  0  0  0  0
  6 25  1  0  0  0  0
  7 26  1  0  0  0  0
  7 27  1  0  0  0  0
  7 28  1  0  0  0  0
  8  9  1  0  0  0  0
  8 10  1  0  0  0  0
  8 29  1  0  0  0  0
  9 30  1  0  0  0  0
  9 31  1  0  0  0  0
  9 32  1  0  0  0  0
 10 11  1  0  0  0  0
 10 33  1  0  0  0  0
 10 47  1  0  0  0  0
 11 12  1  0  0  0  0
 11 13  1  0  0  0  0
 11 34  1  0  0  0  0
 12 35  1  0  0  0  0
 12 36  1  0  0  0  0
 12 37  1  0  0  0  0
 13 14  2  0  0  0  0
 13 15  1  0  0  0  0
 15 19  1  0  0  0  0
 15 16  1  0  0  0  0
 16 17  1  0  0  0  0
 16 38  1  0  0  0  0
 16 39  1  0  0  0  0
 17 18  1  0  0  0  0
 17 40  1  0  0  0  0
 17 41  1  0  0  0  0
 18 19  1  0  0  0  0
 18 42  1  0  0  0  0
 18 43  1  0  0  0  0
 19 44  1  0  0  0  0
 19 45  1  0  0  0  0
 20 46  1  0  0  0  0
M  CHG  1  10   1
M  END
> <s_m_source_file>
AV-unprocessed.smi

> <i_m_source_file_index>
3335

> <i_lp_mmshare_version>
43012

> <i_f3d_flags>
0

> <s_epik_input>
W0NIM11jMVtjSF1ubihbY0hdMSlbQ0BIXShbQ0gzXSlbQ0BIXShbQ0gzXSlbTkhdW0NASF0oW0NIM10pQyg9TylOMltDSDJdW0NIMl1bQ0gyXVtDSDJdMg==

> <s_epik_cmdline>
J2VwaWtfcHl0aG9uJywgJy1waCcsICc3LjAnLCAnLXRuJywgJzgnLCAnLW1hJywgJzIwMCcsICctbWV0YWxfYmluZGluZycsICctaW1hZScsICc8aW5maWxlLm1hZT4nLCAnLW9tYWUnLCAnPG91dGZpbGUubWFlPic=

> <r_lp_tautomer_probability>
1

> <r_epik_Ionization_Penalty>
0.14175

> <r_epik_Ionization_Penalty_Charging>
0.141731

> <r_epik_Ionization_Penalty_Neutral>
1.91261e-05

> <r_epik_State_Penalty>
0.131043

> <r_epik_Charging_Adjusted_Penalty>
0.272773

> <i_epik_Tot_Q>
1

> <i_epik_Tot_abs_Q>
1

> <r_epik_Metal_State_Penalty>
0.131408

> <b_epik_Metal_Only>
0

> <s_lp_Force_Field>
OPLS_2005

> <r_lp_Energy>
36.0865

> <b_lp_Chiralities_Consistent>
1

> <s_lp_Variant>
AV-unprocessed.smi:3335-8

> <Gold.Version>
5.8.1

> <Gold.Id.Protein>
6NUR|6NUR_protein|mol2

> <Gold.PLP.Fitness>
39.4707

> <Gold.PLP.PLP>
-28.8188

> <Gold.PLP.part.hbond>
-1.0000

> <Gold.PLP.part.metal>
0.0000

> <Gold.PLP.part.buried>
-1.3289

> <Gold.PLP.part.nonpolar>
-26.9946

> <Gold.PLP.part.repulsive>
0.0923

> <Gold.PLP.ligand.clash>
0.0000

> <Gold.PLP.ligand.torsion>
0.6305

> <Gold.PLP.Chemscore.Hbond>
2.0000

> <Gold.PLP.Chemscore.CHOScore>
1.9207

> <Gold.PLP.Chemscore.Metal>
0.0000

> <Gold.Chemscore.Hbonds>
donor molecule, donor type, donor heavy atom, donor atom, acceptor molecule, acceptor atom, score
      L1  H    10    33       P1 10175  2.00
      L1  C     3    24       P1 10957  0.66
      L1  C    20    46       P1 10171  0.79

> <Gold.PLP.Chemscore.Internal.Correction>
0.1509

> <Gold.Rescore>
     Score         DG    S(hbond)    S(metal)    S(lipo)     H(rot)  DE(clash)    DE(int)     intcor
     12.21     -13.14       1.00        0.00      73.66       1.68       0.03       0.90       ----

> <Gold.Chemscore.Fitness>
12.2126

> <Gold.Chemscore.DG>
-13.1416

> <Gold.Chemscore.ZeroCoef>
-5.4800

> <Gold.Chemscore.Hbond>
0.9994

> <Gold.Chemscore.Metal>
0.0000

> <Gold.Chemscore.Lipo>
73.6635

> <Gold.Chemscore.Internal_Hbond>
0.0000

> <Gold.Chemscore.DEClash>
0.0298

> <Gold.Chemscore.DEInternal>
0.8992

> <Gold.Chemscore.Rot>
1.6778

> <Gold.Chemscore.Internal.Correction>
   9.000000E+99

> <Gold.Chemscore.Hbonds>
donor molecule, donor type, donor heavy atom, donor atom, acceptor molecule, acceptor atom, score
      L1  H    10    33       P1 10175  0.99

> <Gold.Chemscore.Hbond.Weighted>
-3.3381

> <Gold.Chemscore.Metal.Weighted>
-0.0000

> <Gold.Chemscore.Lipo.Weighted>
-8.6186

> <Gold.Chemscore.Internal_Hbond.Weighted>
0.0000

> <Gold.Chemscore.DEClash.Weighted>
0.0298

> <Gold.Chemscore.DEInternal.Weighted>
0.8992

> <Gold.Chemscore.Rot.Weighted>
4.2952

> <Gold.Chemscore.Internal.Correction.Weighted>
   9.000000E+99

> <Gold.Protein.RotatedTorsions>
[ 6907 6896 6895 6894 ] final -112.73 input  -60.11 | X-H torsion
[ 7974 7965 7964 7962 ] final  -51.73 input  175.53 | X-H torsion
[ 8008 7997 7996 7995 ] final   45.11 input   59.86 | X-H torsion
[ 10167 10162 10161 10158 ] final  -63.02 input  -65.29 | X-H torsion
[ 10718 10713 10712 10709 ] final  114.78 input   66.30 | X-H torsion
[ 10763 10752 10751 10750 ] final   12.96 input  -60.55 | X-H torsion
[ 11005 11000 10999 10996 ] final -105.50 input  -57.11 | X-H torsion

> <Gold.Protein.ActiveResidues>
 VAL166  LYS551  ARG553  GLY616  TRP617  ASP618  TYR619  PRO620  LYS621  CYS622 
 ASP623  PHE694  ASN695  SER759  ASP760  ASP761  ALA762  ILE779  LEU786  VAL792 
 PHE793  MET794  SER795  GLU796  ALA797  LYS798  CYS799  TRP800  GLU811  SER814 

> <Gold.Protein.RotatedAtoms>
  150.7779  133.9047  159.3351 H   0  0  0  0  0  0  0  0  0  0  0  0  # atno 6907 bound_to 6896
  151.6917  135.0943  160.0244 H   0  0  0  0  0  0  0  0  0  0  0  0  # atno 6908 bound_to 6896
  152.3821  133.6522  159.6205 H   0  0  0  0  0  0  0  0  0  0  0  0  # atno 6909 bound_to 6896
  145.9157  140.7877  142.9673 H   0  0  0  0  0  0  0  0  0  0  0  0  # atno 7974 bound_to 7965
  155.3305  140.3402  155.4239 H   0  0  0  0  0  0  0  0  0  0  0  0  # atno 8008 bound_to 7997
  156.1864  140.1682  156.8214 H   0  0  0  0  0  0  0  0  0  0  0  0  # atno 8009 bound_to 7997
  154.5391  140.0728  156.8462 H   0  0  0  0  0  0  0  0  0  0  0  0  # atno 8010 bound_to 7997
  140.5899  143.2340  151.6161 H   0  0  0  0  0  0  0  0  0  0  0  0  # atno 10167 bound_to 10162
  157.6261  131.1003  150.7234 H   0  0  0  0  0  0  0  0  0  0  0  0  # atno 10718 bound_to 10713
  153.1770  135.6821  153.8530 H   0  0  0  0  0  0  0  0  0  0  0  0  # atno 10763 bound_to 10752
  153.7875  135.3174  155.3375 H   0  0  0  0  0  0  0  0  0  0  0  0  # atno 10764 bound_to 10752
  154.8035  135.4763  154.0428 H   0  0  0  0  0  0  0  0  0  0  0  0  # atno 10765 bound_to 10752
  141.1050  133.8813  157.1741 H   0  0  0  0  0  0  0  0  0  0  0  0  # atno 11005 bound_to 11000
  144.6747  140.1896  143.7398 LP  0  0  0  0  0  0  0  0  0  0  0  0  # atno 17320 bound_to 7965
  145.8614  139.2225  143.1714 LP  0  0  0  0  0  0  0  0  0  0  0  0  # atno 17321 bound_to 7965
  139.5221  144.3173  152.0941 LP  0  0  0  0  0  0  0  0  0  0  0  0  # atno 17342 bound_to 10162
  140.2336  144.4343  150.6289 LP  0  0  0  0  0  0  0  0  0  0  0  0  # atno 17343 bound_to 10162
  156.7582  130.4790  149.5442 LP  0  0  0  0  0  0  0  0  0  0  0  0  # atno 17370 bound_to 10713
  156.1434  130.6260  151.0499 LP  0  0  0  0  0  0  0  0  0  0  0  0  # atno 17371 bound_to 10713
  139.9917  135.0062  156.9990 LP  0  0  0  0  0  0  0  0  0  0  0  0  # atno 17394 bound_to 11000
  140.4924  134.1179  155.7235 LP  0  0  0  0  0  0  0  0  0  0  0  0  # atno 17395 bound_to 11000

$$$$
