AV-unprocessed.smi:1514|AV-procd|sdf|6115|dock1
  -GOLD-   22720 6243D 1   1.00000     0.00000
 Structure written by MMmdl.
 48 49  0  0  0  0  0  0  0  0  2 V2000
  143.7886  132.2317  149.9019 C   0  0  0  0  0  0  0  0  0  0  0  0
  144.1339  133.3454  150.9010 C   0  0  0  0  0  0  0  0  0  0  0  0
  145.3699  134.0436  150.5396 N   0  0  0  0  0  0  0  0  0  0  0  0
  145.4973  135.3381  151.2130 C   0  0  0  0  0  0  0  0  0  0  0  0
  145.7867  135.1812  152.7209 C   0  0  0  0  0  0  0  0  0  0  0  0
  147.0241  134.3931  152.9371 N   0  3  0  0  0  0  0  0  0  0  0  0
  147.3811  134.2844  154.3733 C   0  0  0  0  0  0  0  0  0  0  0  0
  148.8854  134.5049  154.6249 C   0  0  0  0  0  0  0  0  0  0  0  0
  149.2853  135.8733  154.3177 N   0  0  0  0  0  0  0  0  0  0  0  0
  149.9153  136.6955  155.1694 C   0  0  0  0  0  0  0  0  0  0  0  0
  150.2143  136.3735  156.3195 O   0  0  0  0  0  0  0  0  0  0  0  0
  150.1632  137.8889  154.6017 N   0  0  0  0  0  0  0  0  0  0  0  0
  150.7744  138.9761  155.1429 C   0  0  0  0  0  0  0  0  0  0  0  0
  150.2184  140.0340  155.8090 C   0  0  0  0  0  0  0  0  0  0  0  0
  151.3530  140.8366  156.1253 C   0  0  0  0  0  0  0  0  0  0  0  0
  151.3833  142.1442  156.8600 C   0  0  0  0  0  0  0  0  0  0  0  0
  152.4915  140.3099  155.6882 N   0  0  0  0  0  0  0  0  0  0  0  0
  152.1383  139.1572  155.0796 N   0  0  0  0  0  0  0  0  0  0  0  0
  153.1527  138.3129  154.4790 C   0  0  0  0  0  0  0  0  0  0  0  0
  146.9169  133.0805  152.2511 C   0  0  0  0  0  0  0  0  0  0  0  0
  146.6015  133.2761  150.7531 C   0  0  0  0  0  0  0  0  0  0  0  0
  142.8029  131.8199  150.1182 H   0  0  0  0  0  0  0  0  0  0  0  0
  144.4974  131.4055  149.9468 H   0  0  0  0  0  0  0  0  0  0  0  0
  143.7700  132.6089  148.8788 H   0  0  0  0  0  0  0  0  0  0  0  0
  143.3169  134.0680  150.8920 H   0  0  0  0  0  0  0  0  0  0  0  0
  144.1777  132.9430  151.9123 H   0  0  0  0  0  0  0  0  0  0  0  0
  146.3068  135.8979  150.7425 H   0  0  0  0  0  0  0  0  0  0  0  0
  144.5908  135.9248  151.0591 H   0  0  0  0  0  0  0  0  0  0  0  0
  145.9071  136.1715  153.1615 H   0  0  0  0  0  0  0  0  0  0  0  0
  144.9478  134.7118  153.2366 H   0  0  0  0  0  0  0  0  0  0  0  0
  146.8306  135.0399  154.9361 H   0  0  0  0  0  0  0  0  0  0  0  0
  147.0536  133.3166  154.7566 H   0  0  0  0  0  0  0  0  0  0  0  0
  149.1567  134.2795  155.6567 H   0  0  0  0  0  0  0  0  0  0  0  0
  149.4698  133.8320  153.9968 H   0  0  0  0  0  0  0  0  0  0  0  0
  149.0781  136.2140  153.3899 H   0  0  0  0  0  0  0  0  0  0  0  0
  149.8563  138.0010  153.6468 H   0  0  0  0  0  0  0  0  0  0  0  0
  149.1816  140.2229  156.0422 H   0  0  0  0  0  0  0  0  0  0  0  0
  150.4035  142.3878  157.2711 H   0  0  0  0  0  0  0  0  0  0  0  0
  151.6769  142.9586  156.1974 H   0  0  0  0  0  0  0  0  0  0  0  0
  152.0917  142.1146  157.6883 H   0  0  0  0  0  0  0  0  0  0  0  0
  152.9482  138.1955  153.4147 H   0  0  0  0  0  0  0  0  0  0  0  0
  153.1423  137.3324  154.9554 H   0  0  0  0  0  0  0  0  0  0  0  0
  154.1428  138.7544  154.6016 H   0  0  0  0  0  0  0  0  0  0  0  0
  147.8571  132.5372  152.3374 H   0  0  0  0  0  0  0  0  0  0  0  0
  146.1597  132.4623  152.7348 H   0  0  0  0  0  0  0  0  0  0  0  0
  146.5454  132.3125  150.2482 H   0  0  0  0  0  0  0  0  0  0  0  0
  147.4252  133.8117  150.2792 H   0  0  0  0  0  0  0  0  0  0  0  0
  147.7688  134.9051  152.4864 H   0  0  0  0  0  0  0  0  0  0  0  0
  1  2  1  0  0  0  0
  1 22  1  0  0  0  0
  1 23  1  0  0  0  0
  1 24  1  0  0  0  0
  2  3  1  0  0  0  0
  2 25  1  0  0  0  0
  2 26  1  0  0  0  0
  3 21  1  0  0  0  0
  3  4  1  0  0  0  0
  4  5  1  0  0  0  0
  4 27  1  0  0  0  0
  4 28  1  0  0  0  0
  5  6  1  0  0  0  0
  5 29  1  0  0  0  0
  5 30  1  0  0  0  0
  6  7  1  0  0  0  0
  6 20  1  0  0  0  0
  6 48  1  0  0  0  0
  7  8  1  0  0  0  0
  7 31  1  0  0  0  0
  7 32  1  0  0  0  0
  8  9  1  0  0  0  0
  8 33  1  0  0  0  0
  8 34  1  0  0  0  0
  9 10  1  0  0  0  0
  9 35  1  0  0  0  0
 10 11  2  0  0  0  0
 10 12  1  0  0  0  0
 12 13  1  0  0  0  0
 12 36  1  0  0  0  0
 13 18  1  0  0  0  0
 13 14  2  0  0  0  0
 14 15  1  0  0  0  0
 14 37  1  0  0  0  0
 15 16  1  0  0  0  0
 15 17  2  0  0  0  0
 16 38  1  0  0  0  0
 16 39  1  0  0  0  0
 16 40  1  0  0  0  0
 17 18  1  0  0  0  0
 18 19  1  0  0  0  0
 19 41  1  0  0  0  0
 19 42  1  0  0  0  0
 19 43  1  0  0  0  0
 20 21  1  0  0  0  0
 20 44  1  0  0  0  0
 20 45  1  0  0  0  0
 21 46  1  0  0  0  0
 21 47  1  0  0  0  0
M  CHG  1   6   1
M  END
> <s_m_source_file>
AV-unprocessed.smi

> <i_m_source_file_index>
1514

> <i_lp_mmshare_version>
43012

> <i_f3d_flags>
0

> <s_epik_input>
W0NIM11bQ0gyXU4xW0NIMl1bQ0gyXU4oW0NIMl1bQ0gyXTEpW0NIMl1bQ0gyXVtOSF1DKD1PKVtOSF1jMltjSF1jKFtDSDNdKW5uMltDSDNd

> <s_epik_cmdline>
J2VwaWtfcHl0aG9uJywgJy1waCcsICc3LjAnLCAnLXRuJywgJzgnLCAnLW1hJywgJzIwMCcsICctbWV0YWxfYmluZGluZycsICctaW1hZScsICc8aW5maWxlLm1hZT4nLCAnLW9tYWUnLCAnPG91dGZpbGUubWFlPic=

> <r_epik_Ionization_Penalty>
0.237948

> <r_epik_Ionization_Penalty_Charging>
0.236594

> <r_epik_Ionization_Penalty_Neutral>
0.00135429

> <r_epik_State_Penalty>
1.1865

> <r_epik_Charging_Adjusted_Penalty>
1.42309

> <i_epik_Tot_Q>
1

> <i_epik_Tot_abs_Q>
1

> <r_epik_Metal_State_Penalty>
1.18651

> <b_epik_Metal_Only>
0

> <s_lp_Force_Field>
OPLS_2005

> <r_lp_Energy>
18.1448

> <b_lp_Chiralities_Consistent>
1

> <s_lp_Variant>
AV-unprocessed.smi:1514-2

> <Gold.Version>
5.8.1

> <Gold.Id.Protein>
6NUR|6NUR_protein|mol2

> <Gold.PLP.Fitness>
44.0393

> <Gold.PLP.PLP>
-34.8729

> <Gold.PLP.part.hbond>
-3.5598

> <Gold.PLP.part.metal>
0.0000

> <Gold.PLP.part.buried>
-1.7894

> <Gold.PLP.part.nonpolar>
-30.0247

> <Gold.PLP.part.repulsive>
0.3585

> <Gold.PLP.ligand.clash>
0.0000

> <Gold.PLP.ligand.torsion>
1.4608

> <Gold.PLP.Chemscore.Hbond>
4.0000

> <Gold.PLP.Chemscore.CHOScore>
0.0000

> <Gold.PLP.Chemscore.Metal>
0.0000

> <Gold.Chemscore.Hbonds>
donor molecule, donor type, donor heavy atom, donor atom, acceptor molecule, acceptor atom, score
      L1  H     6    48       P1  7948  2.00
      L1  H     9    35       P1  7948  0.96
      P1  H  7997  8009       L1    17  1.00

> <Gold.PLP.Chemscore.Internal.Correction>
0.0881

> <Gold.Rescore>
     Score         DG    S(hbond)    S(metal)    S(lipo)     H(rot)  DE(clash)    DE(int)     intcor
     17.55     -19.04       2.74        0.00      74.52       1.69       0.12       1.37       ----

> <Gold.Chemscore.Fitness>
17.5474

> <Gold.Chemscore.DG>
-19.0361

> <Gold.Chemscore.ZeroCoef>
-5.4800

> <Gold.Chemscore.Hbond>
2.7448

> <Gold.Chemscore.Metal>
0.0000

> <Gold.Chemscore.Lipo>
74.5163

> <Gold.Chemscore.Internal_Hbond>
0.0000

> <Gold.Chemscore.DEClash>
0.1193

> <Gold.Chemscore.DEInternal>
1.3694

> <Gold.Chemscore.Rot>
1.6914

> <Gold.Chemscore.Internal.Correction>
   9.000000E+99

> <Gold.Chemscore.Hbonds>
donor molecule, donor type, donor heavy atom, donor atom, acceptor molecule, acceptor atom, score
      L1  H     6    48       P1  7948  0.91
      L1  H     9    35       P1  7948  0.88
      P1  H  7997  8009       L1    17  0.66

> <Gold.Chemscore.Hbond.Weighted>
-9.1676

> <Gold.Chemscore.Metal.Weighted>
-0.0000

> <Gold.Chemscore.Lipo.Weighted>
-8.7184

> <Gold.Chemscore.Internal_Hbond.Weighted>
0.0000

> <Gold.Chemscore.DEClash.Weighted>
0.1193

> <Gold.Chemscore.DEInternal.Weighted>
1.3694

> <Gold.Chemscore.Rot.Weighted>
4.3299

> <Gold.Chemscore.Internal.Correction.Weighted>
   9.000000E+99

> <Gold.Protein.RotatedTorsions>
[ 6907 6896 6895 6894 ] final  177.49 input  -60.11 | X-H torsion
[ 7974 7965 7964 7962 ] final  -24.74 input  175.53 | X-H torsion
[ 8008 7997 7996 7995 ] final -160.97 input   59.86 | X-H torsion
[ 10167 10162 10161 10158 ] final  159.27 input  -65.29 | X-H torsion
[ 10718 10713 10712 10709 ] final   10.85 input   66.30 | X-H torsion
[ 10763 10752 10751 10750 ] final -140.77 input  -60.55 | X-H torsion
[ 11005 11000 10999 10996 ] final   88.91 input  -57.11 | X-H torsion

> <Gold.Protein.ActiveResidues>
 VAL166  LYS551  ARG553  GLY616  TRP617  ASP618  TYR619  PRO620  LYS621  CYS622 
 ASP623  PHE694  ASN695  SER759  ASP760  ASP761  ALA762  ILE779  LEU786  VAL792 
 PHE793  MET794  SER795  GLU796  ALA797  LYS798  CYS799  TRP800  GLU811  SER814 

> <Gold.Protein.RotatedAtoms>
  151.7032  133.3311  159.3271 H   0  0  0  0  0  0  0  0  0  0  0  0  # atno 6907 bound_to 6896
  150.7727  134.6597  159.6342 H   0  0  0  0  0  0  0  0  0  0  0  0  # atno 6908 bound_to 6896
  152.3757  134.6670  160.0212 H   0  0  0  0  0  0  0  0  0  0  0  0  # atno 6909 bound_to 6896
  146.1536  140.4792  142.8601 H   0  0  0  0  0  0  0  0  0  0  0  0  # atno 7974 bound_to 7965
  155.7853  140.0870  157.2038 H   0  0  0  0  0  0  0  0  0  0  0  0  # atno 8008 bound_to 7997
  154.3988  140.1500  156.3157 H   0  0  0  0  0  0  0  0  0  0  0  0  # atno 8009 bound_to 7997
  155.8613  140.3430  155.5761 H   0  0  0  0  0  0  0  0  0  0  0  0  # atno 8010 bound_to 7997
  139.4831  144.4745  151.8530 H   0  0  0  0  0  0  0  0  0  0  0  0  # atno 10167 bound_to 10162
  156.9870  130.6028  149.5682 H   0  0  0  0  0  0  0  0  0  0  0  0  # atno 10718 bound_to 10713
  154.8568  135.3544  154.5760 H   0  0  0  0  0  0  0  0  0  0  0  0  # atno 10763 bound_to 10752
  153.6372  135.7000  153.5259 H   0  0  0  0  0  0  0  0  0  0  0  0  # atno 10764 bound_to 10752
  153.3001  135.4209  155.1204 H   0  0  0  0  0  0  0  0  0  0  0  0  # atno 10765 bound_to 10752
  139.8886  134.8518  156.3068 H   0  0  0  0  0  0  0  0  0  0  0  0  # atno 11005 bound_to 11000
  144.7934  140.6076  143.6526 LP  0  0  0  0  0  0  0  0  0  0  0  0  # atno 17320 bound_to 7965
  145.4764  139.1499  143.3786 LP  0  0  0  0  0  0  0  0  0  0  0  0  # atno 17321 bound_to 7965
  140.4217  144.2235  150.5887 LP  0  0  0  0  0  0  0  0  0  0  0  0  # atno 17342 bound_to 10162
  140.4867  143.2361  151.8877 LP  0  0  0  0  0  0  0  0  0  0  0  0  # atno 17343 bound_to 10162
  156.0222  130.5316  150.8307 LP  0  0  0  0  0  0  0  0  0  0  0  0  # atno 17370 bound_to 10713
  157.5485  131.0943  150.9728 LP  0  0  0  0  0  0  0  0  0  0  0  0  # atno 17371 bound_to 10713
  140.9877  133.7228  156.0766 LP  0  0  0  0  0  0  0  0  0  0  0  0  # atno 17394 bound_to 11000
  140.7667  134.3879  157.5516 LP  0  0  0  0  0  0  0  0  0  0  0  0  # atno 17395 bound_to 11000

$$$$
