AV-unprocessed.smi:2928|AV-procd|sdf|11238|dock6
  -GOLD-   2272016133D 1   1.00000     0.00000
 Structure written by MMmdl.
 56 59  0  0  0  0  0  0  0  0  3 V2000
  150.7000  141.7533  156.2440 C   0  0  0  0  0  0  0  0  0  0  0  0
  149.4454  141.0873  155.8202 N   0  3  2  0  0  0  0  0  0  0  0  0
  148.9129  140.0926  156.7814 C   0  0  1  0  0  0  0  0  0  0  0  0
  147.4321  139.8053  156.4424 C   0  0  0  0  0  0  0  0  0  0  0  0
  147.1944  139.4002  154.9752 C   0  0  0  0  0  0  0  0  0  0  0  0
  148.0259  140.2421  153.9879 C   0  0  0  0  0  0  0  0  0  0  0  0
  149.4755  140.5102  154.4553 C   0  0  2  0  0  0  0  0  0  0  0  0
  150.4304  139.2923  154.3746 C   0  0  0  0  0  0  0  0  0  0  0  0
  150.2940  138.2483  155.5107 C   0  0  2  0  0  0  0  0  0  0  0  0
  149.5071  137.0928  155.0846 N   0  0  0  0  0  0  0  0  0  0  0  0
  149.9656  135.8409  154.9407 C   0  0  0  0  0  0  0  0  0  0  0  0
  151.1343  135.5159  155.1486 O   0  0  0  0  0  0  0  0  0  0  0  0
  148.9827  135.0039  154.5700 N   0  0  0  0  0  0  0  0  0  0  0  0
  149.0498  133.5927  154.3934 C   0  0  0  0  0  0  0  0  0  0  0  0
  150.0488  132.7910  155.0024 C   0  0  0  0  0  0  0  0  0  0  0  0
  150.0664  131.4013  154.7701 C   0  0  0  0  0  0  0  0  0  0  0  0
  149.0942  130.8353  153.9250 C   0  0  0  0  0  0  0  0  0  0  0  0
  148.1669  131.6278  153.3475 N   0  3  0  0  0  0  0  0  0  0  0  0
  148.1057  132.9684  153.5388 C   0  0  0  0  0  0  0  0  0  0  0  0
  147.0983  133.7036  152.8906 N   0  0  0  0  0  0  0  0  0  0  0  0
  147.0199  133.5191  151.4513 C   0  0  0  0  0  0  0  0  0  0  0  0
  145.6568  134.0830  151.0418 C   0  0  0  0  0  0  0  0  0  0  0  0
  144.8211  134.0700  152.3280 C   0  0  0  0  0  0  0  0  0  0  0  0
  145.7526  133.4934  153.3971 C   0  0  0  0  0  0  0  0  0  0  0  0
  149.8221  138.8411  156.8664 C   0  0  0  0  0  0  0  0  0  0  0  0
  151.5321  141.0543  156.3258 H   0  0  0  0  0  0  0  0  0  0  0  0
  150.5659  142.2330  157.2137 H   0  0  0  0  0  0  0  0  0  0  0  0
  150.9792  142.5279  155.5293 H   0  0  0  0  0  0  0  0  0  0  0  0
  148.9129  140.5557  157.7694 H   0  0  0  0  0  0  0  0  0  0  0  0
  147.0284  139.0443  157.1110 H   0  0  0  0  0  0  0  0  0  0  0  0
  146.8567  140.7104  156.6415 H   0  0  0  0  0  0  0  0  0  0  0  0
  147.3982  138.3438  154.8385 H   0  0  0  0  0  0  0  0  0  0  0  0
  146.1351  139.5038  154.7375 H   0  0  0  0  0  0  0  0  0  0  0  0
  148.0225  139.7756  153.0021 H   0  0  0  0  0  0  0  0  0  0  0  0
  147.5277  141.2044  153.8623 H   0  0  0  0  0  0  0  0  0  0  0  0
  149.8732  141.2731  153.7841 H   0  0  0  0  0  0  0  0  0  0  0  0
  150.3497  138.8137  153.3976 H   0  0  0  0  0  0  0  0  0  0  0  0
  151.4508  139.6761  154.4059 H   0  0  0  0  0  0  0  0  0  0  0  0
  151.2982  137.8512  155.6730 H   0  0  0  0  0  0  0  0  0  0  0  0
  148.5309  137.2613  154.8901 H   0  0  0  0  0  0  0  0  0  0  0  0
  148.0576  135.4038  154.5126 H   0  0  0  0  0  0  0  0  0  0  0  0
  150.8117  133.2194  155.6343 H   0  0  0  0  0  0  0  0  0  0  0  0
  150.8202  130.7794  155.2306 H   0  0  0  0  0  0  0  0  0  0  0  0
  149.0336  129.7825  153.6898 H   0  0  0  0  0  0  0  0  0  0  0  0
  147.8365  134.0341  150.9443 H   0  0  0  0  0  0  0  0  0  0  0  0
  147.0789  132.4602  151.1963 H   0  0  0  0  0  0  0  0  0  0  0  0
  145.7622  135.1059  150.6782 H   0  0  0  0  0  0  0  0  0  0  0  0
  145.2023  133.4928  150.2455 H   0  0  0  0  0  0  0  0  0  0  0  0
  144.5270  135.0872  152.5899 H   0  0  0  0  0  0  0  0  0  0  0  0
  143.9114  133.4773  152.2264 H   0  0  0  0  0  0  0  0  0  0  0  0
  145.5554  132.4288  153.5312 H   0  0  0  0  0  0  0  0  0  0  0  0
  145.6127  133.9856  154.3600 H   0  0  0  0  0  0  0  0  0  0  0  0
  150.7161  139.1247  157.4230 H   0  0  0  0  0  0  0  0  0  0  0  0
  149.3482  138.0801  157.4873 H   0  0  0  0  0  0  0  0  0  0  0  0
  148.7600  141.8287  155.7875 H   0  0  0  0  0  0  0  0  0  0  0  0
  147.4762  131.1939  152.7348 H   0  0  0  0  0  0  0  0  0  0  0  0
  1  2  1  0  0  0  0
  1 26  1  0  0  0  0
  1 27  1  0  0  0  0
  1 28  1  0  0  0  0
  2  7  1  0  0  0  0
  2  3  1  0  0  0  0
  2 55  1  0  0  0  0
  3 25  1  0  0  0  0
  3  4  1  0  0  0  0
  3 29  1  0  0  0  0
  4  5  1  0  0  0  0
  4 30  1  0  0  0  0
  4 31  1  0  0  0  0
  5  6  1  0  0  0  0
  5 32  1  0  0  0  0
  5 33  1  0  0  0  0
  6  7  1  0  0  0  0
  6 34  1  0  0  0  0
  6 35  1  0  0  0  0
  7  8  1  0  0  0  0
  7 36  1  0  0  0  0
  8  9  1  0  0  0  0
  8 37  1  0  0  0  0
  8 38  1  0  0  0  0
  9 10  1  0  0  0  0
  9 25  1  0  0  0  0
  9 39  1  0  0  0  0
 10 11  1  0  0  0  0
 10 40  1  0  0  0  0
 11 12  2  0  0  0  0
 11 13  1  0  0  0  0
 13 14  1  0  0  0  0
 13 41  1  0  0  0  0
 14 19  1  0  0  0  0
 14 15  2  0  0  0  0
 15 16  1  0  0  0  0
 15 42  1  0  0  0  0
 16 17  2  0  0  0  0
 16 43  1  0  0  0  0
 17 18  1  0  0  0  0
 17 44  1  0  0  0  0
 18 19  2  0  0  0  0
 18 56  1  0  0  0  0
 19 20  1  0  0  0  0
 20 24  1  0  0  0  0
 20 21  1  0  0  0  0
 21 22  1  0  0  0  0
 21 45  1  0  0  0  0
 21 46  1  0  0  0  0
 22 23  1  0  0  0  0
 22 47  1  0  0  0  0
 22 48  1  0  0  0  0
 23 24  1  0  0  0  0
 23 49  1  0  0  0  0
 23 50  1  0  0  0  0
 24 51  1  0  0  0  0
 24 52  1  0  0  0  0
 25 53  1  0  0  0  0
 25 54  1  0  0  0  0
M  CHG  1   2   1
M  CHG  1  18   1
M  END
> <s_m_source_file>
AV-unprocessed.smi

> <i_m_source_file_index>
2928

> <i_lp_mmshare_version>
43012

> <i_f3d_flags>
0

> <s_epik_input>
W0NIMl0xW0NIMl1bQ0gyXVtDQEhdKE4oW0NIM10pW0NIXTEyKVtDSDJdW0NASF0oW0NIMl0yKVtOSF1DKD1PKVtOSF1jM1tjSF1bY0hdW2NIXW5jM040W0NIMl1bQ0gyXVtDSDJdW0NIMl00

> <s_epik_cmdline>
J2VwaWtfcHl0aG9uJywgJy1waCcsICc3LjAnLCAnLXRuJywgJzgnLCAnLW1hJywgJzIwMCcsICctbWV0YWxfYmluZGluZycsICctaW1hZScsICc8aW5maWxlLm1hZT4nLCAnLW9tYWUnLCAnPG91dGZpbGUubWFlPic=

> <r_lp_tautomer_probability>
0.999994

> <r_epik_Ionization_Penalty>
1.2404

> <r_epik_Ionization_Penalty_Charging>
1.24038

> <r_epik_Ionization_Penalty_Neutral>
1.86539e-05

> <r_epik_State_Penalty>
1.30821

> <r_epik_Charging_Adjusted_Penalty>
2.54859

> <i_epik_Tot_Q>
2

> <i_epik_Tot_abs_Q>
2

> <r_epik_Metal_State_Penalty>
1.3782

> <b_epik_Metal_Only>
0

> <s_lp_Force_Field>
OPLS_2005

> <r_lp_Energy>
76.0972

> <b_lp_Chiralities_Consistent>
1

> <s_lp_Variant>
AV-unprocessed.smi:2928-8

> <Gold.Version>
5.8.1

> <Gold.Id.Protein>
6NUR|6NUR_protein|mol2

> <Gold.PLP.Fitness>
37.9180

> <Gold.PLP.PLP>
-35.4354

> <Gold.PLP.part.hbond>
-2.4806

> <Gold.PLP.part.metal>
0.0000

> <Gold.PLP.part.buried>
-3.7027

> <Gold.PLP.part.nonpolar>
-28.2490

> <Gold.PLP.part.repulsive>
0.3617

> <Gold.PLP.ligand.clash>
0.0000

> <Gold.PLP.ligand.torsion>
0.2967

> <Gold.PLP.Chemscore.Hbond>
1.0000

> <Gold.PLP.Chemscore.CHOScore>
0.0000

> <Gold.PLP.Chemscore.Metal>
0.0000

> <Gold.Chemscore.Hbonds>
donor molecule, donor type, donor heavy atom, donor atom, acceptor molecule, acceptor atom, score
      P1  H 10752 10763       L1    12  1.00

> <Gold.PLP.Chemscore.Internal.Correction>
0.0759

> <Gold.Rescore>
     Score         DG    S(hbond)    S(metal)    S(lipo)     H(rot)  DE(clash)    DE(int)     intcor
     13.99     -15.65       0.99        0.00      84.82       1.19       0.28       1.38       ----

> <Gold.Chemscore.Fitness>
13.9933

> <Gold.Chemscore.DG>
-15.6533

> <Gold.Chemscore.ZeroCoef>
-5.4800

> <Gold.Chemscore.Hbond>
0.9850

> <Gold.Chemscore.Metal>
0.0000

> <Gold.Chemscore.Lipo>
84.8233

> <Gold.Chemscore.Internal_Hbond>
0.0000

> <Gold.Chemscore.DEClash>
0.2843

> <Gold.Chemscore.DEInternal>
1.3757

> <Gold.Chemscore.Rot>
1.1879

> <Gold.Chemscore.Internal.Correction>
   9.000000E+99

> <Gold.Chemscore.Hbonds>
donor molecule, donor type, donor heavy atom, donor atom, acceptor molecule, acceptor atom, score
      P1  H 10752 10763       L1    12  0.97

> <Gold.Chemscore.Hbond.Weighted>
-3.2901

> <Gold.Chemscore.Metal.Weighted>
-0.0000

> <Gold.Chemscore.Lipo.Weighted>
-9.9243

> <Gold.Chemscore.Internal_Hbond.Weighted>
0.0000

> <Gold.Chemscore.DEClash.Weighted>
0.2843

> <Gold.Chemscore.DEInternal.Weighted>
1.3757

> <Gold.Chemscore.Rot.Weighted>
3.0410

> <Gold.Chemscore.Internal.Correction.Weighted>
   9.000000E+99

> <Gold.Protein.RotatedTorsions>
[ 6907 6896 6895 6894 ] final  -97.25 input  -60.11 | X-H torsion
[ 7974 7965 7964 7962 ] final   95.80 input  175.53 | X-H torsion
[ 8008 7997 7996 7995 ] final -119.04 input   59.86 | X-H torsion
[ 10167 10162 10161 10158 ] final    7.63 input  -65.29 | X-H torsion
[ 10718 10713 10712 10709 ] final  -88.44 input   66.30 | X-H torsion
[ 10763 10752 10751 10750 ] final   75.47 input  -60.55 | X-H torsion
[ 11005 11000 10999 10996 ] final -159.82 input  -57.11 | X-H torsion

> <Gold.Protein.ActiveResidues>
 VAL166  LYS551  ARG553  GLY616  TRP617  ASP618  TYR619  PRO620  LYS621  CYS622 
 ASP623  PHE694  ASN695  SER759  ASP760  ASP761  ALA762  ILE779  LEU786  VAL792 
 PHE793  MET794  SER795  GLU796  ALA797  LYS798  CYS799  TRP800  GLU811  SER814 

> <Gold.Protein.RotatedAtoms>
  150.7011  134.1377  159.4092 H   0  0  0  0  0  0  0  0  0  0  0  0  # atno 6907 bound_to 6896
  151.9362  135.0232  160.0542 H   0  0  0  0  0  0  0  0  0  0  0  0  # atno 6908 bound_to 6896
  152.2133  133.4892  159.5159 H   0  0  0  0  0  0  0  0  0  0  0  0  # atno 6909 bound_to 6896
  145.4474  139.2296  143.3058 H   0  0  0  0  0  0  0  0  0  0  0  0  # atno 7974 bound_to 7965
  155.1094  140.0397  157.2719 H   0  0  0  0  0  0  0  0  0  0  0  0  # atno 8008 bound_to 7997
  154.6697  140.2609  155.6995 H   0  0  0  0  0  0  0  0  0  0  0  0  # atno 8009 bound_to 7997
  156.2653  140.2800  156.1201 H   0  0  0  0  0  0  0  0  0  0  0  0  # atno 8010 bound_to 7997
  140.6361  143.7883  150.7361 H   0  0  0  0  0  0  0  0  0  0  0  0  # atno 10167 bound_to 10162
  155.9983  130.4836  150.5020 H   0  0  0  0  0  0  0  0  0  0  0  0  # atno 10718 bound_to 10713
  153.0657  135.4987  154.8194 H   0  0  0  0  0  0  0  0  0  0  0  0  # atno 10763 bound_to 10752
  154.6949  135.2991  154.9428 H   0  0  0  0  0  0  0  0  0  0  0  0  # atno 10764 bound_to 10752
  154.0170  135.6747  153.4822 H   0  0  0  0  0  0  0  0  0  0  0  0  # atno 10765 bound_to 10752
  140.6384  134.4577  157.5232 H   0  0  0  0  0  0  0  0  0  0  0  0  # atno 11005 bound_to 11000
  146.2523  140.5229  142.8888 LP  0  0  0  0  0  0  0  0  0  0  0  0  # atno 17320 bound_to 7965
  144.8083  140.6339  143.6432 LP  0  0  0  0  0  0  0  0  0  0  0  0  # atno 17321 bound_to 7965
  140.1505  143.4362  152.2134 LP  0  0  0  0  0  0  0  0  0  0  0  0  # atno 17342 bound_to 10162
  139.5571  144.7380  151.4262 LP  0  0  0  0  0  0  0  0  0  0  0  0  # atno 17343 bound_to 10162
  157.3003  131.0644  151.2072 LP  0  0  0  0  0  0  0  0  0  0  0  0  # atno 17370 bound_to 10713
  157.3054  130.6863  149.6186 LP  0  0  0  0  0  0  0  0  0  0  0  0  # atno 17371 bound_to 10713
  139.9089  134.8387  156.1600 LP  0  0  0  0  0  0  0  0  0  0  0  0  # atno 17394 bound_to 11000
  141.0625  133.6835  156.1980 LP  0  0  0  0  0  0  0  0  0  0  0  0  # atno 17395 bound_to 11000

$$$$
