AV-unprocessed.smi:421|AV-procd|sdf|2535|dock5
  -GOLD-   2262022493D 1   1.00000     0.00000
 Structure written by MMmdl.
 43 45  0  0  0  0  0  0  0  0  1 V2000
  153.7588  140.9699  161.4328 C   0  0  0  0  0  0  0  0  0  0  0  0
  152.9103  140.8622  160.2522 N   0  0  0  0  0  0  0  0  0  0  0  0
  152.4460  139.7239  159.6863 C   0  0  0  0  0  0  0  0  0  0  0  0
  152.6609  138.5780  160.0812 O   0  0  0  0  0  0  0  0  0  0  0  0
  151.6977  140.0649  158.6104 N   0  0  0  0  0  0  0  0  0  0  0  0
  150.9882  139.1483  157.7196 C   0  0  0  0  0  0  0  0  0  0  0  0
  150.2488  138.0479  158.5075 C   0  0  1  0  0  0  0  0  0  0  0  0
  149.0682  138.5657  159.0861 O   0  0  0  0  0  0  0  0  0  0  0  0
  149.8544  136.8419  157.6394 C   0  0  0  0  0  0  0  0  0  0  0  0
  149.3876  135.7810  158.4585 O   0  0  0  0  0  0  0  0  0  0  0  0
  147.9757  135.6593  158.4466 C   0  0  0  0  0  0  0  0  0  0  0  0
  147.4356  135.3875  159.8356 C   0  0  0  0  0  0  0  0  0  0  0  0
  147.4347  136.4066  160.8112 C   0  0  0  0  0  0  0  0  0  0  0  0
  146.9304  136.1499  162.1011 C   0  0  0  0  0  0  0  0  0  0  0  0
  146.4248  134.8745  162.4194 C   0  0  0  0  0  0  0  0  0  0  0  0
  146.4223  133.8558  161.4468 C   0  0  0  0  0  0  0  0  0  0  0  0
  146.9264  134.1119  160.1566 C   0  0  0  0  0  0  0  0  0  0  0  0
  151.6808  141.4621  158.4871 C   0  0  0  0  0  0  0  0  0  0  0  0
  151.0491  142.3038  157.5546 C   0  0  0  0  0  0  0  0  0  0  0  0
  151.2326  143.6976  157.7135 C   0  0  0  0  0  0  0  0  0  0  0  0
  152.0235  144.2111  158.7741 C   0  0  0  0  0  0  0  0  0  0  0  0
  152.6467  143.3417  159.6996 C   0  0  0  0  0  0  0  0  0  0  0  0
  152.4466  141.9623  159.5193 C   0  0  0  0  0  0  0  0  0  0  0  0
  153.7733  140.0432  162.0081 H   0  0  0  0  0  0  0  0  0  0  0  0
  153.4009  141.7626  162.0903 H   0  0  0  0  0  0  0  0  0  0  0  0
  154.7819  141.2043  161.1387 H   0  0  0  0  0  0  0  0  0  0  0  0
  150.3063  139.6908  157.0640 H   0  0  0  0  0  0  0  0  0  0  0  0
  151.7247  138.6876  157.0590 H   0  0  0  0  0  0  0  0  0  0  0  0
  150.8781  137.6820  159.3198 H   0  0  0  0  0  0  0  0  0  0  0  0
  148.7224  139.2312  158.5108 H   0  0  0  0  0  0  0  0  0  0  0  0
  149.0547  137.1388  156.9589 H   0  0  0  0  0  0  0  0  0  0  0  0
  150.6951  136.5187  157.0230 H   0  0  0  0  0  0  0  0  0  0  0  0
  147.5244  136.5769  158.0653 H   0  0  0  0  0  0  0  0  0  0  0  0
  147.6757  134.8523  157.7760 H   0  0  0  0  0  0  0  0  0  0  0  0
  147.8193  137.3877  160.5734 H   0  0  0  0  0  0  0  0  0  0  0  0
  146.9313  136.9317  162.8464 H   0  0  0  0  0  0  0  0  0  0  0  0
  146.0385  134.6780  163.4086 H   0  0  0  0  0  0  0  0  0  0  0  0
  146.0340  132.8779  161.6903 H   0  0  0  0  0  0  0  0  0  0  0  0
  146.9211  133.3280  159.4135 H   0  0  0  0  0  0  0  0  0  0  0  0
  150.4463  141.9093  156.7503 H   0  0  0  0  0  0  0  0  0  0  0  0
  150.7645  144.3794  157.0188 H   0  0  0  0  0  0  0  0  0  0  0  0
  152.1502  145.2788  158.8768 H   0  0  0  0  0  0  0  0  0  0  0  0
  153.2488  143.7250  160.5102 H   0  0  0  0  0  0  0  0  0  0  0  0
  1  2  1  0  0  0  0
  1 24  1  0  0  0  0
  1 25  1  0  0  0  0
  1 26  1  0  0  0  0
  2 23  1  0  0  0  0
  2  3  1  0  0  0  0
  3  4  2  0  0  0  0
  3  5  1  0  0  0  0
  5  6  1  0  0  0  0
  5 18  1  0  0  0  0
  6  7  1  0  0  0  0
  6 27  1  0  0  0  0
  6 28  1  0  0  0  0
  7  8  1  0  0  0  0
  7  9  1  0  0  0  0
  7 29  1  0  0  0  0
  8 30  1  0  0  0  0
  9 10  1  0  0  0  0
  9 31  1  0  0  0  0
  9 32  1  0  0  0  0
 10 11  1  0  0  0  0
 11 12  1  0  0  0  0
 11 33  1  0  0  0  0
 11 34  1  0  0  0  0
 12 17  1  0  0  0  0
 12 13  2  0  0  0  0
 13 14  1  0  0  0  0
 13 35  1  0  0  0  0
 14 15  2  0  0  0  0
 14 36  1  0  0  0  0
 15 16  1  0  0  0  0
 15 37  1  0  0  0  0
 16 17  2  0  0  0  0
 16 38  1  0  0  0  0
 17 39  1  0  0  0  0
 18 23  2  0  0  0  0
 18 19  1  0  0  0  0
 19 20  2  0  0  0  0
 19 40  1  0  0  0  0
 20 21  1  0  0  0  0
 20 41  1  0  0  0  0
 21 22  2  0  0  0  0
 21 42  1  0  0  0  0
 22 23  1  0  0  0  0
 22 43  1  0  0  0  0
M  END
> <s_m_source_file>
AV-unprocessed.smi

> <i_m_source_file_index>
421

> <i_lp_mmshare_version>
43012

> <i_f3d_flags>
0

> <s_epik_input>
W2NIXTFbY0hdW2NIXVtjSF1jKGMxMiluKFtDSDNdKWMoPU8pbjJbQ0gyXVtDQEhdKFtPSF0pW0NIMl1PW0NIMl1jM1tjSF1bY0hdW2NIXVtjSF1bY0hdMw==

> <s_epik_cmdline>
J2VwaWtfcHl0aG9uJywgJy1waCcsICc3LjAnLCAnLXRuJywgJzgnLCAnLW1hJywgJzIwMCcsICctbWV0YWxfYmluZGluZycsICctaW1hZScsICc8aW5maWxlLm1hZT4nLCAnLW9tYWUnLCAnPG91dGZpbGUubWFlPic=

> <r_lp_tautomer_probability>
1

> <r_epik_Ionization_Penalty>
1.0795e-06

> <r_epik_Ionization_Penalty_Charging>
2.82452e-09

> <r_epik_Ionization_Penalty_Neutral>
1.07667e-06

> <r_epik_State_Penalty>
-0

> <r_epik_Charging_Adjusted_Penalty>
2.82452e-09

> <i_epik_Tot_Q>
0

> <i_epik_Tot_abs_Q>
0

> <r_epik_Metal_State_Penalty>
-0

> <b_epik_Metal_Only>
0

> <s_lp_Force_Field>
OPLS_2005

> <r_lp_Energy>
47.6123

> <b_lp_Chiralities_Consistent>
1

> <s_lp_Variant>
AV-unprocessed.smi:421-2

> <Gold.Version>
5.8.1

> <Gold.Id.Protein>
6NUR|6NUR_protein|mol2

> <Gold.PLP.Fitness>
53.7048

> <Gold.PLP.PLP>
-52.7461

> <Gold.PLP.part.hbond>
-2.9519

> <Gold.PLP.part.metal>
0.0000

> <Gold.PLP.part.buried>
-3.6148

> <Gold.PLP.part.nonpolar>
-46.9887

> <Gold.PLP.part.repulsive>
0.0000

> <Gold.PLP.ligand.clash>
0.0000

> <Gold.PLP.ligand.torsion>
1.1024

> <Gold.PLP.Chemscore.Hbond>
1.0000

> <Gold.PLP.Chemscore.CHOScore>
0.0000

> <Gold.PLP.Chemscore.Metal>
0.0000

> <Gold.Chemscore.Hbonds>
donor molecule, donor type, donor heavy atom, donor atom, acceptor molecule, acceptor atom, score
      P1  H  6896  6909       L1    10  0.91

> <Gold.PLP.Chemscore.Internal.Correction>
0.1634

> <Gold.Rescore>
     Score         DG    S(hbond)    S(metal)    S(lipo)     H(rot)  DE(clash)    DE(int)     intcor
     16.07     -18.05       0.97        0.00     128.09       2.21       0.15       1.83       ----

> <Gold.Chemscore.Fitness>
16.0704

> <Gold.Chemscore.DG>
-18.0471

> <Gold.Chemscore.ZeroCoef>
-5.4800

> <Gold.Chemscore.Hbond>
0.9710

> <Gold.Chemscore.Metal>
0.0000

> <Gold.Chemscore.Lipo>
128.0884

> <Gold.Chemscore.Internal_Hbond>
0.0000

> <Gold.Chemscore.DEClash>
0.1461

> <Gold.Chemscore.DEInternal>
1.8306

> <Gold.Chemscore.Rot>
2.2119

> <Gold.Chemscore.Internal.Correction>
   9.000000E+99

> <Gold.Chemscore.Hbonds>
donor molecule, donor type, donor heavy atom, donor atom, acceptor molecule, acceptor atom, score
      P1  H  6896  6909       L1    10  0.87

> <Gold.Chemscore.Hbond.Weighted>
-3.2431

> <Gold.Chemscore.Metal.Weighted>
-0.0000

> <Gold.Chemscore.Lipo.Weighted>
-14.9863

> <Gold.Chemscore.Internal_Hbond.Weighted>
0.0000

> <Gold.Chemscore.DEClash.Weighted>
0.1461

> <Gold.Chemscore.DEInternal.Weighted>
1.8306

> <Gold.Chemscore.Rot.Weighted>
5.6623

> <Gold.Chemscore.Internal.Correction.Weighted>
   9.000000E+99

> <Gold.Protein.RotatedTorsions>
[ 6907 6896 6895 6894 ] final   54.64 input  -60.11 | X-H torsion
[ 7974 7965 7964 7962 ] final -161.06 input  175.53 | X-H torsion
[ 8008 7997 7996 7995 ] final  -16.41 input   59.86 | X-H torsion
[ 10167 10162 10161 10158 ] final   10.82 input  -65.29 | X-H torsion
[ 10718 10713 10712 10709 ] final  -58.52 input   66.30 | X-H torsion
[ 10763 10752 10751 10750 ] final -163.43 input  -60.55 | X-H torsion
[ 11005 11000 10999 10996 ] final  163.59 input  -57.11 | X-H torsion

> <Gold.Protein.ActiveResidues>
 VAL166  LYS551  ARG553  GLY616  TRP617  ASP618  TYR619  PRO620  LYS621  CYS622 
 ASP623  PHE694  ASN695  SER759  ASP760  ASP761  ALA762  ILE779  LEU786  VAL792 
 PHE793  MET794  SER795  GLU796  ALA797  LYS798  CYS799  TRP800  GLU811  SER814 

> <Gold.Protein.RotatedAtoms>
  152.3459  134.7072  160.0250 H   0  0  0  0  0  0  0  0  0  0  0  0  # atno 6907 bound_to 6896
  151.7442  133.3318  159.3382 H   0  0  0  0  0  0  0  0  0  0  0  0  # atno 6908 bound_to 6896
  150.7509  134.6184  159.6167 H   0  0  0  0  0  0  0  0  0  0  0  0  # atno 6909 bound_to 6896
  144.7404  140.3452  143.6127 H   0  0  0  0  0  0  0  0  0  0  0  0  # atno 7974 bound_to 7965
  154.5055  140.2170  155.9260 H   0  0  0  0  0  0  0  0  0  0  0  0  # atno 8008 bound_to 7997
  156.1488  140.3165  155.8581 H   0  0  0  0  0  0  0  0  0  0  0  0  # atno 8009 bound_to 7997
  155.3979  140.0482  157.3029 H   0  0  0  0  0  0  0  0  0  0  0  0  # atno 8010 bound_to 7997
  140.6171  143.8285  150.7131 H   0  0  0  0  0  0  0  0  0  0  0  0  # atno 10167 bound_to 10162
  156.1129  130.4173  150.0588 H   0  0  0  0  0  0  0  0  0  0  0  0  # atno 10718 bound_to 10713
  154.7123  135.3008  154.9178 H   0  0  0  0  0  0  0  0  0  0  0  0  # atno 10763 bound_to 10752
  154.0076  135.6699  153.4767 H   0  0  0  0  0  0  0  0  0  0  0  0  # atno 10764 bound_to 10752
  153.0765  135.5032  154.8328 H   0  0  0  0  0  0  0  0  0  0  0  0  # atno 10765 bound_to 10752
  140.2374  134.8077  157.3377 H   0  0  0  0  0  0  0  0  0  0  0  0  # atno 11005 bound_to 11000
  145.7333  139.1742  143.2418 LP  0  0  0  0  0  0  0  0  0  0  0  0  # atno 17320 bound_to 7965
  146.1190  140.7333  142.9467 LP  0  0  0  0  0  0  0  0  0  0  0  0  # atno 17321 bound_to 7965
  140.1867  143.4070  152.1893 LP  0  0  0  0  0  0  0  0  0  0  0  0  # atno 17342 bound_to 10162
  139.5407  144.7254  151.4743 LP  0  0  0  0  0  0  0  0  0  0  0  0  # atno 17343 bound_to 10162
  156.8546  130.9471  151.3623 LP  0  0  0  0  0  0  0  0  0  0  0  0  # atno 17370 bound_to 10713
  157.6311  130.8730  149.9276 LP  0  0  0  0  0  0  0  0  0  0  0  0  # atno 17371 bound_to 10713
  140.1688  134.4634  155.7845 LP  0  0  0  0  0  0  0  0  0  0  0  0  # atno 17394 bound_to 11000
  141.2213  133.6933  156.7672 LP  0  0  0  0  0  0  0  0  0  0  0  0  # atno 17395 bound_to 11000

$$$$
