AV-unprocessed.smi:3000|AV-procd|sdf|11430|dock6
  -GOLD-   2272016353D 1   1.00000     0.00000
 Structure written by MMmdl.
 44 45  0  0  0  0  0  0  0  0  1 V2000
  143.8250  132.2495  150.1279 C   0  0  0  0  0  0  0  0  0  0  0  0
  144.3183  133.2405  151.0602 N   0  0  0  0  0  0  0  0  0  0  0  0
  145.4675  134.0006  150.9736 C   0  0  0  0  0  0  0  0  0  0  0  0
  145.4788  134.7806  152.0954 C   0  0  0  0  0  0  0  0  0  0  0  0
  146.4333  135.7428  152.5125 N   0  0  0  0  0  0  0  0  0  0  0  0
  146.2883  136.6720  153.4712 C   0  0  0  0  0  0  0  0  0  0  0  0
  145.2800  136.8153  154.1610 O   0  0  0  0  0  0  0  0  0  0  0  0
  147.3927  137.4307  153.5757 N   0  0  0  0  0  0  0  0  0  0  0  0
  147.6642  138.5459  154.4966 C   0  0  2  0  0  0  0  0  0  0  0  0
  147.1816  138.0282  155.8716 C   0  0  0  0  0  0  0  0  0  0  0  0
  146.7454  139.7488  154.1236 C   0  0  0  0  0  0  0  0  0  0  0  0
  146.7880  140.1083  152.7572 O   0  0  0  0  0  0  0  0  0  0  0  0
  149.1935  138.9122  154.5453 C   0  0  0  0  0  0  0  0  0  0  0  0
  150.1384  137.6956  154.7244 C   0  0  0  0  0  0  0  0  0  0  0  0
  151.6165  138.1086  154.6313 C   0  0  0  0  0  0  0  0  0  0  0  0
  151.9575  139.1995  155.6570 C   0  0  0  0  0  0  0  0  0  0  0  0
  151.0263  140.4109  155.5043 C   0  0  0  0  0  0  0  0  0  0  0  0
  149.5498  139.9929  155.5975 C   0  0  0  0  0  0  0  0  0  0  0  0
  144.3048  134.4389  152.8160 C   0  0  0  0  0  0  0  0  0  0  0  0
  143.6076  133.5076  152.1830 N   0  0  0  0  0  0  0  0  0  0  0  0
  144.5773  132.0476  149.3646 H   0  0  0  0  0  0  0  0  0  0  0  0
  142.9192  132.6180  149.6456 H   0  0  0  0  0  0  0  0  0  0  0  0
  143.5989  131.3224  150.6558 H   0  0  0  0  0  0  0  0  0  0  0  0
  146.1515  133.9150  150.1420 H   0  0  0  0  0  0  0  0  0  0  0  0
  147.3171  135.7250  152.0253 H   0  0  0  0  0  0  0  0  0  0  0  0
  148.1473  137.2071  152.9438 H   0  0  0  0  0  0  0  0  0  0  0  0
  147.2895  138.7771  156.6556 H   0  0  0  0  0  0  0  0  0  0  0  0
  147.7215  137.1368  156.1905 H   0  0  0  0  0  0  0  0  0  0  0  0
  146.1241  137.7615  155.8404 H   0  0  0  0  0  0  0  0  0  0  0  0
  145.7107  139.5564  154.4109 H   0  0  0  0  0  0  0  0  0  0  0  0
  147.0493  140.6370  154.6788 H   0  0  0  0  0  0  0  0  0  0  0  0
  147.6829  140.3013  152.5239 H   0  0  0  0  0  0  0  0  0  0  0  0
  149.4532  139.3429  153.5784 H   0  0  0  0  0  0  0  0  0  0  0  0
  149.9663  137.2206  155.6901 H   0  0  0  0  0  0  0  0  0  0  0  0
  149.9440  136.9354  153.9682 H   0  0  0  0  0  0  0  0  0  0  0  0
  152.2553  137.2393  154.7891 H   0  0  0  0  0  0  0  0  0  0  0  0
  151.8318  138.4706  153.6251 H   0  0  0  0  0  0  0  0  0  0  0  0
  151.8659  138.7938  156.6654 H   0  0  0  0  0  0  0  0  0  0  0  0
  152.9962  139.5097  155.5403 H   0  0  0  0  0  0  0  0  0  0  0  0
  151.2521  141.1499  156.2734 H   0  0  0  0  0  0  0  0  0  0  0  0
  151.2097  140.8973  154.5453 H   0  0  0  0  0  0  0  0  0  0  0  0
  148.9264  140.8773  155.4711 H   0  0  0  0  0  0  0  0  0  0  0  0
  149.3576  139.6214  156.6037 H   0  0  0  0  0  0  0  0  0  0  0  0
  143.9421  134.8271  153.7564 H   0  0  0  0  0  0  0  0  0  0  0  0
  1  2  1  0  0  0  0
  1 21  1  0  0  0  0
  1 22  1  0  0  0  0
  1 23  1  0  0  0  0
  2 20  1  0  0  0  0
  2  3  1  0  0  0  0
  3  4  2  0  0  0  0
  3 24  1  0  0  0  0
  4  5  1  0  0  0  0
  4 19  1  0  0  0  0
  5  6  1  0  0  0  0
  5 25  1  0  0  0  0
  6  7  2  0  0  0  0
  6  8  1  0  0  0  0
  8  9  1  0  0  0  0
  8 26  1  0  0  0  0
  9 10  1  0  0  0  0
  9 11  1  0  0  0  0
  9 13  1  0  0  0  0
 10 27  1  0  0  0  0
 10 28  1  0  0  0  0
 10 29  1  0  0  0  0
 11 12  1  0  0  0  0
 11 30  1  0  0  0  0
 11 31  1  0  0  0  0
 12 32  1  0  0  0  0
 13 18  1  0  0  0  0
 13 14  1  0  0  0  0
 13 33  1  0  0  0  0
 14 15  1  0  0  0  0
 14 34  1  0  0  0  0
 14 35  1  0  0  0  0
 15 16  1  0  0  0  0
 15 36  1  0  0  0  0
 15 37  1  0  0  0  0
 16 17  1  0  0  0  0
 16 38  1  0  0  0  0
 16 39  1  0  0  0  0
 17 18  1  0  0  0  0
 17 40  1  0  0  0  0
 17 41  1  0  0  0  0
 18 42  1  0  0  0  0
 18 43  1  0  0  0  0
 19 20  2  0  0  0  0
 19 44  1  0  0  0  0
M  END
> <s_m_source_file>
AV-unprocessed.smi

> <i_m_source_file_index>
3000

> <i_lp_mmshare_version>
43012

> <i_f3d_flags>
0

> <s_epik_input>
W0NIM11uMVtjSF1jKFtjSF1uMSlbTkhdQyg9TylbTkhdW0NAQF0oW0NIM10pKFtDSDJdW09IXSlbQ0hdMltDSDJdW0NIMl1bQ0gyXVtDSDJdW0NIMl0y

> <s_epik_cmdline>
J2VwaWtfcHl0aG9uJywgJy1waCcsICc3LjAnLCAnLXRuJywgJzgnLCAnLW1hJywgJzIwMCcsICctbWV0YWxfYmluZGluZycsICctaW1hZScsICc8aW5maWxlLm1hZT4nLCAnLW9tYWUnLCAnPG91dGZpbGUubWFlPic=

> <r_lp_tautomer_probability>
1

> <r_epik_Ionization_Penalty>
0.000189471

> <r_epik_Ionization_Penalty_Charging>
0

> <r_epik_Ionization_Penalty_Neutral>
0.000189471

> <r_epik_State_Penalty>
-0

> <r_epik_Charging_Adjusted_Penalty>
0

> <i_epik_Tot_Q>
0

> <i_epik_Tot_abs_Q>
0

> <r_epik_Metal_State_Penalty>
-0

> <b_epik_Metal_Only>
0

> <s_lp_Force_Field>
OPLS_2005

> <r_lp_Energy>
23.0127

> <b_lp_Chiralities_Consistent>
1

> <s_lp_Variant>
AV-unprocessed.smi:3000-2

> <Gold.Version>
5.8.1

> <Gold.Id.Protein>
6NUR|6NUR_protein|mol2

> <Gold.PLP.Fitness>
42.4067

> <Gold.PLP.PLP>
-31.7323

> <Gold.PLP.part.hbond>
-3.1385

> <Gold.PLP.part.metal>
0.0000

> <Gold.PLP.part.buried>
-3.6383

> <Gold.PLP.part.nonpolar>
-25.9070

> <Gold.PLP.part.repulsive>
0.3372

> <Gold.PLP.ligand.clash>
0.0000

> <Gold.PLP.ligand.torsion>
0.4739

> <Gold.PLP.Chemscore.Hbond>
2.9913

> <Gold.PLP.Chemscore.CHOScore>
0.8516

> <Gold.PLP.Chemscore.Metal>
0.0000

> <Gold.Chemscore.Hbonds>
donor molecule, donor type, donor heavy atom, donor atom, acceptor molecule, acceptor atom, score
      L1  H     5    25       P1  7948  1.00
      L1  H     8    26       P1  7948  1.00
      L1  H    12    32       P1  7957  0.18
      L1  C     3    24       P1  7921  0.57

> <Gold.PLP.Chemscore.Internal.Correction>
0.0935

> <Gold.Rescore>
     Score         DG    S(hbond)    S(metal)    S(lipo)     H(rot)  DE(clash)    DE(int)     intcor
     15.26     -18.73       2.96        0.00      72.99       2.02       0.04       3.43       ----

> <Gold.Chemscore.Fitness>
15.2583

> <Gold.Chemscore.DG>
-18.7303

> <Gold.Chemscore.ZeroCoef>
-5.4800

> <Gold.Chemscore.Hbond>
2.9558

> <Gold.Chemscore.Metal>
0.0000

> <Gold.Chemscore.Lipo>
72.9923

> <Gold.Chemscore.Internal_Hbond>
0.0000

> <Gold.Chemscore.DEClash>
0.0438

> <Gold.Chemscore.DEInternal>
3.4282

> <Gold.Chemscore.Rot>
2.0165

> <Gold.Chemscore.Internal.Correction>
   9.000000E+99

> <Gold.Chemscore.Hbonds>
donor molecule, donor type, donor heavy atom, donor atom, acceptor molecule, acceptor atom, score
      L1  H     5    25       P1  7948  0.97
      L1  H     8    26       P1  7948  0.98
      L1  H    12    32       P1  7957  0.19

> <Gold.Chemscore.Hbond.Weighted>
-9.8724

> <Gold.Chemscore.Metal.Weighted>
-0.0000

> <Gold.Chemscore.Lipo.Weighted>
-8.5401

> <Gold.Chemscore.Internal_Hbond.Weighted>
0.0000

> <Gold.Chemscore.DEClash.Weighted>
0.0438

> <Gold.Chemscore.DEInternal.Weighted>
3.4282

> <Gold.Chemscore.Rot.Weighted>
5.1622

> <Gold.Chemscore.Internal.Correction.Weighted>
   9.000000E+99

> <Gold.Protein.RotatedTorsions>
[ 6907 6896 6895 6894 ] final  -13.40 input  -60.11 | X-H torsion
[ 7974 7965 7964 7962 ] final   24.25 input  175.53 | X-H torsion
[ 8008 7997 7996 7995 ] final  -52.74 input   59.86 | X-H torsion
[ 10167 10162 10161 10158 ] final   97.59 input  -65.29 | X-H torsion
[ 10718 10713 10712 10709 ] final   78.86 input   66.30 | X-H torsion
[ 10763 10752 10751 10750 ] final  -11.07 input  -60.55 | X-H torsion
[ 11005 11000 10999 10996 ] final -176.81 input  -57.11 | X-H torsion

> <Gold.Protein.ActiveResidues>
 VAL166  LYS551  ARG553  GLY616  TRP617  ASP618  TYR619  PRO620  LYS621  CYS622 
 ASP623  PHE694  ASN695  SER759  ASP760  ASP761  ALA762  ILE779  LEU786  VAL792 
 PHE793  MET794  SER795  GLU796  ALA797  LYS798  CYS799  TRP800  GLU811  SER814 

> <Gold.Protein.RotatedAtoms>
  151.3555  135.0893  159.9417 H   0  0  0  0  0  0  0  0  0  0  0  0  # atno 6907 bound_to 6896
  152.5176  133.9309  159.7590 H   0  0  0  0  0  0  0  0  0  0  0  0  # atno 6908 bound_to 6896
  150.9693  133.6306  159.2770 H   0  0  0  0  0  0  0  0  0  0  0  0  # atno 6909 bound_to 6896
  146.1946  139.7631  142.8806 H   0  0  0  0  0  0  0  0  0  0  0  0  # atno 7974 bound_to 7965
  154.4114  140.1216  156.5040 H   0  0  0  0  0  0  0  0  0  0  0  0  # atno 8008 bound_to 7997
  155.6866  140.3495  155.4857 H   0  0  0  0  0  0  0  0  0  0  0  0  # atno 8009 bound_to 7997
  155.9505  140.1104  157.0970 H   0  0  0  0  0  0  0  0  0  0  0  0  # atno 8010 bound_to 7997
  139.7787  144.6896  151.0053 H   0  0  0  0  0  0  0  0  0  0  0  0  # atno 10167 bound_to 10162
  157.6758  130.9887  150.1848 H   0  0  0  0  0  0  0  0  0  0  0  0  # atno 10718 bound_to 10713
  153.4783  135.7017  153.5953 H   0  0  0  0  0  0  0  0  0  0  0  0  # atno 10763 bound_to 10752
  153.4177  135.3833  155.2091 H   0  0  0  0  0  0  0  0  0  0  0  0  # atno 10764 bound_to 10752
  154.8722  135.3920  154.4230 H   0  0  0  0  0  0  0  0  0  0  0  0  # atno 10765 bound_to 10752
  140.4480  134.6370  157.4788 H   0  0  0  0  0  0  0  0  0  0  0  0  # atno 11005 bound_to 11000
  145.3684  141.0338  143.3245 LP  0  0  0  0  0  0  0  0  0  0  0  0  # atno 17320 bound_to 7965
  144.8555  139.5256  143.6836 LP  0  0  0  0  0  0  0  0  0  0  0  0  # atno 17321 bound_to 7965
  140.7817  143.4507  151.0417 LP  0  0  0  0  0  0  0  0  0  0  0  0  # atno 17342 bound_to 10162
  139.8188  143.7848  152.3176 LP  0  0  0  0  0  0  0  0  0  0  0  0  # atno 17343 bound_to 10162
  156.2572  130.3707  149.8169 LP  0  0  0  0  0  0  0  0  0  0  0  0  # atno 17370 bound_to 10713
  156.5924  130.8512  151.3411 LP  0  0  0  0  0  0  0  0  0  0  0  0  # atno 17371 bound_to 10713
  140.0026  134.6813  155.9506 LP  0  0  0  0  0  0  0  0  0  0  0  0  # atno 17394 bound_to 11000
  141.1677  133.6537  156.4537 LP  0  0  0  0  0  0  0  0  0  0  0  0  # atno 17395 bound_to 11000

$$$$
