AV-unprocessed.smi:18|AV-procd|sdf|108|dock1
  -GOLD-   2262015263D 1   1.00000     0.00000
 Structure written by MMmdl.
 47 50  0  0  0  0  0  0  0  0  1 V2000
  147.9361  138.8145  152.3256 O   0  0  0  0  0  0  0  0  0  0  0  0
  147.7164  138.9314  153.7170 C   0  0  0  0  0  0  0  0  0  0  0  0
  148.8478  139.7183  154.4024 C   0  0  0  0  0  0  0  0  0  0  0  0
  150.1789  138.9398  154.3377 C   0  0  0  0  0  0  0  0  0  0  0  0
  150.9546  138.9793  155.5685 N   0  0  0  0  0  0  0  0  0  0  0  0
  152.1027  139.7074  155.7915 C   0  0  0  0  0  0  0  0  0  0  0  0
  152.6215  139.5818  156.9825 N   0  0  0  0  0  0  0  0  0  0  0  0
  151.7740  138.6883  157.6241 C   0  0  0  0  0  0  0  0  0  0  0  0
  151.7518  138.1111  158.9215 C   0  0  0  0  0  0  0  0  0  0  0  0
  152.6812  138.4219  159.8573 N   0  0  0  0  0  0  0  0  0  0  0  0
  153.4921  137.2453  160.1548 C   0  0  0  0  0  0  0  0  0  0  0  0
  154.4306  137.5220  161.3354 C   0  0  0  0  0  0  0  0  0  0  0  0
  155.2322  138.6525  161.0256 O   0  0  0  0  0  0  0  0  0  0  0  0
  154.4449  139.8237  160.8481 C   0  0  0  0  0  0  0  0  0  0  0  0
  153.4616  139.6538  159.6655 C   0  0  2  0  0  0  0  0  0  0  0  0
  152.5543  140.9046  159.5268 C   0  0  0  0  0  0  0  0  0  0  0  0
  153.2639  142.2362  159.8172 C   0  0  0  0  0  0  0  0  0  0  0  0
  152.8038  143.1978  159.0173 F   0  0  0  0  0  0  0  0  0  0  0  0
  153.0543  142.5896  161.0847 F   0  0  0  0  0  0  0  0  0  0  0  0
  150.7365  137.2559  159.2165 N   0  0  0  0  0  0  0  0  0  0  0  0
  149.8144  136.9683  158.2929 C   0  0  0  0  0  0  0  0  0  0  0  0
  149.7153  137.4241  157.0422 N   0  0  0  0  0  0  0  0  0  0  0  0
  150.7234  138.2945  156.7489 C   0  0  0  0  0  0  0  0  0  0  0  0
  148.9151  141.2001  154.0051 C   0  0  0  0  0  0  0  0  0  0  0  0
  148.2427  141.6114  155.2137 O   0  0  0  0  0  0  0  0  0  0  0  0
  148.4844  140.3037  155.7741 C   0  0  0  0  0  0  0  0  0  0  0  0
  148.7171  139.2984  152.1031 H   0  0  0  0  0  0  0  0  0  0  0  0
  146.7429  139.3906  153.8899 H   0  0  0  0  0  0  0  0  0  0  0  0
  147.6488  137.9235  154.1280 H   0  0  0  0  0  0  0  0  0  0  0  0
  149.9982  137.8925  154.0922 H   0  0  0  0  0  0  0  0  0  0  0  0
  150.8042  139.3221  153.5300 H   0  0  0  0  0  0  0  0  0  0  0  0
  152.5419  140.3463  155.0389 H   0  0  0  0  0  0  0  0  0  0  0  0
  152.8534  136.3927  160.3904 H   0  0  0  0  0  0  0  0  0  0  0  0
  154.0763  136.9750  159.2735 H   0  0  0  0  0  0  0  0  0  0  0  0
  153.8672  137.6935  162.2539 H   0  0  0  0  0  0  0  0  0  0  0  0
  155.0784  136.6633  161.5111 H   0  0  0  0  0  0  0  0  0  0  0  0
  153.9106  140.0520  161.7721 H   0  0  0  0  0  0  0  0  0  0  0  0
  155.1282  140.6516  160.6645 H   0  0  0  0  0  0  0  0  0  0  0  0
  154.0489  139.5402  158.7532 H   0  0  0  0  0  0  0  0  0  0  0  0
  152.1428  140.9712  158.5200 H   0  0  0  0  0  0  0  0  0  0  0  0
  151.6951  140.8023  160.1908 H   0  0  0  0  0  0  0  0  0  0  0  0
  154.3433  142.1771  159.6836 H   0  0  0  0  0  0  0  0  0  0  0  0
  149.0445  136.2764  158.6010 H   0  0  0  0  0  0  0  0  0  0  0  0
  149.9260  141.6065  153.9558 H   0  0  0  0  0  0  0  0  0  0  0  0
  148.3527  141.4459  153.1036 H   0  0  0  0  0  0  0  0  0  0  0  0
  147.5917  139.8674  156.2238 H   0  0  0  0  0  0  0  0  0  0  0  0
  149.3123  140.3148  156.4850 H   0  0  0  0  0  0  0  0  0  0  0  0
  1  2  1  0  0  0  0
  1 27  1  0  0  0  0
  2  3  1  0  0  0  0
  2 28  1  0  0  0  0
  2 29  1  0  0  0  0
  3 26  1  0  0  0  0
  3  4  1  0  0  0  0
  3 24  1  0  0  0  0
  4  5  1  0  0  0  0
  4 30  1  0  0  0  0
  4 31  1  0  0  0  0
  5 23  1  0  0  0  0
  5  6  1  0  0  0  0
  6  7  2  0  0  0  0
  6 32  1  0  0  0  0
  7  8  1  0  0  0  0
  8 23  2  0  0  0  0
  8  9  1  0  0  0  0
  9 10  1  0  0  0  0
  9 20  2  0  0  0  0
 10 15  1  0  0  0  0
 10 11  1  0  0  0  0
 11 12  1  0  0  0  0
 11 33  1  0  0  0  0
 11 34  1  0  0  0  0
 12 13  1  0  0  0  0
 12 35  1  0  0  0  0
 12 36  1  0  0  0  0
 13 14  1  0  0  0  0
 14 15  1  0  0  0  0
 14 37  1  0  0  0  0
 14 38  1  0  0  0  0
 15 16  1  0  0  0  0
 15 39  1  0  0  0  0
 16 17  1  0  0  0  0
 16 40  1  0  0  0  0
 16 41  1  0  0  0  0
 17 18  1  0  0  0  0
 17 19  1  0  0  0  0
 17 42  1  0  0  0  0
 20 21  1  0  0  0  0
 21 22  2  0  0  0  0
 21 43  1  0  0  0  0
 22 23  1  0  0  0  0
 24 25  1  0  0  0  0
 24 44  1  0  0  0  0
 24 45  1  0  0  0  0
 25 26  1  0  0  0  0
 26 46  1  0  0  0  0
 26 47  1  0  0  0  0
M  END
> <s_m_source_file>
AV-unprocessed.smi

> <i_m_source_file_index>
18

> <i_lp_mmshare_version>
43012

> <i_f3d_flags>
0

> <s_epik_input>
W0NIMl0xT1tDSDJdQzEoW0NIMl1bT0hdKVtDSDJdbihbY0hdbjIpYyhjMjMpbltjSF1uYzNONFtDSDJdW0NIMl1PW0NIMl1bQ0BIXTRbQ0gyXVtDSF0oRilG

> <s_epik_cmdline>
J2VwaWtfcHl0aG9uJywgJy1waCcsICc3LjAnLCAnLXRuJywgJzgnLCAnLW1hJywgJzIwMCcsICctbWV0YWxfYmluZGluZycsICctaW1hZScsICc8aW5maWxlLm1hZT4nLCAnLW9tYWUnLCAnPG91dGZpbGUubWFlPic=

> <r_lp_tautomer_probability>
1

> <r_epik_Ionization_Penalty>
6.63711e-05

> <r_epik_Ionization_Penalty_Charging>
0

> <r_epik_Ionization_Penalty_Neutral>
6.63711e-05

> <r_epik_State_Penalty>
-0

> <r_epik_Charging_Adjusted_Penalty>
0

> <i_epik_Tot_Q>
0

> <i_epik_Tot_abs_Q>
0

> <r_epik_Metal_State_Penalty>
-0

> <b_epik_Metal_Only>
0

> <s_lp_Force_Field>
OPLS_2005

> <r_lp_Energy>
38.6195

> <b_lp_Chiralities_Consistent>
1

> <s_lp_Variant>
AV-unprocessed.smi:18-2

> <Gold.Version>
5.8.1

> <Gold.Id.Protein>
6NUR|6NUR_protein|mol2

> <Gold.PLP.Fitness>
48.2374

> <Gold.PLP.PLP>
-44.1824

> <Gold.PLP.part.hbond>
-3.1800

> <Gold.PLP.part.metal>
0.0000

> <Gold.PLP.part.buried>
-4.6932

> <Gold.PLP.part.nonpolar>
-35.1980

> <Gold.PLP.part.repulsive>
0.1118

> <Gold.PLP.ligand.clash>
0.0000

> <Gold.PLP.ligand.torsion>
2.1523

> <Gold.PLP.Chemscore.Hbond>
2.6012

> <Gold.PLP.Chemscore.CHOScore>
0.0000

> <Gold.PLP.Chemscore.Metal>
0.0000

> <Gold.Chemscore.Hbonds>
donor molecule, donor type, donor heavy atom, donor atom, acceptor molecule, acceptor atom, score
      L1  H     1    27       P1  7957  0.86
      P1  H  6896  6907       L1    20  0.23
      P1  H  7997  8010       L1     7  1.00

> <Gold.PLP.Chemscore.Internal.Correction>
0.5559

> <Gold.Rescore>
     Score         DG    S(hbond)    S(metal)    S(lipo)     H(rot)  DE(clash)    DE(int)     intcor
      9.75     -13.52       1.85        0.00      80.75       2.96       0.08       3.68       ----

> <Gold.Chemscore.Fitness>
9.7489

> <Gold.Chemscore.DG>
-13.5155

> <Gold.Chemscore.ZeroCoef>
-5.4800

> <Gold.Chemscore.Hbond>
1.8492

> <Gold.Chemscore.Metal>
0.0000

> <Gold.Chemscore.Lipo>
80.7492

> <Gold.Chemscore.Internal_Hbond>
0.0000

> <Gold.Chemscore.DEClash>
0.0825

> <Gold.Chemscore.DEInternal>
3.6842

> <Gold.Chemscore.Rot>
2.9643

> <Gold.Chemscore.Internal.Correction>
   9.000000E+99

> <Gold.Chemscore.Hbonds>
donor molecule, donor type, donor heavy atom, donor atom, acceptor molecule, acceptor atom, score
      L1  H     1    27       P1  7957  0.81
      P1  H  6896  6907       L1    20  0.09
      P1  H  7997  8010       L1     7  0.26

> <Gold.Chemscore.Hbond.Weighted>
-6.1764

> <Gold.Chemscore.Metal.Weighted>
-0.0000

> <Gold.Chemscore.Lipo.Weighted>
-9.4477

> <Gold.Chemscore.Internal_Hbond.Weighted>
0.0000

> <Gold.Chemscore.DEClash.Weighted>
0.0825

> <Gold.Chemscore.DEInternal.Weighted>
3.6842

> <Gold.Chemscore.Rot.Weighted>
7.5886

> <Gold.Chemscore.Internal.Correction.Weighted>
   9.000000E+99

> <Gold.Protein.RotatedTorsions>
[ 6907 6896 6895 6894 ] final   -4.06 input  -60.11 | X-H torsion
[ 7974 7965 7964 7962 ] final  -98.16 input  175.53 | X-H torsion
[ 8008 7997 7996 7995 ] final   60.67 input   59.86 | X-H torsion
[ 10167 10162 10161 10158 ] final   72.57 input  -65.29 | X-H torsion
[ 10718 10713 10712 10709 ] final -101.35 input   66.30 | X-H torsion
[ 10763 10752 10751 10750 ] final  -51.59 input  -60.55 | X-H torsion
[ 11005 11000 10999 10996 ] final  -95.17 input  -57.11 | X-H torsion

> <Gold.Protein.ActiveResidues>
 VAL166  LYS551  ARG553  GLY616  TRP617  ASP618  TYR619  PRO620  LYS621  CYS622 
 ASP623  PHE694  ASN695  SER759  ASP760  ASP761  ALA762  ILE779  LEU786  VAL792 
 PHE793  MET794  SER795  GLU796  ALA797  LYS798  CYS799  TRP800  GLU811  SER814 

> <Gold.Protein.RotatedAtoms>
  151.5037  135.1062  159.9835 H   0  0  0  0  0  0  0  0  0  0  0  0  # atno 6907 bound_to 6896
  152.4691  133.7984  159.6950 H   0  0  0  0  0  0  0  0  0  0  0  0  # atno 6908 bound_to 6896
  150.8690  133.7470  159.2993 H   0  0  0  0  0  0  0  0  0  0  0  0  # atno 6909 bound_to 6896
  145.3243  140.9428  143.2698 H   0  0  0  0  0  0  0  0  0  0  0  0  # atno 7974 bound_to 7965
  155.5860  140.3492  155.4553 H   0  0  0  0  0  0  0  0  0  0  0  0  # atno 8008 bound_to 7997
  156.0337  140.1280  157.0255 H   0  0  0  0  0  0  0  0  0  0  0  0  # atno 8009 bound_to 7997
  154.4363  140.1038  156.6123 H   0  0  0  0  0  0  0  0  0  0  0  0  # atno 8010 bound_to 7997
  140.0338  144.5444  150.7486 H   0  0  0  0  0  0  0  0  0  0  0  0  # atno 10167 bound_to 10162
  156.0192  130.5369  150.6950 H   0  0  0  0  0  0  0  0  0  0  0  0  # atno 10718 bound_to 10713
  154.1290  135.6523  153.4918 H   0  0  0  0  0  0  0  0  0  0  0  0  # atno 10763 bound_to 10752
  153.0201  135.5288  154.7020 H   0  0  0  0  0  0  0  0  0  0  0  0  # atno 10764 bound_to 10752
  154.6249  135.2969  155.0254 H   0  0  0  0  0  0  0  0  0  0  0  0  # atno 10765 bound_to 10752
  141.1449  133.8007  157.0399 H   0  0  0  0  0  0  0  0  0  0  0  0  # atno 11005 bound_to 11000
  144.8915  139.4769  143.6676 LP  0  0  0  0  0  0  0  0  0  0  0  0  # atno 17320 bound_to 7965
  146.3070  139.7615  142.9048 LP  0  0  0  0  0  0  0  0  0  0  0  0  # atno 17321 bound_to 7965
  140.7290  143.2668  151.4018 LP  0  0  0  0  0  0  0  0  0  0  0  0  # atno 17342 bound_to 10162
  139.6058  144.1199  152.2248 LP  0  0  0  0  0  0  0  0  0  0  0  0  # atno 17343 bound_to 10162
  157.4623  131.0884  151.0732 LP  0  0  0  0  0  0  0  0  0  0  0  0  # atno 17370 bound_to 10713
  157.1217  130.6064  149.5506 LP  0  0  0  0  0  0  0  0  0  0  0  0  # atno 17371 bound_to 10713
  140.0699  134.9708  157.1450 LP  0  0  0  0  0  0  0  0  0  0  0  0  # atno 17394 bound_to 11000
  140.3725  134.2374  155.7177 LP  0  0  0  0  0  0  0  0  0  0  0  0  # atno 17395 bound_to 11000

$$$$
