AV-unprocessed.smi:1830|AV-procd|sdf|7444|dock1
  -GOLD-   22720 9133D 1   1.00000     0.00000
 Structure written by MMmdl.
 54 57  0  0  0  0  0  0  0  0  3 V2000
  150.4003  131.6079  157.0459 O   0  0  0  0  0  0  0  0  0  0  0  0
  149.4545  132.3923  157.1143 C   0  0  0  0  0  0  0  0  0  0  0  0
  149.1128  133.2269  156.1241 N   0  0  0  0  0  0  0  0  0  0  0  0
  149.8172  133.3283  154.8515 C   0  0  0  0  0  0  0  0  0  0  0  0
  149.1285  132.4792  153.7734 C   0  0  2  0  0  0  0  0  0  0  0  0
  147.9640  133.2433  153.0990 C   0  0  0  0  0  0  0  0  0  0  0  0
  147.2895  132.3261  152.1629 N   0  3  2  0  0  0  0  0  0  0  0  0
  146.1504  132.8360  151.3806 C   0  0  0  0  0  0  0  0  0  0  0  0
  145.3377  131.5801  151.0066 C   0  0  0  0  0  0  0  0  0  0  0  0
  145.9898  130.4152  151.7743 C   0  0  0  0  0  0  0  0  0  0  0  0
  146.8074  131.1253  152.8487 C   0  0  1  0  0  0  0  0  0  0  0  0
  148.0031  130.3848  153.4613 C   0  0  0  0  0  0  0  0  0  0  0  0
  148.6390  131.2765  154.3795 O   0  0  0  0  0  0  0  0  0  0  0  0
  148.6267  132.5141  158.1655 N   0  0  0  0  0  0  0  0  0  0  0  0
  148.6296  131.7549  159.3702 C   0  0  0  0  0  0  0  0  0  0  0  0
  149.1390  130.4310  159.3994 C   0  0  0  0  0  0  0  0  0  0  0  0
  149.1952  129.7251  160.6157 C   0  0  0  0  0  0  0  0  0  0  0  0
  148.7565  130.3591  161.7902 C   0  0  0  0  0  0  0  0  0  0  0  0
  148.2904  131.6236  161.7330 N   0  3  0  0  0  0  0  0  0  0  0  0
  148.1971  132.3505  160.5912 C   0  0  0  0  0  0  0  0  0  0  0  0
  147.6782  133.6623  160.6870 N   0  0  0  0  0  0  0  0  0  0  0  0
  148.4055  134.7883  160.1127 C   0  0  0  0  0  0  0  0  0  0  0  0
  147.7425  136.0297  160.7029 C   0  0  0  0  0  0  0  0  0  0  0  0
  147.3723  135.5665  162.1086 C   0  0  0  0  0  0  0  0  0  0  0  0
  147.0290  134.0845  161.9243 C   0  0  0  0  0  0  0  0  0  0  0  0
  148.3246  133.8426  156.2613 H   0  0  0  0  0  0  0  0  0  0  0  0
  149.8566  134.3746  154.5456 H   0  0  0  0  0  0  0  0  0  0  0  0
  150.8482  132.9913  154.9726 H   0  0  0  0  0  0  0  0  0  0  0  0
  149.8647  132.2111  153.0131 H   0  0  0  0  0  0  0  0  0  0  0  0
  147.2532  133.6030  153.8449 H   0  0  0  0  0  0  0  0  0  0  0  0
  148.3370  134.1127  152.5562 H   0  0  0  0  0  0  0  0  0  0  0  0
  145.5453  133.5054  151.9943 H   0  0  0  0  0  0  0  0  0  0  0  0
  146.4924  133.3908  150.5066 H   0  0  0  0  0  0  0  0  0  0  0  0
  144.2954  131.7055  151.3020 H   0  0  0  0  0  0  0  0  0  0  0  0
  145.3539  131.3951  149.9320 H   0  0  0  0  0  0  0  0  0  0  0  0
  145.2594  129.7204  152.1902 H   0  0  0  0  0  0  0  0  0  0  0  0
  146.6475  129.8545  151.1085 H   0  0  0  0  0  0  0  0  0  0  0  0
  146.1296  131.4292  153.6502 H   0  0  0  0  0  0  0  0  0  0  0  0
  147.6699  129.4954  153.9962 H   0  0  0  0  0  0  0  0  0  0  0  0
  148.7094  130.0607  152.6951 H   0  0  0  0  0  0  0  0  0  0  0  0
  147.8418  133.1374  158.0452 H   0  0  0  0  0  0  0  0  0  0  0  0
  149.5115  129.9507  158.5072 H   0  0  0  0  0  0  0  0  0  0  0  0
  149.5815  128.7168  160.6478 H   0  0  0  0  0  0  0  0  0  0  0  0
  148.7690  129.8998  162.7681 H   0  0  0  0  0  0  0  0  0  0  0  0
  149.4544  134.7569  160.4109 H   0  0  0  0  0  0  0  0  0  0  0  0
  148.3561  134.7822  159.0235 H   0  0  0  0  0  0  0  0  0  0  0  0
  148.3943  136.9039  160.6975 H   0  0  0  0  0  0  0  0  0  0  0  0
  146.8396  136.2747  160.1414 H   0  0  0  0  0  0  0  0  0  0  0  0
  148.2380  135.6640  162.7651 H   0  0  0  0  0  0  0  0  0  0  0  0
  146.5540  136.1400  162.5447 H   0  0  0  0  0  0  0  0  0  0  0  0
  145.9511  133.9646  161.8125 H   0  0  0  0  0  0  0  0  0  0  0  0
  147.3504  133.4928  162.7823 H   0  0  0  0  0  0  0  0  0  0  0  0
  147.9797  132.0163  151.4937 H   0  0  0  0  0  0  0  0  0  0  0  0
  147.9820  132.0569  162.6034 H   0  0  0  0  0  0  0  0  0  0  0  0
  1  2  2  0  0  0  0
  2  3  1  0  0  0  0
  2 14  1  0  0  0  0
  3  4  1  0  0  0  0
  3 26  1  0  0  0  0
  4  5  1  0  0  0  0
  4 27  1  0  0  0  0
  4 28  1  0  0  0  0
  5 13  1  0  0  0  0
  5  6  1  0  0  0  0
  5 29  1  0  0  0  0
  6  7  1  0  0  0  0
  6 30  1  0  0  0  0
  6 31  1  0  0  0  0
  7 11  1  0  0  0  0
  7  8  1  0  0  0  0
  7 53  1  0  0  0  0
  8  9  1  0  0  0  0
  8 32  1  0  0  0  0
  8 33  1  0  0  0  0
  9 10  1  0  0  0  0
  9 34  1  0  0  0  0
  9 35  1  0  0  0  0
 10 11  1  0  0  0  0
 10 36  1  0  0  0  0
 10 37  1  0  0  0  0
 11 12  1  0  0  0  0
 11 38  1  0  0  0  0
 12 13  1  0  0  0  0
 12 39  1  0  0  0  0
 12 40  1  0  0  0  0
 14 15  1  0  0  0  0
 14 41  1  0  0  0  0
 15 20  1  0  0  0  0
 15 16  2  0  0  0  0
 16 17  1  0  0  0  0
 16 42  1  0  0  0  0
 17 18  2  0  0  0  0
 17 43  1  0  0  0  0
 18 19  1  0  0  0  0
 18 44  1  0  0  0  0
 19 20  2  0  0  0  0
 19 54  1  0  0  0  0
 20 21  1  0  0  0  0
 21 25  1  0  0  0  0
 21 22  1  0  0  0  0
 22 23  1  0  0  0  0
 22 45  1  0  0  0  0
 22 46  1  0  0  0  0
 23 24  1  0  0  0  0
 23 47  1  0  0  0  0
 23 48  1  0  0  0  0
 24 25  1  0  0  0  0
 24 49  1  0  0  0  0
 24 50  1  0  0  0  0
 25 51  1  0  0  0  0
 25 52  1  0  0  0  0
M  CHG  1   7   1
M  CHG  1  19   1
M  END
> <s_m_source_file>
AV-unprocessed.smi

> <i_m_source_file_index>
1830

> <i_lp_mmshare_version>
43012

> <i_f3d_flags>
0

> <s_epik_input>
W0NIMl0xW0NIMl1bQ0gyXVtDQEhdKE4xMilbQ0gyXU9bQ0BASF0oW0NIMl0yKVtDSDJdW05IXUMoPU8pW05IXWMzW2NIXVtjSF1bY0hdbmMzTjRbQ0gyXVtDSDJdW0NIMl1bQ0gyXTQ=

> <s_epik_cmdline>
J2VwaWtfcHl0aG9uJywgJy1waCcsICc3LjAnLCAnLXRuJywgJzgnLCAnLW1hJywgJzIwMCcsICctbWV0YWxfYmluZGluZycsICctaW1hZScsICc8aW5maWxlLm1hZT4nLCAnLW9tYWUnLCAnPG91dGZpbGUubWFlPic=

> <r_lp_tautomer_probability>
0.999994

> <r_epik_Ionization_Penalty>
1.29113

> <r_epik_Ionization_Penalty_Charging>
1.29111

> <r_epik_Ionization_Penalty_Neutral>
1.88144e-05

> <r_epik_State_Penalty>
1.32676

> <r_epik_Charging_Adjusted_Penalty>
2.61787

> <i_epik_Tot_Q>
2

> <i_epik_Tot_abs_Q>
2

> <r_epik_Metal_State_Penalty>
1.40425

> <b_epik_Metal_Only>
0

> <s_lp_Force_Field>
OPLS_2005

> <r_lp_Energy>
74.3766

> <b_lp_Chiralities_Consistent>
1

> <s_lp_Variant>
AV-unprocessed.smi:1830-13

> <Gold.Version>
5.8.1

> <Gold.Id.Protein>
6NUR|6NUR_protein|mol2

> <Gold.PLP.Fitness>
39.7202

> <Gold.PLP.PLP>
-37.8738

> <Gold.PLP.part.hbond>
-1.0000

> <Gold.PLP.part.metal>
0.0000

> <Gold.PLP.part.buried>
-5.7595

> <Gold.PLP.part.nonpolar>
-30.8872

> <Gold.PLP.part.repulsive>
0.1719

> <Gold.PLP.ligand.clash>
0.0000

> <Gold.PLP.ligand.torsion>
0.7951

> <Gold.PLP.Chemscore.Hbond>
1.0000

> <Gold.PLP.Chemscore.CHOScore>
0.0000

> <Gold.PLP.Chemscore.Metal>
0.0000

> <Gold.Chemscore.Hbonds>
donor molecule, donor type, donor heavy atom, donor atom, acceptor molecule, acceptor atom, score
      L1  H     7    53       P1 10747  1.00

> <Gold.PLP.Chemscore.Internal.Correction>
0.4365

> <Gold.Rescore>
     Score         DG    S(hbond)    S(metal)    S(lipo)     H(rot)  DE(clash)    DE(int)     intcor
     13.49     -16.44       1.00        0.00      96.43       1.43       0.00       2.94       ----

> <Gold.Chemscore.Fitness>
13.4893

> <Gold.Chemscore.DG>
-16.4353

> <Gold.Chemscore.ZeroCoef>
-5.4800

> <Gold.Chemscore.Hbond>
0.9966

> <Gold.Chemscore.Metal>
0.0000

> <Gold.Chemscore.Lipo>
96.4255

> <Gold.Chemscore.Internal_Hbond>
0.0000

> <Gold.Chemscore.DEClash>
0.0044

> <Gold.Chemscore.DEInternal>
2.9416

> <Gold.Chemscore.Rot>
1.4278

> <Gold.Chemscore.Internal.Correction>
   9.000000E+99

> <Gold.Chemscore.Hbonds>
donor molecule, donor type, donor heavy atom, donor atom, acceptor molecule, acceptor atom, score
      L1  H     7    53       P1 10747  0.99

> <Gold.Chemscore.Hbond.Weighted>
-3.3286

> <Gold.Chemscore.Metal.Weighted>
-0.0000

> <Gold.Chemscore.Lipo.Weighted>
-11.2818

> <Gold.Chemscore.Internal_Hbond.Weighted>
0.0000

> <Gold.Chemscore.DEClash.Weighted>
0.0044

> <Gold.Chemscore.DEInternal.Weighted>
2.9416

> <Gold.Chemscore.Rot.Weighted>
3.6551

> <Gold.Chemscore.Internal.Correction.Weighted>
   9.000000E+99

> <Gold.Protein.RotatedTorsions>
[ 6907 6896 6895 6894 ] final  -84.40 input  -60.11 | X-H torsion
[ 7974 7965 7964 7962 ] final   -9.37 input  175.53 | X-H torsion
[ 8008 7997 7996 7995 ] final   98.39 input   59.86 | X-H torsion
[ 10167 10162 10161 10158 ] final -102.07 input  -65.29 | X-H torsion
[ 10718 10713 10712 10709 ] final  102.61 input   66.30 | X-H torsion
[ 10763 10752 10751 10750 ] final    6.49 input  -60.55 | X-H torsion
[ 11005 11000 10999 10996 ] final   12.87 input  -57.11 | X-H torsion

> <Gold.Protein.ActiveResidues>
 VAL166  LYS551  ARG553  GLY616  TRP617  ASP618  TYR619  PRO620  LYS621  CYS622 
 ASP623  PHE694  ASN695  SER759  ASP760  ASP761  ALA762  ILE779  LEU786  VAL792 
 PHE793  MET794  SER795  GLU796  ALA797  LYS798  CYS799  TRP800  GLU811  SER814 

> <Gold.Protein.RotatedAtoms>
  150.6877  134.3364  159.4848 H   0  0  0  0  0  0  0  0  0  0  0  0  # atno 6907 bound_to 6896
  152.1222  134.9194  160.0572 H   0  0  0  0  0  0  0  0  0  0  0  0  # atno 6908 bound_to 6896
  152.0396  133.3937  159.4368 H   0  0  0  0  0  0  0  0  0  0  0  0  # atno 6909 bound_to 6896
  146.2253  140.2606  142.8351 H   0  0  0  0  0  0  0  0  0  0  0  0  # atno 7974 bound_to 7965
  156.0999  140.3244  155.7928 H   0  0  0  0  0  0  0  0  0  0  0  0  # atno 8008 bound_to 7997
  155.4854  140.0557  157.2978 H   0  0  0  0  0  0  0  0  0  0  0  0  # atno 8009 bound_to 7997
  154.4690  140.2003  156.0058 H   0  0  0  0  0  0  0  0  0  0  0  0  # atno 8010 bound_to 7997
  140.2346  143.3582  152.0856 H   0  0  0  0  0  0  0  0  0  0  0  0  # atno 10167 bound_to 10162
  157.6797  131.0757  150.5430 H   0  0  0  0  0  0  0  0  0  0  0  0  # atno 10718 bound_to 10713
  153.2472  135.6910  153.7719 H   0  0  0  0  0  0  0  0  0  0  0  0  # atno 10763 bound_to 10752
  153.6827  135.3326  155.3183 H   0  0  0  0  0  0  0  0  0  0  0  0  # atno 10764 bound_to 10752
  154.8379  135.4526  154.1415 H   0  0  0  0  0  0  0  0  0  0  0  0  # atno 10765 bound_to 10752
  140.4871  134.0877  155.7763 H   0  0  0  0  0  0  0  0  0  0  0  0  # atno 11005 bound_to 11000
  144.9342  140.8008  143.5670 LP  0  0  0  0  0  0  0  0  0  0  0  0  # atno 17320 bound_to 7965
  145.2552  139.2015  143.4921 LP  0  0  0  0  0  0  0  0  0  0  0  0  # atno 17321 bound_to 7965
  139.5098  144.6873  151.5852 LP  0  0  0  0  0  0  0  0  0  0  0  0  # atno 17342 bound_to 10162
  140.6160  143.9348  150.6489 LP  0  0  0  0  0  0  0  0  0  0  0  0  # atno 17343 bound_to 10162
  156.5737  130.4286  149.6008 LP  0  0  0  0  0  0  0  0  0  0  0  0  # atno 17370 bound_to 10713
  156.2719  130.7022  151.1822 LP  0  0  0  0  0  0  0  0  0  0  0  0  # atno 17371 bound_to 10713
  141.1502  133.8982  157.2116 LP  0  0  0  0  0  0  0  0  0  0  0  0  # atno 17394 bound_to 11000
  139.9791  135.0104  156.9705 LP  0  0  0  0  0  0  0  0  0  0  0  0  # atno 17395 bound_to 11000

$$$$
