#       Name:                AV-unprocessed.smi:1817
#       Creating user name   scv26
#       Creation time:       Fri Mar 27 09:03:42 2020


#       File generated by GOLD software.
#

@<TRIPOS>MOLECULE
AV-unprocessed.smi:1817
    48    49     1
SMALL
NO_CHARGES


@<TRIPOS>ATOM
      1 ****        -4.3835  -3.6688   0.4692 C.3            1 S1                 0.0000
      2 ****        -3.5313  -2.9362  -0.5770 C.3            1 S1                 0.0000
      3 ****        -3.7931  -1.4950  -0.5858 N.3            1 S1                 0.0000
      4 ****        -3.3408  -0.7715   0.6038 C.3            1 S1                 0.0000
      5 ****        -1.8025  -0.7004   0.7034 C.3            1 S1                 0.0000
      6 ****        -1.2018  -0.0672  -0.5052 N.4            1 S1                 1.0000
      7 ****         0.2936   0.0725  -0.4721 C.3            1 S1                 0.0000
      8 ****         0.7764   1.0370  -1.5820 C.3            1 S1                 0.0000
      9 ****         0.8328   0.5233   0.9155 C.3            1 S1                 0.0000
     10 ****         2.2892   0.6388   0.9604 N.am           1 S1                 0.0000
     11 ****         2.9815   1.7877   0.9703 C.2            1 S1                 0.0000
     12 ****         2.4539   2.8977   0.9079 O.2            1 S1                 0.0000
     13 ****         4.3018   1.5572   1.0509 N.am           1 S1                 0.0000
     14 ****         5.3538   2.5068   1.0726 C.2            1 S1                 0.0000
     15 ****         6.6078   2.0514   1.1734 N.2            1 S1                 0.0000
     16 ****         7.5376   3.0840   1.1816 N.2            1 S1                 0.0000
     17 ****         6.9473   4.2791   1.0850 C.2            1 S1                 0.0000
     18 ****         5.1961   4.2630   0.9743 S.3            1 S1                 0.0000
     19 ****        -1.6931  -0.7750  -1.7212 C.3            1 S1                 0.0000
     20 ****        -3.2343  -0.8300  -1.7617 C.3            1 S1                 0.0000
     21 ****        -4.2716  -4.7480   0.3625 H              1 S1                 0.0000
     22 ****        -5.4421  -3.4353   0.3526 H              1 S1                 0.0000
     23 ****        -4.0895  -3.4153   1.4873 H              1 S1                 0.0000
     24 ****        -2.4756  -3.1547  -0.4205 H              1 S1                 0.0000
     25 ****        -3.7872  -3.3370  -1.5587 H              1 S1                 0.0000
     26 ****        -3.7458   0.2408   0.5640 H              1 S1                 0.0000
     27 ****        -3.7578  -1.2209   1.5044 H              1 S1                 0.0000
     28 ****        -1.5836  -0.1077   1.5903 H              1 S1                 0.0000
     29 ****        -1.3705  -1.6886   0.8658 H              1 S1                 0.0000
     30 ****         0.7171  -0.9130  -0.6736 H              1 S1                 0.0000
     31 ****         1.8614   1.1328  -1.5933 H              1 S1                 0.0000
     32 ****         0.3604   2.0354  -1.4437 H              1 S1                 0.0000
     33 ****         0.5134   0.7011  -2.5828 H              1 S1                 0.0000
     34 ****         0.3559   1.4553   1.2241 H              1 S1                 0.0000
     35 ****         0.5943  -0.2146   1.6804 H              1 S1                 0.0000
     36 ****         2.8100  -0.2247   1.0127 H              1 S1                 0.0000
     37 ****         4.5911   0.5915   1.1026 H              1 S1                 0.0000
     38 ****         7.5482   5.1764   1.0788 H              1 S1                 0.0000
     39 ****        -1.3720  -0.2620  -2.6247 H              1 S1                 0.0000
     40 ****        -1.2651  -1.7770  -1.7693 H              1 S1                 0.0000
     41 ****        -3.5706  -1.3410  -2.6646 H              1 S1                 0.0000
     42 ****        -3.6358   0.1828  -1.8169 H              1 S1                 0.0000
     43 ****        -1.5767   0.8700  -0.5412 H              1 S1                 0.0000
     44 ****        -4.7922  -1.4551  -0.6022 LP             1 S1                 0.0000
     45 ****         1.4589   2.9756   0.8459 LP             1 S1                 0.0000
     46 ****         3.0202   3.7218   0.9192 LP             1 S1                 0.0000
     47 ****         6.8476   1.0825   1.2355 LP             1 S1                 0.0000
     48 ****         8.5261   2.9495   1.2512 LP             1 S1                 0.0000
@<TRIPOS>BOND
    1    1    2 1     
    2    1   21 1     
    3    1   22 1     
    4    1   23 1     
    5    2    3 1     
    6    2   24 1     
    7    2   25 1     
    8    3   20 1     
    9    3    4 1     
   10    4    5 1     
   11    4   26 1     
   12    4   27 1     
   13    5    6 1     
   14    5   28 1     
   15    5   29 1     
   16    6    7 1     
   17    6   19 1     
   18    6   43 1     
   19    7    8 1     
   20    7    9 1     
   21    7   30 1     
   22    8   31 1     
   23    8   32 1     
   24    8   33 1     
   25    9   10 1     
   26    9   34 1     
   27    9   35 1     
   28   10   11 am    
   29   10   36 1     
   30   11   12 2     
   31   11   13 am    
   32   13   14 1     
   33   13   37 1     
   34   14   18 1     
   35   14   15 2     
   36   15   16 1     
   37   16   17 2     
   38   17   18 1     
   39   17   38 1     
   40   19   20 1     
   41   19   39 1     
   42   19   40 1     
   43   20   41 1     
   44   20   42 1     
   45    3   44 1     
   46   12   45 1     
   47   12   46 1     
   48   15   47 1     
   49   16   48 1     
@<TRIPOS>SUBSTRUCTURE
      1 S1             1
@<TRIPOS>SET
LONE_PAIRS      STATIC     ATOMS    <user>   **** ""
5 44 45 46 47 48
DONOR_HYDROGENS      STATIC     ATOMS    <user>   **** ""
3 43 36 37
ATOM$BLUE        STATIC     ATOMS    COLORGROUP SYSTEM
5 44 45 46 47 48
ATOM$RED        STATIC     ATOMS    COLORGROUP SYSTEM
3 43 36 37
