AV-unprocessed.smi:72|AV-procd|sdf|682|dock7
  -GOLD-   2262016593D 1   1.00000     0.00000
 Structure written by MMmdl.
 29 30  0  0  0  0  0  0  0  0  1 V2000
  150.7419  144.1666  159.1069 N   0  0  0  0  0  0  0  0  0  0  0  0
  150.7274  142.9599  158.6664 C   0  0  0  0  0  0  0  0  0  0  0  0
  151.2356  141.8419  159.3446 N   0  0  0  0  0  0  0  0  0  0  0  0
  151.1502  140.6793  158.7746 C   0  0  0  0  0  0  0  0  0  0  0  0
  150.5549  140.5016  157.4593 N   0  0  0  0  0  0  0  0  0  0  0  0
  150.4649  139.1300  156.8234 C   0  0  1  0  0  0  0  0  0  0  0  0
  149.1702  138.9431  156.3329 O   0  0  0  0  0  0  0  0  0  0  0  0
  149.2346  138.2870  155.0726 C   0  0  1  0  0  0  0  0  0  0  0  0
  147.9317  138.4893  154.2787 C   0  0  0  0  0  0  0  0  0  0  0  0
  148.2023  138.5274  152.8935 O   0  0  0  0  0  0  0  0  0  0  0  0
  150.5285  138.8218  154.4406 C   0  0  1  0  0  0  0  0  0  0  0  0
  150.3099  140.0676  153.8003 O   0  0  0  0  0  0  0  0  0  0  0  0
  151.4518  138.9346  155.6511 C   0  0  1  0  0  0  0  0  0  0  0  0
  152.4516  139.9304  155.5103 O   0  0  0  0  0  0  0  0  0  0  0  0
  150.0281  141.6193  156.7662 C   0  0  0  0  0  0  0  0  0  0  0  0
  149.4935  141.5247  155.6616 O   0  0  0  0  0  0  0  0  0  0  0  0
  150.1447  142.8051  157.4020 N   0  0  0  0  0  0  0  0  0  0  0  0
  150.6234  138.4045  157.6222 H   0  0  0  0  0  0  0  0  0  0  0  0
  149.3630  137.2224  155.2781 H   0  0  0  0  0  0  0  0  0  0  0  0
  150.9267  138.1293  153.6980 H   0  0  0  0  0  0  0  0  0  0  0  0
  151.9456  137.9748  155.8087 H   0  0  0  0  0  0  0  0  0  0  0  0
  151.1754  144.1972  160.0187 H   0  0  0  0  0  0  0  0  0  0  0  0
  151.5163  139.7648  159.2424 H   0  0  0  0  0  0  0  0  0  0  0  0
  147.2483  137.6620  154.4718 H   0  0  0  0  0  0  0  0  0  0  0  0
  147.4154  139.4013  154.5791 H   0  0  0  0  0  0  0  0  0  0  0  0
  148.2088  137.6416  152.5643 H   0  0  0  0  0  0  0  0  0  0  0  0
  150.0096  139.9016  152.9197 H   0  0  0  0  0  0  0  0  0  0  0  0
  152.3323  140.3592  154.6768 H   0  0  0  0  0  0  0  0  0  0  0  0
  149.7803  143.6238  156.9373 H   0  0  0  0  0  0  0  0  0  0  0  0
  1  2  2  0  0  0  0
  1 22  1  0  0  0  0
  2 17  1  0  0  0  0
  2  3  1  0  0  0  0
  3  4  2  0  0  0  0
  4  5  1  0  0  0  0
  4 23  1  0  0  0  0
  5  6  1  0  0  0  0
  5 15  1  0  0  0  0
  6 18  1  0  0  0  0
  6 13  1  0  0  0  0
  6  7  1  0  0  0  0
  7  8  1  0  0  0  0
  8 19  1  0  0  0  0
  8  9  1  0  0  0  0
  8 11  1  0  0  0  0
  9 10  1  0  0  0  0
  9 24  1  0  0  0  0
  9 25  1  0  0  0  0
 10 26  1  0  0  0  0
 11 20  1  0  0  0  0
 11 12  1  0  0  0  0
 11 13  1  0  0  0  0
 12 27  1  0  0  0  0
 13 21  1  0  0  0  0
 13 14  1  0  0  0  0
 14 28  1  0  0  0  0
 15 16  2  0  0  0  0
 15 17  1  0  0  0  0
 17 29  1  0  0  0  0
M  END
> <s_m_source_file>
AV-unprocessed.smi

> <i_m_source_file_index>
72

> <i_lp_mmshare_version>
43012

> <i_f3d_flags>
0

> <s_epik_input>
W05IMl1jMW5bY0hdbihjKD1PKW4xKVtDQEBIXTJPW0NASF0oW0NIMl1bT0hdKVtDQEBIXShbT0hdKVtDQEhdMltPSF0=

> <s_epik_cmdline>
J2VwaWtfcHl0aG9uJywgJy1waCcsICc3LjAnLCAnLXRuJywgJzgnLCAnLW1hJywgJzIwMCcsICctbWV0YWxfYmluZGluZycsICctaW1hZScsICc8aW5maWxlLm1hZT4nLCAnLW9tYWUnLCAnPG91dGZpbGUubWFlPic=

> <r_lp_tautomer_probability>
7.17554e-07

> <r_epik_Ionization_Penalty>
0.0066451

> <r_epik_Ionization_Penalty_Charging>
0.00663793

> <r_epik_Ionization_Penalty_Neutral>
7.17052e-06

> <r_epik_State_Penalty>
0.419231

> <r_epik_Charging_Adjusted_Penalty>
0.425868

> <i_epik_Tot_Q>
0

> <i_epik_Tot_abs_Q>
0

> <r_epik_Metal_State_Penalty>
1.44144

> <b_epik_Metal_Only>
0

> <s_epik_Chemistry_Notes>
This compound contains an acetal/aminal-like group ( X-CH(R)-Y where X, Y are N, S, or O) that may be acid/base labile, releasing an aldehyde.

> <s_lp_Force_Field>
OPLS_2005

> <r_lp_Energy>
48.5612

> <b_lp_Chiralities_Consistent>
1

> <s_lp_Variant>
AV-unprocessed.smi:72-20

> <Gold.Version>
5.8.1

> <Gold.Id.Protein>
6NUR|6NUR_protein|mol2

> <Gold.PLP.Fitness>
36.5535

> <Gold.PLP.PLP>
-23.2779

> <Gold.PLP.part.hbond>
-6.6639

> <Gold.PLP.part.metal>
0.0000

> <Gold.PLP.part.buried>
-4.5012

> <Gold.PLP.part.nonpolar>
-12.2428

> <Gold.PLP.part.repulsive>
0.1203

> <Gold.PLP.ligand.clash>
0.0000

> <Gold.PLP.ligand.torsion>
0.7069

> <Gold.PLP.Chemscore.Hbond>
4.8960

> <Gold.PLP.Chemscore.CHOScore>
0.0000

> <Gold.PLP.Chemscore.Metal>
0.0000

> <Gold.Chemscore.Hbonds>
donor molecule, donor type, donor heavy atom, donor atom, acceptor molecule, acceptor atom, score
      L1  H    10    26       P1  7948  1.00
      L1  H    12    27       P1  7957  1.00
      L1  H    17    29       P1  8028  1.00
      P1  H  7989  7998       L1    12  0.85
      P1  H  7997  8009       L1    14  1.00

> <Gold.PLP.Chemscore.Internal.Correction>
0.0015

> <Gold.Rescore>
     Score         DG    S(hbond)    S(metal)    S(lipo)     H(rot)  DE(clash)    DE(int)     intcor
      8.02     -12.03       4.31        0.00      21.82       4.06       0.07       3.94       ----

> <Gold.Chemscore.Fitness>
8.0242

> <Gold.Chemscore.DG>
-12.0325

> <Gold.Chemscore.ZeroCoef>
-5.4800

> <Gold.Chemscore.Hbond>
4.3092

> <Gold.Chemscore.Metal>
0.0000

> <Gold.Chemscore.Lipo>
21.8245

> <Gold.Chemscore.Internal_Hbond>
0.0000

> <Gold.Chemscore.DEClash>
0.0664

> <Gold.Chemscore.DEInternal>
3.9420

> <Gold.Chemscore.Rot>
4.0600

> <Gold.Chemscore.Internal.Correction>
   9.000000E+99

> <Gold.Chemscore.Hbonds>
donor molecule, donor type, donor heavy atom, donor atom, acceptor molecule, acceptor atom, score
      L1  H    10    26       P1  7948  0.97
      L1  H    12    27       P1  7957  1.00
      L1  H    17    29       P1  8028  0.98
      P1  H  7989  7998       L1    12  0.16
      P1  H  7997  8009       L1    14  0.62

> <Gold.Chemscore.Hbond.Weighted>
-14.3927

> <Gold.Chemscore.Metal.Weighted>
-0.0000

> <Gold.Chemscore.Lipo.Weighted>
-2.5535

> <Gold.Chemscore.Internal_Hbond.Weighted>
0.0000

> <Gold.Chemscore.DEClash.Weighted>
0.0664

> <Gold.Chemscore.DEInternal.Weighted>
3.9420

> <Gold.Chemscore.Rot.Weighted>
10.3936

> <Gold.Chemscore.Internal.Correction.Weighted>
   9.000000E+99

> <Gold.Protein.RotatedTorsions>
[ 6907 6896 6895 6894 ] final  -28.53 input  -60.11 | X-H torsion
[ 7974 7965 7964 7962 ] final -172.99 input  175.53 | X-H torsion
[ 8008 7997 7996 7995 ] final -146.55 input   59.86 | X-H torsion
[ 10167 10162 10161 10158 ] final  164.41 input  -65.29 | X-H torsion
[ 10718 10713 10712 10709 ] final  -97.44 input   66.30 | X-H torsion
[ 10763 10752 10751 10750 ] final  123.90 input  -60.55 | X-H torsion
[ 11005 11000 10999 10996 ] final    2.53 input  -57.11 | X-H torsion

> <Gold.Protein.ActiveResidues>
 VAL166  LYS551  ARG553  GLY616  TRP617  ASP618  TYR619  PRO620  LYS621  CYS622 
 ASP623  PHE694  ASN695  SER759  ASP760  ASP761  ALA762  ILE779  LEU786  VAL792 
 PHE793  MET794  SER795  GLU796  ALA797  LYS798  CYS799  TRP800  GLU811  SER814 

> <Gold.Protein.RotatedAtoms>
  151.1316  135.0133  159.8584 H   0  0  0  0  0  0  0  0  0  0  0  0  # atno 6907 bound_to 6896
  152.5451  134.1603  159.8565 H   0  0  0  0  0  0  0  0  0  0  0  0  # atno 6908 bound_to 6896
  151.1670  133.4763  159.2627 H   0  0  0  0  0  0  0  0  0  0  0  0  # atno 6909 bound_to 6896
  144.7141  140.1690  143.6369 H   0  0  0  0  0  0  0  0  0  0  0  0  # atno 7974 bound_to 7965
  155.5612  140.0625  157.2828 H   0  0  0  0  0  0  0  0  0  0  0  0  # atno 8008 bound_to 7997
  154.4389  140.1885  156.0830 H   0  0  0  0  0  0  0  0  0  0  0  0  # atno 8009 bound_to 7997
  156.0445  140.3291  155.7285 H   0  0  0  0  0  0  0  0  0  0  0  0  # atno 8010 bound_to 7997
  139.4888  144.4237  151.9155 H   0  0  0  0  0  0  0  0  0  0  0  0  # atno 10167 bound_to 10162
  156.0084  130.5194  150.6375 H   0  0  0  0  0  0  0  0  0  0  0  0  # atno 10718 bound_to 10713
  153.6529  135.3359  155.3105 H   0  0  0  0  0  0  0  0  0  0  0  0  # atno 10763 bound_to 10752
  154.8533  135.4345  154.1885 H   0  0  0  0  0  0  0  0  0  0  0  0  # atno 10764 bound_to 10752
  153.2832  135.7011  153.7439 H   0  0  0  0  0  0  0  0  0  0  0  0  # atno 10765 bound_to 10752
  140.6033  133.9816  155.8142 H   0  0  0  0  0  0  0  0  0  0  0  0  # atno 11005 bound_to 11000
  145.8961  139.2403  143.1521 LP  0  0  0  0  0  0  0  0  0  0  0  0  # atno 17320 bound_to 7965
  145.9856  140.8646  143.0092 LP  0  0  0  0  0  0  0  0  0  0  0  0  # atno 17321 bound_to 7965
  140.3683  144.2888  150.5923 LP  0  0  0  0  0  0  0  0  0  0  0  0  # atno 17342 bound_to 10162
  140.5342  143.2237  151.8190 LP  0  0  0  0  0  0  0  0  0  0  0  0  # atno 17343 bound_to 10162
  157.4162  131.0830  151.1175 LP  0  0  0  0  0  0  0  0  0  0  0  0  # atno 17370 bound_to 10713
  157.1791  130.6301  149.5666 LP  0  0  0  0  0  0  0  0  0  0  0  0  # atno 17371 bound_to 10713
  141.0858  133.9993  157.3316 LP  0  0  0  0  0  0  0  0  0  0  0  0  # atno 17394 bound_to 11000
  139.9223  135.0201  156.8109 LP  0  0  0  0  0  0  0  0  0  0  0  0  # atno 17395 bound_to 11000

$$$$
