AV-unprocessed.smi:51|AV-procd|sdf|502|dock3
  -GOLD-   2262016373D 1   1.00000     0.00000
 Structure written by MMmdl.
 25 26  0  0  0  0  0  0  0  0  2 V2000
  150.9809  139.6965  154.6148 O   0  0  0  0  0  0  0  0  0  0  0  0
  151.7858  139.6473  155.5700 C   0  0  0  0  0  0  0  0  0  0  0  0
  153.0243  139.4985  155.4673 O   0  5  0  0  0  0  0  0  0  0  0  0
  151.1968  139.7948  156.9788 C   0  0  1  0  0  0  0  0  0  0  0  0
  150.5421  138.4993  157.4976 C   0  0  0  0  0  0  0  0  0  0  0  0
  151.5774  137.9281  158.4644 C   0  0  2  0  0  0  0  0  0  0  0  0
  150.9962  137.1136  159.4610 O   0  0  0  0  0  0  0  0  0  0  0  0
  152.2181  139.1885  159.0411 C   0  0  0  0  0  0  0  0  0  0  0  0
  152.2650  140.1215  157.9251 N   0  0  0  0  0  0  0  0  0  0  0  0
  152.4021  141.4717  158.2767 C   0  0  0  0  0  0  0  0  0  0  0  0
  153.3508  141.8458  159.2511 C   0  0  0  0  0  0  0  0  0  0  0  0
  153.4283  143.2187  159.5589 C   0  0  0  0  0  0  0  0  0  0  0  0
  152.6311  144.1289  158.9589 N   0  0  0  0  0  0  0  0  0  0  0  0
  151.7661  143.6639  158.0541 C   0  0  0  0  0  0  0  0  0  0  0  0
  151.6040  142.3917  157.6832 N   0  0  0  0  0  0  0  0  0  0  0  0
  150.4430  140.5828  156.9448 H   0  0  0  0  0  0  0  0  0  0  0  0
  149.6275  138.7561  158.0341 H   0  0  0  0  0  0  0  0  0  0  0  0
  150.2698  137.7930  156.7116 H   0  0  0  0  0  0  0  0  0  0  0  0
  152.3217  137.3533  157.9111 H   0  0  0  0  0  0  0  0  0  0  0  0
  150.1002  137.3868  159.5835 H   0  0  0  0  0  0  0  0  0  0  0  0
  151.6119  139.5951  159.8531 H   0  0  0  0  0  0  0  0  0  0  0  0
  153.2170  138.9903  159.4311 H   0  0  0  0  0  0  0  0  0  0  0  0
  153.9905  141.1195  159.7309 H   0  0  0  0  0  0  0  0  0  0  0  0
  154.1319  143.5874  160.2903 H   0  0  0  0  0  0  0  0  0  0  0  0
  151.1282  144.3920  157.5752 H   0  0  0  0  0  0  0  0  0  0  0  0
  1  2  2  0  0  0  0
  2  3  1  0  0  0  0
  2  4  1  0  0  0  0
  4  9  1  0  0  0  0
  4  5  1  0  0  0  0
  4 16  1  0  0  0  0
  5  6  1  0  0  0  0
  5 17  1  0  0  0  0
  5 18  1  0  0  0  0
  6  7  1  0  0  0  0
  6  8  1  0  0  0  0
  6 19  1  0  0  0  0
  7 20  1  0  0  0  0
  8  9  1  0  0  0  0
  8 21  1  0  0  0  0
  8 22  1  0  0  0  0
  9 10  1  0  0  0  0
 10 15  1  0  0  0  0
 10 11  2  0  0  0  0
 11 12  1  0  0  0  0
 11 23  1  0  0  0  0
 12 13  2  0  0  0  0
 12 24  1  0  0  0  0
 13 14  1  0  0  0  0
 14 15  2  0  0  0  0
 14 25  1  0  0  0  0
M  CHG  1   3  -1
M  END
> <s_m_source_file>
AV-unprocessed.smi

> <i_m_source_file_index>
51

> <i_lp_mmshare_version>
43012

> <i_f3d_flags>
0

> <s_epik_input>
Tz1DKFtPSF0pW0NAQEhdMVtDSDJdW0NAQEhdKFtPSF0pW0NIMl1OMWMyW2NIXVtjSF1uW2NIXW4y

> <s_epik_cmdline>
J2VwaWtfcHl0aG9uJywgJy1waCcsICc3LjAnLCAnLXRuJywgJzgnLCAnLW1hJywgJzIwMCcsICctbWV0YWxfYmluZGluZycsICctaW1hZScsICc8aW5maWxlLm1hZT4nLCAnLW9tYWUnLCAnPG91dGZpbGUubWFlPic=

> <r_lp_tautomer_probability>
1

> <r_epik_Ionization_Penalty>
0.225251

> <r_epik_Ionization_Penalty_Charging>
0.000248217

> <r_epik_Ionization_Penalty_Neutral>
0.225002

> <r_epik_State_Penalty>
0.21284

> <r_epik_Charging_Adjusted_Penalty>
0.213088

> <i_epik_Tot_Q>
-1

> <i_epik_Tot_abs_Q>
1

> <r_epik_Metal_State_Penalty>
0.154111

> <b_epik_Metal_Only>
0

> <s_lp_Force_Field>
OPLS_2005

> <r_lp_Energy>
17.6831

> <b_lp_Chiralities_Consistent>
1

> <s_lp_Variant>
AV-unprocessed.smi:51-4

> <Gold.Version>
5.8.1

> <Gold.Id.Protein>
6NUR|6NUR_protein|mol2

> <Gold.PLP.Fitness>
39.9164

> <Gold.PLP.PLP>
-26.1587

> <Gold.PLP.part.hbond>
-3.0000

> <Gold.PLP.part.metal>
0.0000

> <Gold.PLP.part.buried>
-5.4594

> <Gold.PLP.part.nonpolar>
-17.6099

> <Gold.PLP.part.repulsive>
0.1746

> <Gold.PLP.ligand.clash>
0.0000

> <Gold.PLP.ligand.torsion>
0.6621

> <Gold.PLP.Chemscore.Hbond>
3.9913

> <Gold.PLP.Chemscore.CHOScore>
1.0000

> <Gold.PLP.Chemscore.Metal>
0.0000

> <Gold.Chemscore.Hbonds>
donor molecule, donor type, donor heavy atom, donor atom, acceptor molecule, acceptor atom, score
      P1  H  6896  6909       L1     7  0.98
      P1  H  7989  7998       L1     1  1.00
      P1  H  7997  8010       L1     3  2.00

> <Gold.PLP.Chemscore.Internal.Correction>
0.1082

> <Gold.Rescore>
     Score         DG    S(hbond)    S(metal)    S(lipo)     H(rot)  DE(clash)    DE(int)     intcor
     13.46     -14.20       2.94        0.00      39.29       2.23       0.00       0.74       ----

> <Gold.Chemscore.Fitness>
13.4581

> <Gold.Chemscore.DG>
-14.2014

> <Gold.Chemscore.ZeroCoef>
-5.4800

> <Gold.Chemscore.Hbond>
2.9430

> <Gold.Chemscore.Metal>
0.0000

> <Gold.Chemscore.Lipo>
39.2880

> <Gold.Chemscore.Internal_Hbond>
0.0000

> <Gold.Chemscore.DEClash>
0.0000

> <Gold.Chemscore.DEInternal>
0.7433

> <Gold.Chemscore.Rot>
2.2285

> <Gold.Chemscore.Internal.Correction>
   9.000000E+99

> <Gold.Chemscore.Hbonds>
donor molecule, donor type, donor heavy atom, donor atom, acceptor molecule, acceptor atom, score
      P1  H  6896  6909       L1     7  0.78
      P1  H  7989  7998       L1     1  0.55
      P1  H  7997  8010       L1     3  1.00

> <Gold.Chemscore.Hbond.Weighted>
-9.8297

> <Gold.Chemscore.Metal.Weighted>
-0.0000

> <Gold.Chemscore.Lipo.Weighted>
-4.5967

> <Gold.Chemscore.Internal_Hbond.Weighted>
0.0000

> <Gold.Chemscore.DEClash.Weighted>
0.0000

> <Gold.Chemscore.DEInternal.Weighted>
0.7433

> <Gold.Chemscore.Rot.Weighted>
5.7050

> <Gold.Chemscore.Internal.Correction.Weighted>
   9.000000E+99

> <Gold.Protein.RotatedTorsions>
[ 6907 6896 6895 6894 ] final  102.46 input  -60.11 | X-H torsion
[ 7974 7965 7964 7962 ] final  132.24 input  175.53 | X-H torsion
[ 8008 7997 7996 7995 ] final  102.97 input   59.86 | X-H torsion
[ 10167 10162 10161 10158 ] final   57.39 input  -65.29 | X-H torsion
[ 10718 10713 10712 10709 ] final  -23.72 input   66.30 | X-H torsion
[ 10763 10752 10751 10750 ] final   -2.43 input  -60.55 | X-H torsion
[ 11005 11000 10999 10996 ] final  158.95 input  -57.11 | X-H torsion

> <Gold.Protein.ActiveResidues>
 VAL166  LYS551  ARG553  GLY616  TRP617  ASP618  TYR619  PRO620  LYS621  CYS622 
 ASP623  PHE694  ASN695  SER759  ASP760  ASP761  ALA762  ILE779  LEU786  VAL792 
 PHE793  MET794  SER795  GLU796  ALA797  LYS798  CYS799  TRP800  GLU811  SER814 

> <Gold.Protein.RotatedAtoms>
  152.5323  133.9971  159.7877 H   0  0  0  0  0  0  0  0  0  0  0  0  # atno 6907 bound_to 6896
  151.0197  133.5880  159.2680 H   0  0  0  0  0  0  0  0  0  0  0  0  # atno 6908 bound_to 6896
  151.2925  135.0752  159.9262 H   0  0  0  0  0  0  0  0  0  0  0  0  # atno 6909 bound_to 6896
  144.9989  139.4332  143.5302 H   0  0  0  0  0  0  0  0  0  0  0  0  # atno 7974 bound_to 7965
  156.1442  140.3172  155.8543 H   0  0  0  0  0  0  0  0  0  0  0  0  # atno 8008 bound_to 7997
  155.4097  140.0505  157.3049 H   0  0  0  0  0  0  0  0  0  0  0  0  # atno 8009 bound_to 7997
  154.5002  140.2126  155.9375 H   0  0  0  0  0  0  0  0  0  0  0  0  # atno 8010 bound_to 7997
  140.1985  144.4012  150.6539 H   0  0  0  0  0  0  0  0  0  0  0  0  # atno 10167 bound_to 10162
  156.4873  130.4558  149.6776 H   0  0  0  0  0  0  0  0  0  0  0  0  # atno 10718 bound_to 10713
  153.3580  135.6989  153.6735 H   0  0  0  0  0  0  0  0  0  0  0  0  # atno 10763 bound_to 10752
  153.5435  135.3568  155.2729 H   0  0  0  0  0  0  0  0  0  0  0  0  # atno 10764 bound_to 10752
  154.8664  135.4209  154.2830 H   0  0  0  0  0  0  0  0  0  0  0  0  # atno 10765 bound_to 10752
  140.1915  134.8404  157.2917 H   0  0  0  0  0  0  0  0  0  0  0  0  # atno 11005 bound_to 11000
  146.3448  139.9365  142.8746 LP  0  0  0  0  0  0  0  0  0  0  0  0  # atno 17320 bound_to 7965
  145.2181  140.9924  143.4061 LP  0  0  0  0  0  0  0  0  0  0  0  0  # atno 17321 bound_to 7965
  140.6407  143.2203  151.6297 LP  0  0  0  0  0  0  0  0  0  0  0  0  # atno 17342 bound_to 10162
  139.5227  144.3156  152.0955 LP  0  0  0  0  0  0  0  0  0  0  0  0  # atno 17343 bound_to 10162
  156.3462  130.7408  151.2360 LP  0  0  0  0  0  0  0  0  0  0  0  0  # atno 17370 bound_to 10713
  157.7477  131.0390  150.4529 LP  0  0  0  0  0  0  0  0  0  0  0  0  # atno 17371 bound_to 10713
  140.2154  134.4087  155.7591 LP  0  0  0  0  0  0  0  0  0  0  0  0  # atno 17394 bound_to 11000
  141.2226  133.7139  156.8406 LP  0  0  0  0  0  0  0  0  0  0  0  0  # atno 17395 bound_to 11000

$$$$
