AV-unprocessed.smi:99|AV-procd|sdf|893|dock1
  -GOLD-   2262017383D 1   1.00000     0.00000
 Structure written by MMmdl.
 52 55  0  0  0  0  0  0  0  0  2 V2000
  147.6343  131.9479  159.6531 O   0  0  0  0  0  0  0  0  0  0  0  0
  147.6623  133.1606  159.4330 C   0  0  0  0  0  0  0  0  0  0  0  0
  147.8293  133.6918  158.2057 O   0  0  0  0  0  0  0  0  0  0  0  0
  148.1884  132.8573  157.1169 C   0  0  0  0  0  0  0  0  0  0  0  0
  149.2441  133.5716  156.2552 C   0  0  2  0  0  0  0  0  0  0  0  0
  149.8721  134.5729  157.0568 O   0  0  0  0  0  0  0  0  0  0  0  0
  149.4016  135.8563  156.7422 C   0  0  1  0  0  0  0  0  0  0  0  0
  150.5461  136.6898  156.2071 N   0  0  0  0  0  0  0  0  0  0  0  0
  150.5193  137.1969  154.9183 C   0  0  0  0  0  0  0  0  0  0  0  0
  151.5287  137.9529  154.4398 C   0  0  0  0  0  0  0  0  0  0  0  0
  152.6733  138.2458  155.2970 C   0  0  0  0  0  0  0  0  0  0  0  0
  153.5943  138.9256  154.8486 O   0  0  0  0  0  0  0  0  0  0  0  0
  152.6679  137.7496  156.5676 N   0  5  0  0  0  0  0  0  0  0  0  0
  151.6446  136.9910  157.0576 C   0  0  0  0  0  0  0  0  0  0  0  0
  151.6205  136.5572  158.2095 O   0  0  0  0  0  0  0  0  0  0  0  0
  148.3118  135.7139  155.6715 C   0  0  2  0  0  0  0  0  0  0  0  0
  147.0271  135.7363  156.2648 O   0  0  0  0  0  0  0  0  0  0  0  0
  148.6719  134.3607  155.0761 C   0  0  2  0  0  0  0  0  0  0  0  0
  147.5997  133.7226  154.3914 O   0  0  0  0  0  0  0  0  0  0  0  0
  147.7952  132.5720  153.7132 C   0  0  0  0  0  0  0  0  0  0  0  0
  148.6546  131.7396  154.0092 O   0  0  0  0  0  0  0  0  0  0  0  0
  146.8579  132.4147  152.5642 C   0  0  0  0  0  0  0  0  0  0  0  0
  146.1910  131.1816  152.3766 C   0  0  0  0  0  0  0  0  0  0  0  0
  145.2980  131.0053  151.3019 C   0  0  0  0  0  0  0  0  0  0  0  0
  145.0613  132.0605  150.4016 C   0  0  0  0  0  0  0  0  0  0  0  0
  145.7196  133.2916  150.5765 C   0  0  0  0  0  0  0  0  0  0  0  0
  146.6130  133.4696  151.6504 C   0  0  0  0  0  0  0  0  0  0  0  0
  147.5112  134.1931  160.4990 C   0  0  0  0  0  0  0  0  0  0  0  0
  147.7217  135.5550  160.1794 C   0  0  0  0  0  0  0  0  0  0  0  0
  147.5887  136.5525  161.1649 C   0  0  0  0  0  0  0  0  0  0  0  0
  147.2414  136.2006  162.4820 C   0  0  0  0  0  0  0  0  0  0  0  0
  147.0280  134.8497  162.8126 C   0  0  0  0  0  0  0  0  0  0  0  0
  147.1621  133.8504  161.8287 C   0  0  0  0  0  0  0  0  0  0  0  0
  148.5934  131.9269  157.5169 H   0  0  0  0  0  0  0  0  0  0  0  0
  147.3084  132.6053  156.5242 H   0  0  0  0  0  0  0  0  0  0  0  0
  149.9795  132.8489  155.9003 H   0  0  0  0  0  0  0  0  0  0  0  0
  149.0735  136.3524  157.6573 H   0  0  0  0  0  0  0  0  0  0  0  0
  149.6769  136.9967  154.2737 H   0  0  0  0  0  0  0  0  0  0  0  0
  151.4900  138.3421  153.4332 H   0  0  0  0  0  0  0  0  0  0  0  0
  148.3678  136.5164  154.9348 H   0  0  0  0  0  0  0  0  0  0  0  0
  146.3794  135.6622  155.5812 H   0  0  0  0  0  0  0  0  0  0  0  0
  149.4966  134.5120  154.3774 H   0  0  0  0  0  0  0  0  0  0  0  0
  146.3569  130.3574  153.0555 H   0  0  0  0  0  0  0  0  0  0  0  0
  144.7942  130.0592  151.1692 H   0  0  0  0  0  0  0  0  0  0  0  0
  144.3761  131.9261  149.5776 H   0  0  0  0  0  0  0  0  0  0  0  0
  145.5396  134.1022  149.8859 H   0  0  0  0  0  0  0  0  0  0  0  0
  147.1019  134.4272  151.7550 H   0  0  0  0  0  0  0  0  0  0  0  0
  147.9893  135.8498  159.1748 H   0  0  0  0  0  0  0  0  0  0  0  0
  147.7537  137.5889  160.9095 H   0  0  0  0  0  0  0  0  0  0  0  0
  147.1388  136.9657  163.2375 H   0  0  0  0  0  0  0  0  0  0  0  0
  146.7607  134.5784  163.8233 H   0  0  0  0  0  0  0  0  0  0  0  0
  146.9910  132.8233  162.1162 H   0  0  0  0  0  0  0  0  0  0  0  0
  1  2  2  0  0  0  0
  2  3  1  0  0  0  0
  2 28  1  0  0  0  0
  3  4  1  0  0  0  0
  4  5  1  0  0  0  0
  4 34  1  0  0  0  0
  4 35  1  0  0  0  0
  5 18  1  0  0  0  0
  5  6  1  0  0  0  0
  5 36  1  0  0  0  0
  6  7  1  0  0  0  0
  7  8  1  0  0  0  0
  7 16  1  0  0  0  0
  7 37  1  0  0  0  0
  8 14  1  0  0  0  0
  8  9  1  0  0  0  0
  9 10  2  0  0  0  0
  9 38  1  0  0  0  0
 10 11  1  0  0  0  0
 10 39  1  0  0  0  0
 11 12  2  0  0  0  0
 11 13  1  0  0  0  0
 13 14  1  0  0  0  0
 14 15  2  0  0  0  0
 16 17  1  0  0  0  0
 16 18  1  0  0  0  0
 16 40  1  0  0  0  0
 17 41  1  0  0  0  0
 18 19  1  0  0  0  0
 18 42  1  0  0  0  0
 19 20  1  0  0  0  0
 20 21  2  0  0  0  0
 20 22  1  0  0  0  0
 22 27  1  0  0  0  0
 22 23  2  0  0  0  0
 23 24  1  0  0  0  0
 23 43  1  0  0  0  0
 24 25  2  0  0  0  0
 24 44  1  0  0  0  0
 25 26  1  0  0  0  0
 25 45  1  0  0  0  0
 26 27  2  0  0  0  0
 26 46  1  0  0  0  0
 27 47  1  0  0  0  0
 28 33  1  0  0  0  0
 28 29  2  0  0  0  0
 29 30  1  0  0  0  0
 29 48  1  0  0  0  0
 30 31  2  0  0  0  0
 30 49  1  0  0  0  0
 31 32  1  0  0  0  0
 31 50  1  0  0  0  0
 32 33  2  0  0  0  0
 32 51  1  0  0  0  0
 33 52  1  0  0  0  0
M  CHG  1  13  -1
M  END
> <s_m_source_file>
AV-unprocessed.smi

> <i_m_source_file_index>
99

> <i_lp_mmshare_version>
43012

> <i_f3d_flags>
0

> <s_epik_input>
W2NIXTFbY0hdW2NIXVtjSF1bY0hdYzFDKD1PKU9bQ0gyXVtDQEBIXTJPW0NAQEhdKG4zW2NIXVtjSF1jKD1PKVtuSF1jMz1PKVtDQEBIXShbT0hdKVtDQEhdMk9DKD1PKWM0W2NIXVtjSF1bY0hdW2NIXVtjSF00

> <s_epik_cmdline>
J2VwaWtfcHl0aG9uJywgJy1waCcsICc3LjAnLCAnLXRuJywgJzgnLCAnLW1hJywgJzIwMCcsICctbWV0YWxfYmluZGluZycsICctaW1hZScsICc8aW5maWxlLm1hZT4nLCAnLW9tYWUnLCAnPG91dGZpbGUubWFlPic=

> <r_lp_tautomer_probability>
1

> <r_epik_Ionization_Penalty>
2.89159

> <r_epik_Ionization_Penalty_Charging>
2.1077e-08

> <r_epik_Ionization_Penalty_Neutral>
2.89159

> <r_epik_State_Penalty>
2.88671

> <r_epik_Charging_Adjusted_Penalty>
2.88671

> <i_epik_Tot_Q>
-1

> <i_epik_Tot_abs_Q>
1

> <r_epik_Metal_State_Penalty>
0.0727308

> <b_epik_Metal_Only>
1

> <s_epik_Chemistry_Notes>
This compound has an ester and may undergo hydrolysis at high or low pH. This compound contains an acetal/aminal-like group ( X-CH(R)-Y where X, Y are N, S, or O) that may be acid/base labile, releasing an aldehyde.

> <s_lp_Force_Field>
OPLS_2005

> <r_lp_Energy>
46.9153

> <b_lp_Chiralities_Consistent>
1

> <s_lp_Variant>
AV-unprocessed.smi:99-29

> <Gold.Version>
5.8.1

> <Gold.Id.Protein>
6NUR|6NUR_protein|mol2

> <Gold.PLP.Fitness>
55.8147

> <Gold.PLP.PLP>
-53.0287

> <Gold.PLP.part.hbond>
-2.1700

> <Gold.PLP.part.metal>
0.0000

> <Gold.PLP.part.buried>
-8.4938

> <Gold.PLP.part.nonpolar>
-43.7420

> <Gold.PLP.part.repulsive>
0.1291

> <Gold.PLP.ligand.clash>
0.0000

> <Gold.PLP.ligand.torsion>
2.0962

> <Gold.PLP.Chemscore.Hbond>
1.1183

> <Gold.PLP.Chemscore.CHOScore>
0.9886

> <Gold.PLP.Chemscore.Metal>
0.0000

> <Gold.Chemscore.Hbonds>
donor molecule, donor type, donor heavy atom, donor atom, acceptor molecule, acceptor atom, score
      P1  H  6896  6909       L1    15  0.30
      P1  H  7997  8010       L1    12  1.00
      L1  C     9    38       P1  7948  0.82

> <Gold.PLP.Chemscore.Internal.Correction>
0.6578

> <Gold.Rescore>
     Score         DG    S(hbond)    S(metal)    S(lipo)     H(rot)  DE(clash)    DE(int)     intcor
     12.29     -17.84       1.89        0.00     120.18       3.13       0.03       5.52       ----

> <Gold.Chemscore.Fitness>
12.2870

> <Gold.Chemscore.DG>
-17.8368

> <Gold.Chemscore.ZeroCoef>
-5.4800

> <Gold.Chemscore.Hbond>
1.8924

> <Gold.Chemscore.Metal>
0.0000

> <Gold.Chemscore.Lipo>
120.1781

> <Gold.Chemscore.Internal_Hbond>
0.0000

> <Gold.Chemscore.DEClash>
0.0318

> <Gold.Chemscore.DEInternal>
5.5180

> <Gold.Chemscore.Rot>
3.1346

> <Gold.Chemscore.Internal.Correction>
   9.000000E+99

> <Gold.Chemscore.Hbonds>
donor molecule, donor type, donor heavy atom, donor atom, acceptor molecule, acceptor atom, score
      P1  H  6896  6909       L1    15  0.29
      P1  H  7997  8010       L1    12  0.95

> <Gold.Chemscore.Hbond.Weighted>
-6.3205

> <Gold.Chemscore.Metal.Weighted>
-0.0000

> <Gold.Chemscore.Lipo.Weighted>
-14.0608

> <Gold.Chemscore.Internal_Hbond.Weighted>
0.0000

> <Gold.Chemscore.DEClash.Weighted>
0.0318

> <Gold.Chemscore.DEInternal.Weighted>
5.5180

> <Gold.Chemscore.Rot.Weighted>
8.0246

> <Gold.Chemscore.Internal.Correction.Weighted>
   9.000000E+99

> <Gold.Protein.RotatedTorsions>
[ 6907 6896 6895 6894 ] final  105.85 input  -60.11 | X-H torsion
[ 7974 7965 7964 7962 ] final -117.29 input  175.53 | X-H torsion
[ 8008 7997 7996 7995 ] final  119.24 input   59.86 | X-H torsion
[ 10167 10162 10161 10158 ] final -146.43 input  -65.29 | X-H torsion
[ 10718 10713 10712 10709 ] final  159.55 input   66.30 | X-H torsion
[ 10763 10752 10751 10750 ] final  126.49 input  -60.55 | X-H torsion
[ 11005 11000 10999 10996 ] final   75.40 input  -57.11 | X-H torsion

> <Gold.Protein.ActiveResidues>
 VAL166  LYS551  ARG553  GLY616  TRP617  ASP618  TYR619  PRO620  LYS621  CYS622 
 ASP623  PHE694  ASN695  SER759  ASP760  ASP761  ALA762  ILE779  LEU786  VAL792 
 PHE793  MET794  SER795  GLU796  ALA797  LYS798  CYS799  TRP800  GLU811  SER814 

> <Gold.Protein.RotatedAtoms>
  152.5215  133.9467  159.7652 H   0  0  0  0  0  0  0  0  0  0  0  0  # atno 6907 bound_to 6896
  150.9786  133.6261  159.2733 H   0  0  0  0  0  0  0  0  0  0  0  0  # atno 6908 bound_to 6896
  151.3446  135.0877  159.9435 H   0  0  0  0  0  0  0  0  0  0  0  0  # atno 6909 bound_to 6896
  145.0869  140.8464  143.4005 H   0  0  0  0  0  0  0  0  0  0  0  0  # atno 7974 bound_to 7965
  156.2586  140.2857  156.0960 H   0  0  0  0  0  0  0  0  0  0  0  0  # atno 8008 bound_to 7997
  155.1411  140.0395  157.2816 H   0  0  0  0  0  0  0  0  0  0  0  0  # atno 8009 bound_to 7997
  154.6529  140.2549  155.7200 H   0  0  0  0  0  0  0  0  0  0  0  0  # atno 8010 bound_to 7997
  139.7714  143.8232  152.2625 H   0  0  0  0  0  0  0  0  0  0  0  0  # atno 10167 bound_to 10162
  157.1626  131.0591  151.2224 H   0  0  0  0  0  0  0  0  0  0  0  0  # atno 10718 bound_to 10713
  153.6941  135.3294  155.3209 H   0  0  0  0  0  0  0  0  0  0  0  0  # atno 10763 bound_to 10752
  154.8431  135.4438  154.1478 H   0  0  0  0  0  0  0  0  0  0  0  0  # atno 10764 bound_to 10752
  153.2528  135.6983  153.7739 H   0  0  0  0  0  0  0  0  0  0  0  0  # atno 10765 bound_to 10752
  139.9345  134.7514  156.1266 H   0  0  0  0  0  0  0  0  0  0  0  0  # atno 11005 bound_to 11000
  145.1111  139.2756  143.5637 LP  0  0  0  0  0  0  0  0  0  0  0  0  # atno 17320 bound_to 7965
  146.3531  140.0708  142.8623 LP  0  0  0  0  0  0  0  0  0  0  0  0  # atno 17321 bound_to 7965
  139.8268  144.7271  150.9502 LP  0  0  0  0  0  0  0  0  0  0  0  0  # atno 17342 bound_to 10162
  140.7814  143.4107  151.0997 LP  0  0  0  0  0  0  0  0  0  0  0  0  # atno 17343 bound_to 10162
  157.4118  130.7389  149.6845 LP  0  0  0  0  0  0  0  0  0  0  0  0  # atno 17370 bound_to 10713
  155.9751  130.4093  150.3872 LP  0  0  0  0  0  0  0  0  0  0  0  0  # atno 17371 bound_to 10713
  141.0952  133.6698  156.2629 LP  0  0  0  0  0  0  0  0  0  0  0  0  # atno 17394 bound_to 11000
  140.6112  134.5457  157.5533 LP  0  0  0  0  0  0  0  0  0  0  0  0  # atno 17395 bound_to 11000

$$$$
