AV-unprocessed.smi:949|AV-procd|sdf|4248|dock3
  -GOLD-   22720 2153D 1   1.00000     0.00000
 Structure written by MMmdl.
 32 33  0  0  0  0  0  0  0  0  1 V2000
  151.7275  140.9492  156.3078 C   0  0  0  0  0  0  0  0  0  0  0  0
  150.4343  141.6029  156.8275 C   0  0  2  0  0  0  0  0  0  0  0  0
  149.5962  142.0336  155.7135 N   0  0  0  0  0  0  0  0  0  0  0  0
  148.9153  141.1353  154.8726 C   0  0  0  0  0  0  0  0  0  0  0  0
  149.3342  139.7971  154.6803 C   0  0  0  0  0  0  0  0  0  0  0  0
  148.5894  138.9665  153.8204 C   0  0  0  0  0  0  0  0  0  0  0  0
  147.4863  139.3764  153.1618 N   0  0  0  0  0  0  0  0  0  0  0  0
  147.0851  140.6511  153.3448 C   0  0  0  0  0  0  0  0  0  0  0  0
  147.7558  141.5674  154.1823 C   0  0  0  0  0  0  0  0  0  0  0  0
  147.2640  142.8689  154.3095 N   0  0  0  0  0  0  0  0  0  0  0  0
  150.7489  142.7981  157.7486 C   0  0  1  0  0  0  0  0  0  0  0  0
  151.7186  142.4779  158.8896 C   0  0  0  0  0  0  0  0  0  0  0  0
  152.3202  143.8339  159.1757 C   0  0  0  0  0  0  0  0  0  0  0  0
  152.4573  144.4067  157.7700 C   0  0  0  0  0  0  0  0  0  0  0  0
  151.3900  143.8409  157.0142 O   0  0  0  0  0  0  0  0  0  0  0  0
  152.3464  140.5906  157.1305 H   0  0  0  0  0  0  0  0  0  0  0  0
  152.3237  141.6563  155.7299 H   0  0  0  0  0  0  0  0  0  0  0  0
  151.5184  140.0935  155.6660 H   0  0  0  0  0  0  0  0  0  0  0  0
  149.8828  140.8742  157.4214 H   0  0  0  0  0  0  0  0  0  0  0  0
  149.4994  143.0246  155.5470 H   0  0  0  0  0  0  0  0  0  0  0  0
  150.2070  139.3926  155.1687 H   0  0  0  0  0  0  0  0  0  0  0  0
  148.8896  137.9421  153.6575 H   0  0  0  0  0  0  0  0  0  0  0  0
  146.1983  140.9486  152.8043 H   0  0  0  0  0  0  0  0  0  0  0  0
  147.7262  143.5433  154.9026 H   0  0  0  0  0  0  0  0  0  0  0  0
  146.3405  143.1116  153.9814 H   0  0  0  0  0  0  0  0  0  0  0  0
  149.8282  143.2079  158.1671 H   0  0  0  0  0  0  0  0  0  0  0  0
  151.2252  142.0388  159.7572 H   0  0  0  0  0  0  0  0  0  0  0  0
  152.4960  141.7895  158.5545 H   0  0  0  0  0  0  0  0  0  0  0  0
  151.6264  144.4363  159.7637 H   0  0  0  0  0  0  0  0  0  0  0  0
  153.2689  143.7811  159.7100 H   0  0  0  0  0  0  0  0  0  0  0  0
  152.4223  145.4964  157.7576 H   0  0  0  0  0  0  0  0  0  0  0  0
  153.4009  144.0923  157.3222 H   0  0  0  0  0  0  0  0  0  0  0  0
  1  2  1  0  0  0  0
  1 16  1  0  0  0  0
  1 17  1  0  0  0  0
  1 18  1  0  0  0  0
  2  3  1  0  0  0  0
  2 11  1  0  0  0  0
  2 19  1  0  0  0  0
  3  4  1  0  0  0  0
  3 20  1  0  0  0  0
  4  9  1  0  0  0  0
  4  5  2  0  0  0  0
  5  6  1  0  0  0  0
  5 21  1  0  0  0  0
  6  7  2  0  0  0  0
  6 22  1  0  0  0  0
  7  8  1  0  0  0  0
  8  9  2  0  0  0  0
  8 23  1  0  0  0  0
  9 10  1  0  0  0  0
 10 24  1  0  0  0  0
 10 25  1  0  0  0  0
 11 15  1  0  0  0  0
 11 12  1  0  0  0  0
 11 26  1  0  0  0  0
 12 13  1  0  0  0  0
 12 27  1  0  0  0  0
 12 28  1  0  0  0  0
 13 14  1  0  0  0  0
 13 29  1  0  0  0  0
 13 30  1  0  0  0  0
 14 15  1  0  0  0  0
 14 31  1  0  0  0  0
 14 32  1  0  0  0  0
M  END
> <s_m_source_file>
AV-unprocessed.smi

> <i_m_source_file_index>
949

> <i_lp_mmshare_version>
43012

> <i_f3d_flags>
0

> <s_epik_input>
TzFbQ0gyXVtDSDJdW0NIMl1bQ0BIXTFbQ0BIXShbQ0gzXSlbTkhdYzJbY0hdW2NIXW5bY0hdYzJbTkgyXQ==

> <s_epik_cmdline>
J2VwaWtfcHl0aG9uJywgJy1waCcsICc3LjAnLCAnLXRuJywgJzgnLCAnLW1hJywgJzIwMCcsICctbWV0YWxfYmluZGluZycsICctaW1hZScsICc8aW5maWxlLm1hZT4nLCAnLW9tYWUnLCAnPG91dGZpbGUubWFlPic=

> <r_epik_Ionization_Penalty>
3.88091

> <r_epik_Ionization_Penalty_Charging>
0

> <r_epik_Ionization_Penalty_Neutral>
3.88091

> <r_epik_State_Penalty>
3.88049

> <r_epik_Charging_Adjusted_Penalty>
3.88049

> <i_epik_Tot_Q>
0

> <i_epik_Tot_abs_Q>
0

> <r_epik_Metal_State_Penalty>
0.313783

> <b_epik_Metal_Only>
1

> <s_lp_Force_Field>
OPLS_2005

> <r_lp_Energy>
23.3824

> <b_lp_Chiralities_Consistent>
1

> <s_lp_Variant>
AV-unprocessed.smi:949-7

> <Gold.Version>
5.8.1

> <Gold.Id.Protein>
6NUR|6NUR_protein|mol2

> <Gold.PLP.Fitness>
41.3779

> <Gold.PLP.PLP>
-30.0078

> <Gold.PLP.part.hbond>
-2.0000

> <Gold.PLP.part.metal>
0.0000

> <Gold.PLP.part.buried>
-5.0365

> <Gold.PLP.part.nonpolar>
-25.6362

> <Gold.PLP.part.repulsive>
2.2101

> <Gold.PLP.ligand.clash>
0.0000

> <Gold.PLP.ligand.torsion>
0.2927

> <Gold.PLP.Chemscore.Hbond>
2.0000

> <Gold.PLP.Chemscore.CHOScore>
1.9810

> <Gold.PLP.Chemscore.Metal>
0.0000

> <Gold.Chemscore.Hbonds>
donor molecule, donor type, donor heavy atom, donor atom, acceptor molecule, acceptor atom, score
      L1  H     3    20       P1  8028  1.00
      L1  H    10    24       P1  8028  1.00
      L1  C     6    22       P1  7948  1.00
      L1  C     8    23       P1 10175  0.91

> <Gold.PLP.Chemscore.Internal.Correction>
0.0127

> <Gold.Rescore>
     Score         DG    S(hbond)    S(metal)    S(lipo)     H(rot)  DE(clash)    DE(int)     intcor
     18.03     -18.65       1.80        0.00      87.80       1.22       0.24       0.38       ----

> <Gold.Chemscore.Fitness>
18.0313

> <Gold.Chemscore.DG>
-18.6485

> <Gold.Chemscore.ZeroCoef>
-5.4800

> <Gold.Chemscore.Hbond>
1.7996

> <Gold.Chemscore.Metal>
0.0000

> <Gold.Chemscore.Lipo>
87.8041

> <Gold.Chemscore.Internal_Hbond>
0.0000

> <Gold.Chemscore.DEClash>
0.2389

> <Gold.Chemscore.DEInternal>
0.3784

> <Gold.Chemscore.Rot>
1.2169

> <Gold.Chemscore.Internal.Correction>
   9.000000E+99

> <Gold.Chemscore.Hbonds>
donor molecule, donor type, donor heavy atom, donor atom, acceptor molecule, acceptor atom, score
      L1  H     3    20       P1  8028  1.00
      L1  H    10    24       P1  8028  0.35

> <Gold.Chemscore.Hbond.Weighted>
-6.0106

> <Gold.Chemscore.Metal.Weighted>
-0.0000

> <Gold.Chemscore.Lipo.Weighted>
-10.2731

> <Gold.Chemscore.Internal_Hbond.Weighted>
0.0000

> <Gold.Chemscore.DEClash.Weighted>
0.2389

> <Gold.Chemscore.DEInternal.Weighted>
0.3784

> <Gold.Chemscore.Rot.Weighted>
3.1152

> <Gold.Chemscore.Internal.Correction.Weighted>
   9.000000E+99

> <Gold.Protein.RotatedTorsions>
[ 6907 6896 6895 6894 ] final  178.34 input  -60.11 | X-H torsion
[ 7974 7965 7964 7962 ] final   63.36 input  175.53 | X-H torsion
[ 8008 7997 7996 7995 ] final  -64.26 input   59.86 | X-H torsion
[ 10167 10162 10161 10158 ] final -143.78 input  -65.29 | X-H torsion
[ 10718 10713 10712 10709 ] final  -52.83 input   66.30 | X-H torsion
[ 10763 10752 10751 10750 ] final   69.43 input  -60.55 | X-H torsion
[ 11005 11000 10999 10996 ] final  -80.17 input  -57.11 | X-H torsion

> <Gold.Protein.ActiveResidues>
 VAL166  LYS551  ARG553  GLY616  TRP617  ASP618  TYR619  PRO620  LYS621  CYS622 
 ASP623  PHE694  ASN695  SER759  ASP760  ASP761  ALA762  ILE779  LEU786  VAL792 
 PHE793  MET794  SER795  GLU796  ALA797  LYS798  CYS799  TRP800  GLU811  SER814 

> <Gold.Protein.RotatedAtoms>
  151.6893  133.3311  159.3238 H   0  0  0  0  0  0  0  0  0  0  0  0  # atno 6907 bound_to 6896
  150.7786  134.6712  159.6402 H   0  0  0  0  0  0  0  0  0  0  0  0  # atno 6908 bound_to 6896
  152.3836  134.6555  160.0186 H   0  0  0  0  0  0  0  0  0  0  0  0  # atno 6909 bound_to 6896
  145.8628  139.3326  143.0809 H   0  0  0  0  0  0  0  0  0  0  0  0  # atno 7974 bound_to 7965
  154.4601  140.0957  156.6869 H   0  0  0  0  0  0  0  0  0  0  0  0  # atno 8008 bound_to 7997
  155.5020  140.3474  155.4354 H   0  0  0  0  0  0  0  0  0  0  0  0  # atno 8009 bound_to 7997
  156.0854  140.1383  156.9649 H   0  0  0  0  0  0  0  0  0  0  0  0  # atno 8010 bound_to 7997
  139.7961  143.7898  152.2654 H   0  0  0  0  0  0  0  0  0  0  0  0  # atno 10167 bound_to 10162
  156.1587  130.4150  149.9827 H   0  0  0  0  0  0  0  0  0  0  0  0  # atno 10718 bound_to 10713
  153.0287  135.5211  154.7287 H   0  0  0  0  0  0  0  0  0  0  0  0  # atno 10763 bound_to 10752
  154.6321  135.2901  155.0206 H   0  0  0  0  0  0  0  0  0  0  0  0  # atno 10764 bound_to 10752
  154.1154  135.6615  153.4945 H   0  0  0  0  0  0  0  0  0  0  0  0  # atno 10765 bound_to 10752
  141.1668  133.7138  156.8233 H   0  0  0  0  0  0  0  0  0  0  0  0  # atno 11005 bound_to 11000
  145.9228  140.9103  143.0396 LP  0  0  0  0  0  0  0  0  0  0  0  0  # atno 17320 bound_to 7965
  144.6726  140.1312  143.7443 LP  0  0  0  0  0  0  0  0  0  0  0  0  # atno 17321 bound_to 7965
  139.8004  144.7376  150.9832 LP  0  0  0  0  0  0  0  0  0  0  0  0  # atno 17342 bound_to 10162
  140.7820  143.4350  151.0636 LP  0  0  0  0  0  0  0  0  0  0  0  0  # atno 17343 bound_to 10162
  156.7663  130.9169  151.3643 LP  0  0  0  0  0  0  0  0  0  0  0  0  # atno 17370 bound_to 10713
  157.6716  130.9056  150.0052 LP  0  0  0  0  0  0  0  0  0  0  0  0  # atno 17371 bound_to 10713
  140.2103  134.8832  157.3267 LP  0  0  0  0  0  0  0  0  0  0  0  0  # atno 17394 bound_to 11000
  140.2093  134.4158  155.7621 LP  0  0  0  0  0  0  0  0  0  0  0  0  # atno 17395 bound_to 11000

$$$$
