AV-unprocessed.smi:1536|AV-procd|sdf|6189|dock2
  -GOLD-   22720 6353D 1   1.00000     0.00000
 Structure written by MMmdl.
 48 49  0  0  0  0  0  0  0  0  2 V2000
  144.0904  132.6948  151.2388 C   0  0  0  0  0  0  0  0  0  0  0  0
  145.0234  133.8637  150.8761 C   0  0  2  0  0  0  0  0  0  0  0  0
  146.3241  133.3979  150.1949 C   0  0  0  0  0  0  0  0  0  0  0  0
  147.2936  132.7331  151.1873 C   0  0  0  0  0  0  0  0  0  0  0  0
  147.5847  133.6430  152.3273 N   0  3  2  0  0  0  0  0  0  0  0  0
  148.7325  133.2482  153.2047 C   0  0  1  0  0  0  0  0  0  0  0  0
  148.8128  134.0442  154.5428 C   0  0  0  0  0  0  0  0  0  0  0  0
  149.3853  135.3821  154.4198 N   0  0  0  0  0  0  0  0  0  0  0  0
  149.9012  136.0954  155.4323 C   0  0  0  0  0  0  0  0  0  0  0  0
  149.9773  135.6655  156.5840 O   0  0  0  0  0  0  0  0  0  0  0  0
  150.4226  137.4903  155.0674 C   0  0  0  0  0  0  0  0  0  0  0  0
  151.7645  137.7357  155.5656 N   0  0  0  0  0  0  0  0  0  0  0  0
  152.2694  138.7560  156.2623 C   0  0  0  0  0  0  0  0  0  0  0  0
  153.5593  138.5882  156.5097 N   0  0  0  0  0  0  0  0  0  0  0  0
  153.8384  137.3707  155.9114 N   0  0  0  0  0  0  0  0  0  0  0  0
  152.7772  136.8601  155.3494 N   0  0  0  0  0  0  0  0  0  0  0  0
  148.7204  131.7075  153.4275 C   0  0  0  0  0  0  0  0  0  0  0  0
  147.5000  131.2274  154.2364 C   0  0  0  0  0  0  0  0  0  0  0  0
  150.0037  131.2154  154.1266 C   0  0  0  0  0  0  0  0  0  0  0  0
  146.3549  134.0643  153.0491 C   0  0  0  0  0  0  0  0  0  0  0  0
  145.3660  134.7492  152.0893 C   0  0  0  0  0  0  0  0  0  0  0  0
  144.5403  132.0162  151.9631 H   0  0  0  0  0  0  0  0  0  0  0  0
  143.8355  132.1104  150.3543 H   0  0  0  0  0  0  0  0  0  0  0  0
  143.1568  133.0606  151.6668 H   0  0  0  0  0  0  0  0  0  0  0  0
  144.4801  134.4817  150.1600 H   0  0  0  0  0  0  0  0  0  0  0  0
  146.0985  132.7140  149.3758 H   0  0  0  0  0  0  0  0  0  0  0  0
  146.8180  134.2587  149.7417 H   0  0  0  0  0  0  0  0  0  0  0  0
  146.8697  131.7956  151.5465 H   0  0  0  0  0  0  0  0  0  0  0  0
  148.2180  132.4818  150.6673 H   0  0  0  0  0  0  0  0  0  0  0  0
  149.6489  133.4576  152.6511 H   0  0  0  0  0  0  0  0  0  0  0  0
  147.8214  134.1418  154.9855 H   0  0  0  0  0  0  0  0  0  0  0  0
  149.4096  133.5027  155.2767 H   0  0  0  0  0  0  0  0  0  0  0  0
  149.3584  135.8091  153.5050 H   0  0  0  0  0  0  0  0  0  0  0  0
  150.4294  137.5992  153.9822 H   0  0  0  0  0  0  0  0  0  0  0  0
  149.7519  138.2533  155.4660 H   0  0  0  0  0  0  0  0  0  0  0  0
  151.6980  139.6148  156.5823 H   0  0  0  0  0  0  0  0  0  0  0  0
  148.6715  131.2162  152.4553 H   0  0  0  0  0  0  0  0  0  0  0  0
  147.4188  131.7574  155.1859 H   0  0  0  0  0  0  0  0  0  0  0  0
  147.5708  130.1623  154.4596 H   0  0  0  0  0  0  0  0  0  0  0  0
  146.5674  131.3652  153.6905 H   0  0  0  0  0  0  0  0  0  0  0  0
  150.1396  131.7009  155.0936 H   0  0  0  0  0  0  0  0  0  0  0  0
  150.8952  131.4044  153.5285 H   0  0  0  0  0  0  0  0  0  0  0  0
  149.9677  130.1396  154.3016 H   0  0  0  0  0  0  0  0  0  0  0  0
  145.8745  133.2102  153.5220 H   0  0  0  0  0  0  0  0  0  0  0  0
  146.6125  134.7624  153.8465 H   0  0  0  0  0  0  0  0  0  0  0  0
  145.8054  135.6835  151.7369 H   0  0  0  0  0  0  0  0  0  0  0  0
  144.4568  135.0267  152.6236 H   0  0  0  0  0  0  0  0  0  0  0  0
  147.9070  134.4976  151.8958 H   0  0  0  0  0  0  0  0  0  0  0  0
  1  2  1  0  0  0  0
  1 22  1  0  0  0  0
  1 23  1  0  0  0  0
  1 24  1  0  0  0  0
  2 21  1  0  0  0  0
  2  3  1  0  0  0  0
  2 25  1  0  0  0  0
  3  4  1  0  0  0  0
  3 26  1  0  0  0  0
  3 27  1  0  0  0  0
  4  5  1  0  0  0  0
  4 28  1  0  0  0  0
  4 29  1  0  0  0  0
  5  6  1  0  0  0  0
  5 20  1  0  0  0  0
  5 48  1  0  0  0  0
  6  7  1  0  0  0  0
  6 17  1  0  0  0  0
  6 30  1  0  0  0  0
  7  8  1  0  0  0  0
  7 31  1  0  0  0  0
  7 32  1  0  0  0  0
  8  9  1  0  0  0  0
  8 33  1  0  0  0  0
  9 10  2  0  0  0  0
  9 11  1  0  0  0  0
 11 12  1  0  0  0  0
 11 34  1  0  0  0  0
 11 35  1  0  0  0  0
 12 16  1  0  0  0  0
 12 13  1  0  0  0  0
 13 14  2  0  0  0  0
 13 36  1  0  0  0  0
 14 15  1  0  0  0  0
 15 16  2  0  0  0  0
 17 18  1  0  0  0  0
 17 19  1  0  0  0  0
 17 37  1  0  0  0  0
 18 38  1  0  0  0  0
 18 39  1  0  0  0  0
 18 40  1  0  0  0  0
 19 41  1  0  0  0  0
 19 42  1  0  0  0  0
 19 43  1  0  0  0  0
 20 21  1  0  0  0  0
 20 44  1  0  0  0  0
 20 45  1  0  0  0  0
 21 46  1  0  0  0  0
 21 47  1  0  0  0  0
M  CHG  1   5   1
M  END
> <s_m_source_file>
AV-unprocessed.smi

> <i_m_source_file_index>
1536

> <i_lp_mmshare_version>
43012

> <i_f3d_flags>
0

> <s_epik_input>
W0NIM11bQ0hdMVtDSDJdW0NIMl1OKFtDSDJdW0NIMl0xKVtDQEBIXShbQ0hdKFtDSDNdKVtDSDNdKVtDSDJdW05IXUMoPU8pW0NIMl1uMltjSF1ubm4y

> <s_epik_cmdline>
J2VwaWtfcHl0aG9uJywgJy1waCcsICc3LjAnLCAnLXRuJywgJzgnLCAnLW1hJywgJzIwMCcsICctbWV0YWxfYmluZGluZycsICctaW1hZScsICc8aW5maWxlLm1hZT4nLCAnLW9tYWUnLCAnPG91dGZpbGUubWFlPic=

> <r_lp_tautomer_probability>
1

> <r_epik_Ionization_Penalty>
0.00109671

> <r_epik_Ionization_Penalty_Charging>
0.00109273

> <r_epik_Ionization_Penalty_Neutral>
3.97951e-06

> <r_epik_State_Penalty>
0.000716588

> <r_epik_Charging_Adjusted_Penalty>
0.00180932

> <i_epik_Tot_Q>
1

> <i_epik_Tot_abs_Q>
1

> <r_epik_Metal_State_Penalty>
-0

> <b_epik_Metal_Only>
0

> <s_lp_Force_Field>
OPLS_2005

> <r_lp_Energy>
37.5817

> <b_lp_Chiralities_Consistent>
1

> <s_lp_Variant>
AV-unprocessed.smi:1536-4

> <Gold.Version>
5.8.1

> <Gold.Id.Protein>
6NUR|6NUR_protein|mol2

> <Gold.PLP.Fitness>
44.5022

> <Gold.PLP.PLP>
-32.8713

> <Gold.PLP.part.hbond>
-4.8755

> <Gold.PLP.part.metal>
0.0000

> <Gold.PLP.part.buried>
-2.2822

> <Gold.PLP.part.nonpolar>
-26.3022

> <Gold.PLP.part.repulsive>
0.0731

> <Gold.PLP.ligand.clash>
0.0000

> <Gold.PLP.ligand.torsion>
1.1076

> <Gold.PLP.Chemscore.Hbond>
4.4080

> <Gold.PLP.Chemscore.CHOScore>
0.0000

> <Gold.PLP.Chemscore.Metal>
0.0000

> <Gold.Chemscore.Hbonds>
donor molecule, donor type, donor heavy atom, donor atom, acceptor molecule, acceptor atom, score
      L1  H     5    48       P1  7948  1.70
      L1  H     8    33       P1  7948  1.00
      P1  H  7997  8010       L1    14  0.80
      P1  H 10752 10764       L1    16  0.42

> <Gold.PLP.Chemscore.Internal.Correction>
0.6221

> <Gold.Rescore>
     Score         DG    S(hbond)    S(metal)    S(lipo)     H(rot)  DE(clash)    DE(int)     intcor
     14.73     -16.14       3.16        0.00      61.62       2.77       0.27       1.14       ----

> <Gold.Chemscore.Fitness>
14.7350

> <Gold.Chemscore.DG>
-16.1444

> <Gold.Chemscore.ZeroCoef>
-5.4800

> <Gold.Chemscore.Hbond>
3.1581

> <Gold.Chemscore.Metal>
0.0000

> <Gold.Chemscore.Lipo>
61.6235

> <Gold.Chemscore.Internal_Hbond>
0.0000

> <Gold.Chemscore.DEClash>
0.2700

> <Gold.Chemscore.DEInternal>
1.1394

> <Gold.Chemscore.Rot>
2.7709

> <Gold.Chemscore.Internal.Correction>
   9.000000E+99

> <Gold.Chemscore.Hbonds>
donor molecule, donor type, donor heavy atom, donor atom, acceptor molecule, acceptor atom, score
      L1  H     5    48       P1  7948  0.14
      L1  H     8    33       P1  7948  0.50
      P1  H  7997  8010       L1    14  0.72
      P1  H 10752 10764       L1    16  0.35

> <Gold.Chemscore.Hbond.Weighted>
-10.5479

> <Gold.Chemscore.Metal.Weighted>
-0.0000

> <Gold.Chemscore.Lipo.Weighted>
-7.2099

> <Gold.Chemscore.Internal_Hbond.Weighted>
0.0000

> <Gold.Chemscore.DEClash.Weighted>
0.2700

> <Gold.Chemscore.DEInternal.Weighted>
1.1394

> <Gold.Chemscore.Rot.Weighted>
7.0935

> <Gold.Chemscore.Internal.Correction.Weighted>
   9.000000E+99

> <Gold.Protein.RotatedTorsions>
[ 6907 6896 6895 6894 ] final   91.44 input  -60.11 | X-H torsion
[ 7974 7965 7964 7962 ] final  -95.71 input  175.53 | X-H torsion
[ 8008 7997 7996 7995 ] final   52.04 input   59.86 | X-H torsion
[ 10167 10162 10161 10158 ] final  -70.27 input  -65.29 | X-H torsion
[ 10718 10713 10712 10709 ] final  -43.77 input   66.30 | X-H torsion
[ 10763 10752 10751 10750 ] final  -47.52 input  -60.55 | X-H torsion
[ 11005 11000 10999 10996 ] final   82.14 input  -57.11 | X-H torsion

> <Gold.Protein.ActiveResidues>
 VAL166  LYS551  ARG553  GLY616  TRP617  ASP618  TYR619  PRO620  LYS621  CYS622 
 ASP623  PHE694  ASN695  SER759  ASP760  ASP761  ALA762  ILE779  LEU786  VAL792 
 PHE793  MET794  SER795  GLU796  ALA797  LYS798  CYS799  TRP800  GLU811  SER814 

> <Gold.Protein.RotatedAtoms>
  152.5450  134.1657  159.8575 H   0  0  0  0  0  0  0  0  0  0  0  0  # atno 6907 bound_to 6896
  151.1671  133.4801  159.2601 H   0  0  0  0  0  0  0  0  0  0  0  0  # atno 6908 bound_to 6896
  151.1313  135.0143  159.8639 H   0  0  0  0  0  0  0  0  0  0  0  0  # atno 6909 bound_to 6896
  145.3564  140.9485  143.2525 H   0  0  0  0  0  0  0  0  0  0  0  0  # atno 7974 bound_to 7965
  155.4452  140.3456  155.4294 H   0  0  0  0  0  0  0  0  0  0  0  0  # atno 8008 bound_to 7997
  156.1254  140.1499  156.9174 H   0  0  0  0  0  0  0  0  0  0  0  0  # atno 8009 bound_to 7997
  154.4854  140.0857  156.7454 H   0  0  0  0  0  0  0  0  0  0  0  0  # atno 8010 bound_to 7997
  140.5365  143.2317  151.7167 H   0  0  0  0  0  0  0  0  0  0  0  0  # atno 10167 bound_to 10162
  156.2455  130.4183  149.8710 H   0  0  0  0  0  0  0  0  0  0  0  0  # atno 10718 bound_to 10713
  154.0627  135.6616  153.4814 H   0  0  0  0  0  0  0  0  0  0  0  0  # atno 10763 bound_to 10752
  153.0420  135.5138  154.7643 H   0  0  0  0  0  0  0  0  0  0  0  0  # atno 10764 bound_to 10752
  154.6685  135.3026  154.9741 H   0  0  0  0  0  0  0  0  0  0  0  0  # atno 10765 bound_to 10752
  139.9074  134.8049  156.2135 H   0  0  0  0  0  0  0  0  0  0  0  0  # atno 11005 bound_to 11000
  144.8679  139.5081  143.6781 LP  0  0  0  0  0  0  0  0  0  0  0  0  # atno 17320 bound_to 7965
  146.2946  139.7240  142.9136 LP  0  0  0  0  0  0  0  0  0  0  0  0  # atno 17321 bound_to 7965
  139.4973  144.4034  152.0157 LP  0  0  0  0  0  0  0  0  0  0  0  0  # atno 17342 bound_to 10162
  140.3140  144.3505  150.6026 LP  0  0  0  0  0  0  0  0  0  0  0  0  # atno 17343 bound_to 10162
  156.6277  130.8652  151.3489 LP  0  0  0  0  0  0  0  0  0  0  0  0  # atno 17370 bound_to 10713
  157.7193  130.9538  150.1376 LP  0  0  0  0  0  0  0  0  0  0  0  0  # atno 17371 bound_to 10713
  141.0451  133.6918  156.1668 LP  0  0  0  0  0  0  0  0  0  0  0  0  # atno 17394 bound_to 11000
  140.6897  134.4679  157.5589 LP  0  0  0  0  0  0  0  0  0  0  0  0  # atno 17395 bound_to 11000

$$$$
