AV-unprocessed.smi:438|AV-procd|sdf|2566|dock7
  -GOLD-   2262022543D 1   1.00000     0.00000
 Structure written by MMmdl.
 48 49  0  0  0  0  0  0  0  0  1 V2000
  154.7591  135.8661  163.9655 C   0  0  0  0  0  0  0  0  0  0  0  0
  154.8861  137.0019  162.9655 C   0  0  0  0  0  0  0  0  0  0  0  0
  154.3516  136.7479  161.6973 N   0  0  0  0  0  0  0  0  0  0  0  0
  154.3808  137.6615  160.7805 C   0  0  0  0  0  0  0  0  0  0  0  0
  153.7365  137.6149  159.0785 S   0  0  0  0  0  0  0  0  0  0  0  0
  152.2071  138.5916  159.2118 C   0  0  0  0  0  0  0  0  0  0  0  0
  152.3491  140.0066  158.6504 C   0  0  0  0  0  0  0  0  0  0  0  0
  152.7466  140.1725  157.4978 O   0  0  0  0  0  0  0  0  0  0  0  0
  152.0514  141.0094  159.4946 N   0  0  0  0  0  0  0  0  0  0  0  0
  152.2344  142.4457  159.2771 C   0  0  1  0  0  0  0  0  0  0  0  0
  151.4438  142.9325  158.0432 C   0  0  0  0  0  0  0  0  0  0  0  0
  151.7254  144.4136  157.7544 C   0  0  0  0  0  0  0  0  0  0  0  0
  151.4256  145.2810  158.9863 C   0  0  0  0  0  0  0  0  0  0  0  0
  152.2142  144.7994  160.2151 C   0  0  0  0  0  0  0  0  0  0  0  0
  151.9400  143.3143  160.5296 C   0  0  2  0  0  0  0  0  0  0  0  0
  152.7394  142.8662  161.7659 C   0  0  0  0  0  0  0  0  0  0  0  0
  154.9637  138.9018  161.0409 N   0  0  0  0  0  0  0  0  0  0  0  0
  155.5158  139.2432  162.2266 C   0  0  0  0  0  0  0  0  0  0  0  0
  156.0089  140.3589  162.3855 O   0  0  0  0  0  0  0  0  0  0  0  0
  155.4687  138.1976  163.2627 C   0  0  0  0  0  0  0  0  0  0  0  0
  156.0526  138.5317  164.6353 C   0  0  0  0  0  0  0  0  0  0  0  0
  157.2366  137.6310  165.0286 C   0  0  0  0  0  0  0  0  0  0  0  0
  157.7492  137.9968  166.2925 O   0  0  0  0  0  0  0  0  0  0  0  0
  155.7317  135.6078  164.3840 H   0  0  0  0  0  0  0  0  0  0  0  0
  154.3485  134.9702  163.4979 H   0  0  0  0  0  0  0  0  0  0  0  0
  154.0931  136.1508  164.7803 H   0  0  0  0  0  0  0  0  0  0  0  0
  151.8865  138.6169  160.2545 H   0  0  0  0  0  0  0  0  0  0  0  0
  151.4226  138.0782  158.6556 H   0  0  0  0  0  0  0  0  0  0  0  0
  151.7288  140.7466  160.4148 H   0  0  0  0  0  0  0  0  0  0  0  0
  153.2942  142.5581  159.0443 H   0  0  0  0  0  0  0  0  0  0  0  0
  151.7067  142.3346  157.1696 H   0  0  0  0  0  0  0  0  0  0  0  0
  150.3730  142.7971  158.1983 H   0  0  0  0  0  0  0  0  0  0  0  0
  152.7689  144.5381  157.4626 H   0  0  0  0  0  0  0  0  0  0  0  0
  151.1244  144.7477  156.9079 H   0  0  0  0  0  0  0  0  0  0  0  0
  151.6698  146.3223  158.7741 H   0  0  0  0  0  0  0  0  0  0  0  0
  150.3571  145.2521  159.2035 H   0  0  0  0  0  0  0  0  0  0  0  0
  153.2808  144.9484  160.0415 H   0  0  0  0  0  0  0  0  0  0  0  0
  151.9542  145.4166  161.0758 H   0  0  0  0  0  0  0  0  0  0  0  0
  150.8812  143.2280  160.7760 H   0  0  0  0  0  0  0  0  0  0  0  0
  153.8128  142.9053  161.5788 H   0  0  0  0  0  0  0  0  0  0  0  0
  152.4880  141.8470  162.0600 H   0  0  0  0  0  0  0  0  0  0  0  0
  152.5275  143.5080  162.6213 H   0  0  0  0  0  0  0  0  0  0  0  0
  154.9729  139.5926  160.3048 H   0  0  0  0  0  0  0  0  0  0  0  0
  155.2864  138.4807  165.4081 H   0  0  0  0  0  0  0  0  0  0  0  0
  156.3774  139.5730  164.6298 H   0  0  0  0  0  0  0  0  0  0  0  0
  156.9430  136.5812  165.0508 H   0  0  0  0  0  0  0  0  0  0  0  0
  158.0351  137.7221  164.2920 H   0  0  0  0  0  0  0  0  0  0  0  0
  158.6723  138.1787  166.2009 H   0  0  0  0  0  0  0  0  0  0  0  0
  1 24  1  0  0  0  0
  1 25  1  0  0  0  0
  1 26  1  0  0  0  0
  1  2  1  0  0  0  0
  2 20  2  0  0  0  0
  2  3  1  0  0  0  0
  3  4  2  0  0  0  0
  4  5  1  0  0  0  0
  4 17  1  0  0  0  0
  5  6  1  0  0  0  0
  6  7  1  0  0  0  0
  6 27  1  0  0  0  0
  6 28  1  0  0  0  0
  7  8  2  0  0  0  0
  7  9  1  0  0  0  0
  9 10  1  0  0  0  0
  9 29  1  0  0  0  0
 10 15  1  0  0  0  0
 10 11  1  0  0  0  0
 10 30  1  0  0  0  0
 11 12  1  0  0  0  0
 11 31  1  0  0  0  0
 11 32  1  0  0  0  0
 12 13  1  0  0  0  0
 12 33  1  0  0  0  0
 12 34  1  0  0  0  0
 13 14  1  0  0  0  0
 13 35  1  0  0  0  0
 13 36  1  0  0  0  0
 14 15  1  0  0  0  0
 14 37  1  0  0  0  0
 14 38  1  0  0  0  0
 15 16  1  0  0  0  0
 15 39  1  0  0  0  0
 16 40  1  0  0  0  0
 16 41  1  0  0  0  0
 16 42  1  0  0  0  0
 17 43  1  0  0  0  0
 17 18  1  0  0  0  0
 18 19  2  0  0  0  0
 18 20  1  0  0  0  0
 20 21  1  0  0  0  0
 21 22  1  0  0  0  0
 21 44  1  0  0  0  0
 21 45  1  0  0  0  0
 22 23  1  0  0  0  0
 22 46  1  0  0  0  0
 22 47  1  0  0  0  0
 23 48  1  0  0  0  0
M  END
> <s_m_source_file>
AV-unprocessed.smi

> <i_m_source_file_index>
438

> <i_lp_mmshare_version>
43012

> <i_f3d_flags>
0

> <s_epik_input>
W09IXVtDSDJdW0NIMl1jMWMoW09IXSluYyhuYzFbQ0gzXSlTW0NIMl1DKD1PKVtOSF1bQ0BASF0yW0NIMl1bQ0gyXVtDSDJdW0NIMl1bQ0BIXTJbQ0gzXQ==

> <s_epik_cmdline>
J2VwaWtfcHl0aG9uJywgJy1waCcsICc3LjAnLCAnLXRuJywgJzgnLCAnLW1hJywgJzIwMCcsICctbWV0YWxfYmluZGluZycsICctaW1hZScsICc8aW5maWxlLm1hZT4nLCAnLW9tYWUnLCAnPG91dGZpbGUubWFlPic=

> <r_lp_tautomer_probability>
0.660323

> <r_epik_Ionization_Penalty>
0.00860626

> <r_epik_Ionization_Penalty_Charging>
0.00860522

> <r_epik_Ionization_Penalty_Neutral>
1.04215e-06

> <r_epik_State_Penalty>
0.156825

> <r_epik_Charging_Adjusted_Penalty>
0.16543

> <i_epik_Tot_Q>
0

> <i_epik_Tot_abs_Q>
0

> <r_epik_Metal_State_Penalty>
0.752038

> <b_epik_Metal_Only>
0

> <s_lp_Force_Field>
OPLS_2005

> <r_lp_Energy>
14.076

> <b_lp_Chiralities_Consistent>
1

> <s_lp_Variant>
AV-unprocessed.smi:438-4

> <Gold.Version>
5.8.1

> <Gold.Id.Protein>
6NUR|6NUR_protein|mol2

> <Gold.PLP.Fitness>
51.5407

> <Gold.PLP.PLP>
-49.5807

> <Gold.PLP.part.hbond>
-3.0000

> <Gold.PLP.part.metal>
0.0000

> <Gold.PLP.part.buried>
-6.0995

> <Gold.PLP.part.nonpolar>
-39.3205

> <Gold.PLP.part.repulsive>
0.1598

> <Gold.PLP.ligand.clash>
0.0000

> <Gold.PLP.ligand.torsion>
0.5772

> <Gold.PLP.Chemscore.Hbond>
1.0000

> <Gold.PLP.Chemscore.CHOScore>
0.0000

> <Gold.PLP.Chemscore.Metal>
0.0000

> <Gold.Chemscore.Hbonds>
donor molecule, donor type, donor heavy atom, donor atom, acceptor molecule, acceptor atom, score
      P1  H  7997  8009       L1     8  1.00

> <Gold.PLP.Chemscore.Internal.Correction>
0.1143

> <Gold.Rescore>
     Score         DG    S(hbond)    S(metal)    S(lipo)     H(rot)  DE(clash)    DE(int)     intcor
     14.83     -15.38       0.98        0.00     119.26       2.86       0.00       0.55       ----

> <Gold.Chemscore.Fitness>
14.8331

> <Gold.Chemscore.DG>
-15.3822

> <Gold.Chemscore.ZeroCoef>
-5.4800

> <Gold.Chemscore.Hbond>
0.9824

> <Gold.Chemscore.Metal>
0.0000

> <Gold.Chemscore.Lipo>
119.2650

> <Gold.Chemscore.Internal_Hbond>
0.0000

> <Gold.Chemscore.DEClash>
0.0015

> <Gold.Chemscore.DEInternal>
0.5476

> <Gold.Chemscore.Rot>
2.8645

> <Gold.Chemscore.Internal.Correction>
   9.000000E+99

> <Gold.Chemscore.Hbonds>
donor molecule, donor type, donor heavy atom, donor atom, acceptor molecule, acceptor atom, score
      P1  H  7997  8009       L1     8  0.95

> <Gold.Chemscore.Hbond.Weighted>
-3.2813

> <Gold.Chemscore.Metal.Weighted>
-0.0000

> <Gold.Chemscore.Lipo.Weighted>
-13.9540

> <Gold.Chemscore.Internal_Hbond.Weighted>
0.0000

> <Gold.Chemscore.DEClash.Weighted>
0.0015

> <Gold.Chemscore.DEInternal.Weighted>
0.5476

> <Gold.Chemscore.Rot.Weighted>
7.3331

> <Gold.Chemscore.Internal.Correction.Weighted>
   9.000000E+99

> <Gold.Protein.RotatedTorsions>
[ 6907 6896 6895 6894 ] final -111.45 input  -60.11 | X-H torsion
[ 7974 7965 7964 7962 ] final  -50.66 input  175.53 | X-H torsion
[ 8008 7997 7996 7995 ] final  177.36 input   59.86 | X-H torsion
[ 10167 10162 10161 10158 ] final  -66.32 input  -65.29 | X-H torsion
[ 10718 10713 10712 10709 ] final  120.03 input   66.30 | X-H torsion
[ 10763 10752 10751 10750 ] final   16.16 input  -60.55 | X-H torsion
[ 11005 11000 10999 10996 ] final   82.92 input  -57.11 | X-H torsion

> <Gold.Protein.ActiveResidues>
 VAL166  LYS551  ARG553  GLY616  TRP617  ASP618  TYR619  PRO620  LYS621  CYS622 
 ASP623  PHE694  ASN695  SER759  ASP760  ASP761  ALA762  ILE779  LEU786  VAL792 
 PHE793  MET794  SER795  GLU796  ALA797  LYS798  CYS799  TRP800  GLU811  SER814 

> <Gold.Protein.RotatedAtoms>
  150.7691  133.9234  159.3404 H   0  0  0  0  0  0  0  0  0  0  0  0  # atno 6907 bound_to 6896
  151.7125  135.0908  160.0279 H   0  0  0  0  0  0  0  0  0  0  0  0  # atno 6908 bound_to 6896
  152.3700  133.6369  159.6116 H   0  0  0  0  0  0  0  0  0  0  0  0  # atno 6909 bound_to 6896
  145.9275  140.7779  142.9616 H   0  0  0  0  0  0  0  0  0  0  0  0  # atno 7974 bound_to 7965
  156.0665  140.1360  156.9879 H   0  0  0  0  0  0  0  0  0  0  0  0  # atno 8008 bound_to 7997
  154.4509  140.0980  156.6666 H   0  0  0  0  0  0  0  0  0  0  0  0  # atno 8009 bound_to 7997
  155.5295  140.3458  155.4425 H   0  0  0  0  0  0  0  0  0  0  0  0  # atno 8010 bound_to 7997
  140.5665  143.2315  151.6624 H   0  0  0  0  0  0  0  0  0  0  0  0  # atno 10167 bound_to 10162
  157.5920  131.1063  150.7978 H   0  0  0  0  0  0  0  0  0  0  0  0  # atno 10718 bound_to 10713
  153.1457  135.6768  153.8959 H   0  0  0  0  0  0  0  0  0  0  0  0  # atno 10763 bound_to 10752
  153.8402  135.3106  155.3426 H   0  0  0  0  0  0  0  0  0  0  0  0  # atno 10764 bound_to 10752
  154.7823  135.4881  153.9955 H   0  0  0  0  0  0  0  0  0  0  0  0  # atno 10765 bound_to 10752
  139.9047  134.8107  156.2240 H   0  0  0  0  0  0  0  0  0  0  0  0  # atno 11005 bound_to 11000
  144.6760  140.2073  143.7381 LP  0  0  0  0  0  0  0  0  0  0  0  0  # atno 17320 bound_to 7965
  145.8470  139.2157  143.1794 LP  0  0  0  0  0  0  0  0  0  0  0  0  # atno 17321 bound_to 7965
  139.5096  144.3572  152.0596 LP  0  0  0  0  0  0  0  0  0  0  0  0  # atno 17342 bound_to 10162
  140.2705  144.3969  150.6153 LP  0  0  0  0  0  0  0  0  0  0  0  0  # atno 17343 bound_to 10162
  156.8398  130.5044  149.5322 LP  0  0  0  0  0  0  0  0  0  0  0  0  # atno 17370 bound_to 10713
  156.0976  130.5944  150.9840 LP  0  0  0  0  0  0  0  0  0  0  0  0  # atno 17371 bound_to 10713
  141.0388  133.6949  156.1560 LP  0  0  0  0  0  0  0  0  0  0  0  0  # atno 17394 bound_to 11000
  140.6987  134.4587  157.5587 LP  0  0  0  0  0  0  0  0  0  0  0  0  # atno 17395 bound_to 11000

$$$$
