AV-unprocessed.smi:45|AV-procd|sdf|410|dock5
  -GOLD-   2262016273D 1   1.00000     0.00000
 Structure written by MMmdl.
 61 64  0  0  0  0  0  0  0  0  2 V2000
  146.8148  136.5572  162.3394 C   0  0  0  0  0  0  0  0  0  0  0  0
  146.0753  137.2467  161.3424 O   0  0  0  0  0  0  0  0  0  0  0  0
  146.0766  136.7386  160.0596 C   0  0  0  0  0  0  0  0  0  0  0  0
  146.9433  135.7052  159.6213 C   0  0  0  0  0  0  0  0  0  0  0  0
  146.8855  135.2368  158.2947 C   0  0  0  0  0  0  0  0  0  0  0  0
  145.9654  135.7924  157.3832 C   0  0  0  0  0  0  0  0  0  0  0  0
  145.8968  135.2861  155.9555 C   0  0  0  0  0  0  0  0  0  0  0  0
  147.1945  135.2353  155.2954 N   0  0  0  0  0  0  0  0  0  0  0  0
  147.4716  134.2716  154.3106 C   0  0  0  0  0  0  0  0  0  0  0  0
  146.6890  134.2545  153.2086 N   0  0  0  0  0  0  0  0  0  0  0  0
  146.8986  133.3582  152.2359 C   0  0  0  0  0  0  0  0  0  0  0  0
  146.0758  133.3667  151.1101 N   0  0  0  0  0  0  0  0  0  0  0  0
  146.1993  132.3508  150.0704 C   0  0  0  0  0  0  0  0  0  0  0  0
  144.7917  132.1440  149.5135 C   0  0  0  0  0  0  0  0  0  0  0  0
  144.1332  133.4990  149.7358 C   0  0  0  0  0  0  0  0  0  0  0  0
  144.7494  133.9850  151.0556 C   0  0  2  0  0  0  0  0  0  0  0  0
  144.7851  135.5248  151.1594 C   0  0  0  0  0  0  0  0  0  0  0  0
  145.3098  136.0743  149.9698 O   0  0  0  0  0  0  0  0  0  0  0  0
  147.8754  132.4410  152.3175 N   0  3  0  0  0  0  0  0  0  0  0  0
  148.6858  132.4088  153.4022 C   0  0  0  0  0  0  0  0  0  0  0  0
  148.5170  133.3265  154.4615 C   0  0  0  0  0  0  0  0  0  0  0  0
  149.4454  133.2996  155.6463 C   0  0  0  0  0  0  0  0  0  0  0  0
  149.4022  134.1722  156.5135 O   0  0  0  0  0  0  0  0  0  0  0  0
  150.2856  132.2535  155.6894 N   0  0  0  0  0  0  0  0  0  0  0  0
  151.2968  132.0391  156.7179 C   0  0  0  0  0  0  0  0  0  0  0  0
  152.3155  130.9862  156.3184 C   0  0  0  0  0  0  0  0  0  0  0  0
  151.8696  129.9808  155.5572 N   0  0  0  0  0  0  0  0  0  0  0  0
  152.7728  129.0445  155.1933 C   0  0  0  0  0  0  0  0  0  0  0  0
  154.1224  129.1212  155.5915 C   0  0  0  0  0  0  0  0  0  0  0  0
  154.4749  130.2270  156.3913 C   0  0  0  0  0  0  0  0  0  0  0  0
  153.5675  131.1596  156.7537 N   0  0  0  0  0  0  0  0  0  0  0  0
  145.0993  136.8169  157.8124 C   0  0  0  0  0  0  0  0  0  0  0  0
  145.1554  137.2870  159.1393 C   0  0  0  0  0  0  0  0  0  0  0  0
  144.0797  138.5462  159.6310 Cl  0  0  0  0  0  0  0  0  0  0  0  0
  144.1699  133.5779  151.8856 H   0  0  0  0  0  0  0  0  0  0  0  0
  146.7126  137.0815  163.2893 H   0  0  0  0  0  0  0  0  0  0  0  0
  147.8774  136.5223  162.0953 H   0  0  0  0  0  0  0  0  0  0  0  0
  146.4421  135.5420  162.4820 H   0  0  0  0  0  0  0  0  0  0  0  0
  147.6634  135.2523  160.2854 H   0  0  0  0  0  0  0  0  0  0  0  0
  147.5510  134.4465  157.9794 H   0  0  0  0  0  0  0  0  0  0  0  0
  145.4593  134.2872  155.9688 H   0  0  0  0  0  0  0  0  0  0  0  0
  145.2267  135.9221  155.3759 H   0  0  0  0  0  0  0  0  0  0  0  0
  147.8324  136.0082  155.4252 H   0  0  0  0  0  0  0  0  0  0  0  0
  146.8694  132.7239  149.2954 H   0  0  0  0  0  0  0  0  0  0  0  0
  146.6076  131.4138  150.4509 H   0  0  0  0  0  0  0  0  0  0  0  0
  144.7887  131.8323  148.4686 H   0  0  0  0  0  0  0  0  0  0  0  0
  144.2707  131.3827  150.0956 H   0  0  0  0  0  0  0  0  0  0  0  0
  144.4023  134.1689  148.9174 H   0  0  0  0  0  0  0  0  0  0  0  0
  143.0451  133.4393  149.7747 H   0  0  0  0  0  0  0  0  0  0  0  0
  143.7919  135.9466  151.3067 H   0  0  0  0  0  0  0  0  0  0  0  0
  145.3950  135.8450  152.0049 H   0  0  0  0  0  0  0  0  0  0  0  0
  145.5297  135.3676  149.3817 H   0  0  0  0  0  0  0  0  0  0  0  0
  149.4527  131.6477  153.3805 H   0  0  0  0  0  0  0  0  0  0  0  0
  150.2461  131.5728  154.9450 H   0  0  0  0  0  0  0  0  0  0  0  0
  151.7931  132.9807  156.9612 H   0  0  0  0  0  0  0  0  0  0  0  0
  150.7954  131.7148  157.6304 H   0  0  0  0  0  0  0  0  0  0  0  0
  152.4163  128.2294  154.5810 H   0  0  0  0  0  0  0  0  0  0  0  0
  154.8461  128.3740  155.3013 H   0  0  0  0  0  0  0  0  0  0  0  0
  155.4874  130.3636  156.7408 H   0  0  0  0  0  0  0  0  0  0  0  0
  144.3874  137.2481  157.1237 H   0  0  0  0  0  0  0  0  0  0  0  0
  148.0198  131.7677  151.5648 H   0  0  0  0  0  0  0  0  0  0  0  0
  1  2  1  0  0  0  0
  1 36  1  0  0  0  0
  1 37  1  0  0  0  0
  1 38  1  0  0  0  0
  2  3  1  0  0  0  0
  3 33  1  0  0  0  0
  3  4  2  0  0  0  0
  4  5  1  0  0  0  0
  4 39  1  0  0  0  0
  5  6  2  0  0  0  0
  5 40  1  0  0  0  0
  6  7  1  0  0  0  0
  6 32  1  0  0  0  0
  7  8  1  0  0  0  0
  7 41  1  0  0  0  0
  7 42  1  0  0  0  0
  8  9  1  0  0  0  0
  8 43  1  0  0  0  0
  9 21  1  0  0  0  0
  9 10  2  0  0  0  0
 10 11  1  0  0  0  0
 11 12  1  0  0  0  0
 11 19  2  0  0  0  0
 12 16  1  0  0  0  0
 12 13  1  0  0  0  0
 13 14  1  0  0  0  0
 13 44  1  0  0  0  0
 13 45  1  0  0  0  0
 14 15  1  0  0  0  0
 14 46  1  0  0  0  0
 14 47  1  0  0  0  0
 15 16  1  0  0  0  0
 15 48  1  0  0  0  0
 15 49  1  0  0  0  0
 16 35  1  0  0  0  0
 16 17  1  0  0  0  0
 17 18  1  0  0  0  0
 17 50  1  0  0  0  0
 17 51  1  0  0  0  0
 18 52  1  0  0  0  0
 19 20  1  0  0  0  0
 19 61  1  0  0  0  0
 20 21  2  0  0  0  0
 20 53  1  0  0  0  0
 21 22  1  0  0  0  0
 22 23  2  0  0  0  0
 22 24  1  0  0  0  0
 24 25  1  0  0  0  0
 24 54  1  0  0  0  0
 25 26  1  0  0  0  0
 25 55  1  0  0  0  0
 25 56  1  0  0  0  0
 26 31  1  0  0  0  0
 26 27  2  0  0  0  0
 27 28  1  0  0  0  0
 28 29  2  0  0  0  0
 28 57  1  0  0  0  0
 29 30  1  0  0  0  0
 29 58  1  0  0  0  0
 30 31  2  0  0  0  0
 30 59  1  0  0  0  0
 32 33  2  0  0  0  0
 32 60  1  0  0  0  0
 33 34  1  0  0  0  0
M  CHG  1  19   1
M  END
> <s_m_source_file>
AV-unprocessed.smi

> <i_m_source_file_index>
45

> <i_lp_mmshare_version>
43012

> <i_f3d_flags>
0

> <s_epik_input>
W0NIM11PYzFbY0hdW2NIXWMoW2NIXWMxQ2wpW0NIMl1bTkhdYzJuYyhOM1tDSDJdW0NIMl1bQ0gyXVtDQEhdM1tDSDJdW09IXSluW2NIXWMyQyg9TylbTkhdW0NIMl1jNG5bY0hdW2NIXVtjSF1uNA==

> <s_epik_cmdline>
J2VwaWtfcHl0aG9uJywgJy1waCcsICc3LjAnLCAnLXRuJywgJzgnLCAnLW1hJywgJzIwMCcsICctbWV0YWxfYmluZGluZycsICctaW1hZScsICc8aW5maWxlLm1hZT4nLCAnLW9tYWUnLCAnPG91dGZpbGUubWFlPic=

> <r_lp_tautomer_probability>
0.575011

> <r_epik_Ionization_Penalty>
1.61454

> <r_epik_Ionization_Penalty_Charging>
1.61448

> <r_epik_Ionization_Penalty_Neutral>
6.30284e-05

> <r_epik_State_Penalty>
1.91123

> <r_epik_Charging_Adjusted_Penalty>
3.52572

> <i_epik_Tot_Q>
1

> <i_epik_Tot_abs_Q>
1

> <r_epik_Metal_State_Penalty>
1.95488

> <b_epik_Metal_Only>
0

> <s_epik_Chemistry_Notes>
This compound contains an electron-poor aromatic ring that is susceptible to covalent hydrolysis at low pH, typically resulting in measured values for nitrogen ring protonation that are around two units higher than predicted values.

> <s_lp_Force_Field>
OPLS_2005

> <r_lp_Energy>
37.0931

> <b_lp_Chiralities_Consistent>
1

> <s_lp_Variant>
AV-unprocessed.smi:45-4

> <Gold.Version>
5.8.1

> <Gold.Id.Protein>
6NUR|6NUR_protein|mol2

> <Gold.PLP.Fitness>
57.9792

> <Gold.PLP.PLP>
-48.8439

> <Gold.PLP.part.hbond>
-4.2014

> <Gold.PLP.part.metal>
0.0000

> <Gold.PLP.part.buried>
-6.3801

> <Gold.PLP.part.nonpolar>
-38.0496

> <Gold.PLP.part.repulsive>
0.3067

> <Gold.PLP.ligand.clash>
0.0000

> <Gold.PLP.ligand.torsion>
1.5907

> <Gold.PLP.Chemscore.Hbond>
2.9440

> <Gold.PLP.Chemscore.CHOScore>
1.0000

> <Gold.PLP.Chemscore.Metal>
0.0000

> <Gold.Chemscore.Hbonds>
donor molecule, donor type, donor heavy atom, donor atom, acceptor molecule, acceptor atom, score
      L1  H    18    52       P1  7921  0.94
      L1  H    19    61       P1 10747  1.00
      P1  H  6934  6947       L1     2  0.70
      L1  C    28    57       P1 10737  0.08

> <Gold.PLP.Chemscore.Internal.Correction>
0.4846

> <Gold.Rescore>
     Score         DG    S(hbond)    S(metal)    S(lipo)     H(rot)  DE(clash)    DE(int)     intcor
     12.83     -16.22       2.35        0.00      89.10       2.94       0.06       3.32       ----

> <Gold.Chemscore.Fitness>
12.8349

> <Gold.Chemscore.DG>
-16.2186

> <Gold.Chemscore.ZeroCoef>
-5.4800

> <Gold.Chemscore.Hbond>
2.3469

> <Gold.Chemscore.Metal>
0.0000

> <Gold.Chemscore.Lipo>
89.1021

> <Gold.Chemscore.Internal_Hbond>
0.0000

> <Gold.Chemscore.DEClash>
0.0600

> <Gold.Chemscore.DEInternal>
3.3237

> <Gold.Chemscore.Rot>
2.9395

> <Gold.Chemscore.Internal.Correction>
   9.000000E+99

> <Gold.Chemscore.Hbonds>
donor molecule, donor type, donor heavy atom, donor atom, acceptor molecule, acceptor atom, score
      L1  H    18    52       P1  7921  0.90
      L1  H    19    61       P1 10747  0.98
      P1  H  6934  6947       L1     2  0.08

> <Gold.Chemscore.Hbond.Weighted>
-7.8388

> <Gold.Chemscore.Metal.Weighted>
-0.0000

> <Gold.Chemscore.Lipo.Weighted>
-10.4249

> <Gold.Chemscore.Internal_Hbond.Weighted>
0.0000

> <Gold.Chemscore.DEClash.Weighted>
0.0600

> <Gold.Chemscore.DEInternal.Weighted>
3.3237

> <Gold.Chemscore.Rot.Weighted>
7.5251

> <Gold.Chemscore.Internal.Correction.Weighted>
   9.000000E+99

> <Gold.Protein.RotatedTorsions>
[ 6907 6896 6895 6894 ] final   74.54 input  -60.11 | X-H torsion
[ 7974 7965 7964 7962 ] final  161.28 input  175.53 | X-H torsion
[ 8008 7997 7996 7995 ] final  -20.27 input   59.86 | X-H torsion
[ 10167 10162 10161 10158 ] final -131.69 input  -65.29 | X-H torsion
[ 10718 10713 10712 10709 ] final  159.76 input   66.30 | X-H torsion
[ 10763 10752 10751 10750 ] final  101.44 input  -60.55 | X-H torsion
[ 11005 11000 10999 10996 ] final -126.90 input  -57.11 | X-H torsion

> <Gold.Protein.ActiveResidues>
 VAL166  LYS551  ARG553  GLY616  TRP617  ASP618  TYR619  PRO620  LYS621  CYS622 
 ASP623  PHE694  ASN695  SER759  ASP760  ASP761  ALA762  ILE779  LEU786  VAL792 
 PHE793  MET794  SER795  GLU796  ALA797  LYS798  CYS799  TRP800  GLU811  SER814 

> <Gold.Protein.RotatedAtoms>
  152.4981  134.4255  159.9494 H   0  0  0  0  0  0  0  0  0  0  0  0  # atno 6907 bound_to 6896
  151.4231  133.3686  159.2766 H   0  0  0  0  0  0  0  0  0  0  0  0  # atno 6908 bound_to 6896
  150.9208  134.8648  159.7547 H   0  0  0  0  0  0  0  0  0  0  0  0  # atno 6909 bound_to 6896
  144.7694  139.7875  143.6303 H   0  0  0  0  0  0  0  0  0  0  0  0  # atno 7974 bound_to 7965
  154.4781  140.2066  155.9829 H   0  0  0  0  0  0  0  0  0  0  0  0  # atno 8008 bound_to 7997
  156.1121  140.3227  155.8058 H   0  0  0  0  0  0  0  0  0  0  0  0  # atno 8009 bound_to 7997
  155.4616  140.0524  157.2981 H   0  0  0  0  0  0  0  0  0  0  0  0  # atno 8010 bound_to 7997
  139.9163  143.6434  152.2564 H   0  0  0  0  0  0  0  0  0  0  0  0  # atno 10167 bound_to 10162
  157.1598  131.0584  151.2238 H   0  0  0  0  0  0  0  0  0  0  0  0  # atno 10718 bound_to 10713
  153.3268  135.4044  155.1462 H   0  0  0  0  0  0  0  0  0  0  0  0  # atno 10763 bound_to 10752
  154.8613  135.3601  154.5524 H   0  0  0  0  0  0  0  0  0  0  0  0  # atno 10764 bound_to 10752
  153.5960  135.7072  153.5463 H   0  0  0  0  0  0  0  0  0  0  0  0  # atno 10765 bound_to 10752
  140.9644  134.0892  157.3935 H   0  0  0  0  0  0  0  0  0  0  0  0  # atno 11005 bound_to 11000
  146.1828  139.5029  142.9855 LP  0  0  0  0  0  0  0  0  0  0  0  0  # atno 17320 bound_to 7965
  145.6370  141.0292  143.1832 LP  0  0  0  0  0  0  0  0  0  0  0  0  # atno 17321 bound_to 7965
  139.6899  144.7648  151.1457 LP  0  0  0  0  0  0  0  0  0  0  0  0  # atno 17342 bound_to 10162
  140.7673  143.5604  150.9106 LP  0  0  0  0  0  0  0  0  0  0  0  0  # atno 17343 bound_to 10162
  157.4143  130.7402  149.6863 LP  0  0  0  0  0  0  0  0  0  0  0  0  # atno 17370 bound_to 10713
  155.9756  130.4087  150.3839 LP  0  0  0  0  0  0  0  0  0  0  0  0  # atno 17371 bound_to 10713
  139.8889  135.0101  156.6648 LP  0  0  0  0  0  0  0  0  0  0  0  0  # atno 17394 bound_to 11000
  140.7421  133.8969  155.8285 LP  0  0  0  0  0  0  0  0  0  0  0  0  # atno 17395 bound_to 11000

$$$$
