#       Name:                AV-unprocessed.smi:342
#       Creating user name   scv26
#       Creation time:       Thu Mar 26 22:31:06 2020


#       File generated by GOLD software.
#

@<TRIPOS>MOLECULE
AV-unprocessed.smi:342
    47    49     1
SMALL
NO_CHARGES


@<TRIPOS>ATOM
      1 ****         0.0747   2.5110   1.8381 O.3            1 S1                 0.0000
      2 ****         0.2819   1.4928   0.8817 C.3            1 S1                 0.0000
      3 ****        -0.2695   0.1673   1.4513 C.3            1 S1                 0.0000
      4 ****        -1.7265   0.0887   1.5626 N.3            1 S1                 0.0000
      5 ****        -2.3879   0.0098   0.2604 C.3            1 S1                 0.0000
      6 ****        -3.9158  -0.1117   0.3981 C.3            1 S1                 0.0000
      7 ****        -4.2376  -1.2425   1.2007 O.3            1 S1                 0.0000
      8 ****        -3.6499  -1.1800   2.4956 C.3            1 S1                 0.0000
      9 ****        -2.1219  -1.0676   2.3604 C.3            1 S1                 0.0000
     10 ****         1.7907   1.4479   0.5635 C.3            1 S1                 0.0000
     11 ****         2.1355   0.4069  -0.3975 N.pl3          1 S1                 0.0000
     12 ****         2.8633  -0.7246  -0.2006 C.2            1 S1                 0.0000
     13 ****         3.4680  -1.0762   1.1310 C.3            1 S1                 0.0000
     14 ****         4.0866  -2.2568   1.0768 F              1 S1                 0.0000
     15 ****         4.3680  -0.1620   1.4935 F              1 S1                 0.0000
     16 ****         2.5297  -1.1551   2.0741 F              1 S1                 0.0000
     17 ****         3.0162  -1.5028  -1.2747 N.2            1 S1                 0.0000
     18 ****         2.3383  -0.8106  -2.2572 C.ar           1 S1                 0.0000
     19 ****         2.1363  -1.1169  -3.6220 C.ar           1 S1                 0.0000
     20 ****         1.4027  -0.2414  -4.4489 C.ar           1 S1                 0.0000
     21 ****         0.8657   0.9522  -3.9249 C.ar           1 S1                 0.0000
     22 ****         1.0560   1.2757  -2.5678 C.ar           1 S1                 0.0000
     23 ****         1.7831   0.3948  -1.7442 C.ar           1 S1                 0.0000
     24 ****        -0.8488   2.5472   2.0371 H              1 S1                 0.0000
     25 ****        -0.2511   1.7750  -0.0238 H              1 S1                 0.0000
     26 ****         0.0744  -0.6683   0.8407 H              1 S1                 0.0000
     27 ****         0.1771   0.0145   2.4349 H              1 S1                 0.0000
     28 ****        -2.1670   0.8928  -0.3372 H              1 S1                 0.0000
     29 ****        -2.0075  -0.8476  -0.2973 H              1 S1                 0.0000
     30 ****        -4.3357   0.7910   0.8445 H              1 S1                 0.0000
     31 ****        -4.3768  -0.2283  -0.5827 H              1 S1                 0.0000
     32 ****        -4.0533  -0.3291   3.0467 H              1 S1                 0.0000
     33 ****        -3.9165  -2.0784   3.0523 H              1 S1                 0.0000
     34 ****        -1.7334  -1.9810   1.9069 H              1 S1                 0.0000
     35 ****        -1.6785  -1.0006   3.3545 H              1 S1                 0.0000
     36 ****         2.1125   2.4044   0.1494 H              1 S1                 0.0000
     37 ****         2.3619   1.3088   1.4801 H              1 S1                 0.0000
     38 ****         2.5476  -2.0267  -4.0336 H              1 S1                 0.0000
     39 ****         1.2537  -0.4853  -5.4906 H              1 S1                 0.0000
     40 ****         0.3080   1.6195  -4.5657 H              1 S1                 0.0000
     41 ****         0.6475   2.1913  -2.1672 H              1 S1                 0.0000
     42 ****         0.3755   3.3897   1.4674 LP             1 S1                 0.0000
     43 ****         0.5919   2.3052   2.6688 LP             1 S1                 0.0000
     44 ****        -2.0173   0.9343   2.0104 LP             1 S1                 0.0000
     45 ****        -3.9091  -2.0666   0.7394 LP             1 S1                 0.0000
     46 ****        -5.2313  -1.2909   1.3020 LP             1 S1                 0.0000
     47 ****         3.5025  -2.3734  -1.3489 LP             1 S1                 0.0000
@<TRIPOS>BOND
    1    1    2 1     
    2    1   24 1     
    3    2    3 1     
    4    2   10 1     
    5    2   25 1     
    6    3    4 1     
    7    3   26 1     
    8    3   27 1     
    9    4    9 1     
   10    4    5 1     
   11    5    6 1     
   12    5   28 1     
   13    5   29 1     
   14    6    7 1     
   15    6   30 1     
   16    6   31 1     
   17    7    8 1     
   18    8    9 1     
   19    8   32 1     
   20    8   33 1     
   21    9   34 1     
   22    9   35 1     
   23   10   11 1     
   24   10   36 1     
   25   10   37 1     
   26   11   23 1     
   27   11   12 1     
   28   12   13 1     
   29   12   17 2     
   30   13   14 1     
   31   13   15 1     
   32   13   16 1     
   33   17   18 1     
   34   18   23 ar    
   35   18   19 ar    
   36   19   20 ar    
   37   19   38 1     
   38   20   21 ar    
   39   20   39 1     
   40   21   22 ar    
   41   21   40 1     
   42   22   23 ar    
   43   22   41 1     
   44    1   42 1     
   45    1   43 1     
   46    4   44 1     
   47    7   45 1     
   48    7   46 1     
   49   17   47 1     
@<TRIPOS>SUBSTRUCTURE
      1 S1             1
@<TRIPOS>SET
LONE_PAIRS      STATIC     ATOMS    <user>   **** ""
6 42 43 44 45 46 47
DONOR_HYDROGENS      STATIC     ATOMS    <user>   **** ""
1 24
ATOM$BLUE        STATIC     ATOMS    COLORGROUP SYSTEM
6 42 43 44 45 46 47
ATOM$RED        STATIC     ATOMS    COLORGROUP SYSTEM
1 24
