AV-unprocessed.smi:2390|AV-procd|sdf|9479|dock6
  -GOLD-   2272013113D 1   1.00000     0.00000
 Structure written by MMmdl.
 46 47  0  0  0  0  0  0  0  0  2 V2000
  152.5007  143.4821  162.3196 C   0  0  0  0  0  0  0  0  0  0  0  0
  152.1848  143.6206  160.8450 C   0  0  0  0  0  0  0  0  0  0  0  0
  153.1930  143.4853  159.8706 C   0  0  0  0  0  0  0  0  0  0  0  0
  152.8317  143.6255  158.5186 C   0  0  0  0  0  0  0  0  0  0  0  0
  151.4869  143.8945  158.1986 C   0  0  0  0  0  0  0  0  0  0  0  0
  150.5363  144.0136  159.2374 C   0  0  0  0  0  0  0  0  0  0  0  0
  149.2098  144.2926  158.8132 N   0  0  0  0  0  0  0  0  0  0  0  0
  148.1150  144.4558  159.5759 C   0  0  0  0  0  0  0  0  0  0  0  0
  148.0713  144.3117  160.7977 O   0  0  0  0  0  0  0  0  0  0  0  0
  147.0545  144.8151  158.8360 N   0  0  0  0  0  0  0  0  0  0  0  0
  145.6981  145.0681  159.3307 C   0  0  2  0  0  0  0  0  0  0  0  0
  145.0606  143.7114  159.6748 C   0  0  0  0  0  0  0  0  0  0  0  0
  144.8681  145.8879  158.3008 C   0  0  1  0  0  0  0  0  0  0  0  0
  143.3595  145.9271  158.6289 C   0  0  0  0  0  0  0  0  0  0  0  0
  145.4421  147.2522  158.1004 N   0  3  0  0  0  0  0  0  0  0  0  0
  144.9299  147.9648  156.9061 C   0  0  0  0  0  0  0  0  0  0  0  0
  145.7313  149.2605  156.6879 C   0  0  0  0  0  0  0  0  0  0  0  0
  145.6701  150.0708  157.8563 O   0  0  0  0  0  0  0  0  0  0  0  0
  146.2258  149.4184  158.9927 C   0  0  0  0  0  0  0  0  0  0  0  0
  145.4219  148.1423  159.2884 C   0  0  0  0  0  0  0  0  0  0  0  0
  150.8952  143.8792  160.5386 N   0  0  0  0  0  0  0  0  0  0  0  0
  153.5474  143.2207  162.4776 H   0  0  0  0  0  0  0  0  0  0  0  0
  151.8846  142.7023  162.7683 H   0  0  0  0  0  0  0  0  0  0  0  0
  152.3014  144.4198  162.8391 H   0  0  0  0  0  0  0  0  0  0  0  0
  154.2162  143.2791  160.1481 H   0  0  0  0  0  0  0  0  0  0  0  0
  153.5732  143.5292  157.7391 H   0  0  0  0  0  0  0  0  0  0  0  0
  151.1936  144.0058  157.1648 H   0  0  0  0  0  0  0  0  0  0  0  0
  149.0881  144.4044  157.8175 H   0  0  0  0  0  0  0  0  0  0  0  0
  147.1895  144.9039  157.8392 H   0  0  0  0  0  0  0  0  0  0  0  0
  145.7601  145.6325  160.2626 H   0  0  0  0  0  0  0  0  0  0  0  0
  144.0994  143.8317  160.1738 H   0  0  0  0  0  0  0  0  0  0  0  0
  145.6977  143.1411  160.3518 H   0  0  0  0  0  0  0  0  0  0  0  0
  144.9019  143.1070  158.7811 H   0  0  0  0  0  0  0  0  0  0  0  0
  144.9703  145.3646  157.3487 H   0  0  0  0  0  0  0  0  0  0  0  0
  142.9133  144.9351  158.5663 H   0  0  0  0  0  0  0  0  0  0  0  0
  142.8136  146.5580  157.9275 H   0  0  0  0  0  0  0  0  0  0  0  0
  143.1735  146.3050  159.6346 H   0  0  0  0  0  0  0  0  0  0  0  0
  145.0187  147.3310  156.0231 H   0  0  0  0  0  0  0  0  0  0  0  0
  143.8716  148.1952  157.0337 H   0  0  0  0  0  0  0  0  0  0  0  0
  146.7711  149.0368  156.4432 H   0  0  0  0  0  0  0  0  0  0  0  0
  145.3202  149.8201  155.8475 H   0  0  0  0  0  0  0  0  0  0  0  0
  147.2781  149.1870  158.8198 H   0  0  0  0  0  0  0  0  0  0  0  0
  146.1838  150.0959  159.8457 H   0  0  0  0  0  0  0  0  0  0  0  0
  144.3966  148.4134  159.5431 H   0  0  0  0  0  0  0  0  0  0  0  0
  145.8440  147.6333  160.1546 H   0  0  0  0  0  0  0  0  0  0  0  0
  146.4195  147.0889  157.9040 H   0  0  0  0  0  0  0  0  0  0  0  0
  1  2  1  0  0  0  0
  1 22  1  0  0  0  0
  1 23  1  0  0  0  0
  1 24  1  0  0  0  0
  2 21  1  0  0  0  0
  2  3  2  0  0  0  0
  3  4  1  0  0  0  0
  3 25  1  0  0  0  0
  4  5  2  0  0  0  0
  4 26  1  0  0  0  0
  5  6  1  0  0  0  0
  5 27  1  0  0  0  0
  6  7  1  0  0  0  0
  6 21  2  0  0  0  0
  7  8  1  0  0  0  0
  7 28  1  0  0  0  0
  8  9  2  0  0  0  0
  8 10  1  0  0  0  0
 10 11  1  0  0  0  0
 10 29  1  0  0  0  0
 11 12  1  0  0  0  0
 11 13  1  0  0  0  0
 11 30  1  0  0  0  0
 12 31  1  0  0  0  0
 12 32  1  0  0  0  0
 12 33  1  0  0  0  0
 13 14  1  0  0  0  0
 13 15  1  0  0  0  0
 13 34  1  0  0  0  0
 14 35  1  0  0  0  0
 14 36  1  0  0  0  0
 14 37  1  0  0  0  0
 15 20  1  0  0  0  0
 15 16  1  0  0  0  0
 15 46  1  0  0  0  0
 16 17  1  0  0  0  0
 16 38  1  0  0  0  0
 16 39  1  0  0  0  0
 17 18  1  0  0  0  0
 17 40  1  0  0  0  0
 17 41  1  0  0  0  0
 18 19  1  0  0  0  0
 19 20  1  0  0  0  0
 19 42  1  0  0  0  0
 19 43  1  0  0  0  0
 20 44  1  0  0  0  0
 20 45  1  0  0  0  0
M  CHG  1  15   1
M  END
> <s_m_source_file>
AV-unprocessed.smi

> <i_m_source_file_index>
2390

> <i_lp_mmshare_version>
43012

> <i_f3d_flags>
0

> <s_epik_input>
W0NIM11jMVtjSF1bY0hdW2NIXWMobjEpW05IXUMoPU8pW05IXVtDQEhdKFtDSDNdKVtDQEhdKFtDSDNdKU4yW0NIMl1bQ0gyXU9bQ0gyXVtDSDJdMg==

> <s_epik_cmdline>
J2VwaWtfcHl0aG9uJywgJy1waCcsICc3LjAnLCAnLXRuJywgJzgnLCAnLW1hJywgJzIwMCcsICctbWV0YWxfYmluZGluZycsICctaW1hZScsICc8aW5maWxlLm1hZT4nLCAnLW9tYWUnLCAnPG91dGZpbGUubWFlPic=

> <r_epik_Ionization_Penalty>
0.60259

> <r_epik_Ionization_Penalty_Charging>
0.602531

> <r_epik_Ionization_Penalty_Neutral>
5.9516e-05

> <r_epik_State_Penalty>
0.617039

> <r_epik_Charging_Adjusted_Penalty>
1.21957

> <i_epik_Tot_Q>
1

> <i_epik_Tot_abs_Q>
1

> <r_epik_Metal_State_Penalty>
0.617047

> <b_epik_Metal_Only>
0

> <s_lp_Force_Field>
OPLS_2005

> <r_lp_Energy>
26.9068

> <b_lp_Chiralities_Consistent>
1

> <s_lp_Variant>
AV-unprocessed.smi:2390-7

> <Gold.Version>
5.8.1

> <Gold.Id.Protein>
6NUR|6NUR_protein|mol2

> <Gold.PLP.Fitness>
51.8586

> <Gold.PLP.PLP>
-41.3233

> <Gold.PLP.part.hbond>
-4.8083

> <Gold.PLP.part.metal>
0.0000

> <Gold.PLP.part.buried>
-3.4582

> <Gold.PLP.part.nonpolar>
-33.2320

> <Gold.PLP.part.repulsive>
0.4697

> <Gold.PLP.ligand.clash>
0.0000

> <Gold.PLP.ligand.torsion>
0.3777

> <Gold.PLP.Chemscore.Hbond>
3.7154

> <Gold.PLP.Chemscore.CHOScore>
0.0000

> <Gold.PLP.Chemscore.Metal>
0.0000

> <Gold.Chemscore.Hbonds>
donor molecule, donor type, donor heavy atom, donor atom, acceptor molecule, acceptor atom, score
      L1  H     7    28       P1  8029  0.14
      L1  H    10    29       P1  8029  0.27
      L1  H    15    46       P1  8029  2.00
      P1  H  6933  6944       L1     9  0.84

> <Gold.PLP.Chemscore.Internal.Correction>
0.1445

> <Gold.Rescore>
     Score         DG    S(hbond)    S(metal)    S(lipo)     H(rot)  DE(clash)    DE(int)     intcor
     20.63     -22.53       2.49        0.00     107.07       1.48       0.29       1.60       ----

> <Gold.Chemscore.Fitness>
20.6337

> <Gold.Chemscore.DG>
-22.5251

> <Gold.Chemscore.ZeroCoef>
-5.4800

> <Gold.Chemscore.Hbond>
2.4903

> <Gold.Chemscore.Metal>
0.0000

> <Gold.Chemscore.Lipo>
107.0736

> <Gold.Chemscore.Internal_Hbond>
0.0000

> <Gold.Chemscore.DEClash>
0.2866

> <Gold.Chemscore.DEInternal>
1.6048

> <Gold.Chemscore.Rot>
1.4844

> <Gold.Chemscore.Internal.Correction>
   9.000000E+99

> <Gold.Chemscore.Hbonds>
donor molecule, donor type, donor heavy atom, donor atom, acceptor molecule, acceptor atom, score
      L1  H    10    29       P1  8029  0.16
      L1  H    15    46       P1  8029  0.96
      P1  H  6933  6944       L1     9  0.72

> <Gold.Chemscore.Hbond.Weighted>
-8.3175

> <Gold.Chemscore.Metal.Weighted>
-0.0000

> <Gold.Chemscore.Lipo.Weighted>
-12.5276

> <Gold.Chemscore.Internal_Hbond.Weighted>
0.0000

> <Gold.Chemscore.DEClash.Weighted>
0.2866

> <Gold.Chemscore.DEInternal.Weighted>
1.6048

> <Gold.Chemscore.Rot.Weighted>
3.8000

> <Gold.Chemscore.Internal.Correction.Weighted>
   9.000000E+99

> <Gold.Protein.RotatedTorsions>
[ 6907 6896 6895 6894 ] final   -4.51 input  -60.11 | X-H torsion
[ 7974 7965 7964 7962 ] final -117.37 input  175.53 | X-H torsion
[ 8008 7997 7996 7995 ] final    2.75 input   59.86 | X-H torsion
[ 10167 10162 10161 10158 ] final  -34.46 input  -65.29 | X-H torsion
[ 10718 10713 10712 10709 ] final  -62.43 input   66.30 | X-H torsion
[ 10763 10752 10751 10750 ] final  -87.78 input  -60.55 | X-H torsion
[ 11005 11000 10999 10996 ] final   28.72 input  -57.11 | X-H torsion

> <Gold.Protein.ActiveResidues>
 VAL166  LYS551  ARG553  GLY616  TRP617  ASP618  TYR619  PRO620  LYS621  CYS622 
 ASP623  PHE694  ASN695  SER759  ASP760  ASP761  ALA762  ILE779  LEU786  VAL792 
 PHE793  MET794  SER795  GLU796  ALA797  LYS798  CYS799  TRP800  GLU811  SER814 

> <Gold.Protein.RotatedAtoms>
  151.4965  135.1060  159.9817 H   0  0  0  0  0  0  0  0  0  0  0  0  # atno 6907 bound_to 6896
  152.4720  133.8046  159.6982 H   0  0  0  0  0  0  0  0  0  0  0  0  # atno 6908 bound_to 6896
  150.8734  133.7410  159.2980 H   0  0  0  0  0  0  0  0  0  0  0  0  # atno 6909 bound_to 6896
  145.0860  140.8458  143.4010 H   0  0  0  0  0  0  0  0  0  0  0  0  # atno 7974 bound_to 7965
  154.6953  140.2662  155.6772 H   0  0  0  0  0  0  0  0  0  0  0  0  # atno 8008 bound_to 7997
  156.2746  140.2783  156.1469 H   0  0  0  0  0  0  0  0  0  0  0  0  # atno 8009 bound_to 7997
  155.0839  140.0373  157.2638 H   0  0  0  0  0  0  0  0  0  0  0  0  # atno 8010 bound_to 7997
  140.7185  143.3547  151.2084 H   0  0  0  0  0  0  0  0  0  0  0  0  # atno 10167 bound_to 10162
  156.0855  130.4209  150.1134 H   0  0  0  0  0  0  0  0  0  0  0  0  # atno 10718 bound_to 10713
  154.6374  135.5401  153.7750 H   0  0  0  0  0  0  0  0  0  0  0  0  # atno 10763 bound_to 10752
  153.0316  135.6451  154.1211 H   0  0  0  0  0  0  0  0  0  0  0  0  # atno 10764 bound_to 10752
  154.1137  135.2925  155.3204 H   0  0  0  0  0  0  0  0  0  0  0  0  # atno 10765 bound_to 10752
  140.3125  134.2633  155.7731 H   0  0  0  0  0  0  0  0  0  0  0  0  # atno 11005 bound_to 11000
  145.1121  139.2750  143.5632 LP  0  0  0  0  0  0  0  0  0  0  0  0  # atno 17320 bound_to 7965
  146.3531  140.0720  142.8622 LP  0  0  0  0  0  0  0  0  0  0  0  0  # atno 17321 bound_to 7965
  139.7085  143.9415  152.2937 LP  0  0  0  0  0  0  0  0  0  0  0  0  # atno 17342 bound_to 10162
  139.9132  144.6844  150.8540 LP  0  0  0  0  0  0  0  0  0  0  0  0  # atno 17343 bound_to 10162
  156.9156  130.9666  151.3556 LP  0  0  0  0  0  0  0  0  0  0  0  0  # atno 17370 bound_to 10713
  157.5988  130.8497  149.8770 LP  0  0  0  0  0  0  0  0  0  0  0  0  # atno 17371 bound_to 10713
  141.2105  133.7718  156.9928 LP  0  0  0  0  0  0  0  0  0  0  0  0  # atno 17394 bound_to 11000
  140.1012  134.9534  157.1926 LP  0  0  0  0  0  0  0  0  0  0  0  0  # atno 17395 bound_to 11000

$$$$
