#       Name:                AV-unprocessed.smi:3031
#       Creating user name   scv26
#       Creation time:       Fri Mar 27 16:49:25 2020


#       File generated by GOLD software.
#

@<TRIPOS>MOLECULE
AV-unprocessed.smi:3031
    53    54     1
SMALL
NO_CHARGES


@<TRIPOS>ATOM
      1 ****        -1.6347   2.1378   5.7223 C.3            1 S1                 0.0000
      2 ****        -1.5028   0.9330   4.8361 C.2            1 S1                 0.0000
      3 ****        -0.3866   0.0584   4.7072 C.2            1 S1                 0.0000
      4 ****        -0.5923  -0.9115   3.8309 N.2            1 S1                 0.0000
      5 ****        -1.8443  -0.6938   3.3744 N.pl3          1 S1                 0.0000
      6 ****        -2.4146  -1.5766   2.3723 C.3            1 S1                 0.0000
      7 ****        -2.0438  -1.1484   0.9387 C.3            1 S1                 0.0000
      8 ****        -2.8430  -1.9552  -0.0976 C.3            1 S1                 0.0000
      9 ****        -0.5876  -1.3048   0.7213 N.4            1 S1                 1.0000
     10 ****        -0.0223  -0.5227  -0.3977 C.3            1 S1                 0.0000
     11 ****         1.5054  -0.6873  -0.4622 C.3            1 S1                 0.0000
     12 ****         1.8266  -1.9866  -0.9176 O.3            1 S1                 0.0000
     13 ****         2.2753   0.3530  -1.3090 C.3            1 S1                 0.0000
     14 ****         2.0288   0.3497  -2.7556 N.3            1 S1                 0.0000
     15 ****         3.1845   0.8731  -3.4799 C.3            1 S1                 0.0000
     16 ****         2.9633   0.8722  -5.0025 C.3            1 S1                 0.0000
     17 ****         1.8006   1.6314  -5.3140 O.3            1 S1                 0.0000
     18 ****         0.6353   1.1400  -4.6610 C.3            1 S1                 0.0000
     19 ****         0.8581   1.1406  -3.1383 C.3            1 S1                 0.0000
     20 ****        -2.4168   0.4128   3.9642 C.2            1 S1                 0.0000
     21 ****        -0.7986   2.2247   6.4166 H              1 S1                 0.0000
     22 ****        -2.5454   2.0996   6.3204 H              1 S1                 0.0000
     23 ****        -1.6679   3.0607   5.1432 H              1 S1                 0.0000
     24 ****         0.5629   0.1014   5.2205 H              1 S1                 0.0000
     25 ****        -2.0903  -2.5995   2.5710 H              1 S1                 0.0000
     26 ****        -3.4980  -1.5659   2.4985 H              1 S1                 0.0000
     27 ****        -2.3013  -0.0938   0.8279 H              1 S1                 0.0000
     28 ****        -3.9154  -1.8574   0.0744 H              1 S1                 0.0000
     29 ****        -2.5964  -3.0165  -0.0502 H              1 S1                 0.0000
     30 ****        -2.6499  -1.6128  -1.1141 H              1 S1                 0.0000
     31 ****        -0.1228  -0.9988   1.5650 H              1 S1                 0.0000
     32 ****        -0.4816  -0.8457  -1.3311 H              1 S1                 0.0000
     33 ****        -0.2724   0.5283  -0.2477 H              1 S1                 0.0000
     34 ****         1.8936  -0.6038   0.5540 H              1 S1                 0.0000
     35 ****         2.7677  -2.0703  -0.9516 H              1 S1                 0.0000
     36 ****         2.1086   1.3540  -0.9087 H              1 S1                 0.0000
     37 ****         3.3342   0.1546  -1.1351 H              1 S1                 0.0000
     38 ****         3.4024   1.8892  -3.1470 H              1 S1                 0.0000
     39 ****         4.0672   0.2749  -3.2509 H              1 S1                 0.0000
     40 ****         3.8224   1.3095  -5.5118 H              1 S1                 0.0000
     41 ****         2.8523  -0.1471  -5.3766 H              1 S1                 0.0000
     42 ****        -0.2123   1.7742  -4.9208 H              1 S1                 0.0000
     43 ****         0.4052   0.1347  -5.0177 H              1 S1                 0.0000
     44 ****        -0.0424   0.7654  -2.6613 H              1 S1                 0.0000
     45 ****         0.9805   2.1700  -2.7974 H              1 S1                 0.0000
     46 ****        -3.4170   0.7368   3.7159 H              1 S1                 0.0000
     47 ****        -0.3766  -2.2828   0.5815 H              1 S1                 0.0000
     48 ****         0.0378  -1.6415   3.5663 LP             1 S1                 0.0000
     49 ****         1.4427  -2.1283  -1.8300 LP             1 S1                 0.0000
     50 ****         1.4505  -2.6667  -0.2883 LP             1 S1                 0.0000
     51 ****         1.8599  -0.6056  -2.9979 LP             1 S1                 0.0000
     52 ****         1.6519   1.5986  -6.3023 LP             1 S1                 0.0000
     53 ****         1.9512   2.5786  -5.0308 LP             1 S1                 0.0000
@<TRIPOS>BOND
    1    1    2 1     
    2    1   21 1     
    3    1   22 1     
    4    1   23 1     
    5    2   20 2     
    6    2    3 1     
    7    3    4 2     
    8    3   24 1     
    9    4    5 1     
   10    5    6 1     
   11    5   20 1     
   12    6    7 1     
   13    6   25 1     
   14    6   26 1     
   15    7    8 1     
   16    7    9 1     
   17    7   27 1     
   18    8   28 1     
   19    8   29 1     
   20    8   30 1     
   21    9   10 1     
   22    9   31 1     
   23    9   47 1     
   24   10   11 1     
   25   10   32 1     
   26   10   33 1     
   27   11   12 1     
   28   11   13 1     
   29   11   34 1     
   30   12   35 1     
   31   13   14 1     
   32   13   36 1     
   33   13   37 1     
   34   14   19 1     
   35   14   15 1     
   36   15   16 1     
   37   15   38 1     
   38   15   39 1     
   39   16   17 1     
   40   16   40 1     
   41   16   41 1     
   42   17   18 1     
   43   18   19 1     
   44   18   42 1     
   45   18   43 1     
   46   19   44 1     
   47   19   45 1     
   48   20   46 1     
   49    4   48 1     
   50   12   49 1     
   51   12   50 1     
   52   14   51 1     
   53   17   52 1     
   54   17   53 1     
@<TRIPOS>SUBSTRUCTURE
      1 S1             1
@<TRIPOS>SET
LONE_PAIRS      STATIC     ATOMS    <user>   **** ""
6 48 49 50 51 52 53
DONOR_HYDROGENS      STATIC     ATOMS    <user>   **** ""
3 31 47 35
ATOM$BLUE        STATIC     ATOMS    COLORGROUP SYSTEM
6 48 49 50 51 52 53
ATOM$RED        STATIC     ATOMS    COLORGROUP SYSTEM
3 31 47 35
