AV-unprocessed.smi:436|AV-procd|sdf|2558|dock1
  -GOLD-   2262022523D 1   1.00000     0.00000
 Structure written by MMmdl.
 43 44  0  0  0  0  0  0  0  0  1 V2000
  144.3719  134.9088  150.2904 C   0  0  0  0  0  0  0  0  0  0  0  0
  144.9491  135.5772  151.5431 C   0  0  0  0  0  0  0  0  0  0  0  0
  145.7697  136.8322  151.2142 C   0  0  0  0  0  0  0  0  0  0  0  0
  145.9991  137.7289  152.4438 C   0  0  0  0  0  0  0  0  0  0  0  0
  146.9226  138.9314  152.1713 C   0  0  0  0  0  0  0  0  0  0  0  0
  147.3917  139.6335  153.4491 C   0  0  0  0  0  0  0  0  0  0  0  0
  146.5586  140.0133  154.2719 O   0  0  0  0  0  0  0  0  0  0  0  0
  148.7232  139.7829  153.5805 N   0  0  0  0  0  0  0  0  0  0  0  0
  149.4394  140.3943  154.6432 C   0  0  0  0  0  0  0  0  0  0  0  0
  148.7640  141.4496  155.2914 C   0  0  0  0  0  0  0  0  0  0  0  0
  149.3873  142.1165  156.3627 C   0  0  0  0  0  0  0  0  0  0  0  0
  150.6785  141.7200  156.7767 C   0  0  0  0  0  0  0  0  0  0  0  0
  151.3177  142.3705  157.8539 N   0  0  0  0  0  0  0  0  0  0  0  0
  151.6914  143.7644  157.6280 C   0  0  0  0  0  0  0  0  0  0  0  0
  152.0608  144.4416  158.9597 C   0  0  0  0  0  0  0  0  0  0  0  0
  153.0770  143.6917  159.6178 O   0  0  0  0  0  0  0  0  0  0  0  0
  152.6434  142.3714  159.9275 C   0  0  0  0  0  0  0  0  0  0  0  0
  152.3016  141.6207  158.6291 C   0  0  0  0  0  0  0  0  0  0  0  0
  151.2709  140.6472  156.0670 C   0  0  0  0  0  0  0  0  0  0  0  0
  150.6765  140.0092  155.0371 N   0  0  0  0  0  0  0  0  0  0  0  0
  143.7920  134.0241  150.5538 H   0  0  0  0  0  0  0  0  0  0  0  0
  145.1644  134.5965  149.6098 H   0  0  0  0  0  0  0  0  0  0  0  0
  143.7137  135.5889  149.7495 H   0  0  0  0  0  0  0  0  0  0  0  0
  144.1333  135.8395  152.2177 H   0  0  0  0  0  0  0  0  0  0  0  0
  145.5737  134.8606  152.0774 H   0  0  0  0  0  0  0  0  0  0  0  0
  146.7284  136.5300  150.7911 H   0  0  0  0  0  0  0  0  0  0  0  0
  145.2580  137.4050  150.4401 H   0  0  0  0  0  0  0  0  0  0  0  0
  145.0369  138.1058  152.7923 H   0  0  0  0  0  0  0  0  0  0  0  0
  146.3991  137.1317  153.2646 H   0  0  0  0  0  0  0  0  0  0  0  0
  147.7804  138.6138  151.5762 H   0  0  0  0  0  0  0  0  0  0  0  0
  146.3890  139.6652  151.5664 H   0  0  0  0  0  0  0  0  0  0  0  0
  149.2896  139.4017  152.8371 H   0  0  0  0  0  0  0  0  0  0  0  0
  147.7749  141.7487  154.9760 H   0  0  0  0  0  0  0  0  0  0  0  0
  148.8604  142.9141  156.8648 H   0  0  0  0  0  0  0  0  0  0  0  0
  152.5432  143.7939  156.9474 H   0  0  0  0  0  0  0  0  0  0  0  0
  150.8880  144.3268  157.1542 H   0  0  0  0  0  0  0  0  0  0  0  0
  152.4277  145.4518  158.7777 H   0  0  0  0  0  0  0  0  0  0  0  0
  151.1854  144.5328  159.6047 H   0  0  0  0  0  0  0  0  0  0  0  0
  153.4384  141.8522  160.4627 H   0  0  0  0  0  0  0  0  0  0  0  0
  151.7808  142.4071  160.5949 H   0  0  0  0  0  0  0  0  0  0  0  0
  151.9136  140.6319  158.8766 H   0  0  0  0  0  0  0  0  0  0  0  0
  153.2040  141.4817  158.0321 H   0  0  0  0  0  0  0  0  0  0  0  0
  152.2566  140.2807  156.3106 H   0  0  0  0  0  0  0  0  0  0  0  0
  1  2  1  0  0  0  0
  1 21  1  0  0  0  0
  1 22  1  0  0  0  0
  1 23  1  0  0  0  0
  2  3  1  0  0  0  0
  2 24  1  0  0  0  0
  2 25  1  0  0  0  0
  3  4  1  0  0  0  0
  3 26  1  0  0  0  0
  3 27  1  0  0  0  0
  4  5  1  0  0  0  0
  4 28  1  0  0  0  0
  4 29  1  0  0  0  0
  5  6  1  0  0  0  0
  5 30  1  0  0  0  0
  5 31  1  0  0  0  0
  6  7  2  0  0  0  0
  6  8  1  0  0  0  0
  8  9  1  0  0  0  0
  8 32  1  0  0  0  0
  9 20  1  0  0  0  0
  9 10  2  0  0  0  0
 10 11  1  0  0  0  0
 10 33  1  0  0  0  0
 11 12  2  0  0  0  0
 11 34  1  0  0  0  0
 12 13  1  0  0  0  0
 12 19  1  0  0  0  0
 13 18  1  0  0  0  0
 13 14  1  0  0  0  0
 14 15  1  0  0  0  0
 14 35  1  0  0  0  0
 14 36  1  0  0  0  0
 15 16  1  0  0  0  0
 15 37  1  0  0  0  0
 15 38  1  0  0  0  0
 16 17  1  0  0  0  0
 17 18  1  0  0  0  0
 17 39  1  0  0  0  0
 17 40  1  0  0  0  0
 18 41  1  0  0  0  0
 18 42  1  0  0  0  0
 19 20  2  0  0  0  0
 19 43  1  0  0  0  0
M  END
> <s_m_source_file>
AV-unprocessed.smi

> <i_m_source_file_index>
436

> <i_lp_mmshare_version>
43012

> <i_f3d_flags>
0

> <s_epik_input>
W0NIM11bQ0gyXVtDSDJdW0NIMl1bQ0gyXUMoPU8pW05IXWMxW2NIXVtjSF1jKFtjSF1uMSlOMltDSDJdW0NIMl1PW0NIMl1bQ0gyXTI=

> <s_epik_cmdline>
J2VwaWtfcHl0aG9uJywgJy1waCcsICc3LjAnLCAnLXRuJywgJzgnLCAnLW1hJywgJzIwMCcsICctbWV0YWxfYmluZGluZycsICctaW1hZScsICc8aW5maWxlLm1hZT4nLCAnLW9tYWUnLCAnPG91dGZpbGUubWFlPic=

> <r_lp_tautomer_probability>
1

> <r_epik_Ionization_Penalty>
0.00316644

> <r_epik_Ionization_Penalty_Charging>
0

> <r_epik_Ionization_Penalty_Neutral>
0.00316644

> <r_epik_State_Penalty>
0.00292554

> <r_epik_Charging_Adjusted_Penalty>
0.00292554

> <i_epik_Tot_Q>
0

> <i_epik_Tot_abs_Q>
0

> <r_epik_Metal_State_Penalty>
-0

> <b_epik_Metal_Only>
0

> <s_lp_Force_Field>
OPLS_2005

> <r_lp_Energy>
23.5001

> <b_lp_Chiralities_Consistent>
1

> <s_lp_Variant>
AV-unprocessed.smi:436-1

> <Gold.Version>
5.8.1

> <Gold.Id.Protein>
6NUR|6NUR_protein|mol2

> <Gold.PLP.Fitness>
45.8602

> <Gold.PLP.PLP>
-41.3098

> <Gold.PLP.part.hbond>
-2.0000

> <Gold.PLP.part.metal>
0.0000

> <Gold.PLP.part.buried>
1.6803

> <Gold.PLP.part.nonpolar>
-40.8602

> <Gold.PLP.part.repulsive>
0.3405

> <Gold.PLP.ligand.clash>
0.0000

> <Gold.PLP.ligand.torsion>
0.7696

> <Gold.PLP.Chemscore.Hbond>
1.8960

> <Gold.PLP.Chemscore.CHOScore>
0.0000

> <Gold.PLP.Chemscore.Metal>
0.0000

> <Gold.Chemscore.Hbonds>
donor molecule, donor type, donor heavy atom, donor atom, acceptor molecule, acceptor atom, score
      L1  H     8    32       P1  7957  0.61
      P1  H  7989  7998       L1    20  0.75

> <Gold.PLP.Chemscore.Internal.Correction>
0.4015

> <Gold.Rescore>
     Score         DG    S(hbond)    S(metal)    S(lipo)     H(rot)  DE(clash)    DE(int)     intcor
     13.33     -17.24       0.98        0.00     106.34       1.55       1.62       2.29       ----

> <Gold.Chemscore.Fitness>
13.3289

> <Gold.Chemscore.DG>
-17.2381

> <Gold.Chemscore.ZeroCoef>
-5.4800

> <Gold.Chemscore.Hbond>
0.9841

> <Gold.Chemscore.Metal>
0.0000

> <Gold.Chemscore.Lipo>
106.3389

> <Gold.Chemscore.Internal_Hbond>
0.0000

> <Gold.Chemscore.DEClash>
1.6211

> <Gold.Chemscore.DEInternal>
2.2880

> <Gold.Chemscore.Rot>
1.5509

> <Gold.Chemscore.Internal.Correction>
   9.000000E+99

> <Gold.Chemscore.Hbonds>
donor molecule, donor type, donor heavy atom, donor atom, acceptor molecule, acceptor atom, score
      L1  H     8    32       P1  7957  0.62
      P1  H  7989  7998       L1    20  0.02

> <Gold.Chemscore.Hbond.Weighted>
-3.2869

> <Gold.Chemscore.Metal.Weighted>
-0.0000

> <Gold.Chemscore.Lipo.Weighted>
-12.4416

> <Gold.Chemscore.Internal_Hbond.Weighted>
0.0000

> <Gold.Chemscore.DEClash.Weighted>
1.6211

> <Gold.Chemscore.DEInternal.Weighted>
2.2880

> <Gold.Chemscore.Rot.Weighted>
3.9704

> <Gold.Chemscore.Internal.Correction.Weighted>
   9.000000E+99

> <Gold.Protein.RotatedTorsions>
[ 6907 6896 6895 6894 ] final   95.68 input  -60.11 | X-H torsion
[ 7974 7965 7964 7962 ] final  -22.12 input  175.53 | X-H torsion
[ 8008 7997 7996 7995 ] final   -2.22 input   59.86 | X-H torsion
[ 10167 10162 10161 10158 ] final  154.35 input  -65.29 | X-H torsion
[ 10718 10713 10712 10709 ] final   -4.89 input   66.30 | X-H torsion
[ 10763 10752 10751 10750 ] final  173.60 input  -60.55 | X-H torsion
[ 11005 11000 10999 10996 ] final  -16.40 input  -57.11 | X-H torsion

> <Gold.Protein.ActiveResidues>
 VAL166  LYS551  ARG553  GLY616  TRP617  ASP618  TYR619  PRO620  LYS621  CYS622 
 ASP623  PHE694  ASN695  SER759  ASP760  ASP761  ALA762  ILE779  LEU786  VAL792 
 PHE793  MET794  SER795  GLU796  ALA797  LYS798  CYS799  TRP800  GLU811  SER814 

> <Gold.Protein.RotatedAtoms>
  152.5441  134.1002  159.8314 H   0  0  0  0  0  0  0  0  0  0  0  0  # atno 6907 bound_to 6896
  151.1081  133.5186  159.2614 H   0  0  0  0  0  0  0  0  0  0  0  0  # atno 6908 bound_to 6896
  151.1915  135.0414  159.8889 H   0  0  0  0  0  0  0  0  0  0  0  0  # atno 6909 bound_to 6896
  146.1694  140.4436  142.8539 H   0  0  0  0  0  0  0  0  0  0  0  0  # atno 7974 bound_to 7965
  154.6381  140.2540  155.7354 H   0  0  0  0  0  0  0  0  0  0  0  0  # atno 8008 bound_to 7997
  156.2515  140.2893  156.0683 H   0  0  0  0  0  0  0  0  0  0  0  0  # atno 8009 bound_to 7997
  155.1639  140.0385  157.2839 H   0  0  0  0  0  0  0  0  0  0  0  0  # atno 8010 bound_to 7997
  139.4823  144.5194  151.7900 H   0  0  0  0  0  0  0  0  0  0  0  0  # atno 10167 bound_to 10162
  156.7547  130.5250  149.5797 H   0  0  0  0  0  0  0  0  0  0  0  0  # atno 10718 bound_to 10713
  154.4422  135.2762  155.1839 H   0  0  0  0  0  0  0  0  0  0  0  0  # atno 10763 bound_to 10752
  154.3701  135.6110  153.5739 H   0  0  0  0  0  0  0  0  0  0  0  0  # atno 10764 bound_to 10752
  152.9841  135.5855  154.4752 H   0  0  0  0  0  0  0  0  0  0  0  0  # atno 10765 bound_to 10752
  140.8064  133.8174  155.9520 H   0  0  0  0  0  0  0  0  0  0  0  0  # atno 11005 bound_to 11000
  144.8140  140.6435  143.6397 LP  0  0  0  0  0  0  0  0  0  0  0  0  # atno 17320 bound_to 7965
  145.4382  139.1539  143.3985 LP  0  0  0  0  0  0  0  0  0  0  0  0  # atno 17321 bound_to 7965
  140.4706  144.1592  150.5917 LP  0  0  0  0  0  0  0  0  0  0  0  0  # atno 17342 bound_to 10162
  140.4386  143.2536  151.9502 LP  0  0  0  0  0  0  0  0  0  0  0  0  # atno 17343 bound_to 10162
  156.1378  130.6223  151.0425 LP  0  0  0  0  0  0  0  0  0  0  0  0  # atno 17370 bound_to 10713
  157.6762  131.0850  150.7489 LP  0  0  0  0  0  0  0  0  0  0  0  0  # atno 17371 bound_to 10713
  140.9242  134.2103  157.4906 LP  0  0  0  0  0  0  0  0  0  0  0  0  # atno 17394 bound_to 11000
  139.8717  134.9805  156.5080 LP  0  0  0  0  0  0  0  0  0  0  0  0  # atno 17395 bound_to 11000

$$$$
