AV-unprocessed.smi:1859|AV-procd|sdf|7545|dock8
  -GOLD-   22720 9263D 1   1.00000     0.00000
 Structure written by MMmdl.
 46 48  0  0  0  0  0  0  0  0  2 V2000
  149.1435  137.9318  155.3296 O   0  0  0  0  0  0  0  0  0  0  0  0
  149.2615  137.9781  156.5545 C   0  0  0  0  0  0  0  0  0  0  0  0
  149.8156  139.0175  157.1984 N   0  0  0  0  0  0  0  0  0  0  0  0
  150.3317  140.2189  156.5525 C   0  0  0  0  0  0  0  0  0  0  0  0
  149.7232  141.4973  157.1542 C   0  0  0  0  0  0  0  0  0  0  0  0
  150.7846  142.4502  157.6673 C   0  0  0  0  0  0  0  0  0  0  0  0
  151.7552  142.0503  158.6114 C   0  0  0  0  0  0  0  0  0  0  0  0
  152.7219  142.9821  159.0430 C   0  0  0  0  0  0  0  0  0  0  0  0
  152.6983  144.2924  158.5215 C   0  0  0  0  0  0  0  0  0  0  0  0
  151.7084  144.6372  157.5786 C   0  0  0  0  0  0  0  0  0  0  0  0
  150.7999  143.7156  157.1892 N   0  3  0  0  0  0  0  0  0  0  0  0
  148.7633  136.8168  157.4245 C   0  0  2  0  0  0  0  0  0  0  0  0
  148.0755  135.7315  156.5630 C   0  0  0  0  0  0  0  0  0  0  0  0
  147.4439  134.6265  157.4320 C   0  0  0  0  0  0  0  0  0  0  0  0
  146.5499  135.2362  158.5262 C   0  0  0  0  0  0  0  0  0  0  0  0
  147.3552  136.1717  159.3245 N   0  0  0  0  0  0  0  0  0  0  0  0
  147.7502  135.9910  160.6098 C   0  0  0  0  0  0  0  0  0  0  0  0
  148.4109  136.8351  161.2170 O   0  0  0  0  0  0  0  0  0  0  0  0
  147.3694  134.6997  161.2680 C   0  0  0  0  0  0  0  0  0  0  0  0
  147.8661  134.4796  162.6813 C   0  0  0  0  0  0  0  0  0  0  0  0
  148.4622  133.6840  161.5500 C   0  0  0  0  0  0  0  0  0  0  0  0
  147.7924  137.3190  158.5182 C   0  0  0  0  0  0  0  0  0  0  0  0
  149.8714  138.9768  158.2061 H   0  0  0  0  0  0  0  0  0  0  0  0
  151.4199  140.2399  156.6330 H   0  0  0  0  0  0  0  0  0  0  0  0
  150.1005  140.1592  155.4887 H   0  0  0  0  0  0  0  0  0  0  0  0
  149.1147  142.0098  156.4075 H   0  0  0  0  0  0  0  0  0  0  0  0
  149.0523  141.2487  157.9775 H   0  0  0  0  0  0  0  0  0  0  0  0
  151.7619  141.0416  158.9990 H   0  0  0  0  0  0  0  0  0  0  0  0
  153.4725  142.6949  159.7648 H   0  0  0  0  0  0  0  0  0  0  0  0
  153.4295  145.0213  158.8393 H   0  0  0  0  0  0  0  0  0  0  0  0
  151.6161  145.6145  157.1278 H   0  0  0  0  0  0  0  0  0  0  0  0
  149.6240  136.3636  157.9202 H   0  0  0  0  0  0  0  0  0  0  0  0
  147.2934  136.1850  155.9518 H   0  0  0  0  0  0  0  0  0  0  0  0
  148.7906  135.2901  155.8678 H   0  0  0  0  0  0  0  0  0  0  0  0
  146.8634  133.9472  156.8072 H   0  0  0  0  0  0  0  0  0  0  0  0
  148.2300  134.0284  157.8944 H   0  0  0  0  0  0  0  0  0  0  0  0
  145.7242  135.7805  158.0659 H   0  0  0  0  0  0  0  0  0  0  0  0
  146.0765  134.4494  159.1116 H   0  0  0  0  0  0  0  0  0  0  0  0
  146.4003  134.2828  160.9997 H   0  0  0  0  0  0  0  0  0  0  0  0
  148.4881  135.2506  163.1330 H   0  0  0  0  0  0  0  0  0  0  0  0
  147.1918  133.9710  163.3670 H   0  0  0  0  0  0  0  0  0  0  0  0
  148.1918  132.6334  161.4685 H   0  0  0  0  0  0  0  0  0  0  0  0
  149.4886  133.9146  161.2711 H   0  0  0  0  0  0  0  0  0  0  0  0
  148.2708  138.0962  159.1166 H   0  0  0  0  0  0  0  0  0  0  0  0
  146.9168  137.7926  158.0702 H   0  0  0  0  0  0  0  0  0  0  0  0
  150.0928  143.9874  156.5057 H   0  0  0  0  0  0  0  0  0  0  0  0
  1  2  2  0  0  0  0
  2  3  1  0  0  0  0
  2 12  1  0  0  0  0
  3  4  1  0  0  0  0
  3 23  1  0  0  0  0
  4  5  1  0  0  0  0
  4 24  1  0  0  0  0
  4 25  1  0  0  0  0
  5  6  1  0  0  0  0
  5 26  1  0  0  0  0
  5 27  1  0  0  0  0
  6 11  1  0  0  0  0
  6  7  2  0  0  0  0
  7  8  1  0  0  0  0
  7 28  1  0  0  0  0
  8  9  2  0  0  0  0
  8 29  1  0  0  0  0
  9 10  1  0  0  0  0
  9 30  1  0  0  0  0
 10 11  2  0  0  0  0
 10 31  1  0  0  0  0
 11 46  1  0  0  0  0
 12 22  1  0  0  0  0
 12 13  1  0  0  0  0
 12 32  1  0  0  0  0
 13 14  1  0  0  0  0
 13 33  1  0  0  0  0
 13 34  1  0  0  0  0
 14 15  1  0  0  0  0
 14 35  1  0  0  0  0
 14 36  1  0  0  0  0
 15 16  1  0  0  0  0
 15 37  1  0  0  0  0
 15 38  1  0  0  0  0
 16 17  1  0  0  0  0
 16 22  1  0  0  0  0
 17 18  2  0  0  0  0
 17 19  1  0  0  0  0
 19 21  1  0  0  0  0
 19 20  1  0  0  0  0
 19 39  1  0  0  0  0
 20 21  1  0  0  0  0
 20 40  1  0  0  0  0
 20 41  1  0  0  0  0
 21 42  1  0  0  0  0
 21 43  1  0  0  0  0
 22 44  1  0  0  0  0
 22 45  1  0  0  0  0
M  CHG  1  11   1
M  END
> <s_m_source_file>
AV-unprocessed.smi

> <i_m_source_file_index>
1859

> <i_lp_mmshare_version>
43012

> <i_f3d_flags>
0

> <s_epik_input>
W0NIMl0xW0NIMl1bQ0hdMUMoPU8pTihbQ0gyXTIpW0NIMl1bQ0gyXVtDSDJdW0NASF0yQyg9TylbTkhdW0NIMl1bQ0gyXWMzW2NIXVtjSF1bY0hdW2NIXW4z

> <s_epik_cmdline>
J2VwaWtfcHl0aG9uJywgJy1waCcsICc3LjAnLCAnLXRuJywgJzgnLCAnLW1hJywgJzIwMCcsICctbWV0YWxfYmluZGluZycsICctaW1hZScsICc8aW5maWxlLm1hZT4nLCAnLW9tYWUnLCAnPG91dGZpbGUubWFlPic=

> <r_epik_Ionization_Penalty>
1.84754

> <r_epik_Ionization_Penalty_Charging>
1.84754

> <r_epik_Ionization_Penalty_Neutral>
7.35743e-08

> <r_epik_State_Penalty>
1.96477

> <r_epik_Charging_Adjusted_Penalty>
3.81231

> <i_epik_Tot_Q>
1

> <i_epik_Tot_abs_Q>
1

> <r_epik_Metal_State_Penalty>
1.99062

> <b_epik_Metal_Only>
0

> <s_lp_Force_Field>
OPLS_2005

> <r_lp_Energy>
35.3834

> <b_lp_Chiralities_Consistent>
1

> <s_lp_Variant>
AV-unprocessed.smi:1859-3

> <Gold.Version>
5.8.1

> <Gold.Id.Protein>
6NUR|6NUR_protein|mol2

> <Gold.PLP.Fitness>
46.0624

> <Gold.PLP.PLP>
-35.9062

> <Gold.PLP.part.hbond>
-3.0000

> <Gold.PLP.part.metal>
0.0000

> <Gold.PLP.part.buried>
-4.7222

> <Gold.PLP.part.nonpolar>
-28.1732

> <Gold.PLP.part.repulsive>
0.1089

> <Gold.PLP.ligand.clash>
0.0000

> <Gold.PLP.ligand.torsion>
0.5763

> <Gold.PLP.Chemscore.Hbond>
3.7296

> <Gold.PLP.Chemscore.CHOScore>
0.0000

> <Gold.PLP.Chemscore.Metal>
0.0000

> <Gold.Chemscore.Hbonds>
donor molecule, donor type, donor heavy atom, donor atom, acceptor molecule, acceptor atom, score
      L1  H    11    46       P1  8028  2.00
      P1  H  6931  6943       L1    18  1.00

> <Gold.PLP.Chemscore.Internal.Correction>
0.1200

> <Gold.Rescore>
     Score         DG    S(hbond)    S(metal)    S(lipo)     H(rot)  DE(clash)    DE(int)     intcor
     21.05     -21.64       2.76        0.00      96.45       1.70       0.02       0.57       ----

> <Gold.Chemscore.Fitness>
21.0476

> <Gold.Chemscore.DG>
-21.6411

> <Gold.Chemscore.ZeroCoef>
-5.4800

> <Gold.Chemscore.Hbond>
2.7616

> <Gold.Chemscore.Metal>
0.0000

> <Gold.Chemscore.Lipo>
96.4459

> <Gold.Chemscore.Internal_Hbond>
0.0000

> <Gold.Chemscore.DEClash>
0.0224

> <Gold.Chemscore.DEInternal>
0.5712

> <Gold.Chemscore.Rot>
1.6980

> <Gold.Chemscore.Internal.Correction>
   9.000000E+99

> <Gold.Chemscore.Hbonds>
donor molecule, donor type, donor heavy atom, donor atom, acceptor molecule, acceptor atom, score
      L1  H    11    46       P1  8028  0.99
      P1  H  6931  6943       L1    18  1.00

> <Gold.Chemscore.Hbond.Weighted>
-9.2239

> <Gold.Chemscore.Metal.Weighted>
-0.0000

> <Gold.Chemscore.Lipo.Weighted>
-11.2842

> <Gold.Chemscore.Internal_Hbond.Weighted>
0.0000

> <Gold.Chemscore.DEClash.Weighted>
0.0224

> <Gold.Chemscore.DEInternal.Weighted>
0.5712

> <Gold.Chemscore.Rot.Weighted>
4.3469

> <Gold.Chemscore.Internal.Correction.Weighted>
   9.000000E+99

> <Gold.Protein.RotatedTorsions>
[ 6907 6896 6895 6894 ] final  115.64 input  -60.11 | X-H torsion
[ 7974 7965 7964 7962 ] final  175.84 input  175.53 | X-H torsion
[ 8008 7997 7996 7995 ] final  -33.34 input   59.86 | X-H torsion
[ 10167 10162 10161 10158 ] final  171.27 input  -65.29 | X-H torsion
[ 10718 10713 10712 10709 ] final  167.76 input   66.30 | X-H torsion
[ 10763 10752 10751 10750 ] final  176.52 input  -60.55 | X-H torsion
[ 11005 11000 10999 10996 ] final  -45.47 input  -57.11 | X-H torsion

> <Gold.Protein.ActiveResidues>
 VAL166  LYS551  ARG553  GLY616  TRP617  ASP618  TYR619  PRO620  LYS621  CYS622 
 ASP623  PHE694  ASN695  SER759  ASP760  ASP761  ALA762  ILE779  LEU786  VAL792 
 PHE793  MET794  SER795  GLU796  ALA797  LYS798  CYS799  TRP800  GLU811  SER814 

> <Gold.Protein.RotatedAtoms>
  152.4729  133.8070  159.6982 H   0  0  0  0  0  0  0  0  0  0  0  0  # atno 6907 bound_to 6896
  150.8728  133.7472  159.2962 H   0  0  0  0  0  0  0  0  0  0  0  0  # atno 6908 bound_to 6896
  151.5001  135.1065  159.9879 H   0  0  0  0  0  0  0  0  0  0  0  0  # atno 6909 bound_to 6896
  144.7194  140.0007  143.6440 H   0  0  0  0  0  0  0  0  0  0  0  0  # atno 7974 bound_to 7965
  154.4152  140.1713  156.1872 H   0  0  0  0  0  0  0  0  0  0  0  0  # atno 8008 bound_to 7997
  155.9634  140.3391  155.6487 H   0  0  0  0  0  0  0  0  0  0  0  0  # atno 8009 bound_to 7997
  155.6719  140.0712  157.2507 H   0  0  0  0  0  0  0  0  0  0  0  0  # atno 8010 bound_to 7997
  139.5042  144.3504  151.9928 H   0  0  0  0  0  0  0  0  0  0  0  0  # atno 10167 bound_to 10162
  157.0469  131.0302  151.2694 H   0  0  0  0  0  0  0  0  0  0  0  0  # atno 10718 bound_to 10713
  154.4823  135.2775  155.1561 H   0  0  0  0  0  0  0  0  0  0  0  0  # atno 10763 bound_to 10752
  154.3266  135.6198  153.5536 H   0  0  0  0  0  0  0  0  0  0  0  0  # atno 10764 bound_to 10752
  152.9877  135.5755  154.5226 H   0  0  0  0  0  0  0  0  0  0  0  0  # atno 10765 bound_to 10752
  141.0517  133.6740  156.3018 H   0  0  0  0  0  0  0  0  0  0  0  0  # atno 11005 bound_to 11000
  146.0338  139.3358  143.0739 LP  0  0  0  0  0  0  0  0  0  0  0  0  # atno 17320 bound_to 7965
  145.8420  140.9575  143.0794 LP  0  0  0  0  0  0  0  0  0  0  0  0  # atno 17321 bound_to 7965
  140.2941  144.3721  150.6080 LP  0  0  0  0  0  0  0  0  0  0  0  0  # atno 17342 bound_to 10162
  140.5924  143.2167  151.7228 LP  0  0  0  0  0  0  0  0  0  0  0  0  # atno 17343 bound_to 10162
  157.5061  130.7910  149.7655 LP  0  0  0  0  0  0  0  0  0  0  0  0  # atno 17370 bound_to 10713
  156.0020  130.3875  150.2570 LP  0  0  0  0  0  0  0  0  0  0  0  0  # atno 17371 bound_to 10713
  140.6041  134.5524  157.5522 LP  0  0  0  0  0  0  0  0  0  0  0  0  # atno 17394 bound_to 11000
  139.9356  134.7881  156.0811 LP  0  0  0  0  0  0  0  0  0  0  0  0  # atno 17395 bound_to 11000

$$$$
