AV-unprocessed.smi:1982|AV-procd|sdf|8022|dock3
  -GOLD-   2272010213D 1   1.00000     0.00000
 Structure written by MMmdl.
 36 37  0  0  0  0  0  0  0  0  1 V2000
  153.1557  142.7486  162.4879 C   0  0  0  0  0  0  0  0  0  0  0  0
  152.9607  143.5037  161.1599 C   0  0  2  0  0  0  0  0  0  0  0  0
  152.0039  144.6930  161.3800 C   0  0  0  0  0  0  0  0  0  0  0  0
  151.7945  145.5033  160.0962 C   0  0  0  0  0  0  0  0  0  0  0  0
  151.2599  144.6073  158.9751 C   0  0  0  0  0  0  0  0  0  0  0  0
  152.1991  143.4149  158.7166 C   0  0  2  0  0  0  0  0  0  0  0  0
  151.6200  142.5626  157.6817 N   0  0  0  0  0  0  0  0  0  0  0  0
  150.4235  141.9572  157.7400 C   0  0  0  0  0  0  0  0  0  0  0  0
  149.6936  141.9854  158.7301 O   0  0  0  0  0  0  0  0  0  0  0  0
  149.9760  141.2124  156.4811 C   0  0  0  0  0  0  0  0  0  0  0  0
  150.9328  140.1826  156.1156 N   0  0  0  0  0  0  0  0  0  0  0  0
  152.0132  139.7230  156.7504 C   0  0  0  0  0  0  0  0  0  0  0  0
  152.6005  138.7486  156.0728 N   0  0  0  0  0  0  0  0  0  0  0  0
  151.8048  138.6245  154.9464 N   0  0  0  0  0  0  0  0  0  0  0  0
  150.8141  139.4730  154.9657 N   0  0  0  0  0  0  0  0  0  0  0  0
  152.4616  142.5892  160.0053 C   0  0  1  0  0  0  0  0  0  0  0  0
  153.4352  141.4220  159.7259 C   0  0  0  0  0  0  0  0  0  0  0  0
  152.2421  142.2364  162.7913 H   0  0  0  0  0  0  0  0  0  0  0  0
  153.4319  143.4331  163.2904 H   0  0  0  0  0  0  0  0  0  0  0  0
  153.9517  142.0079  162.4229 H   0  0  0  0  0  0  0  0  0  0  0  0
  153.9304  143.9123  160.8711 H   0  0  0  0  0  0  0  0  0  0  0  0
  151.0408  144.3302  161.7418 H   0  0  0  0  0  0  0  0  0  0  0  0
  152.3962  145.3492  162.1577 H   0  0  0  0  0  0  0  0  0  0  0  0
  151.0991  146.3223  160.2817 H   0  0  0  0  0  0  0  0  0  0  0  0
  152.7367  145.9585  159.7883 H   0  0  0  0  0  0  0  0  0  0  0  0
  150.2656  144.2461  159.2422 H   0  0  0  0  0  0  0  0  0  0  0  0
  151.1405  145.1959  158.0645 H   0  0  0  0  0  0  0  0  0  0  0  0
  153.1589  143.8028  158.3687 H   0  0  0  0  0  0  0  0  0  0  0  0
  152.1501  142.4718  156.8267 H   0  0  0  0  0  0  0  0  0  0  0  0
  148.9965  140.7615  156.6472 H   0  0  0  0  0  0  0  0  0  0  0  0
  149.8770  141.9077  155.6468 H   0  0  0  0  0  0  0  0  0  0  0  0
  152.3593  140.0917  157.7047 H   0  0  0  0  0  0  0  0  0  0  0  0
  151.5112  142.1525  160.3178 H   0  0  0  0  0  0  0  0  0  0  0  0
  154.4241  141.7906  159.4521 H   0  0  0  0  0  0  0  0  0  0  0  0
  153.0865  140.7836  158.9141 H   0  0  0  0  0  0  0  0  0  0  0  0
  153.5490  140.7716  160.5922 H   0  0  0  0  0  0  0  0  0  0  0  0
  1  2  1  0  0  0  0
  1 18  1  0  0  0  0
  1 19  1  0  0  0  0
  1 20  1  0  0  0  0
  2 16  1  0  0  0  0
  2  3  1  0  0  0  0
  2 21  1  0  0  0  0
  3  4  1  0  0  0  0
  3 22  1  0  0  0  0
  3 23  1  0  0  0  0
  4  5  1  0  0  0  0
  4 24  1  0  0  0  0
  4 25  1  0  0  0  0
  5  6  1  0  0  0  0
  5 26  1  0  0  0  0
  5 27  1  0  0  0  0
  6  7  1  0  0  0  0
  6 16  1  0  0  0  0
  6 28  1  0  0  0  0
  7  8  1  0  0  0  0
  7 29  1  0  0  0  0
  8  9  2  0  0  0  0
  8 10  1  0  0  0  0
 10 11  1  0  0  0  0
 10 30  1  0  0  0  0
 10 31  1  0  0  0  0
 11 15  1  0  0  0  0
 11 12  1  0  0  0  0
 12 13  2  0  0  0  0
 12 32  1  0  0  0  0
 13 14  1  0  0  0  0
 14 15  2  0  0  0  0
 16 17  1  0  0  0  0
 16 33  1  0  0  0  0
 17 34  1  0  0  0  0
 17 35  1  0  0  0  0
 17 36  1  0  0  0  0
M  END
> <s_m_source_file>
AV-unprocessed.smi

> <i_m_source_file_index>
1982

> <i_lp_mmshare_version>
43012

> <i_f3d_flags>
0

> <s_epik_input>
W0NIM11bQ0BASF0xW0NIMl1bQ0gyXVtDSDJdW0NASF0oW0NASF0xW0NIM10pW05IXUMoPU8pW0NIMl1uMltjSF1ubm4y

> <s_epik_cmdline>
J2VwaWtfcHl0aG9uJywgJy1waCcsICc3LjAnLCAnLXRuJywgJzgnLCAnLW1hJywgJzIwMCcsICctbWV0YWxfYmluZGluZycsICctaW1hZScsICc8aW5maWxlLm1hZT4nLCAnLW9tYWUnLCAnPG91dGZpbGUubWFlPic=

> <r_lp_tautomer_probability>
1

> <r_epik_Ionization_Penalty>
5.03816e-07

> <r_epik_Ionization_Penalty_Charging>
0

> <r_epik_Ionization_Penalty_Neutral>
5.03816e-07

> <r_epik_State_Penalty>
-0

> <r_epik_Charging_Adjusted_Penalty>
0

> <i_epik_Tot_Q>
0

> <i_epik_Tot_abs_Q>
0

> <r_epik_Metal_State_Penalty>
-0

> <b_epik_Metal_Only>
0

> <s_lp_Force_Field>
OPLS_2005

> <r_lp_Energy>
13.7929

> <b_lp_Chiralities_Consistent>
1

> <s_lp_Variant>
AV-unprocessed.smi:1982-3

> <Gold.Version>
5.8.1

> <Gold.Id.Protein>
6NUR|6NUR_protein|mol2

> <Gold.PLP.Fitness>
44.5289

> <Gold.PLP.PLP>
-41.6381

> <Gold.PLP.part.hbond>
-2.5439

> <Gold.PLP.part.metal>
0.0000

> <Gold.PLP.part.buried>
-1.9924

> <Gold.PLP.part.nonpolar>
-36.9383

> <Gold.PLP.part.repulsive>
0.2560

> <Gold.PLP.ligand.clash>
0.0000

> <Gold.PLP.ligand.torsion>
0.0587

> <Gold.PLP.Chemscore.Hbond>
1.0000

> <Gold.PLP.Chemscore.CHOScore>
0.0000

> <Gold.PLP.Chemscore.Metal>
0.0000

> <Gold.Chemscore.Hbonds>
donor molecule, donor type, donor heavy atom, donor atom, acceptor molecule, acceptor atom, score
      P1  H  7989  7998       L1    15  0.52

> <Gold.PLP.Chemscore.Internal.Correction>
0.0082

> <Gold.Rescore>
     Score         DG    S(hbond)    S(metal)    S(lipo)     H(rot)  DE(clash)    DE(int)     intcor
     13.05     -14.89       0.75        0.00     100.70       1.91       0.90       0.94       ----

> <Gold.Chemscore.Fitness>
13.0509

> <Gold.Chemscore.DG>
-14.8925

> <Gold.Chemscore.ZeroCoef>
-5.4800

> <Gold.Chemscore.Hbond>
0.7515

> <Gold.Chemscore.Metal>
0.0000

> <Gold.Chemscore.Lipo>
100.6958

> <Gold.Chemscore.Internal_Hbond>
0.0000

> <Gold.Chemscore.DEClash>
0.9007

> <Gold.Chemscore.DEInternal>
0.9409

> <Gold.Chemscore.Rot>
1.9058

> <Gold.Chemscore.Internal.Correction>
   9.000000E+99

> <Gold.Chemscore.Hbonds>
donor molecule, donor type, donor heavy atom, donor atom, acceptor molecule, acceptor atom, score
      P1  H  7989  7998       L1    15  0.03

> <Gold.Chemscore.Hbond.Weighted>
-2.5099

> <Gold.Chemscore.Metal.Weighted>
-0.0000

> <Gold.Chemscore.Lipo.Weighted>
-11.7814

> <Gold.Chemscore.Internal_Hbond.Weighted>
0.0000

> <Gold.Chemscore.DEClash.Weighted>
0.9007

> <Gold.Chemscore.DEInternal.Weighted>
0.9409

> <Gold.Chemscore.Rot.Weighted>
4.8788

> <Gold.Chemscore.Internal.Correction.Weighted>
   9.000000E+99

> <Gold.Protein.RotatedTorsions>
[ 6907 6896 6895 6894 ] final -102.65 input  -60.11 | X-H torsion
[ 7974 7965 7964 7962 ] final  145.18 input  175.53 | X-H torsion
[ 8008 7997 7996 7995 ] final  167.30 input   59.86 | X-H torsion
[ 10167 10162 10161 10158 ] final  103.33 input  -65.29 | X-H torsion
[ 10718 10713 10712 10709 ] final -130.78 input   66.30 | X-H torsion
[ 10763 10752 10751 10750 ] final -133.05 input  -60.55 | X-H torsion
[ 11005 11000 10999 10996 ] final  115.03 input  -57.11 | X-H torsion

> <Gold.Protein.ActiveResidues>
 VAL166  LYS551  ARG553  GLY616  TRP617  ASP618  TYR619  PRO620  LYS621  CYS622 
 ASP623  PHE694  ASN695  SER759  ASP760  ASP761  ALA762  ILE779  LEU786  VAL792 
 PHE793  MET794  SER795  GLU796  ALA797  LYS798  CYS799  TRP800  GLU811  SER814 

> <Gold.Protein.RotatedAtoms>
  150.7205  134.0549  159.3810 H   0  0  0  0  0  0  0  0  0  0  0  0  # atno 6907 bound_to 6896
  151.8527  135.0550  160.0470 H   0  0  0  0  0  0  0  0  0  0  0  0  # atno 6908 bound_to 6896
  152.2778  133.5406  159.5515 H   0  0  0  0  0  0  0  0  0  0  0  0  # atno 6909 bound_to 6896
  144.8773  139.5752  143.5859 H   0  0  0  0  0  0  0  0  0  0  0  0  # atno 7974 bound_to 7965
  156.1646  140.1620  156.8554 H   0  0  0  0  0  0  0  0  0  0  0  0  # atno 8008 bound_to 7997
  154.5194  140.0782  156.8179 H   0  0  0  0  0  0  0  0  0  0  0  0  # atno 8009 bound_to 7997
  155.3638  140.3396  155.4243 H   0  0  0  0  0  0  0  0  0  0  0  0  # atno 8010 bound_to 7997
  139.7272  144.7044  151.0778 H   0  0  0  0  0  0  0  0  0  0  0  0  # atno 10167 bound_to 10162
  156.2178  130.6959  151.0722 H   0  0  0  0  0  0  0  0  0  0  0  0  # atno 10718 bound_to 10713
  154.8737  135.3778  154.4509 H   0  0  0  0  0  0  0  0  0  0  0  0  # atno 10763 bound_to 10752
  153.5185  135.7029  153.5748 H   0  0  0  0  0  0  0  0  0  0  0  0  # atno 10764 bound_to 10752
  153.4006  135.3949  155.1951 H   0  0  0  0  0  0  0  0  0  0  0  0  # atno 10765 bound_to 10752
  139.8998  134.9577  156.6983 H   0  0  0  0  0  0  0  0  0  0  0  0  # atno 11005 bound_to 11000
  146.2971  139.7312  142.9118 LP  0  0  0  0  0  0  0  0  0  0  0  0  # atno 17320 bound_to 7965
  145.4018  141.0386  143.3066 LP  0  0  0  0  0  0  0  0  0  0  0  0  # atno 17321 bound_to 7965
  140.7765  143.5089  150.9677 LP  0  0  0  0  0  0  0  0  0  0  0  0  # atno 17342 bound_to 10162
  139.8777  143.7112  152.3160 LP  0  0  0  0  0  0  0  0  0  0  0  0  # atno 17343 bound_to 10162
  157.7072  131.0751  150.6626 LP  0  0  0  0  0  0  0  0  0  0  0  0  # atno 17370 bound_to 10713
  156.6688  130.4533  149.5664 LP  0  0  0  0  0  0  0  0  0  0  0  0  # atno 17371 bound_to 10713
  140.7171  133.9173  155.8122 LP  0  0  0  0  0  0  0  0  0  0  0  0  # atno 17394 bound_to 11000
  141.0256  134.0828  157.4072 LP  0  0  0  0  0  0  0  0  0  0  0  0  # atno 17395 bound_to 11000

$$$$
