AV-unprocessed.smi:1531|AV-procd|sdf|6158|dock9
  -GOLD-   22720 6303D 1   1.00000     0.00000
 Structure written by MMmdl.
 44 45  0  0  0  0  0  0  0  0  1 V2000
  154.8326  140.9771  160.2275 C   0  0  0  0  0  0  0  0  0  0  0  0
  153.7875  141.7481  161.0455 C   0  0  0  0  0  0  0  0  0  0  0  0
  153.3118  143.0628  160.3856 C   0  0  2  0  0  0  0  0  0  0  0  0
  152.3091  143.8030  161.2975 C   0  0  0  0  0  0  0  0  0  0  0  0
  151.8604  145.1410  160.6893 C   0  0  0  0  0  0  0  0  0  0  0  0
  151.2590  144.9420  159.2913 C   0  0  0  0  0  0  0  0  0  0  0  0
  152.2471  144.2161  158.3637 C   0  0  0  0  0  0  0  0  0  0  0  0
  152.7320  142.8774  158.9574 C   0  0  2  0  0  0  0  0  0  0  0  0
  151.6472  141.8943  158.9462 N   0  0  0  0  0  0  0  0  0  0  0  0
  151.7397  140.6261  158.5219 C   0  0  0  0  0  0  0  0  0  0  0  0
  152.7725  140.1263  158.0756 O   0  0  0  0  0  0  0  0  0  0  0  0
  150.5653  139.9864  158.6459 N   0  0  0  0  0  0  0  0  0  0  0  0
  150.2895  138.6298  158.3409 C   0  0  0  0  0  0  0  0  0  0  0  0
  151.0898  137.5293  158.7434 C   0  0  0  0  0  0  0  0  0  0  0  0
  150.5866  136.3854  158.3052 N   0  0  0  0  0  0  0  0  0  0  0  0
  149.4681  136.7316  157.6195 N   0  0  0  0  0  0  0  0  0  0  0  0
  148.6590  135.7006  156.9940 C   0  0  0  0  0  0  0  0  0  0  0  0
  149.1230  134.3025  157.4066 C   0  0  0  0  0  0  0  0  0  0  0  0
  149.4321  133.4479  156.4273 N   0  0  0  0  0  0  0  0  0  0  0  0
  149.2063  133.9986  158.5946 O   0  0  0  0  0  0  0  0  0  0  0  0
  149.2581  138.0968  157.6207 C   0  0  0  0  0  0  0  0  0  0  0  0
  155.1946  140.1119  160.7833 H   0  0  0  0  0  0  0  0  0  0  0  0
  155.6933  141.6044  159.9940 H   0  0  0  0  0  0  0  0  0  0  0  0
  154.4173  140.6096  159.2894 H   0  0  0  0  0  0  0  0  0  0  0  0
  152.9376  141.0975  161.2542 H   0  0  0  0  0  0  0  0  0  0  0  0
  154.2253  141.9816  162.0167 H   0  0  0  0  0  0  0  0  0  0  0  0
  154.1880  143.7067  160.2940 H   0  0  0  0  0  0  0  0  0  0  0  0
  151.4363  143.1746  161.4783 H   0  0  0  0  0  0  0  0  0  0  0  0
  152.7595  143.9860  162.2738 H   0  0  0  0  0  0  0  0  0  0  0  0
  151.1306  145.6203  161.3424 H   0  0  0  0  0  0  0  0  0  0  0  0
  152.7125  145.8191  160.6280 H   0  0  0  0  0  0  0  0  0  0  0  0
  150.3333  144.3702  159.3676 H   0  0  0  0  0  0  0  0  0  0  0  0
  150.9892  145.9074  158.8629 H   0  0  0  0  0  0  0  0  0  0  0  0
  151.7913  144.0535  157.3863 H   0  0  0  0  0  0  0  0  0  0  0  0
  153.1090  144.8618  158.1901 H   0  0  0  0  0  0  0  0  0  0  0  0
  153.5407  142.5232  158.3165 H   0  0  0  0  0  0  0  0  0  0  0  0
  150.7537  142.2106  159.2933 H   0  0  0  0  0  0  0  0  0  0  0  0
  149.7888  140.5236  159.0033 H   0  0  0  0  0  0  0  0  0  0  0  0
  151.9990  137.5214  159.3266 H   0  0  0  0  0  0  0  0  0  0  0  0
  147.6165  135.8495  157.2789 H   0  0  0  0  0  0  0  0  0  0  0  0
  148.7116  135.8060  155.9092 H   0  0  0  0  0  0  0  0  0  0  0  0
  149.7468  132.5145  156.6505 H   0  0  0  0  0  0  0  0  0  0  0  0
  149.3527  133.7415  155.4644 H   0  0  0  0  0  0  0  0  0  0  0  0
  148.4144  138.5472  157.1190 H   0  0  0  0  0  0  0  0  0  0  0  0
  1  2  1  0  0  0  0
  1 22  1  0  0  0  0
  1 23  1  0  0  0  0
  1 24  1  0  0  0  0
  2  3  1  0  0  0  0
  2 25  1  0  0  0  0
  2 26  1  0  0  0  0
  3  8  1  0  0  0  0
  3  4  1  0  0  0  0
  3 27  1  0  0  0  0
  4  5  1  0  0  0  0
  4 28  1  0  0  0  0
  4 29  1  0  0  0  0
  5  6  1  0  0  0  0
  5 30  1  0  0  0  0
  5 31  1  0  0  0  0
  6  7  1  0  0  0  0
  6 32  1  0  0  0  0
  6 33  1  0  0  0  0
  7  8  1  0  0  0  0
  7 34  1  0  0  0  0
  7 35  1  0  0  0  0
  8  9  1  0  0  0  0
  8 36  1  0  0  0  0
  9 10  1  0  0  0  0
  9 37  1  0  0  0  0
 10 11  2  0  0  0  0
 10 12  1  0  0  0  0
 12 13  1  0  0  0  0
 12 38  1  0  0  0  0
 13 21  2  0  0  0  0
 13 14  1  0  0  0  0
 14 15  2  0  0  0  0
 14 39  1  0  0  0  0
 15 16  1  0  0  0  0
 16 17  1  0  0  0  0
 16 21  1  0  0  0  0
 17 18  1  0  0  0  0
 17 40  1  0  0  0  0
 17 41  1  0  0  0  0
 18 19  1  0  0  0  0
 18 20  2  0  0  0  0
 19 42  1  0  0  0  0
 19 43  1  0  0  0  0
 21 44  1  0  0  0  0
M  END
> <s_m_source_file>
AV-unprocessed.smi

> <i_m_source_file_index>
1531

> <i_lp_mmshare_version>
43012

> <i_f3d_flags>
0

> <s_epik_input>
W0NIM11bQ0gyXVtDQEBIXTFbQ0gyXVtDSDJdW0NIMl1bQ0gyXVtDQEhdMVtOSF1DKD1PKVtOSF1jMltjSF1ubihbY0hdMilbQ0gyXUMoPU8pW05IMl0=

> <s_epik_cmdline>
J2VwaWtfcHl0aG9uJywgJy1waCcsICc3LjAnLCAnLXRuJywgJzgnLCAnLW1hJywgJzIwMCcsICctbWV0YWxfYmluZGluZycsICctaW1hZScsICc8aW5maWxlLm1hZT4nLCAnLW9tYWUnLCAnPG91dGZpbGUubWFlPic=

> <r_lp_tautomer_probability>
1

> <r_epik_Ionization_Penalty>
4.83437e-05

> <r_epik_Ionization_Penalty_Charging>
0

> <r_epik_Ionization_Penalty_Neutral>
4.83437e-05

> <r_epik_State_Penalty>
-0

> <r_epik_Charging_Adjusted_Penalty>
0

> <i_epik_Tot_Q>
0

> <i_epik_Tot_abs_Q>
0

> <r_epik_Metal_State_Penalty>
-0

> <b_epik_Metal_Only>
0

> <s_lp_Force_Field>
OPLS_2005

> <r_lp_Energy>
15.1652

> <b_lp_Chiralities_Consistent>
1

> <s_lp_Variant>
AV-unprocessed.smi:1531-3

> <Gold.Version>
5.8.1

> <Gold.Id.Protein>
6NUR|6NUR_protein|mol2

> <Gold.PLP.Fitness>
44.6602

> <Gold.PLP.PLP>
-41.0249

> <Gold.PLP.part.hbond>
-3.0000

> <Gold.PLP.part.metal>
0.0000

> <Gold.PLP.part.buried>
-5.8526

> <Gold.PLP.part.nonpolar>
-32.5437

> <Gold.PLP.part.repulsive>
0.3181

> <Gold.PLP.ligand.clash>
0.0000

> <Gold.PLP.ligand.torsion>
0.7003

> <Gold.PLP.Chemscore.Hbond>
1.6697

> <Gold.PLP.Chemscore.CHOScore>
0.0000

> <Gold.PLP.Chemscore.Metal>
0.0000

> <Gold.Chemscore.Hbonds>
donor molecule, donor type, donor heavy atom, donor atom, acceptor molecule, acceptor atom, score
      P1  H  6896  6909       L1    15  0.73
      P1  H  7997  8010       L1    11  0.88

> <Gold.PLP.Chemscore.Internal.Correction>
0.0266

> <Gold.Rescore>
     Score         DG    S(hbond)    S(metal)    S(lipo)     H(rot)  DE(clash)    DE(int)     intcor
     14.79     -18.61       1.80        0.00     107.50       2.13       0.43       3.39       ----

> <Gold.Chemscore.Fitness>
14.7945

> <Gold.Chemscore.DG>
-18.6127

> <Gold.Chemscore.ZeroCoef>
-5.4800

> <Gold.Chemscore.Hbond>
1.8016

> <Gold.Chemscore.Metal>
0.0000

> <Gold.Chemscore.Lipo>
107.4964

> <Gold.Chemscore.Internal_Hbond>
0.0000

> <Gold.Chemscore.DEClash>
0.4321

> <Gold.Chemscore.DEInternal>
3.3861

> <Gold.Chemscore.Rot>
2.1335

> <Gold.Chemscore.Internal.Correction>
   9.000000E+99

> <Gold.Chemscore.Hbonds>
donor molecule, donor type, donor heavy atom, donor atom, acceptor molecule, acceptor atom, score
      P1  H  6896  6909       L1    15  0.57
      P1  H  7997  8010       L1    11  0.80

> <Gold.Chemscore.Hbond.Weighted>
-6.0174

> <Gold.Chemscore.Metal.Weighted>
-0.0000

> <Gold.Chemscore.Lipo.Weighted>
-12.5771

> <Gold.Chemscore.Internal_Hbond.Weighted>
0.0000

> <Gold.Chemscore.DEClash.Weighted>
0.4321

> <Gold.Chemscore.DEInternal.Weighted>
3.3861

> <Gold.Chemscore.Rot.Weighted>
5.4618

> <Gold.Chemscore.Internal.Correction.Weighted>
   9.000000E+99

> <Gold.Protein.RotatedTorsions>
[ 6907 6896 6895 6894 ] final   69.04 input  -60.11 | X-H torsion
[ 7974 7965 7964 7962 ] final -150.59 input  175.53 | X-H torsion
[ 8008 7997 7996 7995 ] final   43.30 input   59.86 | X-H torsion
[ 10167 10162 10161 10158 ] final  -82.43 input  -65.29 | X-H torsion
[ 10718 10713 10712 10709 ] final  123.22 input   66.30 | X-H torsion
[ 10763 10752 10751 10750 ] final  -33.37 input  -60.55 | X-H torsion
[ 11005 11000 10999 10996 ] final   61.73 input  -57.11 | X-H torsion

> <Gold.Protein.ActiveResidues>
 VAL166  LYS551  ARG553  GLY616  TRP617  ASP618  TYR619  PRO620  LYS621  CYS622 
 ASP623  PHE694  ASN695  SER759  ASP760  ASP761  ALA762  ILE779  LEU786  VAL792 
 PHE793  MET794  SER795  GLU796  ALA797  LYS798  CYS799  TRP800  GLU811  SER814 

> <Gold.Protein.RotatedAtoms>
  152.4660  134.5075  159.9743 H   0  0  0  0  0  0  0  0  0  0  0  0  # atno 6907 bound_to 6896
  151.5112  133.3478  159.2893 H   0  0  0  0  0  0  0  0  0  0  0  0  # atno 6908 bound_to 6896
  150.8644  134.8033  159.7170 H   0  0  0  0  0  0  0  0  0  0  0  0  # atno 6909 bound_to 6896
  144.7898  140.4911  143.5780 H   0  0  0  0  0  0  0  0  0  0  0  0  # atno 7974 bound_to 7965
  155.3005  140.3384  155.4248 H   0  0  0  0  0  0  0  0  0  0  0  0  # atno 8008 bound_to 7997
  156.2003  140.1730  156.7951 H   0  0  0  0  0  0  0  0  0  0  0  0  # atno 8009 bound_to 7997
  154.5551  140.0698  156.8714 H   0  0  0  0  0  0  0  0  0  0  0  0  # atno 8010 bound_to 7997
  140.4321  143.2545  151.8745 H   0  0  0  0  0  0  0  0  0  0  0  0  # atno 10167 bound_to 10162
  157.5682  131.1085  150.8416 H   0  0  0  0  0  0  0  0  0  0  0  0  # atno 10718 bound_to 10713
  153.8291  135.6867  153.4817 H   0  0  0  0  0  0  0  0  0  0  0  0  # atno 10763 bound_to 10752
  153.1522  135.4613  154.9651 H   0  0  0  0  0  0  0  0  0  0  0  0  # atno 10764 bound_to 10752
  154.7894  135.3296  154.7756 H   0  0  0  0  0  0  0  0  0  0  0  0  # atno 10765 bound_to 10752
  140.0141  134.6251  155.9736 H   0  0  0  0  0  0  0  0  0  0  0  0  # atno 11005 bound_to 11000
  145.5823  139.1490  143.3228 LP  0  0  0  0  0  0  0  0  0  0  0  0  # atno 17320 bound_to 7965
  146.2146  140.5953  142.9044 LP  0  0  0  0  0  0  0  0  0  0  0  0  # atno 17321 bound_to 7965
  139.4785  144.5323  151.8648 LP  0  0  0  0  0  0  0  0  0  0  0  0  # atno 17342 bound_to 10162
  140.4416  144.1979  150.5891 LP  0  0  0  0  0  0  0  0  0  0  0  0  # atno 17343 bound_to 10162
  156.8894  130.5207  149.5287 LP  0  0  0  0  0  0  0  0  0  0  0  0  # atno 17370 bound_to 10713
  156.0729  130.5758  150.9418 LP  0  0  0  0  0  0  0  0  0  0  0  0  # atno 17371 bound_to 10713
  141.1731  133.6538  156.4725 LP  0  0  0  0  0  0  0  0  0  0  0  0  # atno 17394 bound_to 11000
  140.4502  134.6936  157.5036 LP  0  0  0  0  0  0  0  0  0  0  0  0  # atno 17395 bound_to 11000

$$$$
