AV-unprocessed.smi:759|AV-procd|sdf|3626|dock7
  -GOLD-   22720 1 23D 1   1.00000     0.00000
 Structure written by MMmdl.
 23 24  0  0  0  0  0  0  0  0  3 V2000
  151.8592  140.2217  155.7191 C   0  0  0  0  0  0  0  0  0  0  0  0
  152.7270  139.7012  156.5970 N   0  5  0  0  0  0  0  0  0  0  0  0
  152.6773  140.4288  157.6964 N   0  0  0  0  0  0  0  0  0  0  0  0
  151.7650  141.3914  157.4638 C   0  0  0  0  0  0  0  0  0  0  0  0
  151.3704  142.4583  158.4656 C   0  0  1  0  0  0  0  0  0  0  0  0
  152.5826  143.2689  158.9596 C   0  0  0  0  0  0  0  0  0  0  0  0
  152.1340  144.3525  159.9522 C   0  0  0  0  0  0  0  0  0  0  0  0
  151.0260  145.2298  159.3449 C   0  0  0  0  0  0  0  0  0  0  0  0
  149.8812  144.4006  158.9086 N   0  3  0  0  0  0  0  0  0  0  0  0
  150.2585  143.3716  157.9154 C   0  0  0  0  0  0  0  0  0  0  0  0
  151.2435  141.2762  156.2320 N   0  0  0  0  0  0  0  0  0  0  0  0
  151.7257  139.7849  154.7369 H   0  0  0  0  0  0  0  0  0  0  0  0
  150.9604  141.9311  159.3289 H   0  0  0  0  0  0  0  0  0  0  0  0
  153.3137  142.6093  159.4285 H   0  0  0  0  0  0  0  0  0  0  0  0
  153.0841  143.7386  158.1121 H   0  0  0  0  0  0  0  0  0  0  0  0
  151.7705  143.8830  160.8673 H   0  0  0  0  0  0  0  0  0  0  0  0
  152.9854  144.9707  160.2387 H   0  0  0  0  0  0  0  0  0  0  0  0
  150.6783  145.9601  160.0758 H   0  0  0  0  0  0  0  0  0  0  0  0
  151.4100  145.7902  158.4913 H   0  0  0  0  0  0  0  0  0  0  0  0
  149.4927  143.9368  159.7175 H   0  0  0  0  0  0  0  0  0  0  0  0
  150.5877  143.8662  157.0002 H   0  0  0  0  0  0  0  0  0  0  0  0
  149.3754  142.7848  157.6607 H   0  0  0  0  0  0  0  0  0  0  0  0
  149.1754  144.9998  158.5051 H   0  0  0  0  0  0  0  0  0  0  0  0
  1 11  2  0  0  0  0
  1 12  1  0  0  0  0
  1  2  1  0  0  0  0
  2  3  1  0  0  0  0
  3  4  2  0  0  0  0
  4 11  1  0  0  0  0
  4  5  1  0  0  0  0
  5 10  1  0  0  0  0
  5  6  1  0  0  0  0
  5 13  1  0  0  0  0
  6  7  1  0  0  0  0
  6 14  1  0  0  0  0
  6 15  1  0  0  0  0
  7  8  1  0  0  0  0
  7 16  1  0  0  0  0
  7 17  1  0  0  0  0
  8  9  1  0  0  0  0
  8 18  1  0  0  0  0
  8 19  1  0  0  0  0
  9 10  1  0  0  0  0
  9 20  1  0  0  0  0
  9 23  1  0  0  0  0
 10 21  1  0  0  0  0
 10 22  1  0  0  0  0
M  CHG  1   2  -1
M  CHG  1   9   1
M  END
> <s_m_source_file>
AV-unprocessed.smi

> <i_m_source_file_index>
759

> <i_lp_mmshare_version>
43012

> <i_f3d_flags>
0

> <s_epik_input>
W25IXTFbY0hdbm5jMVtDQEBIXTJbQ0gyXVtDSDJdW0NIMl1bTkhdW0NIMl0y

> <s_epik_cmdline>
J2VwaWtfcHl0aG9uJywgJy1waCcsICc3LjAnLCAnLXRuJywgJzgnLCAnLW1hJywgJzIwMCcsICctbWV0YWxfYmluZGluZycsICctaW1hZScsICc8aW5maWxlLm1hZT4nLCAnLW9tYWUnLCAnPG91dGZpbGUubWFlPic=

> <r_lp_tautomer_probability>
0.948284

> <r_epik_Ionization_Penalty>
7.12535

> <r_epik_Ionization_Penalty_Charging>
7.12535

> <r_epik_Ionization_Penalty_Neutral>
7.15677e-14

> <r_epik_State_Penalty>
3.13859

> <r_epik_Charging_Adjusted_Penalty>
10.2639

> <i_epik_Tot_Q>
0

> <i_epik_Tot_abs_Q>
2

> <r_epik_Metal_State_Penalty>
0.603007

> <b_epik_Metal_Only>
1

> <s_lp_Force_Field>
OPLS_2005

> <r_lp_Energy>
6.41651

> <b_lp_Chiralities_Consistent>
1

> <s_lp_Variant>
AV-unprocessed.smi:759-8

> <Gold.Version>
5.8.1

> <Gold.Id.Protein>
6NUR|6NUR_protein|mol2

> <Gold.PLP.Fitness>
34.1764

> <Gold.PLP.PLP>
-22.1796

> <Gold.PLP.part.hbond>
-3.0000

> <Gold.PLP.part.metal>
0.0000

> <Gold.PLP.part.buried>
-1.3822

> <Gold.PLP.part.nonpolar>
-17.6118

> <Gold.PLP.part.repulsive>
0.1814

> <Gold.PLP.ligand.clash>
0.0000

> <Gold.PLP.ligand.torsion>
0.0223

> <Gold.PLP.Chemscore.Hbond>
4.0000

> <Gold.PLP.Chemscore.CHOScore>
0.0000

> <Gold.PLP.Chemscore.Metal>
0.0000

> <Gold.Chemscore.Hbonds>
donor molecule, donor type, donor heavy atom, donor atom, acceptor molecule, acceptor atom, score
      L1  H     9    23       P1  8029  2.00
      P1  H  7997  8010       L1     2  1.20

> <Gold.PLP.Chemscore.Internal.Correction>
0.0414

> <Gold.Rescore>
     Score         DG    S(hbond)    S(metal)    S(lipo)     H(rot)  DE(clash)    DE(int)     intcor
     12.99     -13.08       1.27        0.00      50.50       1.00       0.07       0.02       ----

> <Gold.Chemscore.Fitness>
12.9850

> <Gold.Chemscore.DG>
-13.0794

> <Gold.Chemscore.ZeroCoef>
-5.4800

> <Gold.Chemscore.Hbond>
1.2729

> <Gold.Chemscore.Metal>
0.0000

> <Gold.Chemscore.Lipo>
50.4953

> <Gold.Chemscore.Internal_Hbond>
0.0000

> <Gold.Chemscore.DEClash>
0.0727

> <Gold.Chemscore.DEInternal>
0.0217

> <Gold.Chemscore.Rot>
1.0000

> <Gold.Chemscore.Internal.Correction>
   9.000000E+99

> <Gold.Chemscore.Hbonds>
donor molecule, donor type, donor heavy atom, donor atom, acceptor molecule, acceptor atom, score
      L1  H     9    23       P1  8029  0.78
      P1  H  7997  8010       L1     2  0.04

> <Gold.Chemscore.Hbond.Weighted>
-4.2515

> <Gold.Chemscore.Metal.Weighted>
-0.0000

> <Gold.Chemscore.Lipo.Weighted>
-5.9080

> <Gold.Chemscore.Internal_Hbond.Weighted>
0.0000

> <Gold.Chemscore.DEClash.Weighted>
0.0727

> <Gold.Chemscore.DEInternal.Weighted>
0.0217

> <Gold.Chemscore.Rot.Weighted>
2.5600

> <Gold.Chemscore.Internal.Correction.Weighted>
   9.000000E+99

> <Gold.Protein.RotatedTorsions>
[ 6907 6896 6895 6894 ] final   -0.64 input  -60.11 | X-H torsion
[ 7974 7965 7964 7962 ] final   19.19 input  175.53 | X-H torsion
[ 8008 7997 7996 7995 ] final   80.53 input   59.86 | X-H torsion
[ 10167 10162 10161 10158 ] final   36.98 input  -65.29 | X-H torsion
[ 10718 10713 10712 10709 ] final  128.57 input   66.30 | X-H torsion
[ 10763 10752 10751 10750 ] final  -86.48 input  -60.55 | X-H torsion
[ 11005 11000 10999 10996 ] final  128.15 input  -57.11 | X-H torsion

> <Gold.Protein.ActiveResidues>
 VAL166  LYS551  ARG553  GLY616  TRP617  ASP618  TYR619  PRO620  LYS621  CYS622 
 ASP623  PHE694  ASN695  SER759  ASP760  ASP761  ALA762  ILE779  LEU786  VAL792 
 PHE793  MET794  SER795  GLU796  ALA797  LYS798  CYS799  TRP800  GLU811  SER814 

> <Gold.Protein.RotatedAtoms>
  151.5590  135.1066  159.9967 H   0  0  0  0  0  0  0  0  0  0  0  0  # atno 6907 bound_to 6896
  152.4455  133.7525  159.6712 H   0  0  0  0  0  0  0  0  0  0  0  0  # atno 6908 bound_to 6896
  150.8370  133.7929  159.3099 H   0  0  0  0  0  0  0  0  0  0  0  0  # atno 6909 bound_to 6896
  146.2158  139.8348  142.8653 H   0  0  0  0  0  0  0  0  0  0  0  0  # atno 7974 bound_to 7965
  155.8847  140.3442  155.5913 H   0  0  0  0  0  0  0  0  0  0  0  0  # atno 8008 bound_to 7997
  155.7679  140.0841  157.2141 H   0  0  0  0  0  0  0  0  0  0  0  0  # atno 8009 bound_to 7997
  154.4027  140.1523  156.2896 H   0  0  0  0  0  0  0  0  0  0  0  0  # atno 8010 bound_to 7997
  140.4077  144.1636  150.6137 H   0  0  0  0  0  0  0  0  0  0  0  0  # atno 10167 bound_to 10162
  157.5232  131.1098  150.9122 H   0  0  0  0  0  0  0  0  0  0  0  0  # atno 10718 bound_to 10713
  154.6229  135.5447  153.7595 H   0  0  0  0  0  0  0  0  0  0  0  0  # atno 10763 bound_to 10752
  153.0247  135.6417  154.1414 H   0  0  0  0  0  0  0  0  0  0  0  0  # atno 10764 bound_to 10752
  154.1347  135.2912  155.3156 H   0  0  0  0  0  0  0  0  0  0  0  0  # atno 10765 bound_to 10752
  139.9545  134.9615  156.8960 H   0  0  0  0  0  0  0  0  0  0  0  0  # atno 11005 bound_to 11000
  145.2960  141.0181  143.3636 LP  0  0  0  0  0  0  0  0  0  0  0  0  # atno 17320 bound_to 7965
  144.9042  139.4611  143.6618 LP  0  0  0  0  0  0  0  0  0  0  0  0  # atno 17321 bound_to 7965
  140.4672  143.2426  151.9139 LP  0  0  0  0  0  0  0  0  0  0  0  0  # atno 17342 bound_to 10162
  139.4783  144.5407  151.8532 LP  0  0  0  0  0  0  0  0  0  0  0  0  # atno 17343 bound_to 10162
  156.9726  130.5496  149.5291 LP  0  0  0  0  0  0  0  0  0  0  0  0  # atno 17370 bound_to 10713
  156.0368  130.5455  150.8674 LP  0  0  0  0  0  0  0  0  0  0  0  0  # atno 17371 bound_to 10713
  140.5640  134.0507  155.7408 LP  0  0  0  0  0  0  0  0  0  0  0  0  # atno 17394 bound_to 11000
  141.1214  133.9454  157.2721 LP  0  0  0  0  0  0  0  0  0  0  0  0  # atno 17395 bound_to 11000

$$$$
