AV-unprocessed.smi:2026|AV-procd|sdf|8206|dock1
  -GOLD-   2272010463D 1   1.00000     0.00000
 Structure written by MMmdl.
 45 47  0  0  0  0  0  0  0  0  2 V2000
  152.8906  143.4300  162.0686 C   0  0  0  0  0  0  0  0  0  0  0  0
  152.6243  142.6553  160.7898 C   0  0  0  0  0  0  0  0  0  0  0  0
  151.8039  143.2320  159.7940 C   0  0  0  0  0  0  0  0  0  0  0  0
  151.5317  142.5437  158.5914 C   0  0  0  0  0  0  0  0  0  0  0  0
  150.7673  142.9135  157.4975 N   0  0  0  0  0  0  0  0  0  0  0  0
  150.9036  141.8536  156.7056 C   0  0  0  0  0  0  0  0  0  0  0  0
  151.6639  140.8385  157.1589 N   0  0  0  0  0  0  0  0  0  0  0  0
  151.9499  139.5896  156.4753 C   0  0  0  0  0  0  0  0  0  0  0  0
  150.7854  139.1224  155.5805 C   0  0  1  0  0  0  0  0  0  0  0  0
  150.7737  139.9103  154.4053 O   0  0  0  0  0  0  0  0  0  0  0  0
  150.9403  137.6397  155.1843 C   0  0  0  0  0  0  0  0  0  0  0  0
  150.3216  136.7393  156.1634 N   0  0  0  0  0  0  0  0  0  0  0  0
  150.9349  135.6966  156.7544 C   0  0  0  0  0  0  0  0  0  0  0  0
  152.1068  135.4031  156.5204 O   0  0  0  0  0  0  0  0  0  0  0  0
  150.0963  135.0581  157.6046 N   0  5  0  0  0  0  0  0  0  0  0  0
  148.8084  135.7223  157.5787 C   0  0  0  0  0  0  0  0  0  0  0  0
  147.7213  134.7518  157.0795 C   0  0  0  0  0  0  0  0  0  0  0  0
  148.4712  136.2823  158.9736 C   0  0  0  0  0  0  0  0  0  0  0  0
  149.0549  136.8385  156.5798 C   0  0  0  0  0  0  0  0  0  0  0  0
  148.2127  137.6689  156.2345 O   0  0  0  0  0  0  0  0  0  0  0  0
  152.1058  141.2514  158.4113 C   0  0  0  0  0  0  0  0  0  0  0  0
  152.9245  140.6675  159.3944 C   0  0  0  0  0  0  0  0  0  0  0  0
  153.1869  141.3691  160.5896 C   0  0  0  0  0  0  0  0  0  0  0  0
  154.0744  140.7304  161.6432 C   0  0  0  0  0  0  0  0  0  0  0  0
  152.4157  144.4112  162.0470 H   0  0  0  0  0  0  0  0  0  0  0  0
  153.9612  143.5802  162.2097 H   0  0  0  0  0  0  0  0  0  0  0  0
  152.5000  142.8876  162.9298 H   0  0  0  0  0  0  0  0  0  0  0  0
  151.3758  144.2119  159.9458 H   0  0  0  0  0  0  0  0  0  0  0  0
  150.4235  141.8108  155.7387 H   0  0  0  0  0  0  0  0  0  0  0  0
  152.8601  139.7114  155.8865 H   0  0  0  0  0  0  0  0  0  0  0  0
  152.1686  138.8339  157.2308 H   0  0  0  0  0  0  0  0  0  0  0  0
  149.8468  139.2769  156.1145 H   0  0  0  0  0  0  0  0  0  0  0  0
  150.0521  139.6321  153.8629 H   0  0  0  0  0  0  0  0  0  0  0  0
  150.5537  137.4631  154.1791 H   0  0  0  0  0  0  0  0  0  0  0  0
  152.0010  137.3892  155.1268 H   0  0  0  0  0  0  0  0  0  0  0  0
  146.7462  135.2387  157.0373 H   0  0  0  0  0  0  0  0  0  0  0  0
  147.6279  133.8908  157.7422 H   0  0  0  0  0  0  0  0  0  0  0  0
  147.9438  134.3738  156.0803 H   0  0  0  0  0  0  0  0  0  0  0  0
  147.5053  136.7887  158.9726 H   0  0  0  0  0  0  0  0  0  0  0  0
  149.2188  137.0009  159.3135 H   0  0  0  0  0  0  0  0  0  0  0  0
  148.4213  135.4856  159.7167 H   0  0  0  0  0  0  0  0  0  0  0  0
  153.3490  139.6885  159.2282 H   0  0  0  0  0  0  0  0  0  0  0  0
  154.3865  139.7289  161.3461 H   0  0  0  0  0  0  0  0  0  0  0  0
  153.5450  140.6471  162.5925 H   0  0  0  0  0  0  0  0  0  0  0  0
  154.9725  141.3288  161.7978 H   0  0  0  0  0  0  0  0  0  0  0  0
  1  2  1  0  0  0  0
  1 25  1  0  0  0  0
  1 26  1  0  0  0  0
  1 27  1  0  0  0  0
  2 23  1  0  0  0  0
  2  3  2  0  0  0  0
  3  4  1  0  0  0  0
  3 28  1  0  0  0  0
  4 21  2  0  0  0  0
  4  5  1  0  0  0  0
  5  6  2  0  0  0  0
  6  7  1  0  0  0  0
  6 29  1  0  0  0  0
  7  8  1  0  0  0  0
  7 21  1  0  0  0  0
  8  9  1  0  0  0  0
  8 30  1  0  0  0  0
  8 31  1  0  0  0  0
  9 10  1  0  0  0  0
  9 11  1  0  0  0  0
  9 32  1  0  0  0  0
 10 33  1  0  0  0  0
 11 12  1  0  0  0  0
 11 34  1  0  0  0  0
 11 35  1  0  0  0  0
 12 19  1  0  0  0  0
 12 13  1  0  0  0  0
 13 14  2  0  0  0  0
 13 15  1  0  0  0  0
 15 16  1  0  0  0  0
 16 17  1  0  0  0  0
 16 18  1  0  0  0  0
 16 19  1  0  0  0  0
 17 36  1  0  0  0  0
 17 37  1  0  0  0  0
 17 38  1  0  0  0  0
 18 39  1  0  0  0  0
 18 40  1  0  0  0  0
 18 41  1  0  0  0  0
 19 20  2  0  0  0  0
 21 22  1  0  0  0  0
 22 23  2  0  0  0  0
 22 42  1  0  0  0  0
 23 24  1  0  0  0  0
 24 43  1  0  0  0  0
 24 44  1  0  0  0  0
 24 45  1  0  0  0  0
M  CHG  1  15  -1
M  END
> <s_m_source_file>
AV-unprocessed.smi

> <i_m_source_file_index>
2026

> <i_lp_mmshare_version>
43012

> <i_f3d_flags>
0

> <s_epik_input>
W0NIM11jKFtjSF0xKWMoW0NIM10pW2NIXWMoYzEyKW4oW2NIXW4yKVtDSDJdW0NASF0oW09IXSlbQ0gyXU4oQzM9TylDKD1PKVtOSF1DMyhbQ0gzXSlbQ0gzXQ==

> <s_epik_cmdline>
J2VwaWtfcHl0aG9uJywgJy1waCcsICc3LjAnLCAnLXRuJywgJzgnLCAnLW1hJywgJzIwMCcsICctbWV0YWxfYmluZGluZycsICctaW1hZScsICc8aW5maWxlLm1hZT4nLCAnLW9tYWUnLCAnPG91dGZpbGUubWFlPic=

> <r_lp_tautomer_probability>
1

> <r_epik_Ionization_Penalty>
5.78785

> <r_epik_Ionization_Penalty_Charging>
5.68049

> <r_epik_Ionization_Penalty_Neutral>
0.107354

> <r_epik_State_Penalty>
5.7743

> <r_epik_Charging_Adjusted_Penalty>
11.4548

> <i_epik_Tot_Q>
-1

> <i_epik_Tot_abs_Q>
1

> <r_epik_Metal_State_Penalty>
1.83778

> <b_epik_Metal_Only>
1

> <s_lp_Force_Field>
OPLS_2005

> <r_lp_Energy>
18.252

> <b_lp_Chiralities_Consistent>
1

> <s_lp_Variant>
AV-unprocessed.smi:2026-6

> <Gold.Version>
5.8.1

> <Gold.Id.Protein>
6NUR|6NUR_protein|mol2

> <Gold.PLP.Fitness>
49.2909

> <Gold.PLP.PLP>
-40.3812

> <Gold.PLP.part.hbond>
-3.0000

> <Gold.PLP.part.metal>
0.0000

> <Gold.PLP.part.buried>
-7.1279

> <Gold.PLP.part.nonpolar>
-31.4080

> <Gold.PLP.part.repulsive>
0.1554

> <Gold.PLP.ligand.clash>
0.0000

> <Gold.PLP.ligand.torsion>
0.8907

> <Gold.PLP.Chemscore.Hbond>
3.5360

> <Gold.PLP.Chemscore.CHOScore>
0.0000

> <Gold.PLP.Chemscore.Metal>
0.0000

> <Gold.Chemscore.Hbonds>
donor molecule, donor type, donor heavy atom, donor atom, acceptor molecule, acceptor atom, score
      P1  H  6896  6908       L1    15  1.54
      P1  H  7989  7998       L1    10  1.00
      P1  H 10752 10764       L1    14  1.00

> <Gold.PLP.Chemscore.Internal.Correction>
0.0830

> <Gold.Rescore>
     Score         DG    S(hbond)    S(metal)    S(lipo)     H(rot)  DE(clash)    DE(int)     intcor
     18.92     -19.85       2.70        0.00      97.86       2.38       0.00       0.92       ----

> <Gold.Chemscore.Fitness>
18.9240

> <Gold.Chemscore.DG>
-19.8504

> <Gold.Chemscore.ZeroCoef>
-5.4800

> <Gold.Chemscore.Hbond>
2.6973

> <Gold.Chemscore.Metal>
0.0000

> <Gold.Chemscore.Lipo>
97.8606

> <Gold.Chemscore.Internal_Hbond>
0.0000

> <Gold.Chemscore.DEClash>
0.0030

> <Gold.Chemscore.DEInternal>
0.9233

> <Gold.Chemscore.Rot>
2.3783

> <Gold.Chemscore.Internal.Correction>
   9.000000E+99

> <Gold.Chemscore.Hbonds>
donor molecule, donor type, donor heavy atom, donor atom, acceptor molecule, acceptor atom, score
      P1  H  6896  6908       L1    15  0.65
      P1  H  7989  7998       L1    10  0.49
      P1  H 10752 10764       L1    14  1.00

> <Gold.Chemscore.Hbond.Weighted>
-9.0090

> <Gold.Chemscore.Metal.Weighted>
-0.0000

> <Gold.Chemscore.Lipo.Weighted>
-11.4497

> <Gold.Chemscore.Internal_Hbond.Weighted>
0.0000

> <Gold.Chemscore.DEClash.Weighted>
0.0030

> <Gold.Chemscore.DEInternal.Weighted>
0.9233

> <Gold.Chemscore.Rot.Weighted>
6.0884

> <Gold.Chemscore.Internal.Correction.Weighted>
   9.000000E+99

> <Gold.Protein.RotatedTorsions>
[ 6907 6896 6895 6894 ] final  151.06 input  -60.11 | X-H torsion
[ 7974 7965 7964 7962 ] final -111.35 input  175.53 | X-H torsion
[ 8008 7997 7996 7995 ] final -113.20 input   59.86 | X-H torsion
[ 10167 10162 10161 10158 ] final -123.57 input  -65.29 | X-H torsion
[ 10718 10713 10712 10709 ] final  -66.14 input   66.30 | X-H torsion
[ 10763 10752 10751 10750 ] final  -13.79 input  -60.55 | X-H torsion
[ 11005 11000 10999 10996 ] final -145.18 input  -57.11 | X-H torsion

> <Gold.Protein.ActiveResidues>
 VAL166  LYS551  ARG553  GLY616  TRP617  ASP618  TYR619  PRO620  LYS621  CYS622 
 ASP623  PHE694  ASN695  SER759  ASP760  ASP761  ALA762  ILE779  LEU786  VAL792 
 PHE793  MET794  SER795  GLU796  ALA797  LYS798  CYS799  TRP800  GLU811  SER814 

> <Gold.Protein.RotatedAtoms>
  152.1058  133.4274  159.4607 H   0  0  0  0  0  0  0  0  0  0  0  0  # atno 6907 bound_to 6896
  150.6865  134.2706  159.4596 H   0  0  0  0  0  0  0  0  0  0  0  0  # atno 6908 bound_to 6896
  152.0571  134.9617  160.0625 H   0  0  0  0  0  0  0  0  0  0  0  0  # atno 6909 bound_to 6896
  145.1571  140.8859  143.3612 H   0  0  0  0  0  0  0  0  0  0  0  0  # atno 7974 bound_to 7965
  155.0170  140.0393  157.2422 H   0  0  0  0  0  0  0  0  0  0  0  0  # atno 8008 bound_to 7997
  154.7411  140.2749  155.6349 H   0  0  0  0  0  0  0  0  0  0  0  0  # atno 8009 bound_to 7997
  156.2864  140.2665  156.2138 H   0  0  0  0  0  0  0  0  0  0  0  0  # atno 8010 bound_to 7997
  140.0021  143.5529  152.2299 H   0  0  0  0  0  0  0  0  0  0  0  0  # atno 10167 bound_to 10162
  156.0629  130.4257  150.1666 H   0  0  0  0  0  0  0  0  0  0  0  0  # atno 10718 bound_to 10713
  153.5186  135.7016  153.5743 H   0  0  0  0  0  0  0  0  0  0  0  0  # atno 10763 bound_to 10752
  153.3802  135.3922  155.1851 H   0  0  0  0  0  0  0  0  0  0  0  0  # atno 10764 bound_to 10752
  154.8697  135.3833  154.4672 H   0  0  0  0  0  0  0  0  0  0  0  0  # atno 10765 bound_to 10752
  140.7949  134.2925  157.5000 H   0  0  0  0  0  0  0  0  0  0  0  0  # atno 11005 bound_to 11000
  145.0369  139.3293  143.5996 LP  0  0  0  0  0  0  0  0  0  0  0  0  # atno 17320 bound_to 7965
  146.3487  139.9728  142.8704 LP  0  0  0  0  0  0  0  0  0  0  0  0  # atno 17321 bound_to 7965
  139.6264  144.7638  151.2629 LP  0  0  0  0  0  0  0  0  0  0  0  0  # atno 17342 bound_to 10162
  140.7414  143.6556  150.8209 LP  0  0  0  0  0  0  0  0  0  0  0  0  # atno 17343 bound_to 10162
  156.9731  130.9841  151.3454 LP  0  0  0  0  0  0  0  0  0  0  0  0  # atno 17370 bound_to 10713
  157.5650  130.8272  149.8316 LP  0  0  0  0  0  0  0  0  0  0  0  0  # atno 17371 bound_to 10713
  139.8727  134.9396  156.3746 LP  0  0  0  0  0  0  0  0  0  0  0  0  # atno 17394 bound_to 11000
  140.9353  133.7551  156.0076 LP  0  0  0  0  0  0  0  0  0  0  0  0  # atno 17395 bound_to 11000

$$$$
