AV-unprocessed.smi:249|AV-procd|sdf|1911|dock10
  -GOLD-   2262021 03D 1   1.00000     0.00000
 Structure written by MMmdl.
 64 67  0  0  0  0  0  0  0  0  2 V2000
  145.1318  131.7861  151.2551 C   0  0  0  0  0  0  0  0  0  0  0  0
  144.6102  133.1841  151.6216 C   0  0  0  0  0  0  0  0  0  0  0  0
  144.5483  133.4209  153.0942 N   0  3  1  0  0  0  0  0  0  0  0  0
  145.8793  133.4431  153.7651 C   0  0  0  0  0  0  0  0  0  0  0  0
  146.6640  134.7311  153.4481 C   0  0  0  0  0  0  0  0  0  0  0  0
  145.8414  135.9802  153.8185 C   0  0  1  0  0  0  0  0  0  0  0  0
  146.5508  137.2237  153.5047 N   0  0  0  0  0  0  0  0  0  0  0  0
  146.9773  137.5198  152.1386 C   0  0  0  0  0  0  0  0  0  0  0  0
  147.1346  137.9142  154.5185 C   0  0  0  0  0  0  0  0  0  0  0  0
  146.9374  137.4975  155.7974 N   0  0  0  0  0  0  0  0  0  0  0  0
  147.4907  138.1584  156.8183 C   0  0  0  0  0  0  0  0  0  0  0  0
  148.2692  139.2411  156.7865 N   0  0  0  0  0  0  0  0  0  0  0  0
  148.4850  139.6564  155.5062 C   0  0  0  0  0  0  0  0  0  0  0  0
  147.9618  139.0585  154.3244 C   0  0  0  0  0  0  0  0  0  0  0  0
  148.4119  139.7550  153.2074 N   0  0  0  0  0  0  0  0  0  0  0  0
  149.1420  140.7175  153.7008 C   0  0  0  0  0  0  0  0  0  0  0  0
  149.2336  140.7367  155.0734 N   0  0  0  0  0  0  0  0  0  0  0  0
  149.9732  141.6935  155.8772 C   0  0  0  0  0  0  0  0  0  0  0  0
  150.8634  141.0412  156.9683 C   0  0  1  0  0  0  0  0  0  0  0  0
  152.1635  140.4313  156.3832 C   0  0  0  0  0  0  0  0  0  0  0  0
  151.9015  139.5936  155.2762 O   0  0  0  0  0  0  0  0  0  0  0  0
  151.1856  142.0653  158.0881 C   0  0  1  0  0  0  0  0  0  0  0  0
  152.2765  141.6360  159.0559 C   0  0  0  0  0  0  0  0  0  0  0  0
  152.6840  142.9601  159.6876 C   0  0  0  0  0  0  0  0  0  0  0  0
  152.5803  143.9151  158.6407 O   0  0  0  0  0  0  0  0  0  0  0  0
  151.7588  143.4026  157.5953 C   0  0  0  0  0  0  0  0  0  0  0  0
  144.4462  135.9265  153.1676 C   0  0  0  0  0  0  0  0  0  0  0  0
  143.7333  134.6028  153.5134 C   0  0  1  0  0  0  0  0  0  0  0  0
  142.2810  134.5640  153.0045 C   0  0  0  0  0  0  0  0  0  0  0  0
  145.0157  131.6060  150.1860 H   0  0  0  0  0  0  0  0  0  0  0  0
  144.5799  131.0066  151.7812 H   0  0  0  0  0  0  0  0  0  0  0  0
  146.1907  131.6679  151.4821 H   0  0  0  0  0  0  0  0  0  0  0  0
  145.2088  133.9488  151.1273 H   0  0  0  0  0  0  0  0  0  0  0  0
  143.6118  133.2584  151.1952 H   0  0  0  0  0  0  0  0  0  0  0  0
  145.7199  133.3780  154.8423 H   0  0  0  0  0  0  0  0  0  0  0  0
  146.4690  132.5644  153.5095 H   0  0  0  0  0  0  0  0  0  0  0  0
  147.6031  134.7315  154.0028 H   0  0  0  0  0  0  0  0  0  0  0  0
  146.9362  134.7460  152.3929 H   0  0  0  0  0  0  0  0  0  0  0  0
  145.6918  135.9196  154.8956 H   0  0  0  0  0  0  0  0  0  0  0  0
  147.0223  138.5970  151.9743 H   0  0  0  0  0  0  0  0  0  0  0  0
  146.2872  137.1027  151.4063 H   0  0  0  0  0  0  0  0  0  0  0  0
  147.9652  137.1005  151.9462 H   0  0  0  0  0  0  0  0  0  0  0  0
  147.2777  137.7639  157.8010 H   0  0  0  0  0  0  0  0  0  0  0  0
  149.6341  141.4476  153.0746 H   0  0  0  0  0  0  0  0  0  0  0  0
  150.5828  142.3084  155.2139 H   0  0  0  0  0  0  0  0  0  0  0  0
  149.2410  142.3637  156.3273 H   0  0  0  0  0  0  0  0  0  0  0  0
  150.2927  140.2330  157.4290 H   0  0  0  0  0  0  0  0  0  0  0  0
  152.8635  141.2150  156.0921 H   0  0  0  0  0  0  0  0  0  0  0  0
  152.6767  139.8119  157.1167 H   0  0  0  0  0  0  0  0  0  0  0  0
  152.4357  138.8182  155.3571 H   0  0  0  0  0  0  0  0  0  0  0  0
  150.2805  142.2681  158.6635 H   0  0  0  0  0  0  0  0  0  0  0  0
  151.9372  140.9135  159.7985 H   0  0  0  0  0  0  0  0  0  0  0  0
  153.1204  141.2037  158.5158 H   0  0  0  0  0  0  0  0  0  0  0  0
  151.9875  143.2327  160.4815 H   0  0  0  0  0  0  0  0  0  0  0  0
  153.6886  142.9340  160.1099 H   0  0  0  0  0  0  0  0  0  0  0  0
  152.3846  143.2583  156.7136 H   0  0  0  0  0  0  0  0  0  0  0  0
  150.9772  144.1178  157.3385 H   0  0  0  0  0  0  0  0  0  0  0  0
  143.8508  136.7680  153.5238 H   0  0  0  0  0  0  0  0  0  0  0  0
  144.5151  136.0391  152.0857 H   0  0  0  0  0  0  0  0  0  0  0  0
  143.6638  134.5468  154.6011 H   0  0  0  0  0  0  0  0  0  0  0  0
  141.6801  135.3227  153.5066 H   0  0  0  0  0  0  0  0  0  0  0  0
  141.8172  133.5970  153.2020 H   0  0  0  0  0  0  0  0  0  0  0  0
  142.2114  134.7652  151.9354 H   0  0  0  0  0  0  0  0  0  0  0  0
  144.0657  132.6159  153.4680 H   0  0  0  0  0  0  0  0  0  0  0  0
  1  2  1  0  0  0  0
  1 30  1  0  0  0  0
  1 31  1  0  0  0  0
  1 32  1  0  0  0  0
  2  3  1  0  0  0  0
  2 33  1  0  0  0  0
  2 34  1  0  0  0  0
  3 28  1  0  0  0  0
  3  4  1  0  0  0  0
  3 64  1  0  0  0  0
  4  5  1  0  0  0  0
  4 35  1  0  0  0  0
  4 36  1  0  0  0  0
  5  6  1  0  0  0  0
  5 37  1  0  0  0  0
  5 38  1  0  0  0  0
  6  7  1  0  0  0  0
  6 27  1  0  0  0  0
  6 39  1  0  0  0  0
  7  8  1  0  0  0  0
  7  9  1  0  0  0  0
  8 40  1  0  0  0  0
  8 41  1  0  0  0  0
  8 42  1  0  0  0  0
  9 14  1  0  0  0  0
  9 10  2  0  0  0  0
 10 11  1  0  0  0  0
 11 12  2  0  0  0  0
 11 43  1  0  0  0  0
 12 13  1  0  0  0  0
 13 17  1  0  0  0  0
 13 14  2  0  0  0  0
 14 15  1  0  0  0  0
 15 16  2  0  0  0  0
 16 17  1  0  0  0  0
 16 44  1  0  0  0  0
 17 18  1  0  0  0  0
 18 19  1  0  0  0  0
 18 45  1  0  0  0  0
 18 46  1  0  0  0  0
 19 20  1  0  0  0  0
 19 22  1  0  0  0  0
 19 47  1  0  0  0  0
 20 21  1  0  0  0  0
 20 48  1  0  0  0  0
 20 49  1  0  0  0  0
 21 50  1  0  0  0  0
 22 26  1  0  0  0  0
 22 23  1  0  0  0  0
 22 51  1  0  0  0  0
 23 24  1  0  0  0  0
 23 52  1  0  0  0  0
 23 53  1  0  0  0  0
 24 25  1  0  0  0  0
 24 54  1  0  0  0  0
 24 55  1  0  0  0  0
 25 26  1  0  0  0  0
 26 56  1  0  0  0  0
 26 57  1  0  0  0  0
 27 28  1  0  0  0  0
 27 58  1  0  0  0  0
 27 59  1  0  0  0  0
 28 29  1  0  0  0  0
 28 60  1  0  0  0  0
 29 61  1  0  0  0  0
 29 62  1  0  0  0  0
 29 63  1  0  0  0  0
M  CHG  1   3   1
M  END
> <s_m_source_file>
AV-unprocessed.smi

> <i_m_source_file_index>
249

> <i_lp_mmshare_version>
43012

> <i_f3d_flags>
0

> <s_epik_input>
W0NIM11bQ0gyXU4xW0NIMl1bQ0gyXVtDQEhdKFtDSDJdW0NASF0xW0NIM10pTihbQ0gzXSljKG5bY0hdbjIpYyhjMjMpbltjSF1uM1tDSDJdW0NASF0oW0NIMl1bT0hdKVtDQEBIXTRbQ0gyXVtDSDJdT1tDSDJdNA==

> <s_epik_cmdline>
J2VwaWtfcHl0aG9uJywgJy1waCcsICc3LjAnLCAnLXRuJywgJzgnLCAnLW1hJywgJzIwMCcsICctbWV0YWxfYmluZGluZycsICctaW1hZScsICc8aW5maWxlLm1hZT4nLCAnLW9tYWUnLCAnPG91dGZpbGUubWFlPic=

> <r_lp_tautomer_probability>
1

> <r_epik_Ionization_Penalty>
0.00294688

> <r_epik_Ionization_Penalty_Charging>
0.00169971

> <r_epik_Ionization_Penalty_Neutral>
0.00124717

> <r_epik_State_Penalty>
-0

> <r_epik_Charging_Adjusted_Penalty>
0.00169971

> <i_epik_Tot_Q>
1

> <i_epik_Tot_abs_Q>
1

> <r_epik_Metal_State_Penalty>
-0

> <b_epik_Metal_Only>
0

> <s_lp_Force_Field>
OPLS_2005

> <r_lp_Energy>
53.8972

> <b_lp_Chiralities_Consistent>
1

> <s_lp_Variant>
AV-unprocessed.smi:249-14

> <Gold.Version>
5.8.1

> <Gold.Id.Protein>
6NUR|6NUR_protein|mol2

> <Gold.PLP.Fitness>
48.8504

> <Gold.PLP.PLP>
-40.8227

> <Gold.PLP.part.hbond>
-2.0000

> <Gold.PLP.part.metal>
0.0000

> <Gold.PLP.part.buried>
-6.7630

> <Gold.PLP.part.nonpolar>
-32.9614

> <Gold.PLP.part.repulsive>
1.5341

> <Gold.PLP.ligand.clash>
0.0000

> <Gold.PLP.ligand.torsion>
0.8127

> <Gold.PLP.Chemscore.Hbond>
3.0000

> <Gold.PLP.Chemscore.CHOScore>
0.0085

> <Gold.PLP.Chemscore.Metal>
0.0000

> <Gold.Chemscore.Hbonds>
donor molecule, donor type, donor heavy atom, donor atom, acceptor molecule, acceptor atom, score
      L1  H     3    64       P1 10957  1.72
      P1  H  7989  7998       L1    21  0.58
      L1  C    16    44       P1  7957  0.29

> <Gold.PLP.Chemscore.Internal.Correction>
0.6276

> <Gold.Rescore>
     Score         DG    S(hbond)    S(metal)    S(lipo)     H(rot)  DE(clash)    DE(int)     intcor
     10.93     -16.08       1.82        0.00      96.54       2.65       1.37       3.78       ----

> <Gold.Chemscore.Fitness>
10.9324

> <Gold.Chemscore.DG>
-16.0821

> <Gold.Chemscore.ZeroCoef>
-5.4800

> <Gold.Chemscore.Hbond>
1.8248

> <Gold.Chemscore.Metal>
0.0000

> <Gold.Chemscore.Lipo>
96.5393

> <Gold.Chemscore.Internal_Hbond>
0.0000

> <Gold.Chemscore.DEClash>
1.3705

> <Gold.Chemscore.DEInternal>
3.7792

> <Gold.Chemscore.Rot>
2.6515

> <Gold.Chemscore.Internal.Correction>
   9.000000E+99

> <Gold.Chemscore.Hbonds>
donor molecule, donor type, donor heavy atom, donor atom, acceptor molecule, acceptor atom, score
      L1  H     3    64       P1 10957  0.32
      P1  H  7989  7998       L1    21  0.35

> <Gold.Chemscore.Hbond.Weighted>
-6.0950

> <Gold.Chemscore.Metal.Weighted>
-0.0000

> <Gold.Chemscore.Lipo.Weighted>
-11.2951

> <Gold.Chemscore.Internal_Hbond.Weighted>
0.0000

> <Gold.Chemscore.DEClash.Weighted>
1.3705

> <Gold.Chemscore.DEInternal.Weighted>
3.7792

> <Gold.Chemscore.Rot.Weighted>
6.7880

> <Gold.Chemscore.Internal.Correction.Weighted>
   9.000000E+99

> <Gold.Protein.RotatedTorsions>
[ 6907 6896 6895 6894 ] final  103.59 input  -60.11 | X-H torsion
[ 7974 7965 7964 7962 ] final  -61.78 input  175.53 | X-H torsion
[ 8008 7997 7996 7995 ] final   71.11 input   59.86 | X-H torsion
[ 10167 10162 10161 10158 ] final   32.12 input  -65.29 | X-H torsion
[ 10718 10713 10712 10709 ] final -116.43 input   66.30 | X-H torsion
[ 10763 10752 10751 10750 ] final  146.31 input  -60.55 | X-H torsion
[ 11005 11000 10999 10996 ] final -111.06 input  -57.11 | X-H torsion

> <Gold.Protein.ActiveResidues>
 VAL166  LYS551  ARG553  GLY616  TRP617  ASP618  TYR619  PRO620  LYS621  CYS622 
 ASP623  PHE694  ASN695  SER759  ASP760  ASP761  ALA762  ILE779  LEU786  VAL792 
 PHE793  MET794  SER795  GLU796  ALA797  LYS798  CYS799  TRP800  GLU811  SER814 

> <Gold.Protein.RotatedAtoms>
  152.5291  133.9803  159.7803 H   0  0  0  0  0  0  0  0  0  0  0  0  # atno 6907 bound_to 6896
  151.0058  133.6004  159.2696 H   0  0  0  0  0  0  0  0  0  0  0  0  # atno 6908 bound_to 6896
  151.3096  135.0797  159.9321 H   0  0  0  0  0  0  0  0  0  0  0  0  # atno 6909 bound_to 6896
  145.7993  140.8664  143.0240 H   0  0  0  0  0  0  0  0  0  0  0  0  # atno 7974 bound_to 7965
  155.7489  140.3489  155.5140 H   0  0  0  0  0  0  0  0  0  0  0  0  # atno 8008 bound_to 7997
  155.9023  140.1036  157.1362 H   0  0  0  0  0  0  0  0  0  0  0  0  # atno 8009 bound_to 7997
  154.4045  140.1283  156.4439 H   0  0  0  0  0  0  0  0  0  0  0  0  # atno 8010 bound_to 7997
  140.4527  144.1024  150.6195 H   0  0  0  0  0  0  0  0  0  0  0  0  # atno 10167 bound_to 10162
  156.0963  130.6135  150.9034 H   0  0  0  0  0  0  0  0  0  0  0  0  # atno 10718 bound_to 10713
  154.0198  135.2907  155.3382 H   0  0  0  0  0  0  0  0  0  0  0  0  # atno 10763 bound_to 10752
  154.7053  135.5172  153.8589 H   0  0  0  0  0  0  0  0  0  0  0  0  # atno 10764 bound_to 10752
  153.0686  135.6640  154.0421 H   0  0  0  0  0  0  0  0  0  0  0  0  # atno 10765 bound_to 10752
  141.0756  133.9306  157.2396 H   0  0  0  0  0  0  0  0  0  0  0  0  # atno 11005 bound_to 11000
  144.6771  140.0235  143.7483 LP  0  0  0  0  0  0  0  0  0  0  0  0  # atno 17320 bound_to 7965
  145.9895  139.3004  143.0993 LP  0  0  0  0  0  0  0  0  0  0  0  0  # atno 17321 bound_to 7965
  140.4188  143.2621  151.9742 LP  0  0  0  0  0  0  0  0  0  0  0  0  # atno 17342 bound_to 10162
  139.4798  144.5850  151.7869 LP  0  0  0  0  0  0  0  0  0  0  0  0  # atno 17343 bound_to 10162
  157.6124  131.0935  150.8771 LP  0  0  0  0  0  0  0  0  0  0  0  0  # atno 17370 bound_to 10713
  156.8908  130.5212  149.5286 LP  0  0  0  0  0  0  0  0  0  0  0  0  # atno 17371 bound_to 10713
  139.9568  135.0163  156.9152 LP  0  0  0  0  0  0  0  0  0  0  0  0  # atno 17394 bound_to 11000
  140.5580  134.0562  155.7390 LP  0  0  0  0  0  0  0  0  0  0  0  0  # atno 17395 bound_to 11000

$$$$
