AV-unprocessed.smi:1535|AV-procd|sdf|6182|dock2
  -GOLD-   22720 6343D 1   1.00000     0.00000
 Structure written by MMmdl.
 47 48  0  0  0  0  0  0  0  0  2 V2000
  152.8270  143.3291  160.9428 C   0  0  0  0  0  0  0  0  0  0  0  0
  152.2680  142.7160  159.6708 C   0  0  0  0  0  0  0  0  0  0  0  0
  152.8195  141.5068  159.1911 C   0  0  0  0  0  0  0  0  0  0  0  0
  152.3274  140.9035  158.0133 C   0  0  0  0  0  0  0  0  0  0  0  0
  152.7111  139.7375  157.3733 N   0  0  0  0  0  0  0  0  0  0  0  0
  151.8813  139.7158  156.3351 C   0  0  0  0  0  0  0  0  0  0  0  0
  151.0074  140.7345  156.2224 N   0  0  0  0  0  0  0  0  0  0  0  0
  150.0195  140.9227  155.1759 C   0  0  0  0  0  0  0  0  0  0  0  0
  149.5697  139.5887  154.5452 C   0  0  2  0  0  0  0  0  0  0  0  0
  150.5142  139.1864  153.5739 O   0  0  0  0  0  0  0  0  0  0  0  0
  148.1972  139.6910  153.8524 C   0  0  0  0  0  0  0  0  0  0  0  0
  147.6516  138.3581  153.4856 N   0  3  2  0  0  0  0  0  0  0  0  0
  146.4910  138.4533  152.5693 C   0  0  0  0  0  0  0  0  0  0  0  0
  147.3613  137.4987  154.6620 C   0  0  0  0  0  0  0  0  0  0  0  0
  145.9748  137.7809  155.2750 C   0  0  1  0  0  0  0  0  0  0  0  0
  145.6865  136.8537  156.4621 C   0  0  0  0  0  0  0  0  0  0  0  0
  145.8397  139.1923  155.6698 C   0  0  0  0  0  0  0  0  0  0  0  0
  145.7286  140.3007  155.9799 N   0  0  0  0  0  0  0  0  0  0  0  0
  151.2621  141.5498  157.3205 C   0  0  0  0  0  0  0  0  0  0  0  0
  150.7060  142.7542  157.7870 C   0  0  0  0  0  0  0  0  0  0  0  0
  151.2067  143.3409  158.9682 C   0  0  0  0  0  0  0  0  0  0  0  0
  150.5946  144.6370  159.4695 C   0  0  0  0  0  0  0  0  0  0  0  0
  153.6433  142.7304  161.3481 H   0  0  0  0  0  0  0  0  0  0  0  0
  152.0518  143.3981  161.7061 H   0  0  0  0  0  0  0  0  0  0  0  0
  153.2122  144.3300  160.7477 H   0  0  0  0  0  0  0  0  0  0  0  0
  153.6276  141.0301  159.7260 H   0  0  0  0  0  0  0  0  0  0  0  0
  151.9123  138.9142  155.6115 H   0  0  0  0  0  0  0  0  0  0  0  0
  149.1672  141.4448  155.6117 H   0  0  0  0  0  0  0  0  0  0  0  0
  150.4339  141.5869  154.4163 H   0  0  0  0  0  0  0  0  0  0  0  0
  149.5467  138.8122  155.3101 H   0  0  0  0  0  0  0  0  0  0  0  0
  150.0929  139.1805  152.7273 H   0  0  0  0  0  0  0  0  0  0  0  0
  147.5145  140.2173  154.5189 H   0  0  0  0  0  0  0  0  0  0  0  0
  148.2647  140.3084  152.9548 H   0  0  0  0  0  0  0  0  0  0  0  0
  145.6411  138.9261  153.0633 H   0  0  0  0  0  0  0  0  0  0  0  0
  146.1817  137.4628  152.2336 H   0  0  0  0  0  0  0  0  0  0  0  0
  146.7338  139.0345  151.6800 H   0  0  0  0  0  0  0  0  0  0  0  0
  147.4550  136.4488  154.3794 H   0  0  0  0  0  0  0  0  0  0  0  0
  148.1134  137.6783  155.4321 H   0  0  0  0  0  0  0  0  0  0  0  0
  145.1998  137.6071  154.5294 H   0  0  0  0  0  0  0  0  0  0  0  0
  144.6926  137.0397  156.8701 H   0  0  0  0  0  0  0  0  0  0  0  0
  146.4083  137.0029  157.2660 H   0  0  0  0  0  0  0  0  0  0  0  0
  145.7297  135.8059  156.1637 H   0  0  0  0  0  0  0  0  0  0  0  0
  149.8999  143.2221  157.2414 H   0  0  0  0  0  0  0  0  0  0  0  0
  149.7959  144.9809  158.8118 H   0  0  0  0  0  0  0  0  0  0  0  0
  151.3486  145.4228  159.5194 H   0  0  0  0  0  0  0  0  0  0  0  0
  150.1717  144.4983  160.4648 H   0  0  0  0  0  0  0  0  0  0  0  0
  148.3779  137.8807  152.9706 H   0  0  0  0  0  0  0  0  0  0  0  0
  1  2  1  0  0  0  0
  1 23  1  0  0  0  0
  1 24  1  0  0  0  0
  1 25  1  0  0  0  0
  2 21  1  0  0  0  0
  2  3  2  0  0  0  0
  3  4  1  0  0  0  0
  3 26  1  0  0  0  0
  4 19  2  0  0  0  0
  4  5  1  0  0  0  0
  5  6  2  0  0  0  0
  6  7  1  0  0  0  0
  6 27  1  0  0  0  0
  7  8  1  0  0  0  0
  7 19  1  0  0  0  0
  8  9  1  0  0  0  0
  8 28  1  0  0  0  0
  8 29  1  0  0  0  0
  9 10  1  0  0  0  0
  9 11  1  0  0  0  0
  9 30  1  0  0  0  0
 10 31  1  0  0  0  0
 11 12  1  0  0  0  0
 11 32  1  0  0  0  0
 11 33  1  0  0  0  0
 12 13  1  0  0  0  0
 12 14  1  0  0  0  0
 12 47  1  0  0  0  0
 13 34  1  0  0  0  0
 13 35  1  0  0  0  0
 13 36  1  0  0  0  0
 14 15  1  0  0  0  0
 14 37  1  0  0  0  0
 14 38  1  0  0  0  0
 15 16  1  0  0  0  0
 15 17  1  0  0  0  0
 15 39  1  0  0  0  0
 16 40  1  0  0  0  0
 16 41  1  0  0  0  0
 16 42  1  0  0  0  0
 17 18  3  0  0  0  0
 19 20  1  0  0  0  0
 20 21  2  0  0  0  0
 20 43  1  0  0  0  0
 21 22  1  0  0  0  0
 22 44  1  0  0  0  0
 22 45  1  0  0  0  0
 22 46  1  0  0  0  0
M  CHG  1  12   1
M  END
> <s_m_source_file>
AV-unprocessed.smi

> <i_m_source_file_index>
1535

> <i_lp_mmshare_version>
43012

> <i_f3d_flags>
0

> <s_epik_input>
W0NIM11jKFtjSF0xKWMoW0NIM10pW2NIXWMoYzEyKW4oW2NIXW4yKVtDSDJdW0NASF0oW09IXSlbQ0gyXU4oW0NIM10pW0NIMl1bQ0BIXShbQ0gzXSlDI04=

> <s_epik_cmdline>
J2VwaWtfcHl0aG9uJywgJy1waCcsICc3LjAnLCAnLXRuJywgJzgnLCAnLW1hJywgJzIwMCcsICctbWV0YWxfYmluZGluZycsICctaW1hZScsICc8aW5maWxlLm1hZT4nLCAnLW9tYWUnLCAnPG91dGZpbGUubWFlPic=

> <r_epik_Ionization_Penalty>
2.21058

> <r_epik_Ionization_Penalty_Charging>
2.12381

> <r_epik_Ionization_Penalty_Neutral>
0.0867699

> <r_epik_State_Penalty>
2.36208

> <r_epik_Charging_Adjusted_Penalty>
4.48589

> <i_epik_Tot_Q>
1

> <i_epik_Tot_abs_Q>
1

> <r_epik_Metal_State_Penalty>
2.2818

> <b_epik_Metal_Only>
0

> <s_lp_Force_Field>
OPLS_2005

> <r_lp_Energy>
14.5369

> <b_lp_Chiralities_Consistent>
1

> <s_lp_Variant>
AV-unprocessed.smi:1535-13

> <Gold.Version>
5.8.1

> <Gold.Id.Protein>
6NUR|6NUR_protein|mol2

> <Gold.PLP.Fitness>
49.6986

> <Gold.PLP.PLP>
-36.4449

> <Gold.PLP.part.hbond>
-4.0000

> <Gold.PLP.part.metal>
0.0000

> <Gold.PLP.part.buried>
-0.6757

> <Gold.PLP.part.nonpolar>
-31.9352

> <Gold.PLP.part.repulsive>
0.0718

> <Gold.PLP.ligand.clash>
0.0000

> <Gold.PLP.ligand.torsion>
0.8811

> <Gold.PLP.Chemscore.Hbond>
4.8800

> <Gold.PLP.Chemscore.CHOScore>
0.0000

> <Gold.PLP.Chemscore.Metal>
0.0000

> <Gold.Chemscore.Hbonds>
donor molecule, donor type, donor heavy atom, donor atom, acceptor molecule, acceptor atom, score
      L1  H    10    31       P1  7957  1.00
      L1  H    12    47       P1  7948  1.87
      P1  H  7989  7998       L1    10  0.88
      P1  H  7997  8008       L1     5  1.00

> <Gold.PLP.Chemscore.Internal.Correction>
0.3759

> <Gold.Rescore>
     Score         DG    S(hbond)    S(metal)    S(lipo)     H(rot)  DE(clash)    DE(int)     intcor
     17.29     -19.61       2.87        0.00      95.81       2.60       1.29       1.03       ----

> <Gold.Chemscore.Fitness>
17.2904

> <Gold.Chemscore.DG>
-19.6124

> <Gold.Chemscore.ZeroCoef>
-5.4800

> <Gold.Chemscore.Hbond>
2.8704

> <Gold.Chemscore.Metal>
0.0000

> <Gold.Chemscore.Lipo>
95.8057

> <Gold.Chemscore.Internal_Hbond>
0.0000

> <Gold.Chemscore.DEClash>
1.2939

> <Gold.Chemscore.DEInternal>
1.0281

> <Gold.Chemscore.Rot>
2.6031

> <Gold.Chemscore.Internal.Correction>
   9.000000E+99

> <Gold.Chemscore.Hbonds>
donor molecule, donor type, donor heavy atom, donor atom, acceptor molecule, acceptor atom, score
      L1  H    10    31       P1  7957  0.75
      L1  H    12    47       P1  7948  0.84
      P1  H  7989  7998       L1    10  0.06
      P1  H  7997  8008       L1     5  0.35

> <Gold.Chemscore.Hbond.Weighted>
-9.5871

> <Gold.Chemscore.Metal.Weighted>
-0.0000

> <Gold.Chemscore.Lipo.Weighted>
-11.2093

> <Gold.Chemscore.Internal_Hbond.Weighted>
0.0000

> <Gold.Chemscore.DEClash.Weighted>
1.2939

> <Gold.Chemscore.DEInternal.Weighted>
1.0281

> <Gold.Chemscore.Rot.Weighted>
6.6640

> <Gold.Chemscore.Internal.Correction.Weighted>
   9.000000E+99

> <Gold.Protein.RotatedTorsions>
[ 6907 6896 6895 6894 ] final    6.53 input  -60.11 | X-H torsion
[ 7974 7965 7964 7962 ] final  -82.11 input  175.53 | X-H torsion
[ 8008 7997 7996 7995 ] final  -73.00 input   59.86 | X-H torsion
[ 10167 10162 10161 10158 ] final   99.50 input  -65.29 | X-H torsion
[ 10718 10713 10712 10709 ] final -100.81 input   66.30 | X-H torsion
[ 10763 10752 10751 10750 ] final -139.46 input  -60.55 | X-H torsion
[ 11005 11000 10999 10996 ] final -168.00 input  -57.11 | X-H torsion

> <Gold.Protein.ActiveResidues>
 VAL166  LYS551  ARG553  GLY616  TRP617  ASP618  TYR619  PRO620  LYS621  CYS622 
 ASP623  PHE694  ASN695  SER759  ASP760  ASP761  ALA762  ILE779  LEU786  VAL792 
 PHE793  MET794  SER795  GLU796  ALA797  LYS798  CYS799  TRP800  GLU811  SER814 

> <Gold.Protein.RotatedAtoms>
  151.6752  135.0970  160.0205 H   0  0  0  0  0  0  0  0  0  0  0  0  # atno 6907 bound_to 6896
  152.3868  133.6618  159.6214 H   0  0  0  0  0  0  0  0  0  0  0  0  # atno 6908 bound_to 6896
  150.7792  133.8938  159.3362 H   0  0  0  0  0  0  0  0  0  0  0  0  # atno 6909 bound_to 6896
  145.5376  140.9513  143.1568 H   0  0  0  0  0  0  0  0  0  0  0  0  # atno 7974 bound_to 7965
  154.5212  140.0787  156.8174 H   0  0  0  0  0  0  0  0  0  0  0  0  # atno 8008 bound_to 7997
  155.3573  140.3416  155.4222 H   0  0  0  0  0  0  0  0  0  0  0  0  # atno 8009 bound_to 7997
  156.1683  140.1611  156.8480 H   0  0  0  0  0  0  0  0  0  0  0  0  # atno 8010 bound_to 7997
  139.7611  144.6954  151.0291 H   0  0  0  0  0  0  0  0  0  0  0  0  # atno 10167 bound_to 10162
  156.0174  130.5344  150.6871 H   0  0  0  0  0  0  0  0  0  0  0  0  # atno 10718 bound_to 10713
  154.8608  135.3582  154.5550 H   0  0  0  0  0  0  0  0  0  0  0  0  # atno 10763 bound_to 10752
  153.6167  135.7007  153.5331 H   0  0  0  0  0  0  0  0  0  0  0  0  # atno 10764 bound_to 10752
  153.3164  135.4164  155.1340 H   0  0  0  0  0  0  0  0  0  0  0  0  # atno 10765 bound_to 10752
  140.5470  134.5466  157.5113 H   0  0  0  0  0  0  0  0  0  0  0  0  # atno 11005 bound_to 11000
  144.7593  139.6995  143.7241 LP  0  0  0  0  0  0  0  0  0  0  0  0  # atno 17320 bound_to 7965
  146.2002  139.5293  142.9748 LP  0  0  0  0  0  0  0  0  0  0  0  0  # atno 17321 bound_to 7965
  140.7807  143.4696  151.0165 LP  0  0  0  0  0  0  0  0  0  0  0  0  # atno 17342 bound_to 10162
  139.8382  143.7600  152.3180 LP  0  0  0  0  0  0  0  0  0  0  0  0  # atno 17343 bound_to 10162
  157.4560  131.0878  151.0795 LP  0  0  0  0  0  0  0  0  0  0  0  0  # atno 17370 bound_to 10713
  157.1297  130.6097  149.5526 LP  0  0  0  0  0  0  0  0  0  0  0  0  # atno 17371 bound_to 10713
  139.9475  134.7676  156.0528 LP  0  0  0  0  0  0  0  0  0  0  0  0  # atno 17394 bound_to 11000
  141.1194  133.6617  156.3176 LP  0  0  0  0  0  0  0  0  0  0  0  0  # atno 17395 bound_to 11000

$$$$
