AV-unprocessed.smi:21|AV-procd|sdf|141|dock8
  -GOLD-   2262015343D 1   1.00000     0.00000
 Structure written by MMmdl.
 62 65  0  0  0  0  0  0  0  0  2 V2000
  144.1703  132.8130  148.9266 C   0  0  0  0  0  0  0  0  0  0  0  0
  144.6954  133.5488  150.0199 O   0  0  0  0  0  0  0  0  0  0  0  0
  145.9415  133.0563  150.4893 C   0  0  1  0  0  0  0  0  0  0  0  0
  146.3382  133.6191  151.8504 C   0  0  0  0  0  0  0  0  0  0  0  0
  147.3190  132.5739  152.4002 C   0  0  1  0  0  0  0  0  0  0  0  0
  147.4391  132.5793  153.9443 C   0  0  0  0  0  0  0  0  0  0  0  0
  148.7443  132.0960  154.4058 N   0  0  0  0  0  0  0  0  0  0  0  0
  149.2652  130.8736  153.8052 C   0  0  0  0  0  0  0  0  0  0  0  0
  149.5469  132.8694  155.1961 C   0  0  0  0  0  0  0  0  0  0  0  0
  150.5604  132.2654  155.8731 N   0  0  0  0  0  0  0  0  0  0  0  0
  151.3792  132.9667  156.6600 C   0  0  0  0  0  0  0  0  0  0  0  0
  151.3706  134.2742  156.9124 N   0  0  0  0  0  0  0  0  0  0  0  0
  150.3642  134.9006  156.2406 C   0  0  0  0  0  0  0  0  0  0  0  0
  149.4126  134.2830  155.3751 C   0  0  0  0  0  0  0  0  0  0  0  0
  148.5353  135.2519  154.8987 N   0  0  0  0  0  0  0  0  0  0  0  0
  148.9450  136.3649  155.4397 C   0  0  0  0  0  0  0  0  0  0  0  0
  150.0518  136.2503  156.2479 N   0  0  0  0  0  0  0  0  0  0  0  0
  150.7208  137.3230  156.9725 C   0  0  0  0  0  0  0  0  0  0  0  0
  151.7060  138.1633  156.1132 C   0  0  1  0  0  0  0  0  0  0  0  0
  151.3446  138.1259  154.6096 C   0  0  0  0  0  0  0  0  0  0  0  0
  151.8321  136.9462  154.0054 O   0  0  0  0  0  0  0  0  0  0  0  0
  151.8457  139.6209  156.6272 C   0  0  2  0  0  0  0  0  0  0  0  0
  151.9333  139.7675  158.1376 C   0  0  0  0  0  0  0  0  0  0  0  0
  151.5734  141.2349  158.3519 C   0  0  0  0  0  0  0  0  0  0  0  0
  150.7148  141.5890  157.2733 O   0  0  0  0  0  0  0  0  0  0  0  0
  150.6283  140.5099  156.3502 C   0  0  0  0  0  0  0  0  0  0  0  0
  146.9129  131.2773  151.7804 N   0  3  1  0  0  0  0  0  0  0  0  0
  146.5758  130.1537  152.6863 C   0  0  0  0  0  0  0  0  0  0  0  0
  145.8524  131.5612  150.7864 C   0  0  0  0  0  0  0  0  0  0  0  0
  146.7333  133.2329  149.7585 H   0  0  0  0  0  0  0  0  0  0  0  0
  148.3024  132.7897  151.9799 H   0  0  0  0  0  0  0  0  0  0  0  0
  143.1999  133.2218  148.6455 H   0  0  0  0  0  0  0  0  0  0  0  0
  144.0281  131.7637  149.1885 H   0  0  0  0  0  0  0  0  0  0  0  0
  144.8208  132.8715  148.0537 H   0  0  0  0  0  0  0  0  0  0  0  0
  146.7770  134.6155  151.7892 H   0  0  0  0  0  0  0  0  0  0  0  0
  145.4555  133.6788  152.4885 H   0  0  0  0  0  0  0  0  0  0  0  0
  147.2030  133.5638  154.3468 H   0  0  0  0  0  0  0  0  0  0  0  0
  146.6907  131.9101  154.3693 H   0  0  0  0  0  0  0  0  0  0  0  0
  150.0333  131.1045  153.0668 H   0  0  0  0  0  0  0  0  0  0  0  0
  148.4751  130.3185  153.2992 H   0  0  0  0  0  0  0  0  0  0  0  0
  149.6888  130.2177  154.5661 H   0  0  0  0  0  0  0  0  0  0  0  0
  152.1527  132.3995  157.1565 H   0  0  0  0  0  0  0  0  0  0  0  0
  148.4462  137.3045  155.2566 H   0  0  0  0  0  0  0  0  0  0  0  0
  149.9562  137.9645  157.4111 H   0  0  0  0  0  0  0  0  0  0  0  0
  151.2468  136.8835  157.8206 H   0  0  0  0  0  0  0  0  0  0  0  0
  152.6874  137.6973  156.2148 H   0  0  0  0  0  0  0  0  0  0  0  0
  150.2681  138.2005  154.4556 H   0  0  0  0  0  0  0  0  0  0  0  0
  151.7963  138.9611  154.0762 H   0  0  0  0  0  0  0  0  0  0  0  0
  151.6525  136.9862  153.0784 H   0  0  0  0  0  0  0  0  0  0  0  0
  152.7320  140.0854  156.1934 H   0  0  0  0  0  0  0  0  0  0  0  0
  151.1961  139.1280  158.6256 H   0  0  0  0  0  0  0  0  0  0  0  0
  152.9166  139.5235  158.5403 H   0  0  0  0  0  0  0  0  0  0  0  0
  151.0934  141.4065  159.3155 H   0  0  0  0  0  0  0  0  0  0  0  0
  152.4663  141.8591  158.3021 H   0  0  0  0  0  0  0  0  0  0  0  0
  150.5902  140.8785  155.3260 H   0  0  0  0  0  0  0  0  0  0  0  0
  149.7022  139.9665  156.5441 H   0  0  0  0  0  0  0  0  0  0  0  0
  145.7311  130.3990  153.3312 H   0  0  0  0  0  0  0  0  0  0  0  0
  147.4274  129.8792  153.3089 H   0  0  0  0  0  0  0  0  0  0  0  0
  146.3061  129.2727  152.1031 H   0  0  0  0  0  0  0  0  0  0  0  0
  144.8764  131.3386  151.2222 H   0  0  0  0  0  0  0  0  0  0  0  0
  145.9641  130.9483  149.8915 H   0  0  0  0  0  0  0  0  0  0  0  0
  147.7180  130.9744  151.2506 H   0  0  0  0  0  0  0  0  0  0  0  0
  1  2  1  0  0  0  0
  1 32  1  0  0  0  0
  1 33  1  0  0  0  0
  1 34  1  0  0  0  0
  2  3  1  0  0  0  0
  3 30  1  0  0  0  0
  3 29  1  0  0  0  0
  3  4  1  0  0  0  0
  4  5  1  0  0  0  0
  4 35  1  0  0  0  0
  4 36  1  0  0  0  0
  5 31  1  0  0  0  0
  5  6  1  0  0  0  0
  5 27  1  0  0  0  0
  6  7  1  0  0  0  0
  6 37  1  0  0  0  0
  6 38  1  0  0  0  0
  7  8  1  0  0  0  0
  7  9  1  0  0  0  0
  8 39  1  0  0  0  0
  8 40  1  0  0  0  0
  8 41  1  0  0  0  0
  9 14  1  0  0  0  0
  9 10  2  0  0  0  0
 10 11  1  0  0  0  0
 11 12  2  0  0  0  0
 11 42  1  0  0  0  0
 12 13  1  0  0  0  0
 13 17  1  0  0  0  0
 13 14  2  0  0  0  0
 14 15  1  0  0  0  0
 15 16  2  0  0  0  0
 16 17  1  0  0  0  0
 16 43  1  0  0  0  0
 17 18  1  0  0  0  0
 18 19  1  0  0  0  0
 18 44  1  0  0  0  0
 18 45  1  0  0  0  0
 19 20  1  0  0  0  0
 19 22  1  0  0  0  0
 19 46  1  0  0  0  0
 20 21  1  0  0  0  0
 20 47  1  0  0  0  0
 20 48  1  0  0  0  0
 21 49  1  0  0  0  0
 22 26  1  0  0  0  0
 22 23  1  0  0  0  0
 22 50  1  0  0  0  0
 23 24  1  0  0  0  0
 23 51  1  0  0  0  0
 23 52  1  0  0  0  0
 24 25  1  0  0  0  0
 24 53  1  0  0  0  0
 24 54  1  0  0  0  0
 25 26  1  0  0  0  0
 26 55  1  0  0  0  0
 26 56  1  0  0  0  0
 27 28  1  0  0  0  0
 27 29  1  0  0  0  0
 27 62  1  0  0  0  0
 28 57  1  0  0  0  0
 28 58  1  0  0  0  0
 28 59  1  0  0  0  0
 29 60  1  0  0  0  0
 29 61  1  0  0  0  0
M  CHG  1  27   1
M  END
> <s_m_source_file>
AV-unprocessed.smi

> <i_m_source_file_index>
21

> <i_lp_mmshare_version>
43012

> <i_f3d_flags>
0

> <s_epik_input>
W0NIM11PW0NASF0xW0NIMl1bQ0BIXShOKFtDSDNdKVtDSDJdMSlbQ0gyXU4oW0NIM10pYyhuW2NIXW4yKWMoYzIzKW5bY0hdbjNbQ0gyXVtDQEhdKFtDSDJdW09IXSlbQ0BASF00W0NIMl1bQ0gyXU9bQ0gyXTQ=

> <s_epik_cmdline>
J2VwaWtfcHl0aG9uJywgJy1waCcsICc3LjAnLCAnLXRuJywgJzgnLCAnLW1hJywgJzIwMCcsICctbWV0YWxfYmluZGluZycsICctaW1hZScsICc8aW5maWxlLm1hZT4nLCAnLW9tYWUnLCAnPG91dGZpbGUubWFlPic=

> <r_lp_tautomer_probability>
1

> <r_epik_Ionization_Penalty>
0.0157465

> <r_epik_Ionization_Penalty_Charging>
0.015354

> <r_epik_Ionization_Penalty_Neutral>
0.000392529

> <r_epik_State_Penalty>
0.0120612

> <r_epik_Charging_Adjusted_Penalty>
0.0274152

> <i_epik_Tot_Q>
1

> <i_epik_Tot_abs_Q>
1

> <r_epik_Metal_State_Penalty>
0.0121253

> <b_epik_Metal_Only>
0

> <s_lp_Force_Field>
OPLS_2005

> <r_lp_Energy>
60.5885

> <b_lp_Chiralities_Consistent>
1

> <s_lp_Variant>
AV-unprocessed.smi:21-21

> <Gold.Version>
5.8.1

> <Gold.Id.Protein>
6NUR|6NUR_protein|mol2

> <Gold.PLP.Fitness>
53.9171

> <Gold.PLP.PLP>
-48.3366

> <Gold.PLP.part.hbond>
-3.6419

> <Gold.PLP.part.metal>
0.0000

> <Gold.PLP.part.buried>
-8.3816

> <Gold.PLP.part.nonpolar>
-37.5899

> <Gold.PLP.part.repulsive>
0.6970

> <Gold.PLP.ligand.clash>
0.0000

> <Gold.PLP.ligand.torsion>
1.8106

> <Gold.PLP.Chemscore.Hbond>
2.9280

> <Gold.PLP.Chemscore.CHOScore>
0.0000

> <Gold.PLP.Chemscore.Metal>
0.0000

> <Gold.Chemscore.Hbonds>
donor molecule, donor type, donor heavy atom, donor atom, acceptor molecule, acceptor atom, score
      L1  H    21    49       P1  7949  0.93
      L1  H    27    62       P1 10747  1.00
      P1  H 10752 10763       L1    21  0.85

> <Gold.PLP.Chemscore.Internal.Correction>
0.4176

> <Gold.Rescore>
     Score         DG    S(hbond)    S(metal)    S(lipo)     H(rot)  DE(clash)    DE(int)     intcor
     15.03     -18.56       2.73        0.00     101.16       3.08       0.00       3.53       ----

> <Gold.Chemscore.Fitness>
15.0296

> <Gold.Chemscore.DG>
-18.5649

> <Gold.Chemscore.ZeroCoef>
-5.4800

> <Gold.Chemscore.Hbond>
2.7317

> <Gold.Chemscore.Metal>
0.0000

> <Gold.Chemscore.Lipo>
101.1556

> <Gold.Chemscore.Internal_Hbond>
0.0000

> <Gold.Chemscore.DEClash>
0.0021

> <Gold.Chemscore.DEInternal>
3.5331

> <Gold.Chemscore.Rot>
3.0758

> <Gold.Chemscore.Internal.Correction>
   9.000000E+99

> <Gold.Chemscore.Hbonds>
donor molecule, donor type, donor heavy atom, donor atom, acceptor molecule, acceptor atom, score
      L1  H    21    49       P1  7949  0.86
      L1  H    27    62       P1 10747  0.98
      P1  H 10752 10763       L1    21  0.14

> <Gold.Chemscore.Hbond.Weighted>
-9.1238

> <Gold.Chemscore.Metal.Weighted>
-0.0000

> <Gold.Chemscore.Lipo.Weighted>
-11.8352

> <Gold.Chemscore.Internal_Hbond.Weighted>
0.0000

> <Gold.Chemscore.DEClash.Weighted>
0.0021

> <Gold.Chemscore.DEInternal.Weighted>
3.5331

> <Gold.Chemscore.Rot.Weighted>
7.8741

> <Gold.Chemscore.Internal.Correction.Weighted>
   9.000000E+99

> <Gold.Protein.RotatedTorsions>
[ 6907 6896 6895 6894 ] final -166.37 input  -60.11 | X-H torsion
[ 7974 7965 7964 7962 ] final  159.28 input  175.53 | X-H torsion
[ 8008 7997 7996 7995 ] final   96.00 input   59.86 | X-H torsion
[ 10167 10162 10161 10158 ] final -114.00 input  -65.29 | X-H torsion
[ 10718 10713 10712 10709 ] final -177.45 input   66.30 | X-H torsion
[ 10763 10752 10751 10750 ] final   18.13 input  -60.55 | X-H torsion
[ 11005 11000 10999 10996 ] final -103.89 input  -57.11 | X-H torsion

> <Gold.Protein.ActiveResidues>
 VAL166  LYS551  ARG553  GLY616  TRP617  ASP618  TYR619  PRO620  LYS621  CYS622 
 ASP623  PHE694  ASN695  SER759  ASP760  ASP761  ALA762  ILE779  LEU786  VAL792 
 PHE793  MET794  SER795  GLU796  ALA797  LYS798  CYS799  TRP800  GLU811  SER814 

> <Gold.Protein.RotatedAtoms>
  151.4426  133.3639  159.2783 H   0  0  0  0  0  0  0  0  0  0  0  0  # atno 6907 bound_to 6896
  150.9147  134.8566  159.7459 H   0  0  0  0  0  0  0  0  0  0  0  0  # atno 6908 bound_to 6896
  152.4951  134.4358  159.9579 H   0  0  0  0  0  0  0  0  0  0  0  0  # atno 6909 bound_to 6896
  144.7799  139.7595  143.6264 H   0  0  0  0  0  0  0  0  0  0  0  0  # atno 7974 bound_to 7965
  156.0749  140.3279  155.7621 H   0  0  0  0  0  0  0  0  0  0  0  0  # atno 8008 bound_to 7997
  155.5246  140.0588  157.2918 H   0  0  0  0  0  0  0  0  0  0  0  0  # atno 8009 bound_to 7997
  154.4550  140.1938  156.0424 H   0  0  0  0  0  0  0  0  0  0  0  0  # atno 8010 bound_to 7997
  140.1057  143.4572  152.1784 H   0  0  0  0  0  0  0  0  0  0  0  0  # atno 10167 bound_to 10162
  156.8297  130.9649  151.3107 H   0  0  0  0  0  0  0  0  0  0  0  0  # atno 10718 bound_to 10713
  153.1276  135.6733  153.9230 H   0  0  0  0  0  0  0  0  0  0  0  0  # atno 10763 bound_to 10752
  153.8726  135.3068  155.3444 H   0  0  0  0  0  0  0  0  0  0  0  0  # atno 10764 bound_to 10752
  154.7679  135.4954  153.9671 H   0  0  0  0  0  0  0  0  0  0  0  0  # atno 10765 bound_to 10752
  141.1125  133.8678  157.1543 H   0  0  0  0  0  0  0  0  0  0  0  0  # atno 11005 bound_to 11000
  146.2001  139.5290  142.9749 LP  0  0  0  0  0  0  0  0  0  0  0  0  # atno 17320 bound_to 7965
  145.6080  141.0344  143.1982 LP  0  0  0  0  0  0  0  0  0  0  0  0  # atno 17321 bound_to 7965
  139.5646  144.7427  151.4057 LP  0  0  0  0  0  0  0  0  0  0  0  0  # atno 17342 bound_to 10162
  140.6953  143.7763  150.7317 LP  0  0  0  0  0  0  0  0  0  0  0  0  # atno 17343 bound_to 10162
  157.6413  130.8808  149.9454 LP  0  0  0  0  0  0  0  0  0  0  0  0  # atno 17370 bound_to 10713
  156.0941  130.3661  150.0339 LP  0  0  0  0  0  0  0  0  0  0  0  0  # atno 17371 bound_to 10713
  140.0027  135.0021  157.0226 LP  0  0  0  0  0  0  0  0  0  0  0  0  # atno 17394 bound_to 11000
  140.4735  134.1362  155.7206 LP  0  0  0  0  0  0  0  0  0  0  0  0  # atno 17395 bound_to 11000

$$$$
