AV-unprocessed.smi:685|AV-procd|sdf|3336|dock3
  -GOLD-   22720 0303D 1   1.00000     0.00000
 Structure written by MMmdl.
 51 52  0  0  0  0  0  0  0  0  2 V2000
  146.2618  142.4622  154.4331 C   0  0  0  0  0  0  0  0  0  0  0  0
  147.5546  141.7617  154.6866 C   0  0  0  0  0  0  0  0  0  0  0  0
  148.5572  142.2557  155.4613 N   0  3  0  0  0  0  0  0  0  0  0  0
  149.5835  141.3935  155.4961 N   0  0  0  0  0  0  0  0  0  0  0  0
  150.7697  141.7334  156.2822 C   0  0  0  0  0  0  0  0  0  0  0  0
  149.3028  140.2955  154.7382 C   0  0  0  0  0  0  0  0  0  0  0  0
  150.2254  139.1354  154.5495 C   0  0  0  0  0  0  0  0  0  0  0  0
  148.0188  140.5238  154.2268 C   0  0  0  0  0  0  0  0  0  0  0  0
  147.2468  139.5964  153.3311 C   0  0  0  0  0  0  0  0  0  0  0  0
  147.4583  138.1061  153.6766 C   0  0  1  0  0  0  0  0  0  0  0  0
  146.8088  137.7075  155.0109 C   0  0  0  0  0  0  0  0  0  0  0  0
  146.9243  137.2583  152.6142 N   0  0  0  0  0  0  0  0  0  0  0  0
  145.6305  137.1819  152.2640 C   0  0  0  0  0  0  0  0  0  0  0  0
  144.7432  137.8278  152.8228 O   0  0  0  0  0  0  0  0  0  0  0  0
  145.2939  136.2370  151.1066 C   0  0  0  0  0  0  0  0  0  0  0  0
  144.3182  135.1159  151.5129 C   0  0  0  0  0  0  0  0  0  0  0  0
  144.4398  133.8591  150.6329 C   0  0  0  0  0  0  0  0  0  0  0  0
  143.7205  132.6394  151.2130 C   0  0  0  0  0  0  0  0  0  0  0  0
  144.3318  131.4381  150.4853 C   0  0  0  0  0  0  0  0  0  0  0  0
  145.7291  131.8817  150.0263 C   0  0  0  0  0  0  0  0  0  0  0  0
  145.8724  133.3524  150.4364 C   0  0  0  0  0  0  0  0  0  0  0  0
  145.4278  141.7677  154.5350 H   0  0  0  0  0  0  0  0  0  0  0  0
  146.2490  142.8736  153.4237 H   0  0  0  0  0  0  0  0  0  0  0  0
  146.1205  143.2779  155.1426 H   0  0  0  0  0  0  0  0  0  0  0  0
  151.1466  140.8344  156.7710 H   0  0  0  0  0  0  0  0  0  0  0  0
  150.5163  142.4746  157.0415 H   0  0  0  0  0  0  0  0  0  0  0  0
  151.5341  142.1352  155.6168 H   0  0  0  0  0  0  0  0  0  0  0  0
  150.0322  138.6404  153.5981 H   0  0  0  0  0  0  0  0  0  0  0  0
  150.0864  138.4123  155.3530 H   0  0  0  0  0  0  0  0  0  0  0  0
  151.2640  139.4669  154.5534 H   0  0  0  0  0  0  0  0  0  0  0  0
  146.1825  139.8316  153.3608 H   0  0  0  0  0  0  0  0  0  0  0  0
  147.5473  139.7787  152.2986 H   0  0  0  0  0  0  0  0  0  0  0  0
  148.5285  137.9086  153.7587 H   0  0  0  0  0  0  0  0  0  0  0  0
  147.2250  138.2765  155.8424 H   0  0  0  0  0  0  0  0  0  0  0  0
  146.9740  136.6515  155.2268 H   0  0  0  0  0  0  0  0  0  0  0  0
  145.7318  137.8785  154.9958 H   0  0  0  0  0  0  0  0  0  0  0  0
  147.5874  136.6953  152.1012 H   0  0  0  0  0  0  0  0  0  0  0  0
  144.8635  136.8294  150.2987 H   0  0  0  0  0  0  0  0  0  0  0  0
  146.2155  135.8020  150.7183 H   0  0  0  0  0  0  0  0  0  0  0  0
  144.4749  134.8495  152.5593 H   0  0  0  0  0  0  0  0  0  0  0  0
  143.2939  135.4857  151.4438 H   0  0  0  0  0  0  0  0  0  0  0  0
  144.0092  134.0681  149.6521 H   0  0  0  0  0  0  0  0  0  0  0  0
  143.9265  132.5590  152.2814 H   0  0  0  0  0  0  0  0  0  0  0  0
  142.6385  132.6946  151.0891 H   0  0  0  0  0  0  0  0  0  0  0  0
  144.3710  130.5576  151.1274 H   0  0  0  0  0  0  0  0  0  0  0  0
  143.7248  131.1811  149.6164 H   0  0  0  0  0  0  0  0  0  0  0  0
  146.5149  131.2708  150.4718 H   0  0  0  0  0  0  0  0  0  0  0  0
  145.8122  131.7794  148.9435 H   0  0  0  0  0  0  0  0  0  0  0  0
  146.4238  133.9340  149.6968 H   0  0  0  0  0  0  0  0  0  0  0  0
  146.4204  133.4131  151.3778 H   0  0  0  0  0  0  0  0  0  0  0  0
  148.5915  143.1314  155.9680 H   0  0  0  0  0  0  0  0  0  0  0  0
  1  2  1  0  0  0  0
  1 22  1  0  0  0  0
  1 23  1  0  0  0  0
  1 24  1  0  0  0  0
  2  8  1  0  0  0  0
  2  3  2  0  0  0  0
  3  4  1  0  0  0  0
  3 51  1  0  0  0  0
  4  5  1  0  0  0  0
  4  6  1  0  0  0  0
  5 25  1  0  0  0  0
  5 26  1  0  0  0  0
  5 27  1  0  0  0  0
  6  7  1  0  0  0  0
  6  8  2  0  0  0  0
  7 28  1  0  0  0  0
  7 29  1  0  0  0  0
  7 30  1  0  0  0  0
  8  9  1  0  0  0  0
  9 10  1  0  0  0  0
  9 31  1  0  0  0  0
  9 32  1  0  0  0  0
 10 11  1  0  0  0  0
 10 12  1  0  0  0  0
 10 33  1  0  0  0  0
 11 34  1  0  0  0  0
 11 35  1  0  0  0  0
 11 36  1  0  0  0  0
 12 13  1  0  0  0  0
 12 37  1  0  0  0  0
 13 14  2  0  0  0  0
 13 15  1  0  0  0  0
 15 16  1  0  0  0  0
 15 38  1  0  0  0  0
 15 39  1  0  0  0  0
 16 17  1  0  0  0  0
 16 40  1  0  0  0  0
 16 41  1  0  0  0  0
 17 21  1  0  0  0  0
 17 18  1  0  0  0  0
 17 42  1  0  0  0  0
 18 19  1  0  0  0  0
 18 43  1  0  0  0  0
 18 44  1  0  0  0  0
 19 20  1  0  0  0  0
 19 45  1  0  0  0  0
 19 46  1  0  0  0  0
 20 21  1  0  0  0  0
 20 47  1  0  0  0  0
 20 48  1  0  0  0  0
 21 49  1  0  0  0  0
 21 50  1  0  0  0  0
M  CHG  1   3   1
M  END
> <s_m_source_file>
AV-unprocessed.smi

> <i_m_source_file_index>
685

> <i_lp_mmshare_version>
43012

> <i_f3d_flags>
0

> <s_epik_input>
W0NIM11jMW5uKFtDSDNdKWMoW0NIM10pYzFbQ0gyXVtDQEhdKFtDSDNdKVtOSF1DKD1PKVtDSDJdW0NIMl1bQ0hdMltDSDJdW0NIMl1bQ0gyXVtDSDJdMg==

> <s_epik_cmdline>
J2VwaWtfcHl0aG9uJywgJy1waCcsICc3LjAnLCAnLXRuJywgJzgnLCAnLW1hJywgJzIwMCcsICctbWV0YWxfYmluZGluZycsICctaW1hZScsICc8aW5maWxlLm1hZT4nLCAnLW9tYWUnLCAnPG91dGZpbGUubWFlPic=

> <r_lp_tautomer_probability>
1

> <r_epik_Ionization_Penalty>
2.26429

> <r_epik_Ionization_Penalty_Charging>
2.26429

> <r_epik_Ionization_Penalty_Neutral>
2.3289e-07

> <r_epik_State_Penalty>
2.41237

> <r_epik_Charging_Adjusted_Penalty>
4.67666

> <i_epik_Tot_Q>
1

> <i_epik_Tot_abs_Q>
1

> <r_epik_Metal_State_Penalty>
2.42525

> <b_epik_Metal_Only>
0

> <s_lp_Force_Field>
OPLS_2005

> <r_lp_Energy>
28.4866

> <b_lp_Chiralities_Consistent>
1

> <s_lp_Variant>
AV-unprocessed.smi:685-4

> <Gold.Version>
5.8.1

> <Gold.Id.Protein>
6NUR|6NUR_protein|mol2

> <Gold.PLP.Fitness>
48.9002

> <Gold.PLP.PLP>
-41.4607

> <Gold.PLP.part.hbond>
-1.2570

> <Gold.PLP.part.metal>
0.0000

> <Gold.PLP.part.buried>
-4.4659

> <Gold.PLP.part.nonpolar>
-39.8720

> <Gold.PLP.part.repulsive>
2.6272

> <Gold.PLP.ligand.clash>
0.0000

> <Gold.PLP.ligand.torsion>
0.6118

> <Gold.PLP.Chemscore.Hbond>
2.7950

> <Gold.PLP.Chemscore.CHOScore>
0.0000

> <Gold.PLP.Chemscore.Metal>
0.0000

> <Gold.Chemscore.Hbonds>
donor molecule, donor type, donor heavy atom, donor atom, acceptor molecule, acceptor atom, score
      L1  H     3    51       P1  8028  1.54
      L1  H    12    37       P1  7948  0.80

> <Gold.PLP.Chemscore.Internal.Correction>
0.2781

> <Gold.Rescore>
     Score         DG    S(hbond)    S(metal)    S(lipo)     H(rot)  DE(clash)    DE(int)     intcor
     17.09     -19.38       1.79        0.00     102.90       1.61       0.69       1.60       ----

> <Gold.Chemscore.Fitness>
17.0943

> <Gold.Chemscore.DG>
-19.3811

> <Gold.Chemscore.ZeroCoef>
-5.4800

> <Gold.Chemscore.Hbond>
1.7910

> <Gold.Chemscore.Metal>
0.0000

> <Gold.Chemscore.Lipo>
102.9004

> <Gold.Chemscore.Internal_Hbond>
0.0000

> <Gold.Chemscore.DEClash>
0.6905

> <Gold.Chemscore.DEInternal>
1.5964

> <Gold.Chemscore.Rot>
1.6095

> <Gold.Chemscore.Internal.Correction>
   9.000000E+99

> <Gold.Chemscore.Hbonds>
donor molecule, donor type, donor heavy atom, donor atom, acceptor molecule, acceptor atom, score
      L1  H     3    51       P1  8028  0.74
      L1  H    12    37       P1  7948  0.76

> <Gold.Chemscore.Hbond.Weighted>
-5.9820

> <Gold.Chemscore.Metal.Weighted>
-0.0000

> <Gold.Chemscore.Lipo.Weighted>
-12.0393

> <Gold.Chemscore.Internal_Hbond.Weighted>
0.0000

> <Gold.Chemscore.DEClash.Weighted>
0.6905

> <Gold.Chemscore.DEInternal.Weighted>
1.5964

> <Gold.Chemscore.Rot.Weighted>
4.1202

> <Gold.Chemscore.Internal.Correction.Weighted>
   9.000000E+99

> <Gold.Protein.RotatedTorsions>
[ 6907 6896 6895 6894 ] final   74.98 input  -60.11 | X-H torsion
[ 7974 7965 7964 7962 ] final   34.10 input  175.53 | X-H torsion
[ 8008 7997 7996 7995 ] final   -6.00 input   59.86 | X-H torsion
[ 10167 10162 10161 10158 ] final  -76.80 input  -65.29 | X-H torsion
[ 10718 10713 10712 10709 ] final   47.77 input   66.30 | X-H torsion
[ 10763 10752 10751 10750 ] final   54.47 input  -60.55 | X-H torsion
[ 11005 11000 10999 10996 ] final  -83.09 input  -57.11 | X-H torsion

> <Gold.Protein.ActiveResidues>
 VAL166  LYS551  ARG553  GLY616  TRP617  ASP618  TYR619  PRO620  LYS621  CYS622 
 ASP623  PHE694  ASN695  SER759  ASP760  ASP761  ALA762  ILE779  LEU786  VAL792 
 PHE793  MET794  SER795  GLU796  ALA797  LYS798  CYS799  TRP800  GLU811  SER814 

> <Gold.Protein.RotatedAtoms>
  152.5003  134.4190  159.9473 H   0  0  0  0  0  0  0  0  0  0  0  0  # atno 6907 bound_to 6896
  151.4162  133.3706  159.2758 H   0  0  0  0  0  0  0  0  0  0  0  0  # atno 6908 bound_to 6896
  150.9256  134.8694  159.7577 H   0  0  0  0  0  0  0  0  0  0  0  0  # atno 6909 bound_to 6896
  146.1376  139.6313  142.9185 H   0  0  0  0  0  0  0  0  0  0  0  0  # atno 7974 bound_to 7965
  154.5981  140.2444  155.7829 H   0  0  0  0  0  0  0  0  0  0  0  0  # atno 8008 bound_to 7997
  156.2293  140.2972  156.0099 H   0  0  0  0  0  0  0  0  0  0  0  0  # atno 8009 bound_to 7997
  155.2258  140.0402  157.2945 H   0  0  0  0  0  0  0  0  0  0  0  0  # atno 8010 bound_to 7997
  140.4825  143.2399  151.8035 H   0  0  0  0  0  0  0  0  0  0  0  0  # atno 10167 bound_to 10162
  157.4619  130.8202  149.7895 H   0  0  0  0  0  0  0  0  0  0  0  0  # atno 10718 bound_to 10713
  152.9805  135.5744  154.4909 H   0  0  0  0  0  0  0  0  0  0  0  0  # atno 10763 bound_to 10752
  154.4444  135.2776  155.1827 H   0  0  0  0  0  0  0  0  0  0  0  0  # atno 10764 bound_to 10752
  154.3482  135.6215  153.5683 H   0  0  0  0  0  0  0  0  0  0  0  0  # atno 10765 bound_to 10752
  141.1660  133.7277  156.8668 H   0  0  0  0  0  0  0  0  0  0  0  0  # atno 11005 bound_to 11000
  145.5120  141.0435  143.2482 LP  0  0  0  0  0  0  0  0  0  0  0  0  # atno 17320 bound_to 7965
  144.7757  139.6636  143.7176 LP  0  0  0  0  0  0  0  0  0  0  0  0  # atno 17321 bound_to 7965
  139.4836  144.4754  151.9373 LP  0  0  0  0  0  0  0  0  0  0  0  0  # atno 17342 bound_to 10162
  140.3839  144.2701  150.5906 LP  0  0  0  0  0  0  0  0  0  0  0  0  # atno 17343 bound_to 10162
  156.0032  130.3869  150.2525 LP  0  0  0  0  0  0  0  0  0  0  0  0  # atno 17370 bound_to 10713
  157.0703  131.0115  151.3192 LP  0  0  0  0  0  0  0  0  0  0  0  0  # atno 17371 bound_to 10713
  140.1809  134.9033  157.2948 LP  0  0  0  0  0  0  0  0  0  0  0  0  # atno 17394 bound_to 11000
  140.2396  134.3812  155.7486 LP  0  0  0  0  0  0  0  0  0  0  0  0  # atno 17395 bound_to 11000

$$$$
