AV-unprocessed.smi:2931|AV-procd|sdf|11249|dock7
  -GOLD-   2272016143D 1   1.00000     0.00000
 Structure written by MMmdl.
 43 44  0  0  0  0  0  0  0  0  3 V2000
  145.4364  130.7681  151.6095 C   0  0  0  0  0  0  0  0  0  0  0  0
  145.1062  132.1371  152.0602 N   0  3  2  0  0  0  0  0  0  0  0  0
  144.1791  132.8305  151.1311 C   0  0  0  0  0  0  0  0  0  0  0  0
  143.7581  134.1992  151.6919 C   0  0  0  0  0  0  0  0  0  0  0  0
  144.9831  135.0685  152.0075 C   0  0  0  0  0  0  0  0  0  0  0  0
  145.9413  134.3132  152.9461 C   0  0  2  0  0  0  0  0  0  0  0  0
  147.1469  135.0997  153.1904 N   0  0  0  0  0  0  0  0  0  0  0  0
  147.5212  135.5803  154.3845 C   0  0  0  0  0  0  0  0  0  0  0  0
  146.8913  135.3996  155.4267 O   0  0  0  0  0  0  0  0  0  0  0  0
  148.6662  136.2742  154.3077 N   0  0  0  0  0  0  0  0  0  0  0  0
  149.3327  136.9321  155.4300 C   0  0  0  0  0  0  0  0  0  0  0  0
  150.5331  137.7909  154.9864 C   0  0  0  0  0  0  0  0  0  0  0  0
  150.2829  139.2873  155.0695 C   0  0  0  0  0  0  0  0  0  0  0  0
  149.1957  139.8684  154.3801 C   0  0  0  0  0  0  0  0  0  0  0  0
  148.9733  141.2560  154.4902 C   0  0  0  0  0  0  0  0  0  0  0  0
  149.7999  142.0121  155.2453 N   0  3  0  0  0  0  0  0  0  0  0  0
  150.8536  141.4975  155.9163 C   0  0  0  0  0  0  0  0  0  0  0  0
  151.1240  140.1157  155.8459 C   0  0  0  0  0  0  0  0  0  0  0  0
  146.3179  132.9463  152.3445 C   0  0  0  0  0  0  0  0  0  0  0  0
  145.9764  130.7877  150.6621 H   0  0  0  0  0  0  0  0  0  0  0  0
  144.5298  130.1770  151.4756 H   0  0  0  0  0  0  0  0  0  0  0  0
  146.0580  130.2597  152.3472 H   0  0  0  0  0  0  0  0  0  0  0  0
  144.6592  132.9534  150.1589 H   0  0  0  0  0  0  0  0  0  0  0  0
  143.2929  132.2151  150.9720 H   0  0  0  0  0  0  0  0  0  0  0  0
  143.1119  134.7121  150.9788 H   0  0  0  0  0  0  0  0  0  0  0  0
  143.1675  134.0576  152.5980 H   0  0  0  0  0  0  0  0  0  0  0  0
  145.4961  135.3278  151.0802 H   0  0  0  0  0  0  0  0  0  0  0  0
  144.6646  136.0081  152.4612 H   0  0  0  0  0  0  0  0  0  0  0  0
  145.4334  134.1323  153.8958 H   0  0  0  0  0  0  0  0  0  0  0  0
  147.7292  135.3052  152.3913 H   0  0  0  0  0  0  0  0  0  0  0  0
  149.1050  136.3691  153.4033 H   0  0  0  0  0  0  0  0  0  0  0  0
  148.5998  137.5669  155.9286 H   0  0  0  0  0  0  0  0  0  0  0  0
  149.6484  136.1980  156.1732 H   0  0  0  0  0  0  0  0  0  0  0  0
  151.4067  137.5380  155.5886 H   0  0  0  0  0  0  0  0  0  0  0  0
  150.7961  137.5430  153.9572 H   0  0  0  0  0  0  0  0  0  0  0  0
  148.5336  139.2578  153.7833 H   0  0  0  0  0  0  0  0  0  0  0  0
  148.1637  141.7791  154.0023 H   0  0  0  0  0  0  0  0  0  0  0  0
  151.4432  142.2012  156.4856 H   0  0  0  0  0  0  0  0  0  0  0  0
  151.9627  139.6994  156.3847 H   0  0  0  0  0  0  0  0  0  0  0  0
  146.9580  132.4039  153.0420 H   0  0  0  0  0  0  0  0  0  0  0  0
  146.8903  133.0785  151.4244 H   0  0  0  0  0  0  0  0  0  0  0  0
  144.6129  132.0384  152.9363 H   0  0  0  0  0  0  0  0  0  0  0  0
  149.6211  143.0148  155.3103 H   0  0  0  0  0  0  0  0  0  0  0  0
  1  2  1  0  0  0  0
  1 20  1  0  0  0  0
  1 21  1  0  0  0  0
  1 22  1  0  0  0  0
  2 19  1  0  0  0  0
  2  3  1  0  0  0  0
  2 42  1  0  0  0  0
  3  4  1  0  0  0  0
  3 23  1  0  0  0  0
  3 24  1  0  0  0  0
  4  5  1  0  0  0  0
  4 25  1  0  0  0  0
  4 26  1  0  0  0  0
  5  6  1  0  0  0  0
  5 27  1  0  0  0  0
  5 28  1  0  0  0  0
  6  7  1  0  0  0  0
  6 19  1  0  0  0  0
  6 29  1  0  0  0  0
  7  8  1  0  0  0  0
  7 30  1  0  0  0  0
  8  9  2  0  0  0  0
  8 10  1  0  0  0  0
 10 11  1  0  0  0  0
 10 31  1  0  0  0  0
 11 12  1  0  0  0  0
 11 32  1  0  0  0  0
 11 33  1  0  0  0  0
 12 13  1  0  0  0  0
 12 34  1  0  0  0  0
 12 35  1  0  0  0  0
 13 18  1  0  0  0  0
 13 14  2  0  0  0  0
 14 15  1  0  0  0  0
 14 36  1  0  0  0  0
 15 16  2  0  0  0  0
 15 37  1  0  0  0  0
 16 17  1  0  0  0  0
 16 43  1  0  0  0  0
 17 18  2  0  0  0  0
 17 38  1  0  0  0  0
 18 39  1  0  0  0  0
 19 40  1  0  0  0  0
 19 41  1  0  0  0  0
M  CHG  1   2   1
M  CHG  1  16   1
M  END
> <s_m_source_file>
AV-unprocessed.smi

> <i_m_source_file_index>
2931

> <i_lp_mmshare_version>
43012

> <i_f3d_flags>
0

> <s_epik_input>
W0NIM11OMVtDSDJdW0NIMl1bQ0gyXVtDQEhdKFtDSDJdMSlbTkhdQyg9TylbTkhdW0NIMl1bQ0gyXWMyW2NIXVtjSF1uW2NIXVtjSF0y

> <s_epik_cmdline>
J2VwaWtfcHl0aG9uJywgJy1waCcsICc3LjAnLCAnLXRuJywgJzgnLCAnLW1hJywgJzIwMCcsICctbWV0YWxfYmluZGluZycsICctaW1hZScsICc8aW5maWxlLm1hZT4nLCAnLW9tYWUnLCAnPG91dGZpbGUubWFlPic=

> <r_epik_Ionization_Penalty>
1.43754

> <r_epik_Ionization_Penalty_Charging>
1.4375

> <r_epik_Ionization_Penalty_Neutral>
3.7629e-05

> <r_epik_State_Penalty>
1.52008

> <r_epik_Charging_Adjusted_Penalty>
2.95758

> <i_epik_Tot_Q>
2

> <i_epik_Tot_abs_Q>
2

> <r_epik_Metal_State_Penalty>
1.57105

> <b_epik_Metal_Only>
0

> <s_lp_Force_Field>
OPLS_2005

> <r_lp_Energy>
22.8727

> <b_lp_Chiralities_Consistent>
1

> <s_lp_Variant>
AV-unprocessed.smi:2931-8

> <Gold.Version>
5.8.1

> <Gold.Id.Protein>
6NUR|6NUR_protein|mol2

> <Gold.PLP.Fitness>
41.7565

> <Gold.PLP.PLP>
-30.7750

> <Gold.PLP.part.hbond>
-2.6953

> <Gold.PLP.part.metal>
0.0000

> <Gold.PLP.part.buried>
-3.1582

> <Gold.PLP.part.nonpolar>
-24.4353

> <Gold.PLP.part.repulsive>
0.2400

> <Gold.PLP.ligand.clash>
0.0000

> <Gold.PLP.ligand.torsion>
0.3782

> <Gold.PLP.Chemscore.Hbond>
3.9040

> <Gold.PLP.Chemscore.CHOScore>
0.0000

> <Gold.PLP.Chemscore.Metal>
0.0000

> <Gold.Chemscore.Hbonds>
donor molecule, donor type, donor heavy atom, donor atom, acceptor molecule, acceptor atom, score
      L1  H     7    30       P1  7948  0.91
      L1  H    10    31       P1  7948  0.96
      L1  H    16    43       P1  8028  2.00

> <Gold.PLP.Chemscore.Internal.Correction>
0.0258

> <Gold.Rescore>
     Score         DG    S(hbond)    S(metal)    S(lipo)     H(rot)  DE(clash)    DE(int)     intcor
     19.28     -19.68       2.90        0.00      74.59       1.65       0.00       0.40       ----

> <Gold.Chemscore.Fitness>
19.2795

> <Gold.Chemscore.DG>
-19.6848

> <Gold.Chemscore.ZeroCoef>
-5.4800

> <Gold.Chemscore.Hbond>
2.9018

> <Gold.Chemscore.Metal>
0.0000

> <Gold.Chemscore.Lipo>
74.5945

> <Gold.Chemscore.Internal_Hbond>
0.0000

> <Gold.Chemscore.DEClash>
0.0048

> <Gold.Chemscore.DEInternal>
0.4005

> <Gold.Chemscore.Rot>
1.6464

> <Gold.Chemscore.Internal.Correction>
   9.000000E+99

> <Gold.Chemscore.Hbonds>
donor molecule, donor type, donor heavy atom, donor atom, acceptor molecule, acceptor atom, score
      L1  H     7    30       P1  7948  0.88
      L1  H    10    31       P1  7948  0.84
      L1  H    16    43       P1  8028  1.00

> <Gold.Chemscore.Hbond.Weighted>
-9.6920

> <Gold.Chemscore.Metal.Weighted>
-0.0000

> <Gold.Chemscore.Lipo.Weighted>
-8.7276

> <Gold.Chemscore.Internal_Hbond.Weighted>
0.0000

> <Gold.Chemscore.DEClash.Weighted>
0.0048

> <Gold.Chemscore.DEInternal.Weighted>
0.4005

> <Gold.Chemscore.Rot.Weighted>
4.2148

> <Gold.Chemscore.Internal.Correction.Weighted>
   9.000000E+99

> <Gold.Protein.RotatedTorsions>
[ 6907 6896 6895 6894 ] final   72.77 input  -60.11 | X-H torsion
[ 7974 7965 7964 7962 ] final  -85.85 input  175.53 | X-H torsion
[ 8008 7997 7996 7995 ] final -167.42 input   59.86 | X-H torsion
[ 10167 10162 10161 10158 ] final  -79.13 input  -65.29 | X-H torsion
[ 10718 10713 10712 10709 ] final  156.24 input   66.30 | X-H torsion
[ 10763 10752 10751 10750 ] final  -61.88 input  -60.55 | X-H torsion
[ 11005 11000 10999 10996 ] final  -39.40 input  -57.11 | X-H torsion

> <Gold.Protein.ActiveResidues>
 VAL166  LYS551  ARG553  GLY616  TRP617  ASP618  TYR619  PRO620  LYS621  CYS622 
 ASP623  PHE694  ASN695  SER759  ASP760  ASP761  ALA762  ILE779  LEU786  VAL792 
 PHE793  MET794  SER795  GLU796  ALA797  LYS798  CYS799  TRP800  GLU811  SER814 

> <Gold.Protein.RotatedAtoms>
  152.4887  134.4521  159.9577 H   0  0  0  0  0  0  0  0  0  0  0  0  # atno 6907 bound_to 6896
  151.4512  133.3611  159.2803 H   0  0  0  0  0  0  0  0  0  0  0  0  # atno 6908 bound_to 6896
  150.9020  134.8457  159.7427 H   0  0  0  0  0  0  0  0  0  0  0  0  # atno 6909 bound_to 6896
  145.4877  140.9554  143.1829 H   0  0  0  0  0  0  0  0  0  0  0  0  # atno 7974 bound_to 7965
  155.8775  140.1003  157.1508 H   0  0  0  0  0  0  0  0  0  0  0  0  # atno 8008 bound_to 7997
  154.4002  140.1335  156.4218 H   0  0  0  0  0  0  0  0  0  0  0  0  # atno 8009 bound_to 7997
  155.7681  140.3461  155.5235 H   0  0  0  0  0  0  0  0  0  0  0  0  # atno 8010 bound_to 7997
  140.4620  143.2451  151.8334 H   0  0  0  0  0  0  0  0  0  0  0  0  # atno 10167 bound_to 10162
  157.2076  131.0690  151.1988 H   0  0  0  0  0  0  0  0  0  0  0  0  # atno 10718 bound_to 10713
  154.2913  135.6253  153.5386 H   0  0  0  0  0  0  0  0  0  0  0  0  # atno 10763 bound_to 10752
  152.9852  135.5656  154.5387 H   0  0  0  0  0  0  0  0  0  0  0  0  # atno 10764 bound_to 10752
  154.4998  135.2871  155.1406 H   0  0  0  0  0  0  0  0  0  0  0  0  # atno 10765 bound_to 10752
  141.0099  133.6913  156.2181 H   0  0  0  0  0  0  0  0  0  0  0  0  # atno 11005 bound_to 11000
  144.7852  139.6443  143.7137 LP  0  0  0  0  0  0  0  0  0  0  0  0  # atno 17320 bound_to 7965
  146.2303  139.5800  142.9560 LP  0  0  0  0  0  0  0  0  0  0  0  0  # atno 17321 bound_to 7965
  139.4807  144.4996  151.9078 LP  0  0  0  0  0  0  0  0  0  0  0  0  # atno 17342 bound_to 10162
  140.4081  144.2404  150.5890 LP  0  0  0  0  0  0  0  0  0  0  0  0  # atno 17343 bound_to 10162
  157.3704  130.7178  149.6561 LP  0  0  0  0  0  0  0  0  0  0  0  0  # atno 17370 bound_to 10713
  155.9694  130.4200  150.4403 LP  0  0  0  0  0  0  0  0  0  0  0  0  # atno 17371 bound_to 10713
  140.6751  134.4826  157.5588 LP  0  0  0  0  0  0  0  0  0  0  0  0  # atno 17394 bound_to 11000
  139.9084  134.8399  156.1620 LP  0  0  0  0  0  0  0  0  0  0  0  0  # atno 17395 bound_to 11000

$$$$
