AV-unprocessed.smi:438|AV-procd|sdf|2571|dock8
  -GOLD-   2262022553D 1   1.00000     0.00000
 Structure written by MMmdl.
 47 48  0  0  0  0  0  0  0  0  2 V2000
  147.8370  132.8861  160.4101 C   0  0  0  0  0  0  0  0  0  0  0  0
  147.7889  134.3897  160.6155 C   0  0  0  0  0  0  0  0  0  0  0  0
  148.5340  135.1565  159.7036 N   0  0  0  0  0  0  0  0  0  0  0  0
  148.5430  136.4295  159.8093 C   0  0  0  0  0  0  0  0  0  0  0  0
  149.5094  137.3506  158.5978 S   0  0  0  0  0  0  0  0  0  0  0  0
  150.8566  138.0948  159.5660 C   0  0  0  0  0  0  0  0  0  0  0  0
  151.5861  139.1870  158.7894 C   0  0  0  0  0  0  0  0  0  0  0  0
  152.4022  138.8822  157.9202 O   0  0  0  0  0  0  0  0  0  0  0  0
  151.2828  140.4538  159.1225 N   0  0  0  0  0  0  0  0  0  0  0  0
  151.8630  141.6846  158.5785 C   0  0  2  0  0  0  0  0  0  0  0  0
  152.7015  142.4411  159.6324 C   0  0  0  0  0  0  0  0  0  0  0  0
  153.3763  143.6780  159.0218 C   0  0  0  0  0  0  0  0  0  0  0  0
  152.3389  144.6039  158.3699 C   0  0  0  0  0  0  0  0  0  0  0  0
  151.5115  143.8558  157.3124 C   0  0  0  0  0  0  0  0  0  0  0  0
  150.8163  142.6108  157.9007 C   0  0  1  0  0  0  0  0  0  0  0  0
  149.9957  141.8878  156.8176 C   0  0  0  0  0  0  0  0  0  0  0  0
  147.8618  137.1224  160.7857 N   0  5  0  0  0  0  0  0  0  0  0  0
  147.1155  136.4507  161.7079 C   0  0  0  0  0  0  0  0  0  0  0  0
  146.4942  137.0327  162.5964 O   0  0  0  0  0  0  0  0  0  0  0  0
  147.0764  134.9807  161.6166 C   0  0  0  0  0  0  0  0  0  0  0  0
  146.2341  134.2017  162.6241 C   0  0  0  0  0  0  0  0  0  0  0  0
  144.7680  134.6573  162.6278 C   0  0  0  0  0  0  0  0  0  0  0  0
  143.9163  133.5343  162.7009 O   0  0  0  0  0  0  0  0  0  0  0  0
  148.1061  132.3790  161.3368 H   0  0  0  0  0  0  0  0  0  0  0  0
  148.5754  132.6140  159.6550 H   0  0  0  0  0  0  0  0  0  0  0  0
  146.8658  132.5175  160.0799 H   0  0  0  0  0  0  0  0  0  0  0  0
  151.5708  137.3216  159.8517 H   0  0  0  0  0  0  0  0  0  0  0  0
  150.4479  138.5157  160.4857 H   0  0  0  0  0  0  0  0  0  0  0  0
  150.5944  140.5772  159.8509 H   0  0  0  0  0  0  0  0  0  0  0  0
  152.5514  141.3492  157.8016 H   0  0  0  0  0  0  0  0  0  0  0  0
  152.0738  142.7576  160.4659 H   0  0  0  0  0  0  0  0  0  0  0  0
  153.4609  141.7800  160.0513 H   0  0  0  0  0  0  0  0  0  0  0  0
  153.9266  144.2195  159.7916 H   0  0  0  0  0  0  0  0  0  0  0  0
  154.1100  143.3670  158.2771 H   0  0  0  0  0  0  0  0  0  0  0  0
  151.6753  145.0070  159.1360 H   0  0  0  0  0  0  0  0  0  0  0  0
  152.8392  145.4584  157.9134 H   0  0  0  0  0  0  0  0  0  0  0  0
  150.7686  144.5329  156.8893 H   0  0  0  0  0  0  0  0  0  0  0  0
  152.1617  143.5601  156.4879 H   0  0  0  0  0  0  0  0  0  0  0  0
  150.1167  142.9611  158.6604 H   0  0  0  0  0  0  0  0  0  0  0  0
  150.6402  141.4855  156.0354 H   0  0  0  0  0  0  0  0  0  0  0  0
  149.2859  142.5679  156.3460 H   0  0  0  0  0  0  0  0  0  0  0  0
  149.4195  141.0608  157.2326 H   0  0  0  0  0  0  0  0  0  0  0  0
  146.6522  134.3116  163.6243 H   0  0  0  0  0  0  0  0  0  0  0  0
  146.2970  133.1347  162.4056 H   0  0  0  0  0  0  0  0  0  0  0  0
  144.5697  135.3085  163.4792 H   0  0  0  0  0  0  0  0  0  0  0  0
  144.5344  135.2205  161.7239 H   0  0  0  0  0  0  0  0  0  0  0  0
  144.2151  132.9778  163.4035 H   0  0  0  0  0  0  0  0  0  0  0  0
  1 24  1  0  0  0  0
  1 25  1  0  0  0  0
  1 26  1  0  0  0  0
  1  2  1  0  0  0  0
  2 20  2  0  0  0  0
  2  3  1  0  0  0  0
  3  4  2  0  0  0  0
  4  5  1  0  0  0  0
  4 17  1  0  0  0  0
  5  6  1  0  0  0  0
  6  7  1  0  0  0  0
  6 27  1  0  0  0  0
  6 28  1  0  0  0  0
  7  8  2  0  0  0  0
  7  9  1  0  0  0  0
  9 10  1  0  0  0  0
  9 29  1  0  0  0  0
 10 15  1  0  0  0  0
 10 11  1  0  0  0  0
 10 30  1  0  0  0  0
 11 12  1  0  0  0  0
 11 31  1  0  0  0  0
 11 32  1  0  0  0  0
 12 13  1  0  0  0  0
 12 33  1  0  0  0  0
 12 34  1  0  0  0  0
 13 14  1  0  0  0  0
 13 35  1  0  0  0  0
 13 36  1  0  0  0  0
 14 15  1  0  0  0  0
 14 37  1  0  0  0  0
 14 38  1  0  0  0  0
 15 16  1  0  0  0  0
 15 39  1  0  0  0  0
 16 40  1  0  0  0  0
 16 41  1  0  0  0  0
 16 42  1  0  0  0  0
 17 18  1  0  0  0  0
 18 19  2  0  0  0  0
 18 20  1  0  0  0  0
 20 21  1  0  0  0  0
 21 22  1  0  0  0  0
 21 43  1  0  0  0  0
 21 44  1  0  0  0  0
 22 23  1  0  0  0  0
 22 45  1  0  0  0  0
 22 46  1  0  0  0  0
 23 47  1  0  0  0  0
M  CHG  1  17  -1
M  END
> <s_m_source_file>
AV-unprocessed.smi

> <i_m_source_file_index>
438

> <i_lp_mmshare_version>
43012

> <i_f3d_flags>
0

> <s_epik_input>
W09IXVtDSDJdW0NIMl1jMWMoW09IXSluYyhuYzFbQ0gzXSlTW0NIMl1DKD1PKVtOSF1bQ0BASF0yW0NIMl1bQ0gyXVtDSDJdW0NIMl1bQ0BIXTJbQ0gzXQ==

> <s_epik_cmdline>
J2VwaWtfcHl0aG9uJywgJy1waCcsICc3LjAnLCAnLXRuJywgJzgnLCAnLW1hJywgJzIwMCcsICctbWV0YWxfYmluZGluZycsICctaW1hZScsICc8aW5maWxlLm1hZT4nLCAnLW9tYWUnLCAnPG91dGZpbGUubWFlPic=

> <r_lp_tautomer_probability>
1

> <r_epik_Ionization_Penalty>
3.69231

> <r_epik_Ionization_Penalty_Charging>
0.00434774

> <r_epik_Ionization_Penalty_Neutral>
3.68796

> <r_epik_State_Penalty>
2.13826

> <r_epik_Charging_Adjusted_Penalty>
2.14261

> <i_epik_Tot_Q>
-1

> <i_epik_Tot_abs_Q>
1

> <r_epik_Metal_State_Penalty>
0.260979

> <b_epik_Metal_Only>
0

> <s_lp_Force_Field>
OPLS_2005

> <r_lp_Energy>
19.4347

> <b_lp_Chiralities_Consistent>
1

> <s_lp_Variant>
AV-unprocessed.smi:438-9

> <Gold.Version>
5.8.1

> <Gold.Id.Protein>
6NUR|6NUR_protein|mol2

> <Gold.PLP.Fitness>
53.9834

> <Gold.PLP.PLP>
-42.7592

> <Gold.PLP.part.hbond>
-3.4446

> <Gold.PLP.part.metal>
0.0000

> <Gold.PLP.part.buried>
-4.6739

> <Gold.PLP.part.nonpolar>
-35.1763

> <Gold.PLP.part.repulsive>
0.2012

> <Gold.PLP.ligand.clash>
0.0000

> <Gold.PLP.ligand.torsion>
0.6650

> <Gold.PLP.Chemscore.Hbond>
4.1567

> <Gold.PLP.Chemscore.CHOScore>
0.0000

> <Gold.PLP.Chemscore.Metal>
0.0000

> <Gold.Chemscore.Hbonds>
donor molecule, donor type, donor heavy atom, donor atom, acceptor molecule, acceptor atom, score
      P1  H  6896  6907       L1     3  0.55
      P1  H  6931  6943       L1    17  1.76
      P1  H  6934  6947       L1    17  1.66

> <Gold.PLP.Chemscore.Internal.Correction>
0.0842

> <Gold.Rescore>
     Score         DG    S(hbond)    S(metal)    S(lipo)     H(rot)  DE(clash)    DE(int)     intcor
     13.27     -16.37       1.31        0.00     116.77       2.79       1.11       1.99       ----

> <Gold.Chemscore.Fitness>
13.2664

> <Gold.Chemscore.DG>
-16.3677

> <Gold.Chemscore.ZeroCoef>
-5.4800

> <Gold.Chemscore.Hbond>
1.3099

> <Gold.Chemscore.Metal>
0.0000

> <Gold.Chemscore.Lipo>
116.7668

> <Gold.Chemscore.Internal_Hbond>
0.0000

> <Gold.Chemscore.DEClash>
1.1098

> <Gold.Chemscore.DEInternal>
1.9914

> <Gold.Chemscore.Rot>
2.7927

> <Gold.Chemscore.Internal.Correction>
   9.000000E+99

> <Gold.Chemscore.Hbonds>
donor molecule, donor type, donor heavy atom, donor atom, acceptor molecule, acceptor atom, score
      P1  H  6896  6907       L1     3  0.24
      P1  H  6931  6943       L1    17  0.29
      P1  H  6934  6947       L1    17  0.35

> <Gold.Chemscore.Hbond.Weighted>
-4.3752

> <Gold.Chemscore.Metal.Weighted>
-0.0000

> <Gold.Chemscore.Lipo.Weighted>
-13.6617

> <Gold.Chemscore.Internal_Hbond.Weighted>
0.0000

> <Gold.Chemscore.DEClash.Weighted>
1.1098

> <Gold.Chemscore.DEInternal.Weighted>
1.9914

> <Gold.Chemscore.Rot.Weighted>
7.1492

> <Gold.Chemscore.Internal.Correction.Weighted>
   9.000000E+99

> <Gold.Protein.RotatedTorsions>
[ 6907 6896 6895 6894 ] final  -73.01 input  -60.11 | X-H torsion
[ 7974 7965 7964 7962 ] final  -90.93 input  175.53 | X-H torsion
[ 8008 7997 7996 7995 ] final   72.06 input   59.86 | X-H torsion
[ 10167 10162 10161 10158 ] final    9.35 input  -65.29 | X-H torsion
[ 10718 10713 10712 10709 ] final  179.38 input   66.30 | X-H torsion
[ 10763 10752 10751 10750 ] final  135.56 input  -60.55 | X-H torsion
[ 11005 11000 10999 10996 ] final -169.48 input  -57.11 | X-H torsion

> <Gold.Protein.ActiveResidues>
 VAL166  LYS551  ARG553  GLY616  TRP617  ASP618  TYR619  PRO620  LYS621  CYS622 
 ASP623  PHE694  ASN695  SER759  ASP760  ASP761  ALA762  ILE779  LEU786  VAL792 
 PHE793  MET794  SER795  GLU796  ALA797  LYS798  CYS799  TRP800  GLU811  SER814 

> <Gold.Protein.RotatedAtoms>
  150.7147  134.5079  159.5592 H   0  0  0  0  0  0  0  0  0  0  0  0  # atno 6907 bound_to 6896
  152.2662  134.7978  160.0431 H   0  0  0  0  0  0  0  0  0  0  0  0  # atno 6908 bound_to 6896
  151.8674  133.3434  159.3760 H   0  0  0  0  0  0  0  0  0  0  0  0  # atno 6909 bound_to 6896
  145.4199  140.9550  143.2187 H   0  0  0  0  0  0  0  0  0  0  0  0  # atno 7974 bound_to 7965
  155.7632  140.3486  155.5208 H   0  0  0  0  0  0  0  0  0  0  0  0  # atno 8008 bound_to 7997
  155.8894  140.1015  157.1450 H   0  0  0  0  0  0  0  0  0  0  0  0  # atno 8009 bound_to 7997
  154.4032  140.1307  156.4283 H   0  0  0  0  0  0  0  0  0  0  0  0  # atno 8010 bound_to 7997
  140.6260  143.8100  150.7234 H   0  0  0  0  0  0  0  0  0  0  0  0  # atno 10167 bound_to 10162
  156.8767  130.9802  151.3067 H   0  0  0  0  0  0  0  0  0  0  0  0  # atno 10718 bound_to 10713
  153.8421  135.3090  155.3427 H   0  0  0  0  0  0  0  0  0  0  0  0  # atno 10763 bound_to 10752
  154.7928  135.4772  154.0095 H   0  0  0  0  0  0  0  0  0  0  0  0  # atno 10764 bound_to 10752
  153.1569  135.6854  153.8891 H   0  0  0  0  0  0  0  0  0  0  0  0  # atno 10765 bound_to 10752
  140.5303  134.5623  157.5073 H   0  0  0  0  0  0  0  0  0  0  0  0  # atno 11005 bound_to 11000
  144.8252  139.5722  143.6968 LP  0  0  0  0  0  0  0  0  0  0  0  0  # atno 17320 bound_to 7965
  146.2662  139.6525  142.9328 LP  0  0  0  0  0  0  0  0  0  0  0  0  # atno 17321 bound_to 7965
  140.1701  143.4202  152.2007 LP  0  0  0  0  0  0  0  0  0  0  0  0  # atno 17342 bound_to 10162
  139.5480  144.7315  151.4522 LP  0  0  0  0  0  0  0  0  0  0  0  0  # atno 17343 bound_to 10162
  157.6164  130.8622  149.9036 LP  0  0  0  0  0  0  0  0  0  0  0  0  # atno 17370 bound_to 10713
  156.0698  130.3687  150.0799 LP  0  0  0  0  0  0  0  0  0  0  0  0  # atno 17371 bound_to 10713
  139.9558  134.7538  156.0346 LP  0  0  0  0  0  0  0  0  0  0  0  0  # atno 17394 bound_to 11000
  141.1285  133.6593  156.3401 LP  0  0  0  0  0  0  0  0  0  0  0  0  # atno 17395 bound_to 11000

$$$$
