AV-unprocessed.smi:1898|AV-procd|sdf|7704|dock1
  -GOLD-   22720 9443D 1   1.00000     0.00000
 Structure written by MMmdl.
 46 47  0  0  0  0  0  0  0  0  3 V2000
  143.5211  145.2579  154.2184 C   0  0  0  0  0  0  0  0  0  0  0  0
  143.6500  144.9944  155.6470 N   0  5  0  0  0  0  0  0  0  0  0  0
  143.9729  143.7766  156.1592 C   0  0  0  0  0  0  0  0  0  0  0  0
  144.4721  143.4664  157.2460 O   0  0  0  0  0  0  0  0  0  0  0  0
  143.6127  142.6511  155.1826 C   0  0  0  0  0  0  0  0  0  0  0  0
  144.8471  141.9941  154.6859 N   0  3  2  0  0  0  0  0  0  0  0  0
  145.4613  141.1035  155.7025 C   0  0  0  0  0  0  0  0  0  0  0  0
  146.6470  140.3187  155.1123 C   0  0  0  0  0  0  0  0  0  0  0  0
  147.7050  141.2477  154.4923 C   0  0  2  0  0  0  0  0  0  0  0  0
  148.4340  141.9641  155.5385 N   0  0  0  0  0  0  0  0  0  0  0  0
  149.3855  141.4363  156.3220 C   0  0  0  0  0  0  0  0  0  0  0  0
  149.7719  140.2716  156.2288 O   0  0  0  0  0  0  0  0  0  0  0  0
  149.8568  142.3468  157.1906 N   0  0  0  0  0  0  0  0  0  0  0  0
  150.8534  142.1892  158.1936 C   0  0  0  0  0  0  0  0  0  0  0  0
  151.7604  141.1024  158.2386 C   0  0  0  0  0  0  0  0  0  0  0  0
  152.6940  141.0349  159.2890 C   0  0  0  0  0  0  0  0  0  0  0  0
  152.6835  142.0511  160.2617 C   0  0  0  0  0  0  0  0  0  0  0  0
  151.8173  143.0846  160.2403 N   0  0  0  0  0  0  0  0  0  0  0  0
  150.9157  143.1517  159.2286 C   0  0  0  0  0  0  0  0  0  0  0  0
  150.0253  144.2088  159.2115 O   0  0  0  0  0  0  0  0  0  0  0  0
  150.0726  145.1547  160.2744 C   0  0  0  0  0  0  0  0  0  0  0  0
  147.0324  142.2152  153.4985 C   0  0  0  0  0  0  0  0  0  0  0  0
  145.8374  142.9536  154.1275 C   0  0  0  0  0  0  0  0  0  0  0  0
  143.3241  146.3106  154.0170 H   0  0  0  0  0  0  0  0  0  0  0  0
  142.7034  144.6975  153.7647 H   0  0  0  0  0  0  0  0  0  0  0  0
  144.4249  145.0021  153.6644 H   0  0  0  0  0  0  0  0  0  0  0  0
  142.9317  141.9130  155.6125 H   0  0  0  0  0  0  0  0  0  0  0  0
  143.0770  143.1160  154.3537 H   0  0  0  0  0  0  0  0  0  0  0  0
  145.7832  141.6964  156.5601 H   0  0  0  0  0  0  0  0  0  0  0  0
  144.7165  140.3962  156.0694 H   0  0  0  0  0  0  0  0  0  0  0  0
  147.0986  139.6876  155.8788 H   0  0  0  0  0  0  0  0  0  0  0  0
  146.2742  139.6403  154.3437 H   0  0  0  0  0  0  0  0  0  0  0  0
  148.4186  140.6262  153.9481 H   0  0  0  0  0  0  0  0  0  0  0  0
  148.1858  142.9314  155.6855 H   0  0  0  0  0  0  0  0  0  0  0  0
  149.4986  143.2851  157.0883 H   0  0  0  0  0  0  0  0  0  0  0  0
  151.7508  140.3142  157.5023 H   0  0  0  0  0  0  0  0  0  0  0  0
  153.3988  140.2189  159.3501 H   0  0  0  0  0  0  0  0  0  0  0  0
  153.3850  142.0301  161.0825 H   0  0  0  0  0  0  0  0  0  0  0  0
  149.3113  145.9175  160.1120 H   0  0  0  0  0  0  0  0  0  0  0  0
  151.0398  145.6574  160.3192 H   0  0  0  0  0  0  0  0  0  0  0  0
  149.8682  144.6837  161.2370 H   0  0  0  0  0  0  0  0  0  0  0  0
  147.7562  142.9343  153.1129 H   0  0  0  0  0  0  0  0  0  0  0  0
  146.6821  141.6501  152.6338 H   0  0  0  0  0  0  0  0  0  0  0  0
  145.3682  143.5780  153.3669 H   0  0  0  0  0  0  0  0  0  0  0  0
  146.1802  143.6260  154.9153 H   0  0  0  0  0  0  0  0  0  0  0  0
  144.5522  141.3983  153.9252 H   0  0  0  0  0  0  0  0  0  0  0  0
  1  2  1  0  0  0  0
  1 24  1  0  0  0  0
  1 25  1  0  0  0  0
  1 26  1  0  0  0  0
  2  3  1  0  0  0  0
  3  4  2  0  0  0  0
  3  5  1  0  0  0  0
  5  6  1  0  0  0  0
  5 27  1  0  0  0  0
  5 28  1  0  0  0  0
  6 23  1  0  0  0  0
  6  7  1  0  0  0  0
  6 46  1  0  0  0  0
  7  8  1  0  0  0  0
  7 29  1  0  0  0  0
  7 30  1  0  0  0  0
  8  9  1  0  0  0  0
  8 31  1  0  0  0  0
  8 32  1  0  0  0  0
  9 10  1  0  0  0  0
  9 22  1  0  0  0  0
  9 33  1  0  0  0  0
 10 11  1  0  0  0  0
 10 34  1  0  0  0  0
 11 12  2  0  0  0  0
 11 13  1  0  0  0  0
 13 14  1  0  0  0  0
 13 35  1  0  0  0  0
 14 19  1  0  0  0  0
 14 15  2  0  0  0  0
 15 16  1  0  0  0  0
 15 36  1  0  0  0  0
 16 17  2  0  0  0  0
 16 37  1  0  0  0  0
 17 18  1  0  0  0  0
 17 38  1  0  0  0  0
 18 19  2  0  0  0  0
 19 20  1  0  0  0  0
 20 21  1  0  0  0  0
 21 39  1  0  0  0  0
 21 40  1  0  0  0  0
 21 41  1  0  0  0  0
 22 23  1  0  0  0  0
 22 42  1  0  0  0  0
 22 43  1  0  0  0  0
 23 44  1  0  0  0  0
 23 45  1  0  0  0  0
M  CHG  1   2  -1
M  CHG  1   6   1
M  END
> <s_m_source_file>
AV-unprocessed.smi

> <i_m_source_file_index>
1898

> <i_lp_mmshare_version>
43012

> <i_f3d_flags>
0

> <s_epik_input>
W0NIM11bTkhdQyg9TylbQ0gyXU4xW0NIMl1bQ0gyXVtDSF0oW0NIMl1bQ0gyXTEpW05IXUMoPU8pW05IXWMyW2NIXVtjSF1bY0hdbmMyT1tDSDNd

> <s_epik_cmdline>
J2VwaWtfcHl0aG9uJywgJy1waCcsICc3LjAnLCAnLXRuJywgJzgnLCAnLW1hJywgJzIwMCcsICctbWV0YWxfYmluZGluZycsICctaW1hZScsICc8aW5maWxlLm1hZT4nLCAnLW9tYWUnLCAnPG91dGZpbGUubWFlPic=

> <r_lp_tautomer_probability>
1

> <r_epik_Ionization_Penalty>
6.13954

> <r_epik_Ionization_Penalty_Charging>
6.13946

> <r_epik_Ionization_Penalty_Neutral>
7.84403e-05

> <r_epik_State_Penalty>
6.9595

> <r_epik_Charging_Adjusted_Penalty>
13.099

> <i_epik_Tot_Q>
0

> <i_epik_Tot_abs_Q>
2

> <r_epik_Metal_State_Penalty>
2.89145

> <b_epik_Metal_Only>
1

> <s_lp_Force_Field>
OPLS_2005

> <r_lp_Energy>
15.6721

> <b_lp_Chiralities_Consistent>
1

> <s_lp_Variant>
AV-unprocessed.smi:1898-5

> <Gold.Version>
5.8.1

> <Gold.Id.Protein>
6NUR|6NUR_protein|mol2

> <Gold.PLP.Fitness>
46.5291

> <Gold.PLP.PLP>
-35.4177

> <Gold.PLP.part.hbond>
-2.9865

> <Gold.PLP.part.metal>
0.0000

> <Gold.PLP.part.buried>
-8.4115

> <Gold.PLP.part.nonpolar>
-25.6725

> <Gold.PLP.part.repulsive>
0.4979

> <Gold.PLP.ligand.clash>
0.0000

> <Gold.PLP.ligand.torsion>
0.5319

> <Gold.PLP.Chemscore.Hbond>
3.9825

> <Gold.PLP.Chemscore.CHOScore>
0.0000

> <Gold.PLP.Chemscore.Metal>
0.0000

> <Gold.Chemscore.Hbonds>
donor molecule, donor type, donor heavy atom, donor atom, acceptor molecule, acceptor atom, score
      L1  H     6    46       P1 10175  2.00
      L1  H    10    34       P1  8028  0.88
      L1  H    13    35       P1  8028  0.71

> <Gold.PLP.Chemscore.Internal.Correction>
0.2277

> <Gold.Rescore>
     Score         DG    S(hbond)    S(metal)    S(lipo)     H(rot)  DE(clash)    DE(int)     intcor
     15.85     -18.04       2.58        0.00      75.81       1.93       0.44       1.75       ----

> <Gold.Chemscore.Fitness>
15.8525

> <Gold.Chemscore.DG>
-18.0431

> <Gold.Chemscore.ZeroCoef>
-5.4800

> <Gold.Chemscore.Hbond>
2.5838

> <Gold.Chemscore.Metal>
0.0000

> <Gold.Chemscore.Lipo>
75.8106

> <Gold.Chemscore.Internal_Hbond>
0.0000

> <Gold.Chemscore.DEClash>
0.4378

> <Gold.Chemscore.DEInternal>
1.7528

> <Gold.Chemscore.Rot>
1.9283

> <Gold.Chemscore.Internal.Correction>
   9.000000E+99

> <Gold.Chemscore.Hbonds>
donor molecule, donor type, donor heavy atom, donor atom, acceptor molecule, acceptor atom, score
      L1  H     6    46       P1 10175  0.30
      L1  H    10    34       P1  8028  0.80
      L1  H    13    35       P1  8028  0.67

> <Gold.Chemscore.Hbond.Weighted>
-8.6298

> <Gold.Chemscore.Metal.Weighted>
-0.0000

> <Gold.Chemscore.Lipo.Weighted>
-8.8698

> <Gold.Chemscore.Internal_Hbond.Weighted>
0.0000

> <Gold.Chemscore.DEClash.Weighted>
0.4378

> <Gold.Chemscore.DEInternal.Weighted>
1.7528

> <Gold.Chemscore.Rot.Weighted>
4.9365

> <Gold.Chemscore.Internal.Correction.Weighted>
   9.000000E+99

> <Gold.Protein.RotatedTorsions>
[ 6907 6896 6895 6894 ] final  -91.74 input  -60.11 | X-H torsion
[ 7974 7965 7964 7962 ] final  143.14 input  175.53 | X-H torsion
[ 8008 7997 7996 7995 ] final  -89.33 input   59.86 | X-H torsion
[ 10167 10162 10161 10158 ] final -142.83 input  -65.29 | X-H torsion
[ 10718 10713 10712 10709 ] final -151.20 input   66.30 | X-H torsion
[ 10763 10752 10751 10750 ] final   17.48 input  -60.55 | X-H torsion
[ 11005 11000 10999 10996 ] final   10.39 input  -57.11 | X-H torsion

> <Gold.Protein.ActiveResidues>
 VAL166  LYS551  ARG553  GLY616  TRP617  ASP618  TYR619  PRO620  LYS621  CYS622 
 ASP623  PHE694  ASN695  SER759  ASP760  ASP761  ALA762  ILE779  LEU786  VAL792 
 PHE793  MET794  SER795  GLU796  ALA797  LYS798  CYS799  TRP800  GLU811  SER814 

> <Gold.Protein.RotatedAtoms>
  150.6896  134.2230  159.4403 H   0  0  0  0  0  0  0  0  0  0  0  0  # atno 6907 bound_to 6896
  152.0185  134.9834  160.0579 H   0  0  0  0  0  0  0  0  0  0  0  0  # atno 6908 bound_to 6896
  152.1420  133.4435  159.4808 H   0  0  0  0  0  0  0  0  0  0  0  0  # atno 6909 bound_to 6896
  144.8947  139.5508  143.5782 H   0  0  0  0  0  0  0  0  0  0  0  0  # atno 7974 bound_to 7965
  154.6854  140.0543  157.0309 H   0  0  0  0  0  0  0  0  0  0  0  0  # atno 8008 bound_to 7997
  155.0892  140.3217  155.4560 H   0  0  0  0  0  0  0  0  0  0  0  0  # atno 8009 bound_to 7997
  156.2709  140.2051  156.6020 H   0  0  0  0  0  0  0  0  0  0  0  0  # atno 8010 bound_to 7997
  139.8051  143.7780  152.2660 H   0  0  0  0  0  0  0  0  0  0  0  0  # atno 10167 bound_to 10162
  156.4561  130.8191  151.2422 H   0  0  0  0  0  0  0  0  0  0  0  0  # atno 10718 bound_to 10713
  153.1335  135.6745  153.9140 H   0  0  0  0  0  0  0  0  0  0  0  0  # atno 10763 bound_to 10752
  153.8619  135.3080  155.3439 H   0  0  0  0  0  0  0  0  0  0  0  0  # atno 10764 bound_to 10752
  154.7728  135.4930  153.9765 H   0  0  0  0  0  0  0  0  0  0  0  0  # atno 10765 bound_to 10752
  140.5151  134.0614  155.7829 H   0  0  0  0  0  0  0  0  0  0  0  0  # atno 11005 bound_to 11000
  146.3074  139.7627  142.9046 LP  0  0  0  0  0  0  0  0  0  0  0  0  # atno 17320 bound_to 7965
  145.3721  141.0344  143.3225 LP  0  0  0  0  0  0  0  0  0  0  0  0  # atno 17321 bound_to 7965
  139.7912  144.7409  150.9953 LP  0  0  0  0  0  0  0  0  0  0  0  0  # atno 17342 bound_to 10162
  140.7819  143.4441  151.0509 LP  0  0  0  0  0  0  0  0  0  0  0  0  # atno 17343 bound_to 10162
  157.7500  131.0122  150.3376 LP  0  0  0  0  0  0  0  0  0  0  0  0  # atno 17370 bound_to 10713
  156.3766  130.3873  149.7134 LP  0  0  0  0  0  0  0  0  0  0  0  0  # atno 17371 bound_to 10713
  141.1365  133.9213  157.2423 LP  0  0  0  0  0  0  0  0  0  0  0  0  # atno 17394 bound_to 11000
  139.9637  135.0147  156.9330 LP  0  0  0  0  0  0  0  0  0  0  0  0  # atno 17395 bound_to 11000

$$$$
