#       Name:                AV-unprocessed.smi:970
#       Creating user name   scv26
#       Creation time:       Fri Mar 27 02:19:51 2020


#       File generated by GOLD software.
#

@<TRIPOS>MOLECULE
AV-unprocessed.smi:970
    37    37     1
SMALL
NO_CHARGES


@<TRIPOS>ATOM
      1 ****        -3.7493   1.9592   0.8921 C.3            1 S1                 0.0000
      2 ****        -3.1710   0.7060   0.4329 N.am           1 S1                 0.0000
      3 ****        -2.0447   0.6146  -0.2883 C.2            1 S1                 0.0000
      4 ****        -1.3918   1.5977  -0.6438 O.2            1 S1                 0.0000
      5 ****        -1.6002  -0.8050  -0.6783 C.3            1 S1                 0.0000
      6 ****        -2.0521  -1.0648  -2.1249 C.3            1 S1                 0.0000
      7 ****        -0.1432  -0.9101  -0.6345 N.am           1 S1                 0.0000
      8 ****         0.5860  -1.1402   0.4697 C.2            1 S1                 0.0000
      9 ****         0.0839  -1.3461   1.5754 O.2            1 S1                 0.0000
     10 ****         2.1115  -1.1211   0.2884 C.3            1 S1                 0.0000
     11 ****         2.8534  -1.9266   1.3746 C.3            1 S1                 0.0000
     12 ****         2.5837   0.2556   0.1999 N.pl3          1 S1                 0.0000
     13 ****         2.8170   1.0141  -0.8736 C.2            1 S1                 0.0000
     14 ****         3.1915   2.2530  -0.5878 N.2            1 S1                 0.0000
     15 ****         3.1517   2.1936   0.7761 C.2            1 S1                 0.0000
     16 ****         2.7847   1.0241   1.2995 N.2            1 S1                 0.0000
     17 ****        -4.6587   1.7630   1.4603 H              1 S1                 0.0000
     18 ****        -4.0057   2.6010   0.0481 H              1 S1                 0.0000
     19 ****        -3.0524   2.4946   1.5384 H              1 S1                 0.0000
     20 ****        -3.6520  -0.1456   0.6841 H              1 S1                 0.0000
     21 ****        -2.0527  -1.5429  -0.0125 H              1 S1                 0.0000
     22 ****        -3.1367  -0.9980  -2.2192 H              1 S1                 0.0000
     23 ****        -1.7609  -2.0643  -2.4491 H              1 S1                 0.0000
     24 ****        -1.6125  -0.3512  -2.8238 H              1 S1                 0.0000
     25 ****         0.3481  -0.7467  -1.5011 H              1 S1                 0.0000
     26 ****         2.3304  -1.5957  -0.6695 H              1 S1                 0.0000
     27 ****         2.5271  -2.9670   1.3829 H              1 S1                 0.0000
     28 ****         2.6868  -1.5209   2.3733 H              1 S1                 0.0000
     29 ****         3.9285  -1.9240   1.1931 H              1 S1                 0.0000
     30 ****         2.7052   0.6539  -1.8858 H              1 S1                 0.0000
     31 ****         3.3958   3.0391   1.4022 H              1 S1                 0.0000
     32 ****        -1.6965   2.5170  -0.3946 LP             1 S1                 0.0000
     33 ****        -0.5574   1.4761  -1.1813 LP             1 S1                 0.0000
     34 ****        -0.9106  -1.3468   1.6807 LP             1 S1                 0.0000
     35 ****         0.6707  -1.5125   2.3679 LP             1 S1                 0.0000
     36 ****         3.4329   3.0106  -1.1942 LP             1 S1                 0.0000
     37 ****         2.6829   0.7752   2.2627 LP             1 S1                 0.0000
@<TRIPOS>BOND
    1    1    2 1     
    2    1   17 1     
    3    1   18 1     
    4    1   19 1     
    5    2    3 am    
    6    2   20 1     
    7    3    4 2     
    8    3    5 1     
    9    5    6 1     
   10    5    7 1     
   11    5   21 1     
   12    6   22 1     
   13    6   23 1     
   14    6   24 1     
   15    7    8 am    
   16    7   25 1     
   17    8    9 2     
   18    8   10 1     
   19   10   11 1     
   20   10   12 1     
   21   10   26 1     
   22   11   27 1     
   23   11   28 1     
   24   11   29 1     
   25   12   16 1     
   26   12   13 1     
   27   13   14 2     
   28   13   30 1     
   29   14   15 1     
   30   15   16 2     
   31   15   31 1     
   32    4   32 1     
   33    4   33 1     
   34    9   34 1     
   35    9   35 1     
   36   14   36 1     
   37   16   37 1     
@<TRIPOS>SUBSTRUCTURE
      1 S1             1
@<TRIPOS>SET
LONE_PAIRS      STATIC     ATOMS    <user>   **** ""
6 32 33 34 35 36 37
DONOR_HYDROGENS      STATIC     ATOMS    <user>   **** ""
2 20 25
ATOM$BLUE        STATIC     ATOMS    COLORGROUP SYSTEM
6 32 33 34 35 36 37
ATOM$RED        STATIC     ATOMS    COLORGROUP SYSTEM
2 20 25
