AV-unprocessed.smi:1641|AV-procd|sdf|6566|dock2
  -GOLD-   22720 7253D 1   1.00000     0.00000
 Structure written by MMmdl.
 41 42  0  0  0  0  0  0  0  0  3 V2000
  152.4555  140.9300  159.3277 C   0  0  0  0  0  0  0  0  0  0  0  0
  152.0892  140.5676  157.9295 C   0  0  0  0  0  0  0  0  0  0  0  0
  152.8546  139.7868  157.1632 N   0  0  0  0  0  0  0  0  0  0  0  0
  152.3071  139.5924  155.9034 N   0  0  0  0  0  0  0  0  0  0  0  0
  151.1342  140.2200  155.7371 C   0  0  0  0  0  0  0  0  0  0  0  0
  150.4436  140.1602  154.5865 N   0  5  0  0  0  0  0  0  0  0  0  0
  149.0946  140.0776  154.6114 C   0  0  0  0  0  0  0  0  0  0  0  0
  148.3880  139.9162  155.6090 O   0  0  0  0  0  0  0  0  0  0  0  0
  148.5261  140.1910  153.4045 N   0  0  0  0  0  0  0  0  0  0  0  0
  147.0942  140.1422  153.1464 C   0  0  0  0  0  0  0  0  0  0  0  0
  146.8056  139.3007  151.8936 C   0  0  0  0  0  0  0  0  0  0  0  0
  146.5123  137.8831  152.2202 N   0  3  1  0  0  0  0  0  0  0  0  0
  145.7918  137.7388  153.5072 C   0  0  0  0  0  0  0  0  0  0  0  0
  145.5661  136.2516  153.8377 C   0  0  1  0  0  0  0  0  0  0  0  0
  144.7564  136.0619  155.1250 C   0  0  0  0  0  0  0  0  0  0  0  0
  144.8502  135.6426  152.7691 O   0  0  0  0  0  0  0  0  0  0  0  0
  145.5628  135.6897  151.5378 C   0  0  1  0  0  0  0  0  0  0  0  0
  144.7494  134.9276  150.4858 C   0  0  0  0  0  0  0  0  0  0  0  0
  145.7918  137.1609  151.1427 C   0  0  0  0  0  0  0  0  0  0  0  0
  150.6198  141.1355  157.1542 S   0  0  0  0  0  0  0  0  0  0  0  0
  152.6030  140.0279  159.9218 H   0  0  0  0  0  0  0  0  0  0  0  0
  151.6649  141.5245  159.7857 H   0  0  0  0  0  0  0  0  0  0  0  0
  153.3780  141.5107  159.3335 H   0  0  0  0  0  0  0  0  0  0  0  0
  149.1372  140.3188  152.6113 H   0  0  0  0  0  0  0  0  0  0  0  0
  146.6002  139.7232  154.0233 H   0  0  0  0  0  0  0  0  0  0  0  0
  146.7154  141.1567  153.0124 H   0  0  0  0  0  0  0  0  0  0  0  0
  145.9419  139.7343  151.3869 H   0  0  0  0  0  0  0  0  0  0  0  0
  147.6373  139.3550  151.1889 H   0  0  0  0  0  0  0  0  0  0  0  0
  146.3676  138.2078  154.3062 H   0  0  0  0  0  0  0  0  0  0  0  0
  144.8364  138.2632  153.4495 H   0  0  0  0  0  0  0  0  0  0  0  0
  146.5285  135.7503  153.9572 H   0  0  0  0  0  0  0  0  0  0  0  0
  145.2717  136.4976  155.9813 H   0  0  0  0  0  0  0  0  0  0  0  0
  144.6012  135.0034  155.3351 H   0  0  0  0  0  0  0  0  0  0  0  0
  143.7761  136.5331  155.0487 H   0  0  0  0  0  0  0  0  0  0  0  0
  146.5244  135.1881  151.6609 H   0  0  0  0  0  0  0  0  0  0  0  0
  145.2580  134.9256  149.5214 H   0  0  0  0  0  0  0  0  0  0  0  0
  143.7657  135.3763  150.3448 H   0  0  0  0  0  0  0  0  0  0  0  0
  144.6016  133.8896  150.7848 H   0  0  0  0  0  0  0  0  0  0  0  0
  144.8364  137.6523  150.9507 H   0  0  0  0  0  0  0  0  0  0  0  0
  146.3615  137.1980  150.2148 H   0  0  0  0  0  0  0  0  0  0  0  0
  147.4043  137.4251  152.3410 H   0  0  0  0  0  0  0  0  0  0  0  0
  1  2  1  0  0  0  0
  1 21  1  0  0  0  0
  1 22  1  0  0  0  0
  1 23  1  0  0  0  0
  2 20  1  0  0  0  0
  2  3  2  0  0  0  0
  3  4  1  0  0  0  0
  4  5  2  0  0  0  0
  5  6  1  0  0  0  0
  5 20  1  0  0  0  0
  6  7  1  0  0  0  0
  7  8  2  0  0  0  0
  7  9  1  0  0  0  0
  9 10  1  0  0  0  0
  9 24  1  0  0  0  0
 10 11  1  0  0  0  0
 10 25  1  0  0  0  0
 10 26  1  0  0  0  0
 11 12  1  0  0  0  0
 11 27  1  0  0  0  0
 11 28  1  0  0  0  0
 12 19  1  0  0  0  0
 12 13  1  0  0  0  0
 12 41  1  0  0  0  0
 13 14  1  0  0  0  0
 13 29  1  0  0  0  0
 13 30  1  0  0  0  0
 14 15  1  0  0  0  0
 14 16  1  0  0  0  0
 14 31  1  0  0  0  0
 15 32  1  0  0  0  0
 15 33  1  0  0  0  0
 15 34  1  0  0  0  0
 16 17  1  0  0  0  0
 17 18  1  0  0  0  0
 17 19  1  0  0  0  0
 17 35  1  0  0  0  0
 18 36  1  0  0  0  0
 18 37  1  0  0  0  0
 18 38  1  0  0  0  0
 19 39  1  0  0  0  0
 19 40  1  0  0  0  0
M  CHG  1   6  -1
M  CHG  1  12   1
M  END
> <s_m_source_file>
AV-unprocessed.smi

> <i_m_source_file_index>
1641

> <i_lp_mmshare_version>
43012

> <i_f3d_flags>
0

> <s_epik_input>
W0NIM11jMW5uYyhzMSlbTkhdQyg9TylbTkhdW0NIMl1bQ0gyXU4yW0NIMl1bQ0BASF0oW0NIM10pT1tDQEBIXShbQ0gzXSlbQ0gyXTI=

> <s_epik_cmdline>
J2VwaWtfcHl0aG9uJywgJy1waCcsICc3LjAnLCAnLXRuJywgJzgnLCAnLW1hJywgJzIwMCcsICctbWV0YWxfYmluZGluZycsICctaW1hZScsICc8aW5maWxlLm1hZT4nLCAnLW9tYWUnLCAnPG91dGZpbGUubWFlPic=

> <r_lp_tautomer_probability>
1

> <r_epik_Ionization_Penalty>
3.5343

> <r_epik_Ionization_Penalty_Charging>
3.42778

> <r_epik_Ionization_Penalty_Neutral>
0.106519

> <r_epik_State_Penalty>
3.62118

> <r_epik_Charging_Adjusted_Penalty>
7.04896

> <i_epik_Tot_Q>
0

> <i_epik_Tot_abs_Q>
2

> <r_epik_Metal_State_Penalty>
1.13984

> <b_epik_Metal_Only>
1

> <s_lp_Force_Field>
OPLS_2005

> <r_lp_Energy>
7.34164

> <b_lp_Chiralities_Consistent>
1

> <s_lp_Variant>
AV-unprocessed.smi:1641-11

> <Gold.Version>
5.8.1

> <Gold.Id.Protein>
6NUR|6NUR_protein|mol2

> <Gold.PLP.Fitness>
44.0326

> <Gold.PLP.PLP>
-30.7229

> <Gold.PLP.part.hbond>
-4.4659

> <Gold.PLP.part.metal>
0.0000

> <Gold.PLP.part.buried>
0.8685

> <Gold.PLP.part.nonpolar>
-27.3355

> <Gold.PLP.part.repulsive>
0.3915

> <Gold.PLP.ligand.clash>
0.0000

> <Gold.PLP.ligand.torsion>
0.8903

> <Gold.PLP.Chemscore.Hbond>
5.0000

> <Gold.PLP.Chemscore.CHOScore>
0.0000

> <Gold.PLP.Chemscore.Metal>
0.0000

> <Gold.Chemscore.Hbonds>
donor molecule, donor type, donor heavy atom, donor atom, acceptor molecule, acceptor atom, score
      L1  H     9    24       P1  7957  1.00
      L1  H    12    41       P1  7948  2.00
      P1  H  7989  7998       L1     6  1.00
      P1  H  7997  8008       L1     3  1.00

> <Gold.PLP.Chemscore.Internal.Correction>
0.0903

> <Gold.Rescore>
     Score         DG    S(hbond)    S(metal)    S(lipo)     H(rot)  DE(clash)    DE(int)     intcor
     15.68     -17.64       2.70        0.00      62.04       1.61       0.94       1.02       ----

> <Gold.Chemscore.Fitness>
15.6819

> <Gold.Chemscore.DG>
-17.6429

> <Gold.Chemscore.ZeroCoef>
-5.4800

> <Gold.Chemscore.Hbond>
2.6999

> <Gold.Chemscore.Metal>
0.0000

> <Gold.Chemscore.Lipo>
62.0445

> <Gold.Chemscore.Internal_Hbond>
0.0000

> <Gold.Chemscore.DEClash>
0.9428

> <Gold.Chemscore.DEInternal>
1.0182

> <Gold.Chemscore.Rot>
1.6070

> <Gold.Chemscore.Internal.Correction>
   9.000000E+99

> <Gold.Chemscore.Hbonds>
donor molecule, donor type, donor heavy atom, donor atom, acceptor molecule, acceptor atom, score
      L1  H     9    24       P1  7957  0.93
      L1  H    12    41       P1  7948  0.95
      P1  H  7989  7998       L1     6  0.25
      P1  H  7997  8008       L1     3  0.44

> <Gold.Chemscore.Hbond.Weighted>
-9.0176

> <Gold.Chemscore.Metal.Weighted>
-0.0000

> <Gold.Chemscore.Lipo.Weighted>
-7.2592

> <Gold.Chemscore.Internal_Hbond.Weighted>
0.0000

> <Gold.Chemscore.DEClash.Weighted>
0.9428

> <Gold.Chemscore.DEInternal.Weighted>
1.0182

> <Gold.Chemscore.Rot.Weighted>
4.1139

> <Gold.Chemscore.Internal.Correction.Weighted>
   9.000000E+99

> <Gold.Protein.RotatedTorsions>
[ 6907 6896 6895 6894 ] final  -96.74 input  -60.11 | X-H torsion
[ 7974 7965 7964 7962 ] final  -81.58 input  175.53 | X-H torsion
[ 8008 7997 7996 7995 ] final  -75.46 input   59.86 | X-H torsion
[ 10167 10162 10161 10158 ] final   16.19 input  -65.29 | X-H torsion
[ 10718 10713 10712 10709 ] final   31.81 input   66.30 | X-H torsion
[ 10763 10752 10751 10750 ] final  -70.96 input  -60.55 | X-H torsion
[ 11005 11000 10999 10996 ] final  -83.10 input  -57.11 | X-H torsion

> <Gold.Protein.ActiveResidues>
 VAL166  LYS551  ARG553  GLY616  TRP617  ASP618  TYR619  PRO620  LYS621  CYS622 
 ASP623  PHE694  ASN695  SER759  ASP760  ASP761  ALA762  ILE779  LEU786  VAL792 
 PHE793  MET794  SER795  GLU796  ALA797  LYS798  CYS799  TRP800  GLU811  SER814 

> <Gold.Protein.RotatedAtoms>
  150.6997  134.1456  159.4120 H   0  0  0  0  0  0  0  0  0  0  0  0  # atno 6907 bound_to 6896
  151.9439  135.0198  160.0547 H   0  0  0  0  0  0  0  0  0  0  0  0  # atno 6908 bound_to 6896
  152.2069  133.4847  159.5126 H   0  0  0  0  0  0  0  0  0  0  0  0  # atno 6909 bound_to 6896
  145.5448  140.9505  143.1531 H   0  0  0  0  0  0  0  0  0  0  0  0  # atno 7974 bound_to 7965
  154.5419  140.0744  156.8523 H   0  0  0  0  0  0  0  0  0  0  0  0  # atno 8008 bound_to 7997
  155.3165  140.3393  155.4224 H   0  0  0  0  0  0  0  0  0  0  0  0  # atno 8009 bound_to 7997
  156.1882  140.1676  156.8130 H   0  0  0  0  0  0  0  0  0  0  0  0  # atno 8010 bound_to 7997
  140.5815  143.8972  150.6793 H   0  0  0  0  0  0  0  0  0  0  0  0  # atno 10167 bound_to 10162
  157.2772  130.7237  149.6536 H   0  0  0  0  0  0  0  0  0  0  0  0  # atno 10718 bound_to 10713
  154.4250  135.5977  153.6033 H   0  0  0  0  0  0  0  0  0  0  0  0  # atno 10763 bound_to 10752
  152.9796  135.5961  154.3908 H   0  0  0  0  0  0  0  0  0  0  0  0  # atno 10764 bound_to 10752
  154.3739  135.2841  155.2229 H   0  0  0  0  0  0  0  0  0  0  0  0  # atno 10765 bound_to 10752
  141.1660  133.7277  156.8669 H   0  0  0  0  0  0  0  0  0  0  0  0  # atno 11005 bound_to 11000
  144.7559  139.7077  143.7254 LP  0  0  0  0  0  0  0  0  0  0  0  0  # atno 17320 bound_to 7965
  146.1957  139.5221  142.9776 LP  0  0  0  0  0  0  0  0  0  0  0  0  # atno 17321 bound_to 7965
  140.2473  143.3619  152.1436 LP  0  0  0  0  0  0  0  0  0  0  0  0  # atno 17342 bound_to 10162
  139.5172  144.6989  151.5552 LP  0  0  0  0  0  0  0  0  0  0  0  0  # atno 17343 bound_to 10162
  155.9664  130.4349  150.5070 LP  0  0  0  0  0  0  0  0  0  0  0  0  # atno 17370 bound_to 10713
  157.3006  131.0644  151.2071 LP  0  0  0  0  0  0  0  0  0  0  0  0  # atno 17371 bound_to 10713
  140.1809  134.9034  157.2947 LP  0  0  0  0  0  0  0  0  0  0  0  0  # atno 17394 bound_to 11000
  140.2397  134.3811  155.7486 LP  0  0  0  0  0  0  0  0  0  0  0  0  # atno 17395 bound_to 11000

$$$$
