AV-unprocessed.smi:1082|AV-procd|sdf|4713|dock4
  -GOLD-   22720 3233D 1   1.00000     0.00000
 Structure written by MMmdl.
 49 51  0  0  0  0  0  0  0  0  3 V2000
  145.6629  137.6587  153.5655 O   0  0  0  0  0  0  0  0  0  0  0  0
  144.7307  138.2871  153.0648 C   0  0  0  0  0  0  0  0  0  0  0  0
  143.7701  137.7179  152.3250 N   0  0  0  0  0  0  0  0  0  0  0  0
  143.7054  136.2960  152.0152 C   0  0  0  0  0  0  0  0  0  0  0  0
  145.0656  135.7946  151.5047 C   0  0  0  0  0  0  0  0  0  0  0  0
  145.3476  134.4014  151.9249 N   0  3  0  0  0  0  0  0  0  0  0  0
  144.4321  133.3937  151.3358 C   0  0  0  0  0  0  0  0  0  0  0  0
  145.3071  132.2618  150.7854 C   0  0  0  0  0  0  0  0  0  0  0  0
  146.6346  132.4297  151.5136 C   0  0  0  0  0  0  0  0  0  0  0  0
  146.7337  133.9424  151.6822 C   0  0  0  0  0  0  0  0  0  0  0  0
  144.5486  139.6145  153.1634 N   0  0  0  0  0  0  0  0  0  0  0  0
  145.3704  140.5668  153.8307 C   0  0  0  0  0  0  0  0  0  0  0  0
  146.6496  140.2423  154.3502 C   0  0  0  0  0  0  0  0  0  0  0  0
  147.4028  141.2286  155.0178 C   0  0  0  0  0  0  0  0  0  0  0  0
  146.8646  142.5207  155.1633 C   0  0  0  0  0  0  0  0  0  0  0  0
  145.6387  142.7941  154.6702 N   0  3  0  0  0  0  0  0  0  0  0  0
  144.8729  141.8807  154.0237 C   0  0  0  0  0  0  0  0  0  0  0  0
  143.6104  142.2737  153.5464 N   0  0  0  0  0  0  0  0  0  0  0  0
  142.6234  142.5596  154.5838 C   0  0  0  0  0  0  0  0  0  0  0  0
  141.7760  143.7167  154.0558 C   0  0  0  0  0  0  0  0  0  0  0  0
  142.7679  144.4910  153.1977 C   0  0  0  0  0  0  0  0  0  0  0  0
  143.6362  143.3839  152.5983 C   0  0  0  0  0  0  0  0  0  0  0  0
  143.0414  138.3058  151.9472 H   0  0  0  0  0  0  0  0  0  0  0  0
  143.4079  135.7539  152.9141 H   0  0  0  0  0  0  0  0  0  0  0  0
  142.9348  136.1225  151.2622 H   0  0  0  0  0  0  0  0  0  0  0  0
  145.0689  135.8339  150.4142 H   0  0  0  0  0  0  0  0  0  0  0  0
  145.8689  136.4499  151.8456 H   0  0  0  0  0  0  0  0  0  0  0  0
  143.7761  133.0245  152.1247 H   0  0  0  0  0  0  0  0  0  0  0  0
  143.7994  133.8102  150.5504 H   0  0  0  0  0  0  0  0  0  0  0  0
  144.8652  131.2757  150.9314 H   0  0  0  0  0  0  0  0  0  0  0  0
  145.4588  132.4036  149.7144 H   0  0  0  0  0  0  0  0  0  0  0  0
  146.5877  131.9461  152.4903 H   0  0  0  0  0  0  0  0  0  0  0  0
  147.4777  132.0074  150.9660 H   0  0  0  0  0  0  0  0  0  0  0  0
  147.1172  134.3848  150.7611 H   0  0  0  0  0  0  0  0  0  0  0  0
  147.4013  134.2270  152.4960 H   0  0  0  0  0  0  0  0  0  0  0  0
  143.7889  140.0012  152.6229 H   0  0  0  0  0  0  0  0  0  0  0  0
  147.0616  139.2487  154.2601 H   0  0  0  0  0  0  0  0  0  0  0  0
  148.3790  140.9944  155.4166 H   0  0  0  0  0  0  0  0  0  0  0  0
  147.3707  143.3359  155.6601 H   0  0  0  0  0  0  0  0  0  0  0  0
  142.0116  141.6803  154.7872 H   0  0  0  0  0  0  0  0  0  0  0  0
  143.1062  142.8479  155.5188 H   0  0  0  0  0  0  0  0  0  0  0  0
  140.9674  143.3331  153.4317 H   0  0  0  0  0  0  0  0  0  0  0  0
  141.3349  144.3191  154.8506 H   0  0  0  0  0  0  0  0  0  0  0  0
  142.2873  145.1111  152.4407 H   0  0  0  0  0  0  0  0  0  0  0  0
  143.3768  145.1388  153.8302 H   0  0  0  0  0  0  0  0  0  0  0  0
  144.6445  143.7393  152.3802 H   0  0  0  0  0  0  0  0  0  0  0  0
  143.2045  143.0343  151.6600 H   0  0  0  0  0  0  0  0  0  0  0  0
  145.2005  134.3538  152.9233 H   0  0  0  0  0  0  0  0  0  0  0  0
  145.2688  143.7370  154.7921 H   0  0  0  0  0  0  0  0  0  0  0  0
  1  2  2  0  0  0  0
  2  3  1  0  0  0  0
  2 11  1  0  0  0  0
  3  4  1  0  0  0  0
  3 23  1  0  0  0  0
  4  5  1  0  0  0  0
  4 24  1  0  0  0  0
  4 25  1  0  0  0  0
  5  6  1  0  0  0  0
  5 26  1  0  0  0  0
  5 27  1  0  0  0  0
  6 10  1  0  0  0  0
  6  7  1  0  0  0  0
  6 48  1  0  0  0  0
  7  8  1  0  0  0  0
  7 28  1  0  0  0  0
  7 29  1  0  0  0  0
  8  9  1  0  0  0  0
  8 30  1  0  0  0  0
  8 31  1  0  0  0  0
  9 10  1  0  0  0  0
  9 32  1  0  0  0  0
  9 33  1  0  0  0  0
 10 34  1  0  0  0  0
 10 35  1  0  0  0  0
 11 12  1  0  0  0  0
 11 36  1  0  0  0  0
 12 17  1  0  0  0  0
 12 13  2  0  0  0  0
 13 14  1  0  0  0  0
 13 37  1  0  0  0  0
 14 15  2  0  0  0  0
 14 38  1  0  0  0  0
 15 16  1  0  0  0  0
 15 39  1  0  0  0  0
 16 17  2  0  0  0  0
 16 49  1  0  0  0  0
 17 18  1  0  0  0  0
 18 22  1  0  0  0  0
 18 19  1  0  0  0  0
 19 20  1  0  0  0  0
 19 40  1  0  0  0  0
 19 41  1  0  0  0  0
 20 21  1  0  0  0  0
 20 42  1  0  0  0  0
 20 43  1  0  0  0  0
 21 22  1  0  0  0  0
 21 44  1  0  0  0  0
 21 45  1  0  0  0  0
 22 46  1  0  0  0  0
 22 47  1  0  0  0  0
M  CHG  1   6   1
M  CHG  1  16   1
M  END
> <s_m_source_file>
AV-unprocessed.smi

> <i_m_source_file_index>
1082

> <i_lp_mmshare_version>
43012

> <i_f3d_flags>
0

> <s_epik_input>
W0NIMl0xW0NIMl1bQ0gyXVtDSDJdTjFbQ0gyXVtDSDJdW05IXUMoPU8pW05IXWMyW2NIXVtjSF1bY0hdbmMyTjNbQ0gyXVtDSDJdW0NIMl1bQ0gyXTM=

> <s_epik_cmdline>
J2VwaWtfcHl0aG9uJywgJy1waCcsICc3LjAnLCAnLXRuJywgJzgnLCAnLW1hJywgJzIwMCcsICctbWV0YWxfYmluZGluZycsICctaW1hZScsICc8aW5maWxlLm1hZT4nLCAnLW9tYWUnLCAnPG91dGZpbGUubWFlPic=

> <r_lp_tautomer_probability>
0.999994

> <r_epik_Ionization_Penalty>
1.21588

> <r_epik_Ionization_Penalty_Charging>
1.21586

> <r_epik_Ionization_Penalty_Neutral>
1.99004e-05

> <r_epik_State_Penalty>
1.28011

> <r_epik_Charging_Adjusted_Penalty>
2.49596

> <i_epik_Tot_Q>
2

> <i_epik_Tot_abs_Q>
2

> <r_epik_Metal_State_Penalty>
1.35385

> <b_epik_Metal_Only>
0

> <s_lp_Force_Field>
OPLS_2005

> <r_lp_Energy>
65.6653

> <b_lp_Chiralities_Consistent>
1

> <s_lp_Variant>
AV-unprocessed.smi:1082-2

> <Gold.Version>
5.8.1

> <Gold.Id.Protein>
6NUR|6NUR_protein|mol2

> <Gold.PLP.Fitness>
48.2685

> <Gold.PLP.PLP>
-37.2429

> <Gold.PLP.part.hbond>
-3.9193

> <Gold.PLP.part.metal>
0.0000

> <Gold.PLP.part.buried>
-7.0670

> <Gold.PLP.part.nonpolar>
-29.3046

> <Gold.PLP.part.repulsive>
2.0857

> <Gold.PLP.ligand.clash>
0.0000

> <Gold.PLP.ligand.torsion>
0.4113

> <Gold.PLP.Chemscore.Hbond>
3.9120

> <Gold.PLP.Chemscore.CHOScore>
0.0000

> <Gold.PLP.Chemscore.Metal>
0.0000

> <Gold.Chemscore.Hbonds>
donor molecule, donor type, donor heavy atom, donor atom, acceptor molecule, acceptor atom, score
      L1  H     3    23       P1 10175  0.06

> <Gold.PLP.Chemscore.Internal.Correction>
0.1124

> <Gold.Rescore>
     Score         DG    S(hbond)    S(metal)    S(lipo)     H(rot)  DE(clash)    DE(int)     intcor
     15.59     -20.46       2.71        0.00      86.53       1.63       1.50       3.37       ----

> <Gold.Chemscore.Fitness>
15.5931

> <Gold.Chemscore.DG>
-20.4602

> <Gold.Chemscore.ZeroCoef>
-5.4800

> <Gold.Chemscore.Hbond>
2.7051

> <Gold.Chemscore.Metal>
0.0000

> <Gold.Chemscore.Lipo>
86.5291

> <Gold.Chemscore.Internal_Hbond>
0.0000

> <Gold.Chemscore.DEClash>
1.4965

> <Gold.Chemscore.DEInternal>
3.3706

> <Gold.Chemscore.Rot>
1.6323

> <Gold.Chemscore.Internal.Correction>
   9.000000E+99

> <Gold.Chemscore.Hbonds>
donor molecule, donor type, donor heavy atom, donor atom, acceptor molecule, acceptor atom, score
      L1  H     3    23       P1 10175  0.07

> <Gold.Chemscore.Hbond.Weighted>
-9.0349

> <Gold.Chemscore.Metal.Weighted>
-0.0000

> <Gold.Chemscore.Lipo.Weighted>
-10.1239

> <Gold.Chemscore.Internal_Hbond.Weighted>
0.0000

> <Gold.Chemscore.DEClash.Weighted>
1.4965

> <Gold.Chemscore.DEInternal.Weighted>
3.3706

> <Gold.Chemscore.Rot.Weighted>
4.1786

> <Gold.Chemscore.Internal.Correction.Weighted>
   9.000000E+99

> <Gold.Protein.RotatedTorsions>
[ 6907 6896 6895 6894 ] final -155.70 input  -60.11 | X-H torsion
[ 7974 7965 7964 7962 ] final   58.63 input  175.53 | X-H torsion
[ 8008 7997 7996 7995 ] final   23.20 input   59.86 | X-H torsion
[ 10167 10162 10161 10158 ] final  -75.96 input  -65.29 | X-H torsion
[ 10718 10713 10712 10709 ] final -123.65 input   66.30 | X-H torsion
[ 10763 10752 10751 10750 ] final  -77.27 input  -60.55 | X-H torsion
[ 11005 11000 10999 10996 ] final  163.37 input  -57.11 | X-H torsion

> <Gold.Protein.ActiveResidues>
 VAL166  LYS551  ARG553  GLY616  TRP617  ASP618  TYR619  PRO620  LYS621  CYS622 
 ASP623  PHE694  ASN695  SER759  ASP760  ASP761  ALA762  ILE779  LEU786  VAL792 
 PHE793  MET794  SER795  GLU796  ALA797  LYS798  CYS799  TRP800  GLU811  SER814 

> <Gold.Protein.RotatedAtoms>
  151.2764  133.4230  159.2624 H   0  0  0  0  0  0  0  0  0  0  0  0  # atno 6907 bound_to 6896
  151.0399  134.9600  159.8166 H   0  0  0  0  0  0  0  0  0  0  0  0  # atno 6908 bound_to 6896
  152.5363  134.2723  159.9028 H   0  0  0  0  0  0  0  0  0  0  0  0  # atno 6909 bound_to 6896
  145.9161  139.3692  143.0506 H   0  0  0  0  0  0  0  0  0  0  0  0  # atno 7974 bound_to 7965
  154.9773  140.3097  155.4961 H   0  0  0  0  0  0  0  0  0  0  0  0  # atno 8008 bound_to 7997
  156.2958  140.2273  156.4809 H   0  0  0  0  0  0  0  0  0  0  0  0  # atno 8009 bound_to 7997
  154.7821  140.0445  157.1124 H   0  0  0  0  0  0  0  0  0  0  0  0  # atno 8010 bound_to 7997
  140.4898  143.2383  151.7925 H   0  0  0  0  0  0  0  0  0  0  0  0  # atno 10167 bound_to 10162
  156.1520  130.6541  150.9927 H   0  0  0  0  0  0  0  0  0  0  0  0  # atno 10718 bound_to 10713
  154.5107  135.5769  153.6603 H   0  0  0  0  0  0  0  0  0  0  0  0  # atno 10763 bound_to 10752
  152.9896  135.6158  154.2882 H   0  0  0  0  0  0  0  0  0  0  0  0  # atno 10764 bound_to 10752
  154.2797  135.2851  155.2682 H   0  0  0  0  0  0  0  0  0  0  0  0  # atno 10765 bound_to 10752
  140.2351  134.8094  157.3356 H   0  0  0  0  0  0  0  0  0  0  0  0  # atno 11005 bound_to 11000
  145.8610  140.9475  143.0700 LP  0  0  0  0  0  0  0  0  0  0  0  0  # atno 17320 bound_to 7965
  144.6748  140.0531  143.7478 LP  0  0  0  0  0  0  0  0  0  0  0  0  # atno 17321 bound_to 7965
  139.4849  144.4664  151.9479 LP  0  0  0  0  0  0  0  0  0  0  0  0  # atno 17342 bound_to 10162
  140.3751  144.2807  150.5915 LP  0  0  0  0  0  0  0  0  0  0  0  0  # atno 17343 bound_to 10162
  157.6664  131.0870  150.7717 LP  0  0  0  0  0  0  0  0  0  0  0  0  # atno 17370 bound_to 10713
  156.7785  130.4851  149.5405 LP  0  0  0  0  0  0  0  0  0  0  0  0  # atno 17371 bound_to 10713
  140.1710  134.4608  155.7831 LP  0  0  0  0  0  0  0  0  0  0  0  0  # atno 17394 bound_to 11000
  141.2215  133.6942  156.7708 LP  0  0  0  0  0  0  0  0  0  0  0  0  # atno 17395 bound_to 11000

$$$$
