AV-unprocessed.smi:1999|AV-procd|sdf|8099|dock5
  -GOLD-   2272010323D 1   1.00000     0.00000
 Structure written by MMmdl.
 38 39  0  0  0  0  0  0  0  0  3 V2000
  153.0028  141.4631  159.4091 C   0  0  0  0  0  0  0  0  0  0  0  0
  152.4821  141.1214  158.0550 C   0  0  0  0  0  0  0  0  0  0  0  0
  153.1033  140.2732  157.2314 N   0  0  0  0  0  0  0  0  0  0  0  0
  152.4236  140.1174  156.0324 N   0  0  0  0  0  0  0  0  0  0  0  0
  151.2949  140.8387  155.9705 C   0  0  0  0  0  0  0  0  0  0  0  0
  150.4891  140.8233  154.8959 N   0  5  0  0  0  0  0  0  0  0  0  0
  149.1542  140.6980  155.0598 C   0  0  0  0  0  0  0  0  0  0  0  0
  148.5714  140.4288  156.1123 O   0  0  0  0  0  0  0  0  0  0  0  0
  148.4550  140.8593  153.9259 N   0  0  0  0  0  0  0  0  0  0  0  0
  147.0133  140.6694  153.7530 C   0  0  1  0  0  0  0  0  0  0  0  0
  146.3443  142.0330  153.5346 C   0  0  0  0  0  0  0  0  0  0  0  0
  146.7281  139.7034  152.5806 C   0  0  0  0  0  0  0  0  0  0  0  0
  145.5817  138.8005  152.8527 N   0  3  0  0  0  0  0  0  0  0  0  0
  145.6004  137.5557  152.0488 C   0  0  0  0  0  0  0  0  0  0  0  0
  144.3196  136.7464  152.3086 C   0  0  0  0  0  0  0  0  0  0  0  0
  144.2132  136.4602  153.6986 O   0  0  0  0  0  0  0  0  0  0  0  0
  144.1267  137.6447  154.4825 C   0  0  0  0  0  0  0  0  0  0  0  0
  145.3979  138.4890  154.2882 C   0  0  0  0  0  0  0  0  0  0  0  0
  150.9938  141.8000  157.4170 S   0  0  0  0  0  0  0  0  0  0  0  0
  152.4728  140.8861  160.1671 H   0  0  0  0  0  0  0  0  0  0  0  0
  152.8568  142.5244  159.6101 H   0  0  0  0  0  0  0  0  0  0  0  0
  154.0678  141.2390  159.4780 H   0  0  0  0  0  0  0  0  0  0  0  0
  148.9813  141.0932  153.0964 H   0  0  0  0  0  0  0  0  0  0  0  0
  146.5891  140.2525  154.6674 H   0  0  0  0  0  0  0  0  0  0  0  0
  145.2645  141.9271  153.4282 H   0  0  0  0  0  0  0  0  0  0  0  0
  146.7207  142.5225  152.6356 H   0  0  0  0  0  0  0  0  0  0  0  0
  146.5278  142.6996  154.3781 H   0  0  0  0  0  0  0  0  0  0  0  0
  146.5590  140.2524  151.6530 H   0  0  0  0  0  0  0  0  0  0  0  0
  147.6225  139.1001  152.4170 H   0  0  0  0  0  0  0  0  0  0  0  0
  145.6756  137.7906  150.9873 H   0  0  0  0  0  0  0  0  0  0  0  0
  146.4783  136.9623  152.3080 H   0  0  0  0  0  0  0  0  0  0  0  0
  143.4383  137.2918  151.9663 H   0  0  0  0  0  0  0  0  0  0  0  0
  144.3493  135.8079  151.7549 H   0  0  0  0  0  0  0  0  0  0  0  0
  143.2371  138.2132  154.2060 H   0  0  0  0  0  0  0  0  0  0  0  0
  144.0151  137.3681  155.5308 H   0  0  0  0  0  0  0  0  0  0  0  0
  146.2709  137.9534  154.6642 H   0  0  0  0  0  0  0  0  0  0  0  0
  145.3125  139.4131  154.8610 H   0  0  0  0  0  0  0  0  0  0  0  0
  144.7569  139.3142  152.5731 H   0  0  0  0  0  0  0  0  0  0  0  0
  1  2  1  0  0  0  0
  1 20  1  0  0  0  0
  1 21  1  0  0  0  0
  1 22  1  0  0  0  0
  2 19  1  0  0  0  0
  2  3  2  0  0  0  0
  3  4  1  0  0  0  0
  4  5  2  0  0  0  0
  5  6  1  0  0  0  0
  5 19  1  0  0  0  0
  6  7  1  0  0  0  0
  7  8  2  0  0  0  0
  7  9  1  0  0  0  0
  9 10  1  0  0  0  0
  9 23  1  0  0  0  0
 10 11  1  0  0  0  0
 10 12  1  0  0  0  0
 10 24  1  0  0  0  0
 11 25  1  0  0  0  0
 11 26  1  0  0  0  0
 11 27  1  0  0  0  0
 12 13  1  0  0  0  0
 12 28  1  0  0  0  0
 12 29  1  0  0  0  0
 13 18  1  0  0  0  0
 13 14  1  0  0  0  0
 13 38  1  0  0  0  0
 14 15  1  0  0  0  0
 14 30  1  0  0  0  0
 14 31  1  0  0  0  0
 15 16  1  0  0  0  0
 15 32  1  0  0  0  0
 15 33  1  0  0  0  0
 16 17  1  0  0  0  0
 17 18  1  0  0  0  0
 17 34  1  0  0  0  0
 17 35  1  0  0  0  0
 18 36  1  0  0  0  0
 18 37  1  0  0  0  0
M  CHG  1   6  -1
M  CHG  1  13   1
M  END
> <s_m_source_file>
AV-unprocessed.smi

> <i_m_source_file_index>
1999

> <i_lp_mmshare_version>
43012

> <i_f3d_flags>
0

> <s_epik_input>
W0NIM11jMW5uYyhzMSlbTkhdQyg9TylbTkhdW0NASF0oW0NIM10pW0NIMl1OMltDSDJdW0NIMl1PW0NIMl1bQ0gyXTI=

> <s_epik_cmdline>
J2VwaWtfcHl0aG9uJywgJy1waCcsICc3LjAnLCAnLXRuJywgJzgnLCAnLW1hJywgJzIwMCcsICctbWV0YWxfYmluZGluZycsICctaW1hZScsICc8aW5maWxlLm1hZT4nLCAnLW9tYWUnLCAnPG91dGZpbGUubWFlPic=

> <r_lp_tautomer_probability>
1

> <r_epik_Ionization_Penalty>
3.39984

> <r_epik_Ionization_Penalty_Charging>
3.28696

> <r_epik_Ionization_Penalty_Neutral>
0.11288

> <r_epik_State_Penalty>
3.47917

> <r_epik_Charging_Adjusted_Penalty>
6.76613

> <i_epik_Tot_Q>
0

> <i_epik_Tot_abs_Q>
2

> <r_epik_Metal_State_Penalty>
1.13142

> <b_epik_Metal_Only>
1

> <s_lp_Force_Field>
OPLS_2005

> <r_lp_Energy>
12.2925

> <b_lp_Chiralities_Consistent>
1

> <s_lp_Variant>
AV-unprocessed.smi:1999-8

> <Gold.Version>
5.8.1

> <Gold.Id.Protein>
6NUR|6NUR_protein|mol2

> <Gold.PLP.Fitness>
39.7971

> <Gold.PLP.PLP>
-27.2608

> <Gold.PLP.part.hbond>
-5.0000

> <Gold.PLP.part.metal>
0.0000

> <Gold.PLP.part.buried>
-3.0013

> <Gold.PLP.part.nonpolar>
-19.5988

> <Gold.PLP.part.repulsive>
0.2760

> <Gold.PLP.ligand.clash>
0.0000

> <Gold.PLP.ligand.torsion>
1.2933

> <Gold.PLP.Chemscore.Hbond>
4.9920

> <Gold.PLP.Chemscore.CHOScore>
0.0000

> <Gold.PLP.Chemscore.Metal>
0.0000

> <Gold.Chemscore.Hbonds>
donor molecule, donor type, donor heavy atom, donor atom, acceptor molecule, acceptor atom, score
      L1  H     9    23       P1  7957  0.28
      L1  H    13    38       P1 10175  2.00
      P1  H  7989  7998       L1     6  0.82
      P1  H  7997  8009       L1     3  0.65

> <Gold.PLP.Chemscore.Internal.Correction>
0.1469

> <Gold.Rescore>
     Score         DG    S(hbond)    S(metal)    S(lipo)     H(rot)  DE(clash)    DE(int)     intcor
     14.64     -17.87       2.82        0.00      60.59       1.60       2.12       1.11       ----

> <Gold.Chemscore.Fitness>
14.6360

> <Gold.Chemscore.DG>
-17.8709

> <Gold.Chemscore.ZeroCoef>
-5.4800

> <Gold.Chemscore.Hbond>
2.8164

> <Gold.Chemscore.Metal>
0.0000

> <Gold.Chemscore.Lipo>
60.5941

> <Gold.Chemscore.Internal_Hbond>
0.0000

> <Gold.Chemscore.DEClash>
2.1232

> <Gold.Chemscore.DEInternal>
1.1116

> <Gold.Chemscore.Rot>
1.6036

> <Gold.Chemscore.Internal.Correction>
   9.000000E+99

> <Gold.Chemscore.Hbonds>
donor molecule, donor type, donor heavy atom, donor atom, acceptor molecule, acceptor atom, score
      L1  H     9    23       P1  7957  0.28
      L1  H    13    38       P1 10175  0.97
      P1  H  7989  7998       L1     6  0.36
      P1  H  7997  8009       L1     3  0.32

> <Gold.Chemscore.Hbond.Weighted>
-9.4067

> <Gold.Chemscore.Metal.Weighted>
-0.0000

> <Gold.Chemscore.Lipo.Weighted>
-7.0895

> <Gold.Chemscore.Internal_Hbond.Weighted>
0.0000

> <Gold.Chemscore.DEClash.Weighted>
2.1232

> <Gold.Chemscore.DEInternal.Weighted>
1.1116

> <Gold.Chemscore.Rot.Weighted>
4.1053

> <Gold.Chemscore.Internal.Correction.Weighted>
   9.000000E+99

> <Gold.Protein.RotatedTorsions>
[ 6907 6896 6895 6894 ] final  -53.74 input  -60.11 | X-H torsion
[ 7974 7965 7964 7962 ] final   12.35 input  175.53 | X-H torsion
[ 8008 7997 7996 7995 ] final  162.76 input   59.86 | X-H torsion
[ 10167 10162 10161 10158 ] final   90.46 input  -65.29 | X-H torsion
[ 10718 10713 10712 10709 ] final  171.34 input   66.30 | X-H torsion
[ 10763 10752 10751 10750 ] final   -6.95 input  -60.55 | X-H torsion
[ 11005 11000 10999 10996 ] final  164.73 input  -57.11 | X-H torsion

> <Gold.Protein.ActiveResidues>
 VAL166  LYS551  ARG553  GLY616  TRP617  ASP618  TYR619  PRO620  LYS621  CYS622 
 ASP623  PHE694  ASN695  SER759  ASP760  ASP761  ALA762  ILE779  LEU786  VAL792 
 PHE793  MET794  SER795  GLU796  ALA797  LYS798  CYS799  TRP800  GLU811  SER814 

> <Gold.Protein.RotatedAtoms>
  150.8399  134.7687  159.6923 H   0  0  0  0  0  0  0  0  0  0  0  0  # atno 6907 bound_to 6896
  152.4489  134.5433  159.9855 H   0  0  0  0  0  0  0  0  0  0  0  0  # atno 6908 bound_to 6896
  151.5575  133.3370  159.3000 H   0  0  0  0  0  0  0  0  0  0  0  0  # atno 6909 bound_to 6896
  146.2353  139.9349  142.8491 H   0  0  0  0  0  0  0  0  0  0  0  0  # atno 7974 bound_to 7965
  156.2007  140.1742  156.7904 H   0  0  0  0  0  0  0  0  0  0  0  0  # atno 8008 bound_to 7997
  154.5588  140.0703  156.8818 H   0  0  0  0  0  0  0  0  0  0  0  0  # atno 8009 bound_to 7997
  155.2887  140.3354  155.4256 H   0  0  0  0  0  0  0  0  0  0  0  0  # atno 8010 bound_to 7997
  139.8471  144.6612  150.9214 H   0  0  0  0  0  0  0  0  0  0  0  0  # atno 10167 bound_to 10162
  156.9950  131.0159  151.2846 H   0  0  0  0  0  0  0  0  0  0  0  0  # atno 10718 bound_to 10713
  153.4195  135.7009  153.6304 H   0  0  0  0  0  0  0  0  0  0  0  0  # atno 10763 bound_to 10752
  153.4764  135.3703  155.2419 H   0  0  0  0  0  0  0  0  0  0  0  0  # atno 10764 bound_to 10752
  154.8721  135.4055  154.3561 H   0  0  0  0  0  0  0  0  0  0  0  0  # atno 10765 bound_to 10752
  140.2489  134.7992  157.3483 H   0  0  0  0  0  0  0  0  0  0  0  0  # atno 11005 bound_to 11000
  145.2008  140.9853  143.4157 LP  0  0  0  0  0  0  0  0  0  0  0  0  # atno 17320 bound_to 7965
  144.9775  139.3817  143.6278 LP  0  0  0  0  0  0  0  0  0  0  0  0  # atno 17321 bound_to 7965
  140.7792  143.3861  151.1392 LP  0  0  0  0  0  0  0  0  0  0  0  0  # atno 17342 bound_to 10162
  139.7502  143.8790  152.3074 LP  0  0  0  0  0  0  0  0  0  0  0  0  # atno 17343 bound_to 10162
  157.5431  130.8133  149.8053 LP  0  0  0  0  0  0  0  0  0  0  0  0  # atno 17370 bound_to 10713
  156.0192  130.3802  150.2013 LP  0  0  0  0  0  0  0  0  0  0  0  0  # atno 17371 bound_to 10713
  140.1578  134.4767  155.7916 LP  0  0  0  0  0  0  0  0  0  0  0  0  # atno 17394 bound_to 11000
  141.2203  133.6888  156.7491 LP  0  0  0  0  0  0  0  0  0  0  0  0  # atno 17395 bound_to 11000

$$$$
