#       Name:                AV-unprocessed.smi:1007
#       Creating user name   scv26
#       Creation time:       Fri Mar 27 02:34:55 2020


#       File generated by GOLD software.
#

@<TRIPOS>MOLECULE
AV-unprocessed.smi:1007
    62    64     1
SMALL
NO_CHARGES


@<TRIPOS>ATOM
      1 ****        -1.4559   6.2344   3.0776 C.3            1 S1                 0.0000
      2 ****        -1.7011   5.3990   1.9592 O.3            1 S1                 0.0000
      3 ****        -1.1290   5.9068   0.7653 C.3            1 S1                 0.0000
      4 ****        -1.4971   4.9729  -0.3981 C.3            1 S1                 0.0000
      5 ****        -0.9421   3.6055  -0.2302 N.4            1 S1                 1.0000
      6 ****         0.5121   3.5155  -0.5195 C.3            1 S1                 0.0000
      7 ****         1.0457   2.0957  -0.2562 C.3            1 S1                 0.0000
      8 ****         0.2851   1.0829  -1.0318 N.4            1 S1                 1.0000
      9 ****         0.8067  -0.2990  -0.8742 C.3            1 S1                 0.0000
     10 ****         2.0699  -0.5604  -1.7246 C.3            1 S1                 0.0000
     11 ****         1.7148  -0.4628  -3.0903 O.3            1 S1                 0.0000
     12 ****         2.7112  -1.9419  -1.4659 C.3            1 S1                 0.0000
     13 ****         1.7820  -3.0512  -1.6084 N.pl3          1 S1                 0.0000
     14 ****         1.4345  -3.6804  -2.7481 C.2            1 S1                 0.0000
     15 ****         0.5486  -4.6670  -2.6535 N.2            1 S1                 0.0000
     16 ****         0.2990  -4.6893  -1.2924 C.ar           1 S1                 0.0000
     17 ****        -0.5589  -5.5122  -0.5308 C.ar           1 S1                 0.0000
     18 ****        -0.6574  -5.3566   0.8702 C.ar           1 S1                 0.0000
     19 ****        -1.5907  -6.2658   1.6504 C.3            1 S1                 0.0000
     20 ****         0.1107  -4.3644   1.5306 C.ar           1 S1                 0.0000
     21 ****         0.0261  -4.1838   3.0358 C.3            1 S1                 0.0000
     22 ****         0.9704  -3.5316   0.7846 C.ar           1 S1                 0.0000
     23 ****         1.0592  -3.6954  -0.6093 C.ar           1 S1                 0.0000
     24 ****        -1.1671   1.1737  -0.7423 C.3            1 S1                 0.0000
     25 ****        -1.7001   2.5928  -1.0056 C.3            1 S1                 0.0000
     26 ****        -1.9063   5.7959   3.9681 H              1 S1                 0.0000
     27 ****        -1.8919   7.2239   2.9337 H              1 S1                 0.0000
     28 ****        -0.3865   6.3462   3.2612 H              1 S1                 0.0000
     29 ****        -1.5278   6.9027   0.5659 H              1 S1                 0.0000
     30 ****        -0.0489   6.0123   0.8696 H              1 S1                 0.0000
     31 ****        -2.5856   4.9232  -0.4563 H              1 S1                 0.0000
     32 ****        -1.1592   5.3933  -1.3465 H              1 S1                 0.0000
     33 ****         0.6942   3.7942  -1.5589 H              1 S1                 0.0000
     34 ****         1.0664   4.2219   0.0975 H              1 S1                 0.0000
     35 ****         2.1026   2.0595  -0.5183 H              1 S1                 0.0000
     36 ****         0.9773   1.8655   0.8084 H              1 S1                 0.0000
     37 ****         1.0082  -0.4906   0.1807 H              1 S1                 0.0000
     38 ****         0.0325  -1.0094  -1.1690 H              1 S1                 0.0000
     39 ****         2.8264   0.1978  -1.5255 H              1 S1                 0.0000
     40 ****         2.4838  -0.6303  -3.6151 H              1 S1                 0.0000
     41 ****         3.5521  -2.1046  -2.1418 H              1 S1                 0.0000
     42 ****         3.1248  -1.9719  -0.4572 H              1 S1                 0.0000
     43 ****         1.8490  -3.3913  -3.7030 H              1 S1                 0.0000
     44 ****        -1.1428  -6.2690  -1.0341 H              1 S1                 0.0000
     45 ****        -1.0318  -6.8480   2.3833 H              1 S1                 0.0000
     46 ****        -2.1083  -6.9645   0.9925 H              1 S1                 0.0000
     47 ****        -2.3452  -5.6803   2.1757 H              1 S1                 0.0000
     48 ****         0.6704  -3.3728   3.3762 H              1 S1                 0.0000
     49 ****         0.3375  -5.0951   3.5464 H              1 S1                 0.0000
     50 ****        -0.9950  -3.9493   3.3374 H              1 S1                 0.0000
     51 ****         1.5606  -2.7732   1.2770 H              1 S1                 0.0000
     52 ****        -1.7126   0.4653  -1.3672 H              1 S1                 0.0000
     53 ****        -1.3504   0.8892   0.2951 H              1 S1                 0.0000
     54 ****        -2.7558   2.6354  -0.7347 H              1 S1                 0.0000
     55 ****        -1.6355   2.8267  -2.0697 H              1 S1                 0.0000
     56 ****         0.3923   1.3104  -2.0107 H              1 S1                 0.0000
     57 ****        -1.0685   3.3686   0.7441 H              1 S1                 0.0000
     58 ****        -2.6895   5.3166   1.8313 LP             1 S1                 0.0000
     59 ****        -1.3123   4.4961   2.1422 LP             1 S1                 0.0000
     60 ****         1.3685   0.4553  -3.2835 LP             1 S1                 0.0000
     61 ****         1.0080  -1.1373  -3.3035 LP             1 S1                 0.0000
     62 ****         0.1638  -5.2418  -3.3757 LP             1 S1                 0.0000
@<TRIPOS>BOND
    1    1    2 1     
    2    1   26 1     
    3    1   27 1     
    4    1   28 1     
    5    2    3 1     
    6    3    4 1     
    7    3   29 1     
    8    3   30 1     
    9    4    5 1     
   10    4   31 1     
   11    4   32 1     
   12    5   25 1     
   13    5    6 1     
   14    5   57 1     
   15    6    7 1     
   16    6   33 1     
   17    6   34 1     
   18    7    8 1     
   19    7   35 1     
   20    7   36 1     
   21    8    9 1     
   22    8   24 1     
   23    8   56 1     
   24    9   10 1     
   25    9   37 1     
   26    9   38 1     
   27   10   11 1     
   28   10   12 1     
   29   10   39 1     
   30   11   40 1     
   31   12   13 1     
   32   12   41 1     
   33   12   42 1     
   34   13   23 1     
   35   13   14 1     
   36   14   15 2     
   37   14   43 1     
   38   15   16 1     
   39   16   23 ar    
   40   16   17 ar    
   41   17   18 ar    
   42   17   44 1     
   43   18   19 1     
   44   18   20 ar    
   45   19   45 1     
   46   19   46 1     
   47   19   47 1     
   48   20   21 1     
   49   20   22 ar    
   50   21   48 1     
   51   21   49 1     
   52   21   50 1     
   53   22   23 ar    
   54   22   51 1     
   55   24   25 1     
   56   24   52 1     
   57   24   53 1     
   58   25   54 1     
   59   25   55 1     
   60    2   58 1     
   61    2   59 1     
   62   11   60 1     
   63   11   61 1     
   64   15   62 1     
@<TRIPOS>SUBSTRUCTURE
      1 S1             1
@<TRIPOS>SET
LONE_PAIRS      STATIC     ATOMS    <user>   **** ""
5 58 59 60 61 62
DONOR_HYDROGENS      STATIC     ATOMS    <user>   **** ""
3 57 56 40
ATOM$BLUE        STATIC     ATOMS    COLORGROUP SYSTEM
5 58 59 60 61 62
ATOM$RED        STATIC     ATOMS    COLORGROUP SYSTEM
3 57 56 40
