AV-unprocessed.smi:1231|AV-procd|sdf|5163|dock8
  -GOLD-   22720 4233D 1   1.00000     0.00000
 Structure written by MMmdl.
 43 44  0  0  0  0  0  0  0  0  2 V2000
  151.7270  138.1681  154.5220 C   0  0  0  0  0  0  0  0  0  0  0  0
  150.5450  139.0478  154.9436 C   0  0  2  0  0  0  0  0  0  0  0  0
  149.3227  138.8481  154.0295 C   0  0  0  0  0  0  0  0  0  0  0  0
  148.2335  139.7765  154.4101 N   0  3  2  0  0  0  0  0  0  0  0  0
  146.9952  139.5477  153.6255 C   0  0  0  0  0  0  0  0  0  0  0  0
  146.2638  138.2571  154.0442 C   0  0  0  0  0  0  0  0  0  0  0  0
  146.6652  137.1204  153.2234 N   0  0  0  0  0  0  0  0  0  0  0  0
  145.8313  136.1760  152.7640 C   0  0  0  0  0  0  0  0  0  0  0  0
  144.6203  136.1783  152.9879 O   0  0  0  0  0  0  0  0  0  0  0  0
  146.4893  135.2504  152.0440 N   0  0  0  0  0  0  0  0  0  0  0  0
  145.9548  134.1179  151.3737 C   0  0  0  0  0  0  0  0  0  0  0  0
  144.5916  134.2224  151.0157 C   0  0  0  0  0  0  0  0  0  0  0  0
  143.9663  133.1506  150.3493 C   0  0  0  0  0  0  0  0  0  0  0  0
  144.7209  131.9999  150.0595 C   0  0  0  0  0  0  0  0  0  0  0  0
  146.0720  131.9768  150.4515 C   0  0  0  0  0  0  0  0  0  0  0  0
  146.6734  133.0030  151.0897 N   0  0  0  0  0  0  0  0  0  0  0  0
  148.7162  141.1789  154.3625 C   0  0  0  0  0  0  0  0  0  0  0  0
  149.9701  141.3638  155.2389 C   0  0  1  0  0  0  0  0  0  0  0  0
  149.6685  141.3577  156.7482 C   0  0  0  0  0  0  0  0  0  0  0  0
  150.9678  140.4073  154.8812 O   0  0  0  0  0  0  0  0  0  0  0  0
  151.4660  137.1106  154.5668 H   0  0  0  0  0  0  0  0  0  0  0  0
  152.5834  138.3268  155.1777 H   0  0  0  0  0  0  0  0  0  0  0  0
  152.0427  138.3924  153.5026 H   0  0  0  0  0  0  0  0  0  0  0  0
  150.2818  138.7903  155.9697 H   0  0  0  0  0  0  0  0  0  0  0  0
  149.5956  139.0153  152.9859 H   0  0  0  0  0  0  0  0  0  0  0  0
  148.9745  137.8173  154.1078 H   0  0  0  0  0  0  0  0  0  0  0  0
  146.3436  140.4183  153.7136 H   0  0  0  0  0  0  0  0  0  0  0  0
  147.2530  139.4618  152.5687 H   0  0  0  0  0  0  0  0  0  0  0  0
  146.4915  138.0216  155.0840 H   0  0  0  0  0  0  0  0  0  0  0  0
  145.1814  138.3716  153.9819 H   0  0  0  0  0  0  0  0  0  0  0  0
  147.6462  137.0429  152.9970 H   0  0  0  0  0  0  0  0  0  0  0  0
  147.4876  135.3722  151.9598 H   0  0  0  0  0  0  0  0  0  0  0  0
  144.0264  135.1134  151.2471 H   0  0  0  0  0  0  0  0  0  0  0  0
  142.9255  133.2109  150.0668 H   0  0  0  0  0  0  0  0  0  0  0  0
  144.2766  131.1575  149.5503 H   0  0  0  0  0  0  0  0  0  0  0  0
  146.6863  131.1122  150.2481 H   0  0  0  0  0  0  0  0  0  0  0  0
  148.9512  141.4395  153.3292 H   0  0  0  0  0  0  0  0  0  0  0  0
  147.9408  141.8707  154.6895 H   0  0  0  0  0  0  0  0  0  0  0  0
  150.3945  142.3412  155.0081 H   0  0  0  0  0  0  0  0  0  0  0  0
  149.0083  142.1841  157.0125 H   0  0  0  0  0  0  0  0  0  0  0  0
  150.5846  141.4706  157.3281 H   0  0  0  0  0  0  0  0  0  0  0  0
  149.1792  140.4387  157.0702 H   0  0  0  0  0  0  0  0  0  0  0  0
  148.0080  139.5710  155.3729 H   0  0  0  0  0  0  0  0  0  0  0  0
  1  2  1  0  0  0  0
  1 21  1  0  0  0  0
  1 22  1  0  0  0  0
  1 23  1  0  0  0  0
  2 20  1  0  0  0  0
  2  3  1  0  0  0  0
  2 24  1  0  0  0  0
  3  4  1  0  0  0  0
  3 25  1  0  0  0  0
  3 26  1  0  0  0  0
  4  5  1  0  0  0  0
  4 17  1  0  0  0  0
  4 43  1  0  0  0  0
  5  6  1  0  0  0  0
  5 27  1  0  0  0  0
  5 28  1  0  0  0  0
  6  7  1  0  0  0  0
  6 29  1  0  0  0  0
  6 30  1  0  0  0  0
  7  8  1  0  0  0  0
  7 31  1  0  0  0  0
  8  9  2  0  0  0  0
  8 10  1  0  0  0  0
 10 11  1  0  0  0  0
 10 32  1  0  0  0  0
 11 16  1  0  0  0  0
 11 12  2  0  0  0  0
 12 13  1  0  0  0  0
 12 33  1  0  0  0  0
 13 14  2  0  0  0  0
 13 34  1  0  0  0  0
 14 15  1  0  0  0  0
 14 35  1  0  0  0  0
 15 16  2  0  0  0  0
 15 36  1  0  0  0  0
 17 18  1  0  0  0  0
 17 37  1  0  0  0  0
 17 38  1  0  0  0  0
 18 19  1  0  0  0  0
 18 20  1  0  0  0  0
 18 39  1  0  0  0  0
 19 40  1  0  0  0  0
 19 41  1  0  0  0  0
 19 42  1  0  0  0  0
M  CHG  1   4   1
M  END
> <s_m_source_file>
AV-unprocessed.smi

> <i_m_source_file_index>
1231

> <i_lp_mmshare_version>
43012

> <i_f3d_flags>
0

> <s_epik_input>
W0NIM11bQ0BASF0xW0NIMl1OKFtDSDJdW0NASF0oTzEpW0NIM10pW0NIMl1bQ0gyXVtOSF1DKD1PKVtOSF1jMltjSF1bY0hdW2NIXVtjSF1uMg==

> <s_epik_cmdline>
J2VwaWtfcHl0aG9uJywgJy1waCcsICc3LjAnLCAnLXRuJywgJzgnLCAnLW1hJywgJzIwMCcsICctbWV0YWxfYmluZGluZycsICctaW1hZScsICc8aW5maWxlLm1hZT4nLCAnLW9tYWUnLCAnPG91dGZpbGUubWFlPic=

> <r_epik_Ionization_Penalty>
0.602565

> <r_epik_Ionization_Penalty_Charging>
0.602531

> <r_epik_Ionization_Penalty_Neutral>
3.43186e-05

> <r_epik_State_Penalty>
0.617039

> <r_epik_Charging_Adjusted_Penalty>
1.21957

> <i_epik_Tot_Q>
1

> <i_epik_Tot_abs_Q>
1

> <r_epik_Metal_State_Penalty>
0.617041

> <b_epik_Metal_Only>
0

> <s_lp_Force_Field>
OPLS_2005

> <r_lp_Energy>
18.1203

> <b_lp_Chiralities_Consistent>
1

> <s_lp_Variant>
AV-unprocessed.smi:1231-4

> <Gold.Version>
5.8.1

> <Gold.Id.Protein>
6NUR|6NUR_protein|mol2

> <Gold.PLP.Fitness>
46.0688

> <Gold.PLP.PLP>
-35.5394

> <Gold.PLP.part.hbond>
-3.0000

> <Gold.PLP.part.metal>
0.0000

> <Gold.PLP.part.buried>
-4.4844

> <Gold.PLP.part.nonpolar>
-28.9388

> <Gold.PLP.part.repulsive>
0.4940

> <Gold.PLP.ligand.clash>
0.0000

> <Gold.PLP.ligand.torsion>
0.6121

> <Gold.PLP.Chemscore.Hbond>
2.9120

> <Gold.PLP.Chemscore.CHOScore>
1.0000

> <Gold.PLP.Chemscore.Metal>
0.0000

> <Gold.Chemscore.Hbonds>
donor molecule, donor type, donor heavy atom, donor atom, acceptor molecule, acceptor atom, score
      L1  H     7    31       P1  7948  0.93
      L1  H    10    32       P1  7948  1.00
      P1  H  7989  7998       L1    20  1.00
      L1  C    15    36       P1 10747  1.00

> <Gold.PLP.Chemscore.Internal.Correction>
0.0177

> <Gold.Rescore>
     Score         DG    S(hbond)    S(metal)    S(lipo)     H(rot)  DE(clash)    DE(int)     intcor
     18.99     -21.09       2.78        0.00      88.07       1.55       0.06       2.04       ----

> <Gold.Chemscore.Fitness>
18.9859

> <Gold.Chemscore.DG>
-21.0864

> <Gold.Chemscore.ZeroCoef>
-5.4800

> <Gold.Chemscore.Hbond>
2.7792

> <Gold.Chemscore.Metal>
0.0000

> <Gold.Chemscore.Lipo>
88.0653

> <Gold.Chemscore.Internal_Hbond>
0.0000

> <Gold.Chemscore.DEClash>
0.0562

> <Gold.Chemscore.DEInternal>
2.0442

> <Gold.Chemscore.Rot>
1.5546

> <Gold.Chemscore.Internal.Correction>
   9.000000E+99

> <Gold.Chemscore.Hbonds>
donor molecule, donor type, donor heavy atom, donor atom, acceptor molecule, acceptor atom, score
      L1  H     7    31       P1  7948  0.89
      L1  H    10    32       P1  7948  0.98
      P1  H  7989  7998       L1    20  0.59

> <Gold.Chemscore.Hbond.Weighted>
-9.2824

> <Gold.Chemscore.Metal.Weighted>
-0.0000

> <Gold.Chemscore.Lipo.Weighted>
-10.3036

> <Gold.Chemscore.Internal_Hbond.Weighted>
0.0000

> <Gold.Chemscore.DEClash.Weighted>
0.0562

> <Gold.Chemscore.DEInternal.Weighted>
2.0442

> <Gold.Chemscore.Rot.Weighted>
3.9797

> <Gold.Chemscore.Internal.Correction.Weighted>
   9.000000E+99

> <Gold.Protein.RotatedTorsions>
[ 6907 6896 6895 6894 ] final -131.48 input  -60.11 | X-H torsion
[ 7974 7965 7964 7962 ] final   37.84 input  175.53 | X-H torsion
[ 8008 7997 7996 7995 ] final   76.72 input   59.86 | X-H torsion
[ 10167 10162 10161 10158 ] final  152.69 input  -65.29 | X-H torsion
[ 10718 10713 10712 10709 ] final  -25.25 input   66.30 | X-H torsion
[ 10763 10752 10751 10750 ] final  -27.16 input  -60.55 | X-H torsion
[ 11005 11000 10999 10996 ] final   49.37 input  -57.11 | X-H torsion

> <Gold.Protein.ActiveResidues>
 VAL166  LYS551  ARG553  GLY616  TRP617  ASP618  TYR619  PRO620  LYS621  CYS622 
 ASP623  PHE694  ASN695  SER759  ASP760  ASP761  ALA762  ILE779  LEU786  VAL792 
 PHE793  MET794  SER795  GLU796  ALA797  LYS798  CYS799  TRP800  GLU811  SER814 

> <Gold.Protein.RotatedAtoms>
  150.9515  133.6544  159.2770 H   0  0  0  0  0  0  0  0  0  0  0  0  # atno 6907 bound_to 6896
  151.3899  135.0953  159.9532 H   0  0  0  0  0  0  0  0  0  0  0  0  # atno 6908 bound_to 6896
  152.5112  133.9031  159.7506 H   0  0  0  0  0  0  0  0  0  0  0  0  # atno 6909 bound_to 6896
  146.1107  139.5845  142.9354 H   0  0  0  0  0  0  0  0  0  0  0  0  # atno 7974 bound_to 7965
  155.8313  140.3466  155.5574 H   0  0  0  0  0  0  0  0  0  0  0  0  # atno 8008 bound_to 7997
  155.8238  140.0917  157.1853 H   0  0  0  0  0  0  0  0  0  0  0  0  # atno 8009 bound_to 7997
  154.4004  140.1425  156.3520 H   0  0  0  0  0  0  0  0  0  0  0  0  # atno 8010 bound_to 7997
  139.4831  144.5337  151.7681 H   0  0  0  0  0  0  0  0  0  0  0  0  # atno 10167 bound_to 10162
  156.4668  130.4516  149.6894 H   0  0  0  0  0  0  0  0  0  0  0  0  # atno 10718 bound_to 10713
  153.7276  135.6941  153.4997 H   0  0  0  0  0  0  0  0  0  0  0  0  # atno 10763 bound_to 10752
  153.2159  135.4386  155.0432 H   0  0  0  0  0  0  0  0  0  0  0  0  # atno 10764 bound_to 10752
  154.8264  135.3448  154.6807 H   0  0  0  0  0  0  0  0  0  0  0  0  # atno 10765 bound_to 10752
  140.1109  134.4956  155.8679 H   0  0  0  0  0  0  0  0  0  0  0  0  # atno 11005 bound_to 11000
  145.5669  141.0398  143.2195 LP  0  0  0  0  0  0  0  0  0  0  0  0  # atno 17320 bound_to 7965
  144.7509  139.7196  143.7273 LP  0  0  0  0  0  0  0  0  0  0  0  0  # atno 17321 bound_to 7965
  140.4866  144.1372  150.5942 LP  0  0  0  0  0  0  0  0  0  0  0  0  # atno 17342 bound_to 10162
  140.4218  143.2608  151.9706 LP  0  0  0  0  0  0  0  0  0  0  0  0  # atno 17343 bound_to 10162
  156.3659  130.7505  151.2483 LP  0  0  0  0  0  0  0  0  0  0  0  0  # atno 17370 bound_to 10713
  157.7494  131.0337  150.4283 LP  0  0  0  0  0  0  0  0  0  0  0  0  # atno 17371 bound_to 10713
  141.2130  133.6727  156.6702 LP  0  0  0  0  0  0  0  0  0  0  0  0  # atno 17394 bound_to 11000
  140.3093  134.8100  157.4162 LP  0  0  0  0  0  0  0  0  0  0  0  0  # atno 17395 bound_to 11000

$$$$
