AV-unprocessed.smi:2123|AV-procd|sdf|8647|dock5
  -GOLD-   2272011393D 1   1.00000     0.00000
 Structure written by MMmdl.
 47 48  0  0  0  0  0  0  0  0  1 V2000
  149.3907  131.1884  153.4077 C   0  0  0  0  0  0  0  0  0  0  0  0
  148.4796  132.6928  153.8409 S   0  0  0  0  0  0  0  0  0  0  0  0
  149.8720  133.7666  154.2965 C   0  0  0  0  0  0  0  0  0  0  0  0
  149.4135  135.1414  154.8190 C   0  0  0  0  0  0  0  0  0  0  0  0
  150.5360  136.1837  154.8953 C   0  0  0  0  0  0  0  0  0  0  0  0
  151.3458  136.1700  155.8224 O   0  0  0  0  0  0  0  0  0  0  0  0
  150.5674  137.0910  153.9065 N   0  0  0  0  0  0  0  0  0  0  0  0
  151.5347  138.1775  153.7769 C   0  0  0  0  0  0  0  0  0  0  0  0
  151.5854  139.1036  154.9833 C   0  0  0  0  0  0  0  0  0  0  0  0
  150.7574  140.2407  155.0887 C   0  0  0  0  0  0  0  0  0  0  0  0
  150.8491  141.0508  156.2363 C   0  0  0  0  0  0  0  0  0  0  0  0
  151.7682  140.7054  157.2555 C   0  0  0  0  0  0  0  0  0  0  0  0
  151.8823  141.5069  158.4129 N   0  0  0  0  0  0  0  0  0  0  0  0
  151.1586  142.7764  158.4419 C   0  0  0  0  0  0  0  0  0  0  0  0
  151.6296  143.6406  159.6264 C   0  0  1  0  0  0  0  0  0  0  0  0
  150.8060  144.9255  159.7633 C   0  0  0  0  0  0  0  0  0  0  0  0
  151.4978  142.8941  160.8329 O   0  0  0  0  0  0  0  0  0  0  0  0
  152.2986  141.7155  160.8338 C   0  0  1  0  0  0  0  0  0  0  0  0
  152.1611  141.0416  162.2028 C   0  0  0  0  0  0  0  0  0  0  0  0
  151.8439  140.7933  159.6868 C   0  0  0  0  0  0  0  0  0  0  0  0
  152.5517  139.6029  157.1565 N   0  0  0  0  0  0  0  0  0  0  0  0
  152.4583  138.8288  156.0552 C   0  0  0  0  0  0  0  0  0  0  0  0
  148.6987  130.4048  153.0998 H   0  0  0  0  0  0  0  0  0  0  0  0
  149.9622  130.8296  154.2636 H   0  0  0  0  0  0  0  0  0  0  0  0
  150.0797  131.3843  152.5859 H   0  0  0  0  0  0  0  0  0  0  0  0
  150.4443  133.2583  155.0728 H   0  0  0  0  0  0  0  0  0  0  0  0
  150.5399  133.8765  153.4407 H   0  0  0  0  0  0  0  0  0  0  0  0
  148.5983  135.5316  154.2088 H   0  0  0  0  0  0  0  0  0  0  0  0
  149.0054  135.0080  155.8221 H   0  0  0  0  0  0  0  0  0  0  0  0
  149.8633  137.0250  153.1856 H   0  0  0  0  0  0  0  0  0  0  0  0
  152.5373  137.7907  153.5882 H   0  0  0  0  0  0  0  0  0  0  0  0
  151.2624  138.7544  152.8923 H   0  0  0  0  0  0  0  0  0  0  0  0
  150.0537  140.4932  154.3101 H   0  0  0  0  0  0  0  0  0  0  0  0
  150.2053  141.9127  156.3260 H   0  0  0  0  0  0  0  0  0  0  0  0
  151.3200  143.3223  157.5114 H   0  0  0  0  0  0  0  0  0  0  0  0
  150.0889  142.5773  158.5223 H   0  0  0  0  0  0  0  0  0  0  0  0
  152.6771  143.9138  159.4877 H   0  0  0  0  0  0  0  0  0  0  0  0
  150.8849  145.5395  158.8658 H   0  0  0  0  0  0  0  0  0  0  0  0
  151.1532  145.5231  160.6066 H   0  0  0  0  0  0  0  0  0  0  0  0
  149.7508  144.7028  159.9247 H   0  0  0  0  0  0  0  0  0  0  0  0
  153.3443  141.9930  160.6890 H   0  0  0  0  0  0  0  0  0  0  0  0
  152.7656  140.1359  162.2571 H   0  0  0  0  0  0  0  0  0  0  0  0
  151.1256  140.7662  162.4048 H   0  0  0  0  0  0  0  0  0  0  0  0
  152.4901  141.7087  162.9999 H   0  0  0  0  0  0  0  0  0  0  0  0
  150.8238  140.4488  159.8630 H   0  0  0  0  0  0  0  0  0  0  0  0
  152.4776  139.9078  159.6730 H   0  0  0  0  0  0  0  0  0  0  0  0
  153.1053  137.9643  156.0301 H   0  0  0  0  0  0  0  0  0  0  0  0
  1  2  1  0  0  0  0
  1 23  1  0  0  0  0
  1 24  1  0  0  0  0
  1 25  1  0  0  0  0
  2  3  1  0  0  0  0
  3  4  1  0  0  0  0
  3 26  1  0  0  0  0
  3 27  1  0  0  0  0
  4  5  1  0  0  0  0
  4 28  1  0  0  0  0
  4 29  1  0  0  0  0
  5  6  2  0  0  0  0
  5  7  1  0  0  0  0
  7  8  1  0  0  0  0
  7 30  1  0  0  0  0
  8  9  1  0  0  0  0
  8 31  1  0  0  0  0
  8 32  1  0  0  0  0
  9 22  1  0  0  0  0
  9 10  2  0  0  0  0
 10 11  1  0  0  0  0
 10 33  1  0  0  0  0
 11 12  2  0  0  0  0
 11 34  1  0  0  0  0
 12 13  1  0  0  0  0
 12 21  1  0  0  0  0
 13 20  1  0  0  0  0
 13 14  1  0  0  0  0
 14 15  1  0  0  0  0
 14 35  1  0  0  0  0
 14 36  1  0  0  0  0
 15 16  1  0  0  0  0
 15 17  1  0  0  0  0
 15 37  1  0  0  0  0
 16 38  1  0  0  0  0
 16 39  1  0  0  0  0
 16 40  1  0  0  0  0
 17 18  1  0  0  0  0
 18 19  1  0  0  0  0
 18 20  1  0  0  0  0
 18 41  1  0  0  0  0
 19 42  1  0  0  0  0
 19 43  1  0  0  0  0
 19 44  1  0  0  0  0
 20 45  1  0  0  0  0
 20 46  1  0  0  0  0
 21 22  2  0  0  0  0
 22 47  1  0  0  0  0
M  END
> <s_m_source_file>
AV-unprocessed.smi

> <i_m_source_file_index>
2123

> <i_lp_mmshare_version>
43012

> <i_f3d_flags>
0

> <s_epik_input>
W0NIM11TW0NIMl1bQ0gyXUMoPU8pW05IXVtDSDJdYzFbY0hdW2NIXWMobltjSF0xKU4yW0NIMl1bQ0BASF0oW0NIM10pT1tDQEBIXShbQ0gzXSlbQ0gyXTI=

> <s_epik_cmdline>
J2VwaWtfcHl0aG9uJywgJy1waCcsICc3LjAnLCAnLXRuJywgJzgnLCAnLW1hJywgJzIwMCcsICctbWV0YWxfYmluZGluZycsICctaW1hZScsICc8aW5maWxlLm1hZT4nLCAnLW9tYWUnLCAnPG91dGZpbGUubWFlPic=

> <r_lp_tautomer_probability>
1

> <r_epik_Ionization_Penalty>
0.00642497

> <r_epik_Ionization_Penalty_Charging>
0

> <r_epik_Ionization_Penalty_Neutral>
0.00642497

> <r_epik_State_Penalty>
0.0047515

> <r_epik_Charging_Adjusted_Penalty>
0.0047515

> <i_epik_Tot_Q>
0

> <i_epik_Tot_abs_Q>
0

> <r_epik_Metal_State_Penalty>
-0

> <b_epik_Metal_Only>
0

> <s_lp_Force_Field>
OPLS_2005

> <r_lp_Energy>
15.9329

> <b_lp_Chiralities_Consistent>
1

> <s_lp_Variant>
AV-unprocessed.smi:2123-1

> <Gold.Version>
5.8.1

> <Gold.Id.Protein>
6NUR|6NUR_protein|mol2

> <Gold.PLP.Fitness>
53.8233

> <Gold.PLP.PLP>
-46.8588

> <Gold.PLP.part.hbond>
-3.9244

> <Gold.PLP.part.metal>
0.0000

> <Gold.PLP.part.buried>
-2.0018

> <Gold.PLP.part.nonpolar>
-38.8537

> <Gold.PLP.part.repulsive>
0.1297

> <Gold.PLP.ligand.clash>
0.0000

> <Gold.PLP.ligand.torsion>
0.8518

> <Gold.PLP.Chemscore.Hbond>
2.7680

> <Gold.PLP.Chemscore.CHOScore>
0.0000

> <Gold.PLP.Chemscore.Metal>
0.0000

> <Gold.Chemscore.Hbonds>
donor molecule, donor type, donor heavy atom, donor atom, acceptor molecule, acceptor atom, score
      L1  H     7    30       P1  7948  1.00
      P1  H  6933  6945       L1    17  0.03
      P1  H  7997  8009       L1    21  0.45
      P1  H 10752 10764       L1     6  0.99

> <Gold.PLP.Chemscore.Internal.Correction>
0.3641

> <Gold.Rescore>
     Score         DG    S(hbond)    S(metal)    S(lipo)     H(rot)  DE(clash)    DE(int)     intcor
     20.91     -22.08       2.22        0.00     115.87       1.70       0.36       0.82       ----

> <Gold.Chemscore.Fitness>
20.9050

> <Gold.Chemscore.DG>
-22.0829

> <Gold.Chemscore.ZeroCoef>
-5.4800

> <Gold.Chemscore.Hbond>
2.2188

> <Gold.Chemscore.Metal>
0.0000

> <Gold.Chemscore.Lipo>
115.8691

> <Gold.Chemscore.Internal_Hbond>
0.0000

> <Gold.Chemscore.DEClash>
0.3614

> <Gold.Chemscore.DEInternal>
0.8165

> <Gold.Chemscore.Rot>
1.7049

> <Gold.Chemscore.Internal.Correction>
   9.000000E+99

> <Gold.Chemscore.Hbonds>
donor molecule, donor type, donor heavy atom, donor atom, acceptor molecule, acceptor atom, score
      L1  H     7    30       P1  7948  0.29
      P1  H  7997  8009       L1    21  0.01
      P1  H 10752 10764       L1     6  0.32

> <Gold.Chemscore.Hbond.Weighted>
-7.4109

> <Gold.Chemscore.Metal.Weighted>
-0.0000

> <Gold.Chemscore.Lipo.Weighted>
-13.5567

> <Gold.Chemscore.Internal_Hbond.Weighted>
0.0000

> <Gold.Chemscore.DEClash.Weighted>
0.3614

> <Gold.Chemscore.DEInternal.Weighted>
0.8165

> <Gold.Chemscore.Rot.Weighted>
4.3647

> <Gold.Chemscore.Internal.Correction.Weighted>
   9.000000E+99

> <Gold.Protein.RotatedTorsions>
[ 6907 6896 6895 6894 ] final  -73.94 input  -60.11 | X-H torsion
[ 7974 7965 7964 7962 ] final -109.24 input  175.53 | X-H torsion
[ 8008 7997 7996 7995 ] final -179.43 input   59.86 | X-H torsion
[ 10167 10162 10161 10158 ] final -160.34 input  -65.29 | X-H torsion
[ 10718 10713 10712 10709 ] final   33.76 input   66.30 | X-H torsion
[ 10763 10752 10751 10750 ] final  -41.26 input  -60.55 | X-H torsion
[ 11005 11000 10999 10996 ] final  159.03 input  -57.11 | X-H torsion

> <Gold.Protein.ActiveResidues>
 VAL166  LYS551  ARG553  GLY616  TRP617  ASP618  TYR619  PRO620  LYS621  CYS622 
 ASP623  PHE694  ASN695  SER759  ASP760  ASP761  ALA762  ILE779  LEU786  VAL792 
 PHE793  MET794  SER795  GLU796  ALA797  LYS798  CYS799  TRP800  GLU811  SER814 

> <Gold.Protein.RotatedAtoms>
  150.7111  134.4942  159.5529 H   0  0  0  0  0  0  0  0  0  0  0  0  # atno 6907 bound_to 6896
  152.2553  134.8088  160.0448 H   0  0  0  0  0  0  0  0  0  0  0  0  # atno 6908 bound_to 6896
  151.8821  133.3462  159.3806 H   0  0  0  0  0  0  0  0  0  0  0  0  # atno 6909 bound_to 6896
  145.1829  140.8979  143.3469 H   0  0  0  0  0  0  0  0  0  0  0  0  # atno 7974 bound_to 7965
  156.0305  140.1281  157.0263 H   0  0  0  0  0  0  0  0  0  0  0  0  # atno 8008 bound_to 7997
  154.4348  140.1050  156.6162 H   0  0  0  0  0  0  0  0  0  0  0  0  # atno 8009 bound_to 7997
  155.5814  140.3468  155.4543 H   0  0  0  0  0  0  0  0  0  0  0  0  # atno 8010 bound_to 7997
  139.6547  144.0021  152.2185 H   0  0  0  0  0  0  0  0  0  0  0  0  # atno 10167 bound_to 10162
  157.3019  130.7355  149.6672 H   0  0  0  0  0  0  0  0  0  0  0  0  # atno 10718 bound_to 10713
  153.9596  135.6741  153.4745 H   0  0  0  0  0  0  0  0  0  0  0  0  # atno 10763 bound_to 10752
  153.0844  135.4906  154.8565 H   0  0  0  0  0  0  0  0  0  0  0  0  # atno 10764 bound_to 10752
  154.7280  135.3131  154.8899 H   0  0  0  0  0  0  0  0  0  0  0  0  # atno 10765 bound_to 10752
  140.1922  134.8399  157.2925 H   0  0  0  0  0  0  0  0  0  0  0  0  # atno 11005 bound_to 11000
  145.0118  139.3503  143.6116 LP  0  0  0  0  0  0  0  0  0  0  0  0  # atno 17320 bound_to 7965
  146.3450  139.9383  142.8744 LP  0  0  0  0  0  0  0  0  0  0  0  0  # atno 17321 bound_to 7965
  139.9744  144.6472  150.7959 LP  0  0  0  0  0  0  0  0  0  0  0  0  # atno 17342 bound_to 10162
  140.7553  143.3045  151.2998 LP  0  0  0  0  0  0  0  0  0  0  0  0  # atno 17343 bound_to 10162
  155.9672  130.4277  150.4756 LP  0  0  0  0  0  0  0  0  0  0  0  0  # atno 17370 bound_to 10713
  157.2739  131.0593  151.2242 LP  0  0  0  0  0  0  0  0  0  0  0  0  # atno 17371 bound_to 10713
  140.2147  134.4096  155.7595 LP  0  0  0  0  0  0  0  0  0  0  0  0  # atno 17394 bound_to 11000
  141.2226  133.7136  156.8394 LP  0  0  0  0  0  0  0  0  0  0  0  0  # atno 17395 bound_to 11000

$$$$
