AV-unprocessed.smi:3206|AV-procd|sdf|12257|dock7
  -GOLD-   2272018 93D 1   1.00000     0.00000
 Structure written by MMmdl.
 42 43  0  0  0  0  0  0  0  0  2 V2000
  152.7664  142.9772  162.5094 C   0  0  0  0  0  0  0  0  0  0  0  0
  152.8248  143.3230  161.0148 C   0  0  2  0  0  0  0  0  0  0  0  0
  151.8577  144.4685  160.6631 C   0  0  0  0  0  0  0  0  0  0  0  0
  151.9098  144.8140  159.1640 C   0  0  0  0  0  0  0  0  0  0  0  0
  151.6367  143.5906  158.2630 C   0  0  2  0  0  0  0  0  0  0  0  0
  150.1480  143.1646  158.2705 C   0  0  0  0  0  0  0  0  0  0  0  0
  149.7199  142.6587  156.9506 N   0  3  0  0  0  0  0  0  0  0  0  0
  150.7035  141.7716  156.2996 C   0  0  0  0  0  0  0  0  0  0  0  0
  150.5562  140.3233  156.7950 C   0  0  0  0  0  0  0  0  0  0  0  0
  151.2297  139.2999  155.9273 C   0  0  0  0  0  0  0  0  0  0  0  0
  150.9979  139.1258  154.6287 N   0  0  0  0  0  0  0  0  0  0  0  0
  151.8545  138.0987  154.3586 C   0  0  0  0  0  0  0  0  0  0  0  0
  152.5689  137.6557  155.3891 N   0  0  0  0  0  0  0  0  0  0  0  0
  152.1504  138.4478  156.4022 N   0  0  0  0  0  0  0  0  0  0  0  0
  152.7090  138.2733  157.7296 C   0  0  0  0  0  0  0  0  0  0  0  0
  152.5880  142.4347  158.6398 C   0  0  0  0  0  0  0  0  0  0  0  0
  152.5356  142.0899  160.1392 C   0  0  0  0  0  0  0  0  0  0  0  0
  151.7737  142.6306  162.7984 H   0  0  0  0  0  0  0  0  0  0  0  0
  153.0076  143.8456  163.1231 H   0  0  0  0  0  0  0  0  0  0  0  0
  153.4793  142.1907  162.7586 H   0  0  0  0  0  0  0  0  0  0  0  0
  153.8389  143.6604  160.7956 H   0  0  0  0  0  0  0  0  0  0  0  0
  150.8414  144.1929  160.9462 H   0  0  0  0  0  0  0  0  0  0  0  0
  152.1059  145.3555  161.2473 H   0  0  0  0  0  0  0  0  0  0  0  0
  151.2030  145.6137  158.9399 H   0  0  0  0  0  0  0  0  0  0  0  0
  152.8975  145.2139  158.9310 H   0  0  0  0  0  0  0  0  0  0  0  0
  151.8959  143.8886  157.2457 H   0  0  0  0  0  0  0  0  0  0  0  0
  149.9690  142.3858  159.0127 H   0  0  0  0  0  0  0  0  0  0  0  0
  149.5043  144.0014  158.5442 H   0  0  0  0  0  0  0  0  0  0  0  0
  148.8557  142.1492  157.0686 H   0  0  0  0  0  0  0  0  0  0  0  0
  150.5604  141.8148  155.2188 H   0  0  0  0  0  0  0  0  0  0  0  0
  151.7087  142.1399  156.5105 H   0  0  0  0  0  0  0  0  0  0  0  0
  150.9671  140.2392  157.8019 H   0  0  0  0  0  0  0  0  0  0  0  0
  149.4981  140.0677  156.8641 H   0  0  0  0  0  0  0  0  0  0  0  0
  151.9540  137.6654  153.3742 H   0  0  0  0  0  0  0  0  0  0  0  0
  152.2728  138.9826  158.4321 H   0  0  0  0  0  0  0  0  0  0  0  0
  153.7876  138.4302  157.6972 H   0  0  0  0  0  0  0  0  0  0  0  0
  152.5075  137.2614  158.0822 H   0  0  0  0  0  0  0  0  0  0  0  0
  152.3614  141.5495  158.0446 H   0  0  0  0  0  0  0  0  0  0  0  0
  153.6095  142.7158  158.3808 H   0  0  0  0  0  0  0  0  0  0  0  0
  153.2607  141.3041  160.3549 H   0  0  0  0  0  0  0  0  0  0  0  0
  151.5579  141.6790  160.3925 H   0  0  0  0  0  0  0  0  0  0  0  0
  149.5495  143.4493  156.3453 H   0  0  0  0  0  0  0  0  0  0  0  0
  1  2  1  0  0  0  0
  1 18  1  0  0  0  0
  1 19  1  0  0  0  0
  1 20  1  0  0  0  0
  2 17  1  0  0  0  0
  2  3  1  0  0  0  0
  2 21  1  0  0  0  0
  3  4  1  0  0  0  0
  3 22  1  0  0  0  0
  3 23  1  0  0  0  0
  4  5  1  0  0  0  0
  4 24  1  0  0  0  0
  4 25  1  0  0  0  0
  5  6  1  0  0  0  0
  5 16  1  0  0  0  0
  5 26  1  0  0  0  0
  6  7  1  0  0  0  0
  6 27  1  0  0  0  0
  6 28  1  0  0  0  0
  7  8  1  0  0  0  0
  7 29  1  0  0  0  0
  7 42  1  0  0  0  0
  8  9  1  0  0  0  0
  8 30  1  0  0  0  0
  8 31  1  0  0  0  0
  9 10  1  0  0  0  0
  9 32  1  0  0  0  0
  9 33  1  0  0  0  0
 10 14  1  0  0  0  0
 10 11  2  0  0  0  0
 11 12  1  0  0  0  0
 12 13  2  0  0  0  0
 12 34  1  0  0  0  0
 13 14  1  0  0  0  0
 14 15  1  0  0  0  0
 15 35  1  0  0  0  0
 15 36  1  0  0  0  0
 15 37  1  0  0  0  0
 16 17  1  0  0  0  0
 16 38  1  0  0  0  0
 16 39  1  0  0  0  0
 17 40  1  0  0  0  0
 17 41  1  0  0  0  0
M  CHG  1   7   1
M  END
> <s_m_source_file>
AV-unprocessed.smi

> <i_m_source_file_index>
3206

> <i_lp_mmshare_version>
43012

> <i_f3d_flags>
0

> <s_epik_input>
W0NIM11bQ0BASF0xW0NIMl1bQ0gyXVtDQEhdKFtDSDJdW0NIMl0xKVtDSDJdW05IXVtDSDJdW0NIMl1jMm5bY0hdbm4yW0NIM10=

> <s_epik_cmdline>
J2VwaWtfcHl0aG9uJywgJy1waCcsICc3LjAnLCAnLXRuJywgJzgnLCAnLW1hJywgJzIwMCcsICctbWV0YWxfYmluZGluZycsICctaW1hZScsICc8aW5maWxlLm1hZT4nLCAnLW9tYWUnLCAnPG91dGZpbGUubWFlPic=

> <r_lp_tautomer_probability>
1

> <r_epik_Ionization_Penalty>
0.00114491

> <r_epik_Ionization_Penalty_Charging>
0.00114083

> <r_epik_Ionization_Penalty_Neutral>
4.0852e-06

> <r_epik_State_Penalty>
-0

> <r_epik_Charging_Adjusted_Penalty>
0.00114083

> <i_epik_Tot_Q>
1

> <i_epik_Tot_abs_Q>
1

> <r_epik_Metal_State_Penalty>
-0

> <b_epik_Metal_Only>
0

> <s_lp_Force_Field>
OPLS_2005

> <r_lp_Energy>
20.2126

> <b_lp_Chiralities_Consistent>
1

> <s_lp_Variant>
AV-unprocessed.smi:3206-2

> <Gold.Version>
5.8.1

> <Gold.Id.Protein>
6NUR|6NUR_protein|mol2

> <Gold.PLP.Fitness>
52.6214

> <Gold.PLP.PLP>
-41.2102

> <Gold.PLP.part.hbond>
-3.0000

> <Gold.PLP.part.metal>
0.0000

> <Gold.PLP.part.buried>
-6.7010

> <Gold.PLP.part.nonpolar>
-32.7681

> <Gold.PLP.part.repulsive>
0.1797

> <Gold.PLP.ligand.clash>
0.0000

> <Gold.PLP.ligand.torsion>
0.7070

> <Gold.PLP.Chemscore.Hbond>
3.3346

> <Gold.PLP.Chemscore.CHOScore>
0.9336

> <Gold.PLP.Chemscore.Metal>
0.0000

> <Gold.Chemscore.Hbonds>
donor molecule, donor type, donor heavy atom, donor atom, acceptor molecule, acceptor atom, score
      L1  H     7    42       P1  8028  2.00
      P1  H  7989  7998       L1    11  0.67
      P1  H 10752 10765       L1    13  0.28
      L1  C    12    34       P1  7949  0.74

> <Gold.PLP.Chemscore.Internal.Correction>
0.0205

> <Gold.Rescore>
     Score         DG    S(hbond)    S(metal)    S(lipo)     H(rot)  DE(clash)    DE(int)     intcor
     19.65     -20.65       2.43        0.00     105.10       2.05       0.02       0.98       ----

> <Gold.Chemscore.Fitness>
19.6470

> <Gold.Chemscore.DG>
-20.6475

> <Gold.Chemscore.ZeroCoef>
-5.4800

> <Gold.Chemscore.Hbond>
2.4330

> <Gold.Chemscore.Metal>
0.0000

> <Gold.Chemscore.Lipo>
105.0963

> <Gold.Chemscore.Internal_Hbond>
0.0000

> <Gold.Chemscore.DEClash>
0.0215

> <Gold.Chemscore.DEInternal>
0.9790

> <Gold.Chemscore.Rot>
2.0528

> <Gold.Chemscore.Internal.Correction>
   9.000000E+99

> <Gold.Chemscore.Hbonds>
donor molecule, donor type, donor heavy atom, donor atom, acceptor molecule, acceptor atom, score
      L1  H     7    42       P1  8028  0.98
      P1  H  7989  7998       L1    11  0.34
      P1  H 10752 10765       L1    13  0.05

> <Gold.Chemscore.Hbond.Weighted>
-8.1263

> <Gold.Chemscore.Metal.Weighted>
-0.0000

> <Gold.Chemscore.Lipo.Weighted>
-12.2963

> <Gold.Chemscore.Internal_Hbond.Weighted>
0.0000

> <Gold.Chemscore.DEClash.Weighted>
0.0215

> <Gold.Chemscore.DEInternal.Weighted>
0.9790

> <Gold.Chemscore.Rot.Weighted>
5.2551

> <Gold.Chemscore.Internal.Correction.Weighted>
   9.000000E+99

> <Gold.Protein.RotatedTorsions>
[ 6907 6896 6895 6894 ] final    0.46 input  -60.11 | X-H torsion
[ 7974 7965 7964 7962 ] final  131.92 input  175.53 | X-H torsion
[ 8008 7997 7996 7995 ] final  -15.13 input   59.86 | X-H torsion
[ 10167 10162 10161 10158 ] final  115.48 input  -65.29 | X-H torsion
[ 10718 10713 10712 10709 ] final -176.52 input   66.30 | X-H torsion
[ 10763 10752 10751 10750 ] final -178.77 input  -60.55 | X-H torsion
[ 11005 11000 10999 10996 ] final   79.84 input  -57.11 | X-H torsion

> <Gold.Protein.ActiveResidues>
 VAL166  LYS551  ARG553  GLY616  TRP617  ASP618  TYR619  PRO620  LYS621  CYS622 
 ASP623  PHE694  ASN695  SER759  ASP760  ASP761  ALA762  ILE779  LEU786  VAL792 
 PHE793  MET794  SER795  GLU796  ALA797  LYS798  CYS799  TRP800  GLU811  SER814 

> <Gold.Protein.RotatedAtoms>
  151.5767  135.1060  160.0007 H   0  0  0  0  0  0  0  0  0  0  0  0  # atno 6907 bound_to 6896
  152.4374  133.7381  159.6636 H   0  0  0  0  0  0  0  0  0  0  0  0  # atno 6908 bound_to 6896
  150.8274  133.8079  159.3136 H   0  0  0  0  0  0  0  0  0  0  0  0  # atno 6909 bound_to 6896
  145.0023  139.4300  143.5286 H   0  0  0  0  0  0  0  0  0  0  0  0  # atno 7974 bound_to 7965
  154.5155  140.2204  155.9074 H   0  0  0  0  0  0  0  0  0  0  0  0  # atno 8008 bound_to 7997
  156.1602  140.3143  155.8760 H   0  0  0  0  0  0  0  0  0  0  0  0  # atno 8009 bound_to 7997
  155.3766  140.0470  157.3035 H   0  0  0  0  0  0  0  0  0  0  0  0  # atno 8010 bound_to 7997
  139.6314  144.7115  151.2424 H   0  0  0  0  0  0  0  0  0  0  0  0  # atno 10167 bound_to 10162
  156.8159  130.9602  151.3114 H   0  0  0  0  0  0  0  0  0  0  0  0  # atno 10718 bound_to 10713
  154.5435  135.2808  155.1074 H   0  0  0  0  0  0  0  0  0  0  0  0  # atno 10763 bound_to 10752
  154.2547  135.6333  153.5257 H   0  0  0  0  0  0  0  0  0  0  0  0  # atno 10764 bound_to 10752
  152.9985  135.5591  154.5981 H   0  0  0  0  0  0  0  0  0  0  0  0  # atno 10765 bound_to 10752
  139.9157  134.7874  156.1830 H   0  0  0  0  0  0  0  0  0  0  0  0  # atno 11005 bound_to 11000
  146.3454  139.9418  142.8740 LP  0  0  0  0  0  0  0  0  0  0  0  0  # atno 17320 bound_to 7965
  145.2136  140.9906  143.4086 LP  0  0  0  0  0  0  0  0  0  0  0  0  # atno 17321 bound_to 7965
  140.7441  143.6473  150.8280 LP  0  0  0  0  0  0  0  0  0  0  0  0  # atno 17342 bound_to 10162
  140.0099  143.5654  152.2843 LP  0  0  0  0  0  0  0  0  0  0  0  0  # atno 17343 bound_to 10162
  157.6482  130.8862  149.9580 LP  0  0  0  0  0  0  0  0  0  0  0  0  # atno 17370 bound_to 10713
  156.1017  130.3655  150.0206 LP  0  0  0  0  0  0  0  0  0  0  0  0  # atno 17371 bound_to 10713
  141.0630  133.6832  156.1990 LP  0  0  0  0  0  0  0  0  0  0  0  0  # atno 17394 bound_to 11000
  140.6630  134.4948  157.5584 LP  0  0  0  0  0  0  0  0  0  0  0  0  # atno 17395 bound_to 11000

$$$$
