#       Name:                AV-unprocessed.smi:3308
#       Creating user name   scv26
#       Creation time:       Fri Mar 27 19:04:40 2020


#       File generated by GOLD software.
#

@<TRIPOS>MOLECULE
AV-unprocessed.smi:3308
    44    45     1
SMALL
NO_CHARGES


@<TRIPOS>ATOM
      1 ****        -2.1928  -0.9214   1.4243 C.3            1 S1                 0.0000
      2 ****        -1.8881  -0.5987  -0.0518 C.3            1 S1                 0.0000
      3 ****        -0.4361  -0.3843  -0.2583 N.4            1 S1                 1.0000
      4 ****         0.1090   0.8811   0.2799 C.3            1 S1                 0.0000
      5 ****         1.6030   1.0490  -0.0311 C.2            1 S1                 0.0000
      6 ****         2.2130   0.1433  -0.6015 O.2            1 S1                 0.0000
      7 ****         2.2054   2.1979   0.3393 N.am           1 S1                 0.0000
      8 ****         3.6191   2.4827   0.1004 C.3            1 S1                 0.0000
      9 ****         3.8055   3.9634   0.4321 C.3            1 S1                 0.0000
     10 ****         2.6899   4.2667   1.4227 C.3            1 S1                 0.0000
     11 ****         1.5584   3.3216   1.0167 C.3            1 S1                 0.0000
     12 ****        -2.4319  -1.6908  -1.0104 C.3            1 S1                 0.0000
     13 ****        -2.2529  -1.3323  -2.4979 C.3            1 S1                 0.0000
     14 ****        -1.9202  -3.0246  -0.7087 N.pl3          1 S1                 0.0000
     15 ****        -2.5843  -4.0741  -0.1061 C.2            1 S1                 0.0000
     16 ****        -1.7073  -5.1165  -0.0145 C.2            1 S1                 0.0000
     17 ****        -0.5123  -4.6046  -0.5915 C.2            1 S1                 0.0000
     18 ****        -0.6407  -3.3530  -1.0006 N.2            1 S1                 0.0000
     19 ****        -3.2517  -1.1408   1.5640 H              1 S1                 0.0000
     20 ****        -1.9535  -0.0838   2.0791 H              1 S1                 0.0000
     21 ****        -1.6268  -1.7857   1.7734 H              1 S1                 0.0000
     22 ****        -2.3980   0.3319  -0.3054 H              1 S1                 0.0000
     23 ****         0.0697  -1.1619   0.1425 H              1 S1                 0.0000
     24 ****        -0.4443   1.7179  -0.1483 H              1 S1                 0.0000
     25 ****        -0.0267   0.9083   1.3608 H              1 S1                 0.0000
     26 ****         4.2230   1.8627   0.7646 H              1 S1                 0.0000
     27 ****         3.9155   2.2669  -0.9274 H              1 S1                 0.0000
     28 ****         4.7963   4.1865   0.8291 H              1 S1                 0.0000
     29 ****         3.6653   4.5607  -0.4699 H              1 S1                 0.0000
     30 ****         3.0243   4.0238   2.4323 H              1 S1                 0.0000
     31 ****         2.3896   5.3150   1.4138 H              1 S1                 0.0000
     32 ****         0.8815   3.8171   0.3191 H              1 S1                 0.0000
     33 ****         0.9825   3.0082   1.8883 H              1 S1                 0.0000
     34 ****        -3.5094  -1.7389  -0.8447 H              1 S1                 0.0000
     35 ****        -2.7200  -0.3744  -2.7281 H              1 S1                 0.0000
     36 ****        -2.7169  -2.0838  -3.1376 H              1 S1                 0.0000
     37 ****        -1.2021  -1.2638  -2.7803 H              1 S1                 0.0000
     38 ****        -3.6154  -3.9935   0.2054 H              1 S1                 0.0000
     39 ****        -1.8912  -6.0961   0.4016 H              1 S1                 0.0000
     40 ****         0.4383  -5.1006  -0.7218 H              1 S1                 0.0000
     41 ****        -0.2650  -0.3827  -1.2539 H              1 S1                 0.0000
     42 ****         1.7349  -0.6962  -0.8596 LP             1 S1                 0.0000
     43 ****         3.1862   0.2477  -0.8064 LP             1 S1                 0.0000
     44 ****         0.0544  -2.7769  -1.4306 LP             1 S1                 0.0000
@<TRIPOS>BOND
    1    1    2 1     
    2    1   19 1     
    3    1   20 1     
    4    1   21 1     
    5    2    3 1     
    6    2   12 1     
    7    2   22 1     
    8    3    4 1     
    9    3   23 1     
   10    3   41 1     
   11    4    5 1     
   12    4   24 1     
   13    4   25 1     
   14    5    6 2     
   15    5    7 am    
   16    7   11 1     
   17    7    8 1     
   18    8    9 1     
   19    8   26 1     
   20    8   27 1     
   21    9   10 1     
   22    9   28 1     
   23    9   29 1     
   24   10   11 1     
   25   10   30 1     
   26   10   31 1     
   27   11   32 1     
   28   11   33 1     
   29   12   13 1     
   30   12   14 1     
   31   12   34 1     
   32   13   35 1     
   33   13   36 1     
   34   13   37 1     
   35   14   18 1     
   36   14   15 1     
   37   15   16 2     
   38   15   38 1     
   39   16   17 1     
   40   16   39 1     
   41   17   18 2     
   42   17   40 1     
   43    6   42 1     
   44    6   43 1     
   45   18   44 1     
@<TRIPOS>SUBSTRUCTURE
      1 S1             1
@<TRIPOS>SET
LONE_PAIRS      STATIC     ATOMS    <user>   **** ""
3 42 43 44
DONOR_HYDROGENS      STATIC     ATOMS    <user>   **** ""
2 23 41
ATOM$BLUE        STATIC     ATOMS    COLORGROUP SYSTEM
3 42 43 44
ATOM$RED        STATIC     ATOMS    COLORGROUP SYSTEM
2 23 41
