#       Name:                AV-unprocessed.smi:287
#       Creating user name   scv26
#       Creation time:       Thu Mar 26 22:00:07 2020


#       File generated by GOLD software.
#

@<TRIPOS>MOLECULE
AV-unprocessed.smi:287
    70    73     1
SMALL
NO_CHARGES


@<TRIPOS>ATOM
      1 ****         0.0088   4.7149  -4.1350 C.3            1 S1                 0.0000
      2 ****        -0.4702   4.5837  -2.7300 C.2            1 S1                 0.0000
      3 ****        -1.3326   3.7335  -2.1015 C.2            1 S1                 0.0000
      4 ****        -1.3841   4.1165  -0.7281 C.2            1 S1                 0.0000
      5 ****        -2.2132   3.4402   0.3560 C.3            1 S1                 0.0000
      6 ****        -3.7016   3.4374  -0.0354 C.3            1 S1                 0.0000
      7 ****        -2.1638   4.1232   1.5938 O.3            1 S1                 0.0000
      8 ****        -1.7358   1.9975   0.6350 C.3            1 S1                 0.0000
      9 ****        -0.2848   1.8841   0.7082 N.pl3          1 S1                 0.0000
     10 ****         0.3170   0.6811   0.8150 C.ar           1 S1                 0.0000
     11 ****         1.6693   0.7053   0.7679 N.ar           1 S1                 0.0000
     12 ****         2.3623  -0.4312   0.8570 C.ar           1 S1                 0.0000
     13 ****         1.9043  -1.6748   0.9971 N.ar           1 S1                 0.0000
     14 ****         0.5411  -1.7187   1.0499 C.ar           1 S1                 0.0000
     15 ****        -0.3226  -0.5860   0.9660 C.ar           1 S1                 0.0000
     16 ****        -1.6429  -1.0087   1.0536 N.2            1 S1                 0.0000
     17 ****        -1.5604  -2.3043   1.1704 C.2            1 S1                 0.0000
     18 ****        -0.2855  -2.8233   1.1906 N.pl3          1 S1                 0.0000
     19 ****         0.0619  -4.2859   1.2807 C.3            1 S1                 0.0000
     20 ****         0.2711  -4.7675  -0.0080 O.3            1 S1                 0.0000
     21 ****         1.6570  -4.7257  -0.3160 C.3            1 S1                 0.0000
     22 ****         1.9698  -5.7266  -1.4386 C.3            1 S1                 0.0000
     23 ****         1.6623  -5.1589  -2.6942 O.3            1 S1                 0.0000
     24 ****         2.3168  -5.0857   1.0247 C.3            1 S1                 0.0000
     25 ****         3.5689  -4.4415   1.1457 O.3            1 S1                 0.0000
     26 ****         1.3377  -4.5793   2.0895 C.3            1 S1                 0.0000
     27 ****         1.1091  -5.5861   3.0552 O.3            1 S1                 0.0000
     28 ****        -0.5257   5.1858  -0.6302 C.2            1 S1                 0.0000
     29 ****        -0.0830   6.0631   0.4942 C.3            1 S1                 0.0000
     30 ****         0.0292   5.4770  -1.8397 O.3            1 S1                 0.0000
     31 ****        -0.8335  -4.7379   1.7099 H              1 S1                 0.0000
     32 ****         1.9306  -3.7159  -0.6219 H              1 S1                 0.0000
     33 ****         2.4486  -6.1667   1.1001 H              1 S1                 0.0000
     34 ****         1.6811  -3.6858   2.6098 H              1 S1                 0.0000
     35 ****        -0.3358   3.8785  -4.7436 H              1 S1                 0.0000
     36 ****         1.0982   4.7331  -4.1724 H              1 S1                 0.0000
     37 ****        -0.3620   5.6360  -4.5849 H              1 S1                 0.0000
     38 ****        -1.8675   2.9230  -2.5742 H              1 S1                 0.0000
     39 ****        -3.8701   2.8854  -0.9608 H              1 S1                 0.0000
     40 ****        -4.0741   4.4516  -0.1864 H              1 S1                 0.0000
     41 ****        -4.3167   2.9713   0.7355 H              1 S1                 0.0000
     42 ****        -2.6983   3.6542   2.2160 H              1 S1                 0.0000
     43 ****        -2.1965   1.6051   1.5427 H              1 S1                 0.0000
     44 ****        -2.0633   1.3620  -0.1891 H              1 S1                 0.0000
     45 ****         0.2255   2.7491   0.6027 H              1 S1                 0.0000
     46 ****         3.4364  -0.3312   0.8084 H              1 S1                 0.0000
     47 ****        -2.4412  -2.9256   1.2436 H              1 S1                 0.0000
     48 ****         3.0337  -5.9652  -1.4406 H              1 S1                 0.0000
     49 ****         1.4271  -6.6623  -1.3005 H              1 S1                 0.0000
     50 ****         1.8811  -5.7831  -3.3690 H              1 S1                 0.0000
     51 ****         3.9197  -4.6280   2.0031 H              1 S1                 0.0000
     52 ****         0.7981  -6.3610   2.6125 H              1 S1                 0.0000
     53 ****        -0.9268   6.6138   0.9099 H              1 S1                 0.0000
     54 ****         0.6597   6.7889   0.1614 H              1 S1                 0.0000
     55 ****         0.3631   5.4705   1.2931 H              1 S1                 0.0000
     56 ****        -2.5147   5.0528   1.4806 LP             1 S1                 0.0000
     57 ****        -1.2195   4.1610   1.9210 LP             1 S1                 0.0000
     58 ****         2.1498   1.5764   0.6662 LP             1 S1                 0.0000
     59 ****         2.4913  -2.4822   1.0567 LP             1 S1                 0.0000
     60 ****        -2.4695  -0.4463   1.0320 LP             1 S1                 0.0000
     61 ****        -0.2315  -4.2003  -0.6604 LP             1 S1                 0.0000
     62 ****        -0.0541  -5.7113  -0.0669 LP             1 S1                 0.0000
     63 ****         2.1935  -4.3217  -2.8246 LP             1 S1                 0.0000
     64 ****         0.6865  -4.9445  -2.7371 LP             1 S1                 0.0000
     65 ****         3.4526  -3.4543   1.0361 LP             1 S1                 0.0000
     66 ****         4.1937  -4.7835   0.4438 LP             1 S1                 0.0000
     67 ****         0.4224  -5.2741   3.7118 LP             1 S1                 0.0000
     68 ****         1.9613  -5.7916   3.5365 LP             1 S1                 0.0000
     69 ****        -0.2134   6.4076  -2.1139 LP             1 S1                 0.0000
     70 ****         1.0245   5.3930  -1.7902 LP             1 S1                 0.0000
@<TRIPOS>BOND
    1    1    2 1     
    2    1   35 1     
    3    1   36 1     
    4    1   37 1     
    5    2   30 1     
    6    2    3 2     
    7    3    4 1     
    8    3   38 1     
    9    4    5 1     
   10    4   28 2     
   11    5    6 1     
   12    5    7 1     
   13    5    8 1     
   14    6   39 1     
   15    6   40 1     
   16    6   41 1     
   17    7   42 1     
   18    8    9 1     
   19    8   43 1     
   20    8   44 1     
   21    9   10 1     
   22    9   45 1     
   23   10   15 ar    
   24   10   11 ar    
   25   11   12 ar    
   26   12   13 ar    
   27   12   46 1     
   28   13   14 ar    
   29   14   18 1     
   30   14   15 ar    
   31   15   16 1     
   32   16   17 2     
   33   17   18 1     
   34   17   47 1     
   35   18   19 1     
   36   19   31 1     
   37   19   26 1     
   38   19   20 1     
   39   20   21 1     
   40   21   32 1     
   41   21   22 1     
   42   21   24 1     
   43   22   23 1     
   44   22   48 1     
   45   22   49 1     
   46   23   50 1     
   47   24   33 1     
   48   24   25 1     
   49   24   26 1     
   50   25   51 1     
   51   26   34 1     
   52   26   27 1     
   53   27   52 1     
   54   28   29 1     
   55   28   30 1     
   56   29   53 1     
   57   29   54 1     
   58   29   55 1     
   59    7   56 1     
   60    7   57 1     
   61   11   58 1     
   62   13   59 1     
   63   16   60 1     
   64   20   61 1     
   65   20   62 1     
   66   23   63 1     
   67   23   64 1     
   68   25   65 1     
   69   25   66 1     
   70   27   67 1     
   71   27   68 1     
   72   30   69 1     
   73   30   70 1     
@<TRIPOS>SUBSTRUCTURE
      1 S1             1
@<TRIPOS>SET
LONE_PAIRS      STATIC     ATOMS    <user>   **** ""
15 56 57 58 59 60 61 62 63 64 65 66 67 68 69 70
DONOR_HYDROGENS      STATIC     ATOMS    <user>   **** ""
5 42 45 50 51 52
ATOM$BLUE        STATIC     ATOMS    COLORGROUP SYSTEM
15 56 57 58 59 60 61 62 63 64 65 66 67 68 69 70
ATOM$RED        STATIC     ATOMS    COLORGROUP SYSTEM
5 42 45 50 51 52
