#       Name:                AV-unprocessed.smi:283
#       Creating user name   scv26
#       Creation time:       Thu Mar 26 21:49:20 2020


#       File generated by GOLD software.
#

@<TRIPOS>MOLECULE
AV-unprocessed.smi:283
    59    62     1
SMALL
NO_CHARGES


@<TRIPOS>ATOM
      1 ****        -3.6293   1.7474   1.4364 C.3            1 S1                 0.0000
      2 ****        -3.6162   0.8705   0.1689 C.3            1 S1                 0.0000
      3 ****        -2.5264  -0.1034   0.1842 N.pl3          1 S1                 0.0000
      4 ****        -1.2371   0.2694   0.0272 C.ar           1 S1                 0.0000
      5 ****        -0.9081   1.5260  -0.3705 N.ar           1 S1                 0.0000
      6 ****         0.3757   1.8642  -0.5188 C.ar           1 S1                 0.0000
      7 ****         1.4632   1.1145  -0.3277 N.ar           1 S1                 0.0000
      8 ****         1.1400  -0.1513   0.0662 C.ar           1 S1                 0.0000
      9 ****        -0.1797  -0.6467   0.2620 C.ar           1 S1                 0.0000
     10 ****        -0.1303  -1.9760   0.6582 N.2            1 S1                 0.0000
     11 ****         1.1465  -2.2466   0.6930 C.2            1 S1                 0.0000
     12 ****         1.9841  -1.2049   0.3595 N.pl3          1 S1                 0.0000
     13 ****         3.4799  -1.2321   0.3095 C.3            1 S1                 0.0000
     14 ****         3.8811  -0.8110  -0.9630 O.3            1 S1                 0.0000
     15 ****         4.7115   0.3397  -0.8484 C.3            1 S1                 0.0000
     16 ****         5.6415   0.5415  -2.0635 C.3            1 S1                 0.0000
     17 ****         6.6652  -0.4267  -2.1608 O.3            1 S1                 0.0000
     18 ****         5.2846   0.3017   0.5752 C.3            1 S1                 0.0000
     19 ****         6.4279  -0.5325   0.6668 O.3            1 S1                 0.0000
     20 ****         4.0977  -0.2737   1.3446 C.3            1 S1                 0.0000
     21 ****         4.5093  -0.9178   2.5354 O.3            1 S1                 0.0000
     22 ****        -4.9811   0.2261  -0.0694 C.ar           1 S1                 0.0000
     23 ****        -5.7773   0.7301  -1.1225 C.ar           1 S1                 0.0000
     24 ****        -7.0432   0.1799  -1.3975 C.ar           1 S1                 0.0000
     25 ****        -7.5314  -0.8821  -0.6165 C.ar           1 S1                 0.0000
     26 ****        -6.7523  -1.3896   0.4390 C.ar           1 S1                 0.0000
     27 ****        -5.4825  -0.8452   0.7197 C.ar           1 S1                 0.0000
     28 ****        -4.5901  -1.5207   2.0393 Cl             1 S1                 0.0000
     29 ****         3.7596  -2.2766   0.4549 H              1 S1                 0.0000
     30 ****         4.0281   1.1882  -0.8712 H              1 S1                 0.0000
     31 ****         5.5549   1.2973   0.9286 H              1 S1                 0.0000
     32 ****         3.3915   0.5228   1.5814 H              1 S1                 0.0000
     33 ****        -4.4193   2.4967   1.3803 H              1 S1                 0.0000
     34 ****        -2.6887   2.2816   1.5682 H              1 S1                 0.0000
     35 ****        -3.7971   1.1593   2.3380 H              1 S1                 0.0000
     36 ****        -3.4393   1.5308  -0.6810 H              1 S1                 0.0000
     37 ****        -2.7899  -1.0401   0.4553 H              1 S1                 0.0000
     38 ****         0.5577   2.8803  -0.8359 H              1 S1                 0.0000
     39 ****         1.5158  -3.2238   0.9688 H              1 S1                 0.0000
     40 ****         5.0577   0.5284  -2.9843 H              1 S1                 0.0000
     41 ****         6.1127   1.5229  -2.0034 H              1 S1                 0.0000
     42 ****         7.1693  -0.2534  -2.9412 H              1 S1                 0.0000
     43 ****         7.0598  -0.2446   0.0249 H              1 S1                 0.0000
     44 ****         5.1951  -1.5308   2.3170 H              1 S1                 0.0000
     45 ****        -5.4173   1.5461  -1.7321 H              1 S1                 0.0000
     46 ****        -7.6388   0.5731  -2.2083 H              1 S1                 0.0000
     47 ****        -8.5022  -1.3067  -0.8255 H              1 S1                 0.0000
     48 ****        -7.1331  -2.2034   1.0386 H              1 S1                 0.0000
     49 ****        -1.6265   2.1975  -0.5521 LP             1 S1                 0.0000
     50 ****         2.3997   1.4404  -0.4572 LP             1 S1                 0.0000
     51 ****        -0.8951  -2.5851   0.8682 LP             1 S1                 0.0000
     52 ****         3.0738  -0.5853  -1.5082 LP             1 S1                 0.0000
     53 ****         4.3910  -1.5455  -1.4107 LP             1 S1                 0.0000
     54 ****         6.2615  -1.3399  -2.2160 LP             1 S1                 0.0000
     55 ****         7.2581  -0.3724  -1.3574 LP             1 S1                 0.0000
     56 ****         6.1693  -1.4811   0.4843 LP             1 S1                 0.0000
     57 ****         6.8226  -0.4650   1.5831 LP             1 S1                 0.0000
     58 ****         3.7362  -1.4050   2.9415 LP             1 S1                 0.0000
     59 ****         4.8547  -0.2404   3.1849 LP             1 S1                 0.0000
@<TRIPOS>BOND
    1    1    2 1     
    2    1   33 1     
    3    1   34 1     
    4    1   35 1     
    5    2    3 1     
    6    2   22 1     
    7    2   36 1     
    8    3    4 1     
    9    3   37 1     
   10    4    9 ar    
   11    4    5 ar    
   12    5    6 ar    
   13    6    7 ar    
   14    6   38 1     
   15    7    8 ar    
   16    8   12 1     
   17    8    9 ar    
   18    9   10 1     
   19   10   11 2     
   20   11   12 1     
   21   11   39 1     
   22   12   13 1     
   23   13   29 1     
   24   13   20 1     
   25   13   14 1     
   26   14   15 1     
   27   15   30 1     
   28   15   16 1     
   29   15   18 1     
   30   16   17 1     
   31   16   40 1     
   32   16   41 1     
   33   17   42 1     
   34   18   31 1     
   35   18   19 1     
   36   18   20 1     
   37   19   43 1     
   38   20   32 1     
   39   20   21 1     
   40   21   44 1     
   41   22   27 ar    
   42   22   23 ar    
   43   23   24 ar    
   44   23   45 1     
   45   24   25 ar    
   46   24   46 1     
   47   25   26 ar    
   48   25   47 1     
   49   26   27 ar    
   50   26   48 1     
   51   27   28 1     
   52    5   49 1     
   53    7   50 1     
   54   10   51 1     
   55   14   52 1     
   56   14   53 1     
   57   17   54 1     
   58   17   55 1     
   59   19   56 1     
   60   19   57 1     
   61   21   58 1     
   62   21   59 1     
@<TRIPOS>SUBSTRUCTURE
      1 S1             1
@<TRIPOS>SET
LONE_PAIRS      STATIC     ATOMS    <user>   **** ""
11 49 50 51 52 53 54 55 56 57 58 59
DONOR_HYDROGENS      STATIC     ATOMS    <user>   **** ""
4 37 42 43 44
ATOM$BLUE        STATIC     ATOMS    COLORGROUP SYSTEM
11 49 50 51 52 53 54 55 56 57 58 59
ATOM$RED        STATIC     ATOMS    COLORGROUP SYSTEM
4 37 42 43 44
