AV-unprocessed.smi:2042|AV-procd|sdf|8295|dock3
  -GOLD-   2272010563D 1   1.00000     0.00000
 Structure written by MMmdl.
 30 31  0  0  0  0  0  0  0  0  1 V2000
  147.0704  133.1847  153.6679 O   0  0  0  0  0  0  0  0  0  0  0  0
  147.7011  132.4362  152.9253 C   0  0  0  0  0  0  0  0  0  0  0  0
  147.2304  131.9207  151.7724 N   0  0  0  0  0  0  0  0  0  0  0  0
  145.9803  132.1490  151.1354 C   0  0  0  0  0  0  0  0  0  0  0  0
  144.8340  132.6726  151.7816 C   0  0  0  0  0  0  0  0  0  0  0  0
  143.6599  132.8701  151.0293 C   0  0  0  0  0  0  0  0  0  0  0  0
  143.6750  132.5437  149.6596 C   0  0  0  0  0  0  0  0  0  0  0  0
  144.7629  132.0550  149.0281 N   0  0  0  0  0  0  0  0  0  0  0  0
  145.8850  131.8693  149.7556 C   0  0  0  0  0  0  0  0  0  0  0  0
  148.9467  132.0375  153.2403 N   0  0  0  0  0  0  0  0  0  0  0  0
  149.7497  132.4024  154.4085 C   0  0  1  0  0  0  0  0  0  0  0  0
  149.8012  133.9315  154.5857 C   0  0  0  0  0  0  0  0  0  0  0  0
  150.3334  134.2467  155.9892 C   0  0  0  0  0  0  0  0  0  0  0  0
  149.7897  132.8628  157.0614 S   0  0  0  0  0  0  0  0  0  0  0  0
  150.9737  132.2416  157.6742 O   0  0  0  0  0  0  0  0  0  0  0  0
  148.6490  133.2937  157.8838 O   0  0  0  0  0  0  0  0  0  0  0  0
  149.1787  131.7980  155.7016 C   0  0  0  0  0  0  0  0  0  0  0  0
  147.8309  131.2517  151.3130 H   0  0  0  0  0  0  0  0  0  0  0  0
  144.8314  132.9393  152.8267 H   0  0  0  0  0  0  0  0  0  0  0  0
  142.7687  133.2678  151.4918 H   0  0  0  0  0  0  0  0  0  0  0  0
  142.7916  132.6844  149.0544 H   0  0  0  0  0  0  0  0  0  0  0  0
  146.7366  131.4808  149.2160 H   0  0  0  0  0  0  0  0  0  0  0  0
  149.3774  131.3824  152.6036 H   0  0  0  0  0  0  0  0  0  0  0  0
  150.7776  132.0575  154.2812 H   0  0  0  0  0  0  0  0  0  0  0  0
  150.4048  134.4094  153.8134 H   0  0  0  0  0  0  0  0  0  0  0  0
  148.7926  134.3382  154.4971 H   0  0  0  0  0  0  0  0  0  0  0  0
  151.4235  134.2661  155.9936 H   0  0  0  0  0  0  0  0  0  0  0  0
  149.9666  135.1956  156.3807 H   0  0  0  0  0  0  0  0  0  0  0  0
  148.0888  131.8419  155.7105 H   0  0  0  0  0  0  0  0  0  0  0  0
  149.4864  130.7655  155.8674 H   0  0  0  0  0  0  0  0  0  0  0  0
  1  2  2  0  0  0  0
  2  3  1  0  0  0  0
  2 10  1  0  0  0  0
  3  4  1  0  0  0  0
  3 18  1  0  0  0  0
  4  9  1  0  0  0  0
  4  5  2  0  0  0  0
  5  6  1  0  0  0  0
  5 19  1  0  0  0  0
  6  7  2  0  0  0  0
  6 20  1  0  0  0  0
  7  8  1  0  0  0  0
  7 21  1  0  0  0  0
  8  9  2  0  0  0  0
  9 22  1  0  0  0  0
 10 11  1  0  0  0  0
 10 23  1  0  0  0  0
 11 17  1  0  0  0  0
 11 12  1  0  0  0  0
 11 24  1  0  0  0  0
 12 13  1  0  0  0  0
 12 25  1  0  0  0  0
 12 26  1  0  0  0  0
 13 14  1  0  0  0  0
 13 27  1  0  0  0  0
 13 28  1  0  0  0  0
 14 15  2  0  0  0  0
 14 16  2  0  0  0  0
 14 17  1  0  0  0  0
 17 29  1  0  0  0  0
 17 30  1  0  0  0  0
M  END
> <s_m_source_file>
AV-unprocessed.smi

> <i_m_source_file_index>
2042

> <i_lp_mmshare_version>
43012

> <i_f3d_flags>
0

> <s_epik_input>
Tz1TMSg9TylbQ0gyXVtDSDJdW0NASF0oW0NIMl0xKVtOSF1DKD1PKVtOSF1jMltjSF1bY0hdW2NIXW5bY0hdMg==

> <s_epik_cmdline>
J2VwaWtfcHl0aG9uJywgJy1waCcsICc3LjAnLCAnLXRuJywgJzgnLCAnLW1hJywgJzIwMCcsICctbWV0YWxfYmluZGluZycsICctaW1hZScsICc8aW5maWxlLm1hZT4nLCAnLW9tYWUnLCAnPG91dGZpbGUubWFlPic=

> <r_epik_Ionization_Penalty>
0.00421056

> <r_epik_Ionization_Penalty_Charging>
0

> <r_epik_Ionization_Penalty_Neutral>
0.00421056

> <r_epik_State_Penalty>
0.00300625

> <r_epik_Charging_Adjusted_Penalty>
0.00300625

> <i_epik_Tot_Q>
0

> <i_epik_Tot_abs_Q>
0

> <r_epik_Metal_State_Penalty>
-0

> <b_epik_Metal_Only>
0

> <s_lp_Force_Field>
OPLS_2005

> <r_lp_Energy>
18.6302

> <b_lp_Chiralities_Consistent>
1

> <s_lp_Variant>
AV-unprocessed.smi:2042-2

> <Gold.Version>
5.8.1

> <Gold.Id.Protein>
6NUR|6NUR_protein|mol2

> <Gold.PLP.Fitness>
41.7237

> <Gold.PLP.PLP>
-30.4002

> <Gold.PLP.part.hbond>
-3.2112

> <Gold.PLP.part.metal>
0.0000

> <Gold.PLP.part.buried>
-4.5980

> <Gold.PLP.part.nonpolar>
-23.4576

> <Gold.PLP.part.repulsive>
0.3034

> <Gold.PLP.ligand.clash>
0.0000

> <Gold.PLP.ligand.torsion>
0.1629

> <Gold.PLP.Chemscore.Hbond>
2.1030

> <Gold.PLP.Chemscore.CHOScore>
1.7800

> <Gold.PLP.Chemscore.Metal>
0.0000

> <Gold.Chemscore.Hbonds>
donor molecule, donor type, donor heavy atom, donor atom, acceptor molecule, acceptor atom, score
      L1  H     3    18       P1 10747  1.00
      L1  H    10    23       P1 10747  0.07
      P1  H  6896  6908       L1    15  1.00
      L1  C     7    21       P1 10186  0.89
      L1  C     9    22       P1 10747  0.92

> <Gold.PLP.Chemscore.Internal.Correction>
0.0005

> <Gold.Rescore>
     Score         DG    S(hbond)    S(metal)    S(lipo)     H(rot)  DE(clash)    DE(int)     intcor
     16.03     -17.26       1.93        0.00      67.47       1.00       0.00       1.23       ----

> <Gold.Chemscore.Fitness>
16.0320

> <Gold.Chemscore.DG>
-17.2581

> <Gold.Chemscore.ZeroCoef>
-5.4800

> <Gold.Chemscore.Hbond>
1.9295

> <Gold.Chemscore.Metal>
0.0000

> <Gold.Chemscore.Lipo>
67.4672

> <Gold.Chemscore.Internal_Hbond>
0.0000

> <Gold.Chemscore.DEClash>
0.0000

> <Gold.Chemscore.DEInternal>
1.2261

> <Gold.Chemscore.Rot>
1.0000

> <Gold.Chemscore.Internal.Correction>
   9.000000E+99

> <Gold.Chemscore.Hbonds>
donor molecule, donor type, donor heavy atom, donor atom, acceptor molecule, acceptor atom, score
      L1  H     3    18       P1 10747  0.95
      L1  H    10    23       P1 10747  0.02
      P1  H  6896  6908       L1    15  0.74

> <Gold.Chemscore.Hbond.Weighted>
-6.4445

> <Gold.Chemscore.Metal.Weighted>
-0.0000

> <Gold.Chemscore.Lipo.Weighted>
-7.8937

> <Gold.Chemscore.Internal_Hbond.Weighted>
0.0000

> <Gold.Chemscore.DEClash.Weighted>
0.0000

> <Gold.Chemscore.DEInternal.Weighted>
1.2261

> <Gold.Chemscore.Rot.Weighted>
2.5600

> <Gold.Chemscore.Internal.Correction.Weighted>
   9.000000E+99

> <Gold.Protein.RotatedTorsions>
[ 6907 6896 6895 6894 ] final   60.50 input  -60.11 | X-H torsion
[ 7974 7965 7964 7962 ] final -132.20 input  175.53 | X-H torsion
[ 8008 7997 7996 7995 ] final -147.75 input   59.86 | X-H torsion
[ 10167 10162 10161 10158 ] final  -75.02 input  -65.29 | X-H torsion
[ 10718 10713 10712 10709 ] final   35.49 input   66.30 | X-H torsion
[ 10763 10752 10751 10750 ] final  -39.86 input  -60.55 | X-H torsion
[ 11005 11000 10999 10996 ] final  152.91 input  -57.11 | X-H torsion

> <Gold.Protein.ActiveResidues>
 VAL166  LYS551  ARG553  GLY616  TRP617  ASP618  TYR619  PRO620  LYS621  CYS622 
 ASP623  PHE694  ASN695  SER759  ASP760  ASP761  ALA762  ILE779  LEU786  VAL792 
 PHE793  MET794  SER795  GLU796  ALA797  LYS798  CYS799  TRP800  GLU811  SER814 

> <Gold.Protein.RotatedAtoms>
  152.4008  134.6289  160.0070 H   0  0  0  0  0  0  0  0  0  0  0  0  # atno 6907 bound_to 6896
  151.6495  133.3316  159.3156 H   0  0  0  0  0  0  0  0  0  0  0  0  # atno 6908 bound_to 6896
  150.7909  134.6974  159.6575 H   0  0  0  0  0  0  0  0  0  0  0  0  # atno 6909 bound_to 6896
  144.9307  140.7125  143.4907 H   0  0  0  0  0  0  0  0  0  0  0  0  # atno 7974 bound_to 7965
  155.5805  140.0643  157.2784 H   0  0  0  0  0  0  0  0  0  0  0  0  # atno 8008 bound_to 7997
  154.4334  140.1853  156.1018 H   0  0  0  0  0  0  0  0  0  0  0  0  # atno 8009 bound_to 7997
  156.0309  140.3306  155.7142 H   0  0  0  0  0  0  0  0  0  0  0  0  # atno 8010 bound_to 7997
  140.4978  143.2367  151.7802 H   0  0  0  0  0  0  0  0  0  0  0  0  # atno 10167 bound_to 10162
  157.3233  130.7459  149.6799 H   0  0  0  0  0  0  0  0  0  0  0  0  # atno 10718 bound_to 10713
  153.9364  135.6766  153.4745 H   0  0  0  0  0  0  0  0  0  0  0  0  # atno 10763 bound_to 10752
  153.0953  135.4854  154.8765 H   0  0  0  0  0  0  0  0  0  0  0  0  # atno 10764 bound_to 10752
  154.7401  135.3158  154.8702 H   0  0  0  0  0  0  0  0  0  0  0  0  # atno 10765 bound_to 10752
  140.1351  134.8776  157.2255 H   0  0  0  0  0  0  0  0  0  0  0  0  # atno 11005 bound_to 11000
  145.3146  139.1808  143.4620 LP  0  0  0  0  0  0  0  0  0  0  0  0  # atno 17320 bound_to 7965
  146.3246  140.3155  142.8629 LP  0  0  0  0  0  0  0  0  0  0  0  0  # atno 17321 bound_to 7965
  139.4865  144.4563  151.9594 LP  0  0  0  0  0  0  0  0  0  0  0  0  # atno 17342 bound_to 10162
  140.3651  144.2924  150.5927 LP  0  0  0  0  0  0  0  0  0  0  0  0  # atno 17343 bound_to 10162
  155.9688  130.4216  150.4480 LP  0  0  0  0  0  0  0  0  0  0  0  0  # atno 17370 bound_to 10713
  157.2499  131.0544  151.2385 LP  0  0  0  0  0  0  0  0  0  0  0  0  # atno 17371 bound_to 10713
  140.2793  134.3368  155.7348 LP  0  0  0  0  0  0  0  0  0  0  0  0  # atno 17394 bound_to 11000
  141.2177  133.7469  156.9340 LP  0  0  0  0  0  0  0  0  0  0  0  0  # atno 17395 bound_to 11000

$$$$
