AV-unprocessed.smi:2527|AV-procd|sdf|9942|dock1
  -GOLD-   2272013583D 1   1.00000     0.00000
 Structure written by MMmdl.
 36 38  0  0  0  0  0  0  0  0  1 V2000
  150.3065  137.9270  158.8769 C   0  0  0  0  0  0  0  0  0  0  0  0
  151.2974  137.1389  159.5117 O   0  0  0  0  0  0  0  0  0  0  0  0
  152.4764  137.8727  159.8005 C   0  0  0  0  0  0  0  0  0  0  0  0
  153.1253  138.3426  158.4908 C   0  0  0  0  0  0  0  0  0  0  0  0
  152.5027  139.5539  157.9765 N   0  0  0  0  0  0  0  0  0  0  0  0
  151.8050  139.7082  156.8235 C   0  0  0  0  0  0  0  0  0  0  0  0
  151.5457  138.3498  155.7177 S   0  0  0  0  0  0  0  0  0  0  0  0
  150.7233  139.2008  154.3390 C   0  0  0  0  0  0  0  0  0  0  0  0
  149.5117  140.0068  154.7528 C   0  0  0  0  0  0  0  0  0  0  0  0
  148.7974  140.6353  153.7645 N   0  0  0  0  0  0  0  0  0  0  0  0
  147.7984  141.2626  154.3730 C   0  0  0  0  0  0  0  0  0  0  0  0
  146.9174  141.9490  153.8606 O   0  0  0  0  0  0  0  0  0  0  0  0
  147.9670  140.9779  155.6700 N   0  0  0  0  0  0  0  0  0  0  0  0
  149.0379  140.1888  155.9354 N   0  0  0  0  0  0  0  0  0  0  0  0
  151.3349  140.9377  156.6014 N   0  0  0  0  0  0  0  0  0  0  0  0
  151.7642  141.6399  157.7099 C   0  0  0  0  0  0  0  0  0  0  0  0
  151.5813  142.9950  158.0667 C   0  0  0  0  0  0  0  0  0  0  0  0
  152.1181  143.4944  159.2715 C   0  0  0  0  0  0  0  0  0  0  0  0
  151.8842  145.1509  159.6930 Cl  0  0  0  0  0  0  0  0  0  0  0  0
  152.8433  142.6467  160.1341 C   0  0  0  0  0  0  0  0  0  0  0  0
  153.0369  141.2935  159.7969 C   0  0  0  0  0  0  0  0  0  0  0  0
  152.4996  140.8013  158.5924 C   0  0  0  0  0  0  0  0  0  0  0  0
  147.3841  141.2906  156.4332 H   0  0  0  0  0  0  0  0  0  0  0  0
  149.0013  140.6165  152.7759 H   0  0  0  0  0  0  0  0  0  0  0  0
  149.4257  137.3162  158.6783 H   0  0  0  0  0  0  0  0  0  0  0  0
  150.6654  138.3201  157.9248 H   0  0  0  0  0  0  0  0  0  0  0  0
  150.0020  138.7621  159.5090 H   0  0  0  0  0  0  0  0  0  0  0  0
  152.2356  138.7356  160.4230 H   0  0  0  0  0  0  0  0  0  0  0  0
  153.1753  137.2509  160.3624 H   0  0  0  0  0  0  0  0  0  0  0  0
  154.1860  138.5375  158.6509 H   0  0  0  0  0  0  0  0  0  0  0  0
  153.0731  137.5593  157.7345 H   0  0  0  0  0  0  0  0  0  0  0  0
  151.4464  139.8557  153.8515 H   0  0  0  0  0  0  0  0  0  0  0  0
  150.4107  138.4633  153.5991 H   0  0  0  0  0  0  0  0  0  0  0  0
  151.0256  143.6502  157.4124 H   0  0  0  0  0  0  0  0  0  0  0  0
  153.2504  143.0344  161.0566 H   0  0  0  0  0  0  0  0  0  0  0  0
  153.5876  140.6413  160.4581 H   0  0  0  0  0  0  0  0  0  0  0  0
  1  2  1  0  0  0  0
  1 25  1  0  0  0  0
  1 26  1  0  0  0  0
  1 27  1  0  0  0  0
  2  3  1  0  0  0  0
  3  4  1  0  0  0  0
  3 28  1  0  0  0  0
  3 29  1  0  0  0  0
  4  5  1  0  0  0  0
  4 30  1  0  0  0  0
  4 31  1  0  0  0  0
  5 22  1  0  0  0  0
  5  6  1  0  0  0  0
  6  7  1  0  0  0  0
  6 15  2  0  0  0  0
  7  8  1  0  0  0  0
  8 32  1  0  0  0  0
  8 33  1  0  0  0  0
  8  9  1  0  0  0  0
  9 14  2  0  0  0  0
  9 10  1  0  0  0  0
 10 11  1  0  0  0  0
 10 24  1  0  0  0  0
 11 13  1  0  0  0  0
 11 12  2  0  0  0  0
 13 14  1  0  0  0  0
 13 23  1  0  0  0  0
 15 16  1  0  0  0  0
 16 22  2  0  0  0  0
 16 17  1  0  0  0  0
 17 18  2  0  0  0  0
 17 34  1  0  0  0  0
 18 19  1  0  0  0  0
 18 20  1  0  0  0  0
 20 21  2  0  0  0  0
 20 35  1  0  0  0  0
 21 22  1  0  0  0  0
 21 36  1  0  0  0  0
M  END
> <s_m_source_file>
AV-unprocessed.smi

> <i_m_source_file_index>
2527

> <i_lp_mmshare_version>
43012

> <i_f3d_flags>
0

> <s_epik_input>
W2NIXTFjKENsKVtjSF1bY0hdYyhjMTIpbihbQ0gyXVtDSDJdT1tDSDNdKWMobjIpU1tDSDJdYzNuYyg9TylbbkhdW25IXTM=

> <s_epik_cmdline>
J2VwaWtfcHl0aG9uJywgJy1waCcsICc3LjAnLCAnLXRuJywgJzgnLCAnLW1hJywgJzIwMCcsICctbWV0YWxfYmluZGluZycsICctaW1hZScsICc8aW5maWxlLm1hZT4nLCAnLW9tYWUnLCAnPG91dGZpbGUubWFlPic=

> <r_lp_tautomer_probability>
0.999897

> <r_epik_Ionization_Penalty>
0.0426825

> <r_epik_Ionization_Penalty_Charging>
0.0333494

> <r_epik_Ionization_Penalty_Neutral>
0.00933306

> <r_epik_State_Penalty>
0.0341975

> <r_epik_Charging_Adjusted_Penalty>
0.0675469

> <i_epik_Tot_Q>
0

> <i_epik_Tot_abs_Q>
0

> <r_epik_Metal_State_Penalty>
0.388349

> <b_epik_Metal_Only>
0

> <s_lp_Force_Field>
OPLS_2005

> <r_lp_Energy>
27.9539

> <b_lp_Chiralities_Consistent>
1

> <s_lp_Variant>
AV-unprocessed.smi:2527-1

> <Gold.Version>
5.8.1

> <Gold.Id.Protein>
6NUR|6NUR_protein|mol2

> <Gold.PLP.Fitness>
47.0218

> <Gold.PLP.PLP>
-41.2263

> <Gold.PLP.part.hbond>
-2.0000

> <Gold.PLP.part.metal>
0.0000

> <Gold.PLP.part.buried>
-6.2002

> <Gold.PLP.part.nonpolar>
-33.3089

> <Gold.PLP.part.repulsive>
0.3997

> <Gold.PLP.ligand.clash>
0.0000

> <Gold.PLP.ligand.torsion>
0.1808

> <Gold.PLP.Chemscore.Hbond>
2.0000

> <Gold.PLP.Chemscore.CHOScore>
0.0000

> <Gold.PLP.Chemscore.Metal>
0.0000

> <Gold.Chemscore.Hbonds>
donor molecule, donor type, donor heavy atom, donor atom, acceptor molecule, acceptor atom, score
      L1  H    10    24       P1  7957  1.00
      P1  H  6896  6908       L1     2  0.99

> <Gold.PLP.Chemscore.Internal.Correction>
0.1571

> <Gold.Rescore>
     Score         DG    S(hbond)    S(metal)    S(lipo)     H(rot)  DE(clash)    DE(int)     intcor
     15.74     -16.49       1.97        0.00     100.46       2.86       0.42       0.33       ----

> <Gold.Chemscore.Fitness>
15.7435

> <Gold.Chemscore.DG>
-16.4919

> <Gold.Chemscore.ZeroCoef>
-5.4800

> <Gold.Chemscore.Hbond>
1.9709

> <Gold.Chemscore.Metal>
0.0000

> <Gold.Chemscore.Lipo>
100.4619

> <Gold.Chemscore.Internal_Hbond>
0.0000

> <Gold.Chemscore.DEClash>
0.4225

> <Gold.Chemscore.DEInternal>
0.3258

> <Gold.Chemscore.Rot>
2.8613

> <Gold.Chemscore.Internal.Correction>
   9.000000E+99

> <Gold.Chemscore.Hbonds>
donor molecule, donor type, donor heavy atom, donor atom, acceptor molecule, acceptor atom, score
      L1  H    10    24       P1  7957  1.00
      P1  H  6896  6908       L1     2  0.87

> <Gold.Chemscore.Hbond.Weighted>
-6.5827

> <Gold.Chemscore.Metal.Weighted>
-0.0000

> <Gold.Chemscore.Lipo.Weighted>
-11.7540

> <Gold.Chemscore.Internal_Hbond.Weighted>
0.0000

> <Gold.Chemscore.DEClash.Weighted>
0.4225

> <Gold.Chemscore.DEInternal.Weighted>
0.3258

> <Gold.Chemscore.Rot.Weighted>
7.3249

> <Gold.Chemscore.Internal.Correction.Weighted>
   9.000000E+99

> <Gold.Protein.RotatedTorsions>
[ 6907 6896 6895 6894 ] final -136.50 input  -60.11 | X-H torsion
[ 7974 7965 7964 7962 ] final  105.27 input  175.53 | X-H torsion
[ 8008 7997 7996 7995 ] final   58.67 input   59.86 | X-H torsion
[ 10167 10162 10161 10158 ] final  -57.87 input  -65.29 | X-H torsion
[ 10718 10713 10712 10709 ] final   91.32 input   66.30 | X-H torsion
[ 10763 10752 10751 10750 ] final -155.63 input  -60.55 | X-H torsion
[ 11005 11000 10999 10996 ] final -168.03 input  -57.11 | X-H torsion

> <Gold.Protein.ActiveResidues>
 VAL166  LYS551  ARG553  GLY616  TRP617  ASP618  TYR619  PRO620  LYS621  CYS622 
 ASP623  PHE694  ASN695  SER759  ASP760  ASP761  ALA762  ILE779  LEU786  VAL792 
 PHE793  MET794  SER795  GLU796  ALA797  LYS798  CYS799  TRP800  GLU811  SER814 

> <Gold.Protein.RotatedAtoms>
  151.0108  133.5967  159.2682 H   0  0  0  0  0  0  0  0  0  0  0  0  # atno 6907 bound_to 6896
  151.3119  135.0795  159.9285 H   0  0  0  0  0  0  0  0  0  0  0  0  # atno 6908 bound_to 6896
  152.5299  133.9771  159.7843 H   0  0  0  0  0  0  0  0  0  0  0  0  # atno 6909 bound_to 6896
  145.3218  139.2510  143.3707 H   0  0  0  0  0  0  0  0  0  0  0  0  # atno 7974 bound_to 7965
  155.5538  140.3487  155.4475 H   0  0  0  0  0  0  0  0  0  0  0  0  # atno 8008 bound_to 7997
  156.0564  140.1330  157.0017 H   0  0  0  0  0  0  0  0  0  0  0  0  # atno 8009 bound_to 7997
  154.4458  140.0994  156.6437 H   0  0  0  0  0  0  0  0  0  0  0  0  # atno 8010 bound_to 7997
  140.6232  143.2427  151.5429 H   0  0  0  0  0  0  0  0  0  0  0  0  # atno 10167 bound_to 10162
  157.6960  131.0403  150.3712 H   0  0  0  0  0  0  0  0  0  0  0  0  # atno 10718 bound_to 10713
  154.7773  135.3163  154.8065 H   0  0  0  0  0  0  0  0  0  0  0  0  # atno 10763 bound_to 10752
  153.8785  135.6837  153.4773 H   0  0  0  0  0  0  0  0  0  0  0  0  # atno 10764 bound_to 10752
  153.1400  135.4743  154.9417 H   0  0  0  0  0  0  0  0  0  0  0  0  # atno 10765 bound_to 10752
  140.5466  134.5470  157.5112 H   0  0  0  0  0  0  0  0  0  0  0  0  # atno 11005 bound_to 11000
  146.3079  140.3778  142.8681 LP  0  0  0  0  0  0  0  0  0  0  0  0  # atno 17320 bound_to 7965
  144.8933  140.7551  143.5913 LP  0  0  0  0  0  0  0  0  0  0  0  0  # atno 17321 bound_to 7965
  139.5457  144.2529  152.1436 LP  0  0  0  0  0  0  0  0  0  0  0  0  # atno 17342 bound_to 10162
  140.1754  144.4896  150.6557 LP  0  0  0  0  0  0  0  0  0  0  0  0  # atno 17343 bound_to 10162
  156.4137  130.3939  149.6873 LP  0  0  0  0  0  0  0  0  0  0  0  0  # atno 17370 bound_to 10713
  156.4149  130.7740  151.2755 LP  0  0  0  0  0  0  0  0  0  0  0  0  # atno 17371 bound_to 10713
  139.9477  134.7673  156.0523 LP  0  0  0  0  0  0  0  0  0  0  0  0  # atno 17394 bound_to 11000
  141.1196  133.6617  156.3181 LP  0  0  0  0  0  0  0  0  0  0  0  0  # atno 17395 bound_to 11000

$$$$
