AV-unprocessed.smi:1880|AV-procd|sdf|7637|dock1
  -GOLD-   22720 9363D 1   1.00000     0.00000
 Structure written by MMmdl.
 37 39  0  0  0  0  0  0  0  0  2 V2000
  149.8856  140.1005  157.3426 O   0  0  0  0  0  0  0  0  0  0  0  0
  150.9722  140.5611  156.5641 C   0  0  2  0  0  0  0  0  0  0  0  0
  151.4163  139.4445  155.6053 C   0  0  0  0  0  0  0  0  0  0  0  0
  150.7476  139.5780  154.3615 O   0  0  0  0  0  0  0  0  0  0  0  0
  149.5081  138.8933  154.3280 C   0  0  0  0  0  0  0  0  0  0  0  0
  148.4538  139.9375  154.1864 C   0  0  0  0  0  0  0  0  0  0  0  0
  148.3504  141.2348  154.6064 C   0  0  0  0  0  0  0  0  0  0  0  0
  147.0894  141.7055  154.1459 C   0  0  0  0  0  0  0  0  0  0  0  0
  146.5181  140.6597  153.4785 C   0  0  0  0  0  0  0  0  0  0  0  0
  147.3381  139.5739  153.4930 O   0  0  0  0  0  0  0  0  0  0  0  0
  152.1147  141.1104  157.4415 C   0  0  0  0  0  0  0  0  0  0  0  0
  151.6741  142.1869  158.3399 N   0  0  0  0  0  0  0  0  0  0  0  0
  150.7749  143.1847  158.1231 C   0  0  0  0  0  0  0  0  0  0  0  0
  150.7144  143.9373  159.2564 N   0  3  0  0  0  0  0  0  0  0  0  0
  151.5880  143.4132  160.2120 C   0  0  0  0  0  0  0  0  0  0  0  0
  151.8762  143.8282  161.5080 C   0  0  0  0  0  0  0  0  0  0  0  0
  152.8229  143.0658  162.2235 C   0  0  0  0  0  0  0  0  0  0  0  0
  153.1420  143.4280  163.4885 F   0  0  0  0  0  0  0  0  0  0  0  0
  153.4414  141.9357  161.6479 C   0  0  0  0  0  0  0  0  0  0  0  0
  154.3431  141.2305  162.3710 F   0  0  0  0  0  0  0  0  0  0  0  0
  153.1401  141.5239  160.3329 C   0  0  0  0  0  0  0  0  0  0  0  0
  152.2067  142.2862  159.6310 C   0  0  0  0  0  0  0  0  0  0  0  0
  149.5885  140.8088  157.8922 H   0  0  0  0  0  0  0  0  0  0  0  0
  150.5802  141.3793  155.9589 H   0  0  0  0  0  0  0  0  0  0  0  0
  152.4991  139.4619  155.4684 H   0  0  0  0  0  0  0  0  0  0  0  0
  151.1633  138.4763  156.0404 H   0  0  0  0  0  0  0  0  0  0  0  0
  149.4710  138.1978  153.4882 H   0  0  0  0  0  0  0  0  0  0  0  0
  149.3593  138.3234  155.2461 H   0  0  0  0  0  0  0  0  0  0  0  0
  149.0917  141.7782  155.1736 H   0  0  0  0  0  0  0  0  0  0  0  0
  146.6558  142.6848  154.2847 H   0  0  0  0  0  0  0  0  0  0  0  0
  145.5812  140.5228  152.9586 H   0  0  0  0  0  0  0  0  0  0  0  0
  152.5830  140.3227  158.0318 H   0  0  0  0  0  0  0  0  0  0  0  0
  152.9011  141.5214  156.8071 H   0  0  0  0  0  0  0  0  0  0  0  0
  150.2122  143.3505  157.2154 H   0  0  0  0  0  0  0  0  0  0  0  0
  151.4040  144.6913  161.9538 H   0  0  0  0  0  0  0  0  0  0  0  0
  153.6169  140.6540  159.9057 H   0  0  0  0  0  0  0  0  0  0  0  0
  150.1204  144.7496  159.3658 H   0  0  0  0  0  0  0  0  0  0  0  0
  1  2  1  0  0  0  0
  1 23  1  0  0  0  0
  2  3  1  0  0  0  0
  2 11  1  0  0  0  0
  2 24  1  0  0  0  0
  3  4  1  0  0  0  0
  3 25  1  0  0  0  0
  3 26  1  0  0  0  0
  4  5  1  0  0  0  0
  5  6  1  0  0  0  0
  5 27  1  0  0  0  0
  5 28  1  0  0  0  0
  6 10  1  0  0  0  0
  6  7  2  0  0  0  0
  7  8  1  0  0  0  0
  7 29  1  0  0  0  0
  8  9  2  0  0  0  0
  8 30  1  0  0  0  0
  9 10  1  0  0  0  0
  9 31  1  0  0  0  0
 11 12  1  0  0  0  0
 11 32  1  0  0  0  0
 11 33  1  0  0  0  0
 12 22  1  0  0  0  0
 12 13  1  0  0  0  0
 13 14  2  0  0  0  0
 13 34  1  0  0  0  0
 14 15  1  0  0  0  0
 14 37  1  0  0  0  0
 15 22  2  0  0  0  0
 15 16  1  0  0  0  0
 16 17  2  0  0  0  0
 16 35  1  0  0  0  0
 17 18  1  0  0  0  0
 17 19  1  0  0  0  0
 19 20  1  0  0  0  0
 19 21  2  0  0  0  0
 21 22  1  0  0  0  0
 21 36  1  0  0  0  0
M  CHG  1  14   1
M  END
> <s_m_source_file>
AV-unprocessed.smi

> <i_m_source_file_index>
1880

> <i_lp_mmshare_version>
43012

> <i_f3d_flags>
0

> <s_epik_input>
W2NIXTFjKEYpYyhGKVtjSF1jKGMxMiluKFtjSF1uMilbQ0gyXVtDQEhdKFtPSF0pW0NIMl1PW0NIMl1jM1tjSF1bY0hdW2NIXW8z

> <s_epik_cmdline>
J2VwaWtfcHl0aG9uJywgJy1waCcsICc3LjAnLCAnLXRuJywgJzgnLCAnLW1hJywgJzIwMCcsICctbWV0YWxfYmluZGluZycsICctaW1hZScsICc8aW5maWxlLm1hZT4nLCAnLW9tYWUnLCAnPG91dGZpbGUubWFlPic=

> <r_epik_Ionization_Penalty>
2.17656

> <r_epik_Ionization_Penalty_Charging>
2.17656

> <r_epik_Ionization_Penalty_Neutral>
9.34185e-07

> <r_epik_State_Penalty>
2.31826

> <r_epik_Charging_Adjusted_Penalty>
4.49482

> <i_epik_Tot_Q>
1

> <i_epik_Tot_abs_Q>
1

> <r_epik_Metal_State_Penalty>
6.39906

> <b_epik_Metal_Only>
0

> <s_lp_Force_Field>
OPLS_2005

> <r_lp_Energy>
13.1736

> <b_lp_Chiralities_Consistent>
1

> <s_lp_Variant>
AV-unprocessed.smi:1880-3

> <Gold.Version>
5.8.1

> <Gold.Id.Protein>
6NUR|6NUR_protein|mol2

> <Gold.PLP.Fitness>
56.2948

> <Gold.PLP.PLP>
-50.7140

> <Gold.PLP.part.hbond>
-1.0000

> <Gold.PLP.part.metal>
0.0000

> <Gold.PLP.part.buried>
-5.1744

> <Gold.PLP.part.nonpolar>
-44.0224

> <Gold.PLP.part.repulsive>
0.4062

> <Gold.PLP.ligand.clash>
0.0000

> <Gold.PLP.ligand.torsion>
1.7207

> <Gold.PLP.Chemscore.Hbond>
1.0000

> <Gold.PLP.Chemscore.CHOScore>
1.9812

> <Gold.PLP.Chemscore.Metal>
0.0000

> <Gold.Chemscore.Hbonds>
donor molecule, donor type, donor heavy atom, donor atom, acceptor molecule, acceptor atom, score
      P1  H  7989  7998       L1     4  1.00
      L1  C     9    31       P1 10175  0.81
      L1  C    13    34       P1  8028  1.00

> <Gold.PLP.Chemscore.Internal.Correction>
0.0784

> <Gold.Rescore>
     Score         DG    S(hbond)    S(metal)    S(lipo)     H(rot)  DE(clash)    DE(int)     intcor
     13.61     -15.41       0.98        0.00     121.21       2.94       0.16       1.65       ----

> <Gold.Chemscore.Fitness>
13.6063

> <Gold.Chemscore.DG>
-15.4143

> <Gold.Chemscore.ZeroCoef>
-5.4800

> <Gold.Chemscore.Hbond>
0.9795

> <Gold.Chemscore.Metal>
0.0000

> <Gold.Chemscore.Lipo>
121.2062

> <Gold.Chemscore.Internal_Hbond>
0.0000

> <Gold.Chemscore.DEClash>
0.1571

> <Gold.Chemscore.DEInternal>
1.6509

> <Gold.Chemscore.Rot>
2.9369

> <Gold.Chemscore.Internal.Correction>
   9.000000E+99

> <Gold.Chemscore.Hbonds>
donor molecule, donor type, donor heavy atom, donor atom, acceptor molecule, acceptor atom, score
      P1  H  7989  7998       L1     4  0.50

> <Gold.Chemscore.Hbond.Weighted>
-3.2717

> <Gold.Chemscore.Metal.Weighted>
-0.0000

> <Gold.Chemscore.Lipo.Weighted>
-14.1811

> <Gold.Chemscore.Internal_Hbond.Weighted>
0.0000

> <Gold.Chemscore.DEClash.Weighted>
0.1571

> <Gold.Chemscore.DEInternal.Weighted>
1.6509

> <Gold.Chemscore.Rot.Weighted>
7.5185

> <Gold.Chemscore.Internal.Correction.Weighted>
   9.000000E+99

> <Gold.Protein.RotatedTorsions>
[ 6907 6896 6895 6894 ] final  132.39 input  -60.11 | X-H torsion
[ 7974 7965 7964 7962 ] final   94.51 input  175.53 | X-H torsion
[ 8008 7997 7996 7995 ] final  -29.28 input   59.86 | X-H torsion
[ 10167 10162 10161 10158 ] final -157.19 input  -65.29 | X-H torsion
[ 10718 10713 10712 10709 ] final   35.55 input   66.30 | X-H torsion
[ 10763 10752 10751 10750 ] final  -51.82 input  -60.55 | X-H torsion
[ 11005 11000 10999 10996 ] final  -64.44 input  -57.11 | X-H torsion

> <Gold.Protein.ActiveResidues>
 VAL166  LYS551  ARG553  GLY616  TRP617  ASP618  TYR619  PRO620  LYS621  CYS622 
 ASP623  PHE694  ASN695  SER759  ASP760  ASP761  ALA762  ILE779  LEU786  VAL792 
 PHE793  MET794  SER795  GLU796  ALA797  LYS798  CYS799  TRP800  GLU811  SER814 

> <Gold.Protein.RotatedAtoms>
  152.3329  133.5979  159.5822 H   0  0  0  0  0  0  0  0  0  0  0  0  # atno 6907 bound_to 6896
  150.7433  133.9840  159.3594 H   0  0  0  0  0  0  0  0  0  0  0  0  # atno 6908 bound_to 6896
  151.7713  135.0786  160.0411 H   0  0  0  0  0  0  0  0  0  0  0  0  # atno 6909 bound_to 6896
  145.4646  139.2285  143.2968 H   0  0  0  0  0  0  0  0  0  0  0  0  # atno 7974 bound_to 7965
  154.4296  140.1822  156.1223 H   0  0  0  0  0  0  0  0  0  0  0  0  # atno 8008 bound_to 7997
  156.0133  140.3348  155.6938 H   0  0  0  0  0  0  0  0  0  0  0  0  # atno 8009 bound_to 7997
  155.6080  140.0647  157.2705 H   0  0  0  0  0  0  0  0  0  0  0  0  # atno 8010 bound_to 7997
  139.6790  143.9613  152.2326 H   0  0  0  0  0  0  0  0  0  0  0  0  # atno 10167 bound_to 10162
  157.3240  130.7463  149.6803 H   0  0  0  0  0  0  0  0  0  0  0  0  # atno 10718 bound_to 10713
  154.1328  135.6517  153.4925 H   0  0  0  0  0  0  0  0  0  0  0  0  # atno 10763 bound_to 10752
  153.0190  135.5297  154.6984 H   0  0  0  0  0  0  0  0  0  0  0  0  # atno 10764 bound_to 10752
  154.6223  135.2966  155.0282 H   0  0  0  0  0  0  0  0  0  0  0  0  # atno 10765 bound_to 10752
  141.1424  133.6666  156.5833 H   0  0  0  0  0  0  0  0  0  0  0  0  # atno 11005 bound_to 11000
  146.2431  140.5419  142.8925 LP  0  0  0  0  0  0  0  0  0  0  0  0  # atno 17320 bound_to 7965
  144.7982  140.6162  143.6496 LP  0  0  0  0  0  0  0  0  0  0  0  0  # atno 17321 bound_to 7965
  139.9398  144.6689  150.8278 LP  0  0  0  0  0  0  0  0  0  0  0  0  # atno 17342 bound_to 10162
  140.7646  143.3252  151.2532 LP  0  0  0  0  0  0  0  0  0  0  0  0  # atno 17343 bound_to 10162
  155.9688  130.4215  150.4471 LP  0  0  0  0  0  0  0  0  0  0  0  0  # atno 17370 bound_to 10713
  157.2491  131.0542  151.2390 LP  0  0  0  0  0  0  0  0  0  0  0  0  # atno 17371 bound_to 10713
  140.3821  134.7514  157.4667 LP  0  0  0  0  0  0  0  0  0  0  0  0  # atno 17394 bound_to 11000
  140.0630  134.5969  155.8727 LP  0  0  0  0  0  0  0  0  0  0  0  0  # atno 17395 bound_to 11000

$$$$
