AV-unprocessed.smi:1791|AV-procd|sdf|7221|dock7
  -GOLD-   22720 8463D 1   1.00000     0.00000
 Structure written by MMmdl.
 38 39  0  0  0  0  0  0  0  0  1 V2000
  150.4393  142.1053  157.8903 C   0  0  0  0  0  0  0  0  0  0  0  0
  151.0295  141.4983  156.7460 O   0  0  0  0  0  0  0  0  0  0  0  0
  150.2939  140.5622  156.0487 C   0  0  0  0  0  0  0  0  0  0  0  0
  149.1534  140.0071  156.6624 C   0  0  0  0  0  0  0  0  0  0  0  0
  148.3970  139.0514  155.9573 C   0  0  0  0  0  0  0  0  0  0  0  0
  148.8114  138.6751  154.6574 C   0  0  0  0  0  0  0  0  0  0  0  0
  148.1215  137.7431  153.8367 N   0  0  0  0  0  0  0  0  0  0  0  0
  146.8453  137.3323  153.9280 C   0  0  0  0  0  0  0  0  0  0  0  0
  146.0498  137.6728  154.8033 O   0  0  0  0  0  0  0  0  0  0  0  0
  146.5467  136.4705  152.9450 N   0  0  0  0  0  0  0  0  0  0  0  0
  145.2548  135.8185  152.7366 C   0  0  1  0  0  0  0  0  0  0  0  0
  144.1619  136.8955  152.6755 C   0  0  0  0  0  0  0  0  0  0  0  0
  145.2890  134.9624  151.4547 C   0  0  1  0  0  0  0  0  0  0  0  0
  146.3444  133.8558  151.4424 C   0  0  0  0  0  0  0  0  0  0  0  0
  145.7963  132.8601  150.4335 C   0  0  0  0  0  0  0  0  0  0  0  0
  144.3105  133.2178  150.3279 C   0  0  0  0  0  0  0  0  0  0  0  0
  144.0895  134.2176  151.3141 O   0  0  0  0  0  0  0  0  0  0  0  0
  149.9593  139.2999  154.1280 C   0  0  0  0  0  0  0  0  0  0  0  0
  150.6899  140.2149  154.7991 N   0  0  0  0  0  0  0  0  0  0  0  0
  151.1458  142.8090  158.3300 H   0  0  0  0  0  0  0  0  0  0  0  0
  150.1921  141.3659  158.6533 H   0  0  0  0  0  0  0  0  0  0  0  0
  149.5390  142.6620  157.6256 H   0  0  0  0  0  0  0  0  0  0  0  0
  148.8597  140.3131  157.6557 H   0  0  0  0  0  0  0  0  0  0  0  0
  147.5118  138.6419  156.4187 H   0  0  0  0  0  0  0  0  0  0  0  0
  148.6786  137.3039  153.1186 H   0  0  0  0  0  0  0  0  0  0  0  0
  147.2731  136.2468  152.2808 H   0  0  0  0  0  0  0  0  0  0  0  0
  145.0255  135.1657  153.5807 H   0  0  0  0  0  0  0  0  0  0  0  0
  143.1745  136.4471  152.5624 H   0  0  0  0  0  0  0  0  0  0  0  0
  144.3169  137.5738  151.8359 H   0  0  0  0  0  0  0  0  0  0  0  0
  144.1470  137.4921  153.5882 H   0  0  0  0  0  0  0  0  0  0  0  0
  145.4125  135.5989  150.5760 H   0  0  0  0  0  0  0  0  0  0  0  0
  147.3388  134.2195  151.1821 H   0  0  0  0  0  0  0  0  0  0  0  0
  146.4047  133.3843  152.4244 H   0  0  0  0  0  0  0  0  0  0  0  0
  146.2830  132.9741  149.4641 H   0  0  0  0  0  0  0  0  0  0  0  0
  145.9489  131.8332  150.7673 H   0  0  0  0  0  0  0  0  0  0  0  0
  144.0843  133.6281  149.3430 H   0  0  0  0  0  0  0  0  0  0  0  0
  143.6608  132.3587  150.4954 H   0  0  0  0  0  0  0  0  0  0  0  0
  150.3070  139.0568  153.1346 H   0  0  0  0  0  0  0  0  0  0  0  0
  1  2  1  0  0  0  0
  1 20  1  0  0  0  0
  1 21  1  0  0  0  0
  1 22  1  0  0  0  0
  2  3  1  0  0  0  0
  3 19  1  0  0  0  0
  3  4  2  0  0  0  0
  4  5  1  0  0  0  0
  4 23  1  0  0  0  0
  5  6  2  0  0  0  0
  5 24  1  0  0  0  0
  6  7  1  0  0  0  0
  6 18  1  0  0  0  0
  7  8  1  0  0  0  0
  7 25  1  0  0  0  0
  8  9  2  0  0  0  0
  8 10  1  0  0  0  0
 10 11  1  0  0  0  0
 10 26  1  0  0  0  0
 11 12  1  0  0  0  0
 11 13  1  0  0  0  0
 11 27  1  0  0  0  0
 12 28  1  0  0  0  0
 12 29  1  0  0  0  0
 12 30  1  0  0  0  0
 13 17  1  0  0  0  0
 13 14  1  0  0  0  0
 13 31  1  0  0  0  0
 14 15  1  0  0  0  0
 14 32  1  0  0  0  0
 14 33  1  0  0  0  0
 15 16  1  0  0  0  0
 15 34  1  0  0  0  0
 15 35  1  0  0  0  0
 16 17  1  0  0  0  0
 16 36  1  0  0  0  0
 16 37  1  0  0  0  0
 18 19  2  0  0  0  0
 18 38  1  0  0  0  0
M  END
> <s_m_source_file>
AV-unprocessed.smi

> <i_m_source_file_index>
1791

> <i_lp_mmshare_version>
43012

> <i_f3d_flags>
0

> <s_epik_input>
W0NIM11PYzFbY0hdW2NIXWMoW2NIXW4xKVtOSF1DKD1PKVtOSF1bQ0BIXShbQ0gzXSlbQ0BASF0yW0NIMl1bQ0gyXVtDSDJdTzI=

> <s_epik_cmdline>
J2VwaWtfcHl0aG9uJywgJy1waCcsICc3LjAnLCAnLXRuJywgJzgnLCAnLW1hJywgJzIwMCcsICctbWV0YWxfYmluZGluZycsICctaW1hZScsICc8aW5maWxlLm1hZT4nLCAnLW9tYWUnLCAnPG91dGZpbGUubWFlPic=

> <r_lp_tautomer_probability>
1

> <r_epik_Ionization_Penalty>
9.18737e-05

> <r_epik_Ionization_Penalty_Charging>
0

> <r_epik_Ionization_Penalty_Neutral>
9.18737e-05

> <r_epik_State_Penalty>
-0

> <r_epik_Charging_Adjusted_Penalty>
0

> <i_epik_Tot_Q>
0

> <i_epik_Tot_abs_Q>
0

> <r_epik_Metal_State_Penalty>
-0

> <b_epik_Metal_Only>
0

> <s_lp_Force_Field>
OPLS_2005

> <r_lp_Energy>
20.4699

> <b_lp_Chiralities_Consistent>
1

> <s_lp_Variant>
AV-unprocessed.smi:1791-4

> <Gold.Version>
5.8.1

> <Gold.Id.Protein>
6NUR|6NUR_protein|mol2

> <Gold.PLP.Fitness>
36.3108

> <Gold.PLP.PLP>
-25.1555

> <Gold.PLP.part.hbond>
-3.0000

> <Gold.PLP.part.metal>
0.0000

> <Gold.PLP.part.buried>
-3.5986

> <Gold.PLP.part.nonpolar>
-18.9666

> <Gold.PLP.part.repulsive>
0.3775

> <Gold.PLP.ligand.clash>
0.0000

> <Gold.PLP.ligand.torsion>
0.3319

> <Gold.PLP.Chemscore.Hbond>
3.0000

> <Gold.PLP.Chemscore.CHOScore>
0.9301

> <Gold.PLP.Chemscore.Metal>
0.0000

> <Gold.Chemscore.Hbonds>
donor molecule, donor type, donor heavy atom, donor atom, acceptor molecule, acceptor atom, score
      L1  H     7    25       P1  7948  1.00
      L1  H    10    26       P1  7948  1.00
      P1  H  7989  7998       L1    19  1.00
      L1  C    18    38       P1  7957  0.95

> <Gold.PLP.Chemscore.Internal.Correction>
0.0287

> <Gold.Rescore>
     Score         DG    S(hbond)    S(metal)    S(lipo)     H(rot)  DE(clash)    DE(int)     intcor
     14.57     -17.04       2.70        0.00      53.80       1.47       0.42       2.04       ----

> <Gold.Chemscore.Fitness>
14.5732

> <Gold.Chemscore.DG>
-17.0368

> <Gold.Chemscore.ZeroCoef>
-5.4800

> <Gold.Chemscore.Hbond>
2.7018

> <Gold.Chemscore.Metal>
0.0000

> <Gold.Chemscore.Lipo>
53.7962

> <Gold.Chemscore.Internal_Hbond>
0.0000

> <Gold.Chemscore.DEClash>
0.4250

> <Gold.Chemscore.DEInternal>
2.0386

> <Gold.Chemscore.Rot>
1.4693

> <Gold.Chemscore.Internal.Correction>
   9.000000E+99

> <Gold.Chemscore.Hbonds>
donor molecule, donor type, donor heavy atom, donor atom, acceptor molecule, acceptor atom, score
      L1  H     7    25       P1  7948  0.98
      L1  H    10    26       P1  7948  0.95
      P1  H  7989  7998       L1    19  0.26

> <Gold.Chemscore.Hbond.Weighted>
-9.0239

> <Gold.Chemscore.Metal.Weighted>
-0.0000

> <Gold.Chemscore.Lipo.Weighted>
-6.2942

> <Gold.Chemscore.Internal_Hbond.Weighted>
0.0000

> <Gold.Chemscore.DEClash.Weighted>
0.4250

> <Gold.Chemscore.DEInternal.Weighted>
2.0386

> <Gold.Chemscore.Rot.Weighted>
3.7613

> <Gold.Chemscore.Internal.Correction.Weighted>
   9.000000E+99

> <Gold.Protein.RotatedTorsions>
[ 6907 6896 6895 6894 ] final -102.19 input  -60.11 | X-H torsion
[ 7974 7965 7964 7962 ] final -174.95 input  175.53 | X-H torsion
[ 8008 7997 7996 7995 ] final -123.43 input   59.86 | X-H torsion
[ 10167 10162 10161 10158 ] final   64.14 input  -65.29 | X-H torsion
[ 10718 10713 10712 10709 ] final   51.39 input   66.30 | X-H torsion
[ 10763 10752 10751 10750 ] final  179.90 input  -60.55 | X-H torsion
[ 11005 11000 10999 10996 ] final   -4.75 input  -57.11 | X-H torsion

> <Gold.Protein.ActiveResidues>
 VAL166  LYS551  ARG553  GLY616  TRP617  ASP618  TYR619  PRO620  LYS621  CYS622 
 ASP623  PHE694  ASN695  SER759  ASP760  ASP761  ALA762  ILE779  LEU786  VAL792 
 PHE793  MET794  SER795  GLU796  ALA797  LYS798  CYS799  TRP800  GLU811  SER814 

> <Gold.Protein.RotatedAtoms>
  150.7185  134.0620  159.3834 H   0  0  0  0  0  0  0  0  0  0  0  0  # atno 6907 bound_to 6896
  151.8600  135.0525  160.0477 H   0  0  0  0  0  0  0  0  0  0  0  0  # atno 6908 bound_to 6896
  152.2725  133.5359  159.5484 H   0  0  0  0  0  0  0  0  0  0  0  0  # atno 6909 bound_to 6896
  144.7130  140.1394  143.6393 H   0  0  0  0  0  0  0  0  0  0  0  0  # atno 7974 bound_to 7965
  155.1803  140.0410  157.2881 H   0  0  0  0  0  0  0  0  0  0  0  0  # atno 8008 bound_to 7997
  154.6208  140.2500  155.7524 H   0  0  0  0  0  0  0  0  0  0  0  0  # atno 8009 bound_to 7997
  156.2432  140.2895  156.0515 H   0  0  0  0  0  0  0  0  0  0  0  0  # atno 8010 bound_to 7997
  140.1254  144.4692  150.6896 H   0  0  0  0  0  0  0  0  0  0  0  0  # atno 10167 bound_to 10162
  157.4976  130.8417  149.8278 H   0  0  0  0  0  0  0  0  0  0  0  0  # atno 10718 bound_to 10713
  154.5266  135.2797  155.1216 H   0  0  0  0  0  0  0  0  0  0  0  0  # atno 10763 bound_to 10752
  154.2753  135.6296  153.5329 H   0  0  0  0  0  0  0  0  0  0  0  0  # atno 10764 bound_to 10752
  152.9948  135.5638  154.5769 H   0  0  0  0  0  0  0  0  0  0  0  0  # atno 10765 bound_to 10752
  140.6837  133.9131  155.8572 H   0  0  0  0  0  0  0  0  0  0  0  0  # atno 11005 bound_to 11000
  145.9215  139.2549  143.1378 LP  0  0  0  0  0  0  0  0  0  0  0  0  # atno 17320 bound_to 7965
  145.9615  140.8832  143.0208 LP  0  0  0  0  0  0  0  0  0  0  0  0  # atno 17321 bound_to 7965
  140.6848  143.2344  151.5290 LP  0  0  0  0  0  0  0  0  0  0  0  0  # atno 17342 bound_to 10162
  139.5547  144.2306  152.1591 LP  0  0  0  0  0  0  0  0  0  0  0  0  # atno 17343 bound_to 10162
  156.0210  130.3795  150.1963 LP  0  0  0  0  0  0  0  0  0  0  0  0  # atno 17370 bound_to 10713
  157.0152  130.9963  151.3355 LP  0  0  0  0  0  0  0  0  0  0  0  0  # atno 17371 bound_to 10713
  141.0297  134.0773  157.4028 LP  0  0  0  0  0  0  0  0  0  0  0  0  # atno 17394 bound_to 11000
  139.8944  135.0135  156.6948 LP  0  0  0  0  0  0  0  0  0  0  0  0  # atno 17395 bound_to 11000

$$$$
