#       Name:                AV-unprocessed.smi:2245
#       Creating user name   scv26
#       Creation time:       Fri Mar 27 12:28:34 2020


#       File generated by GOLD software.
#

@<TRIPOS>MOLECULE
AV-unprocessed.smi:2245
    48    49     1
SMALL
NO_CHARGES


@<TRIPOS>ATOM
      1 ****        -6.6959   1.5514   0.3893 C.3            1 S1                 0.0000
      2 ****        -5.2353   1.9254   0.5288 C.ar           1 S1                 0.0000
      3 ****        -4.8196   3.2640   0.3980 C.ar           1 S1                 0.0000
      4 ****        -3.4470   3.5502   0.5338 C.ar           1 S1                 0.0000
      5 ****        -2.9306   4.9680   0.4087 C.3            1 S1                 0.0000
      6 ****        -2.5177   2.6024   0.7816 N.ar           1 S1                 0.0000
      7 ****        -2.9066   1.3094   0.9080 C.ar           1 S1                 0.0000
      8 ****        -2.0093   0.2389   1.1649 N.am           1 S1                 0.0000
      9 ****        -0.6728   0.2904   1.3025 C.2            1 S1                 0.0000
     10 ****         0.0131   1.3112   1.2389 O.2            1 S1                 0.0000
     11 ****        -0.1585  -0.9297   1.5142 N.am           1 S1                 0.0000
     12 ****         1.2613  -1.2204   1.6846 C.3            1 S1                 0.0000
     13 ****         2.0257  -1.1851   0.3469 C.3            1 S1                 0.0000
     14 ****         1.5310  -2.1767  -0.7028 C.3            1 S1                 0.0000
     15 ****         2.7178  -2.2621  -1.6574 C.3            1 S1                 0.0000
     16 ****         3.9227  -2.1635  -0.8028 N.4            1 S1                 1.0000
     17 ****         5.1062  -1.5434  -1.4487 C.3            1 S1                 0.0000
     18 ****         5.7097  -2.4179  -2.5626 C.3            1 S1                 0.0000
     19 ****         6.8463  -1.8633  -2.9806 F              1 S1                 0.0000
     20 ****         5.9764  -3.6371  -2.0940 F              1 S1                 0.0000
     21 ****         4.8831  -2.5170  -3.6032 F              1 S1                 0.0000
     22 ****         3.5181  -1.5198   0.4712 C.3            1 S1                 0.0000
     23 ****        -4.2642   0.9368   0.7866 C.ar           1 S1                 0.0000
     24 ****        -7.3400   2.4079   0.5905 H              1 S1                 0.0000
     25 ****        -6.9590   0.7584   1.0900 H              1 S1                 0.0000
     26 ****        -6.8986   1.1987  -0.6221 H              1 S1                 0.0000
     27 ****        -5.5336   4.0498   0.1993 H              1 S1                 0.0000
     28 ****        -3.7213   5.6514   0.0976 H              1 S1                 0.0000
     29 ****        -2.1292   5.0179  -0.3292 H              1 S1                 0.0000
     30 ****        -2.5388   5.3125   1.3660 H              1 S1                 0.0000
     31 ****        -2.4346  -0.6729   1.2428 H              1 S1                 0.0000
     32 ****        -0.7936  -1.7135   1.5580 H              1 S1                 0.0000
     33 ****         1.7005  -0.5131   2.3902 H              1 S1                 0.0000
     34 ****         1.3502  -2.2063   2.1416 H              1 S1                 0.0000
     35 ****         1.9495  -0.1838  -0.0808 H              1 S1                 0.0000
     36 ****         1.3440  -3.1514  -0.2493 H              1 S1                 0.0000
     37 ****         0.6155  -1.8508  -1.1978 H              1 S1                 0.0000
     38 ****         2.7133  -3.1824  -2.2419 H              1 S1                 0.0000
     39 ****         2.6821  -1.4205  -2.3514 H              1 S1                 0.0000
     40 ****         4.8520  -0.5528  -1.8289 H              1 S1                 0.0000
     41 ****         5.8697  -1.3954  -0.6834 H              1 S1                 0.0000
     42 ****         4.1005  -0.6254   0.6981 H              1 S1                 0.0000
     43 ****         3.6921  -2.2349   1.2762 H              1 S1                 0.0000
     44 ****        -4.5604  -0.0973   0.8883 H              1 S1                 0.0000
     45 ****         4.1836  -3.1088  -0.5602 H              1 S1                 0.0000
     46 ****        -1.5532   2.8512   0.8709 LP             1 S1                 0.0000
     47 ****        -0.4217   2.1962   1.0724 LP             1 S1                 0.0000
     48 ****         1.0049   1.2551   1.3537 LP             1 S1                 0.0000
@<TRIPOS>BOND
    1    1    2 1     
    2    1   24 1     
    3    1   25 1     
    4    1   26 1     
    5    2   23 ar    
    6    2    3 ar    
    7    3    4 ar    
    8    3   27 1     
    9    4    5 1     
   10    4    6 ar    
   11    5   28 1     
   12    5   29 1     
   13    5   30 1     
   14    6    7 ar    
   15    7    8 1     
   16    7   23 ar    
   17    8    9 am    
   18    8   31 1     
   19    9   10 2     
   20    9   11 am    
   21   11   12 1     
   22   11   32 1     
   23   12   13 1     
   24   12   33 1     
   25   12   34 1     
   26   13   22 1     
   27   13   14 1     
   28   13   35 1     
   29   14   15 1     
   30   14   36 1     
   31   14   37 1     
   32   15   16 1     
   33   15   38 1     
   34   15   39 1     
   35   16   17 1     
   36   16   22 1     
   37   16   45 1     
   38   17   18 1     
   39   17   40 1     
   40   17   41 1     
   41   18   19 1     
   42   18   20 1     
   43   18   21 1     
   44   22   42 1     
   45   22   43 1     
   46   23   44 1     
   47    6   46 1     
   48   10   47 1     
   49   10   48 1     
@<TRIPOS>SUBSTRUCTURE
      1 S1             1
@<TRIPOS>SET
LONE_PAIRS      STATIC     ATOMS    <user>   **** ""
3 46 47 48
DONOR_HYDROGENS      STATIC     ATOMS    <user>   **** ""
3 31 32 45
ATOM$BLUE        STATIC     ATOMS    COLORGROUP SYSTEM
3 46 47 48
ATOM$RED        STATIC     ATOMS    COLORGROUP SYSTEM
3 31 32 45
