AV-unprocessed.smi:2853|AV-procd|sdf|10973|dock4
  -GOLD-   2272015423D 1   1.00000     0.00000
 Structure written by MMmdl.
 43 44  0  0  0  0  0  0  0  0  1 V2000
  146.1579  128.9007  152.3231 C   0  0  0  0  0  0  0  0  0  0  0  0
  146.5374  130.3414  152.3579 C   0  0  0  0  0  0  0  0  0  0  0  0
  146.1217  131.2385  151.4653 N   0  0  0  0  0  0  0  0  0  0  0  0
  146.6218  132.5205  151.7119 C   0  0  0  0  0  0  0  0  0  0  0  0
  146.2398  133.6371  150.7792 C   0  0  0  0  0  0  0  0  0  0  0  0
  144.7177  133.8732  150.6941 C   0  0  0  0  0  0  0  0  0  0  0  0
  144.0036  132.8045  149.8486 C   0  0  0  0  0  0  0  0  0  0  0  0
  144.4119  135.2814  150.1625 C   0  0  0  0  0  0  0  0  0  0  0  0
  147.4408  132.6048  152.8174 C   0  0  0  0  0  0  0  0  0  0  0  0
  148.0621  133.7411  153.2315 N   0  0  0  0  0  0  0  0  0  0  0  0
  148.5856  134.0349  154.4343 C   0  0  0  0  0  0  0  0  0  0  0  0
  148.4934  133.3360  155.4430 O   0  0  0  0  0  0  0  0  0  0  0  0
  149.2210  135.2186  154.3990 N   0  0  0  0  0  0  0  0  0  0  0  0
  149.9294  135.9119  155.4838 C   0  0  1  0  0  0  0  0  0  0  0  0
  150.9200  136.8950  154.8326 C   0  0  0  0  0  0  0  0  0  0  0  0
  148.9811  136.6575  156.4390 C   0  0  0  0  0  0  0  0  0  0  0  0
  149.1931  135.9766  157.7899 C   0  0  0  0  0  0  0  0  0  0  0  0
  150.5237  135.4956  157.7113 O   0  0  0  0  0  0  0  0  0  0  0  0
  150.6791  134.9358  156.4169 C   0  0  0  0  0  0  0  0  0  0  0  0
  147.5892  131.0293  153.5812 S   0  0  0  0  0  0  0  0  0  0  0  0
  145.4083  128.7186  151.5524 H   0  0  0  0  0  0  0  0  0  0  0  0
  145.7477  128.5996  153.2872 H   0  0  0  0  0  0  0  0  0  0  0  0
  147.0353  128.2903  152.1092 H   0  0  0  0  0  0  0  0  0  0  0  0
  146.7237  134.5570  151.1108 H   0  0  0  0  0  0  0  0  0  0  0  0
  146.6359  133.4514  149.7802 H   0  0  0  0  0  0  0  0  0  0  0  0
  144.3132  133.8200  151.7061 H   0  0  0  0  0  0  0  0  0  0  0  0
  144.3907  132.7819  148.8294 H   0  0  0  0  0  0  0  0  0  0  0  0
  142.9323  133.0002  149.7929 H   0  0  0  0  0  0  0  0  0  0  0  0
  144.1268  131.8085  150.2740 H   0  0  0  0  0  0  0  0  0  0  0  0
  144.7887  135.4124  149.1475 H   0  0  0  0  0  0  0  0  0  0  0  0
  144.8700  136.0472  150.7893 H   0  0  0  0  0  0  0  0  0  0  0  0
  143.3383  135.4716  150.1461 H   0  0  0  0  0  0  0  0  0  0  0  0
  148.1735  134.4483  152.5200 H   0  0  0  0  0  0  0  0  0  0  0  0
  149.2221  135.7000  153.5119 H   0  0  0  0  0  0  0  0  0  0  0  0
  151.5057  137.4251  155.5848 H   0  0  0  0  0  0  0  0  0  0  0  0
  150.4005  137.6424  154.2317 H   0  0  0  0  0  0  0  0  0  0  0  0
  151.6222  136.3760  154.1790 H   0  0  0  0  0  0  0  0  0  0  0  0
  149.2625  137.7082  156.5205 H   0  0  0  0  0  0  0  0  0  0  0  0
  147.9339  136.6370  156.1354 H   0  0  0  0  0  0  0  0  0  0  0  0
  149.0602  136.6588  158.6298 H   0  0  0  0  0  0  0  0  0  0  0  0
  148.5079  135.1375  157.9184 H   0  0  0  0  0  0  0  0  0  0  0  0
  150.2434  133.9363  156.4228 H   0  0  0  0  0  0  0  0  0  0  0  0
  151.7338  134.8255  156.1630 H   0  0  0  0  0  0  0  0  0  0  0  0
  1  2  1  0  0  0  0
  1 21  1  0  0  0  0
  1 22  1  0  0  0  0
  1 23  1  0  0  0  0
  2 20  1  0  0  0  0
  2  3  2  0  0  0  0
  3  4  1  0  0  0  0
  4  5  1  0  0  0  0
  4  9  2  0  0  0  0
  5  6  1  0  0  0  0
  5 24  1  0  0  0  0
  5 25  1  0  0  0  0
  6  7  1  0  0  0  0
  6  8  1  0  0  0  0
  6 26  1  0  0  0  0
  7 27  1  0  0  0  0
  7 28  1  0  0  0  0
  7 29  1  0  0  0  0
  8 30  1  0  0  0  0
  8 31  1  0  0  0  0
  8 32  1  0  0  0  0
  9 10  1  0  0  0  0
  9 20  1  0  0  0  0
 10 11  1  0  0  0  0
 10 33  1  0  0  0  0
 11 12  2  0  0  0  0
 11 13  1  0  0  0  0
 13 14  1  0  0  0  0
 13 34  1  0  0  0  0
 14 19  1  0  0  0  0
 14 15  1  0  0  0  0
 14 16  1  0  0  0  0
 15 35  1  0  0  0  0
 15 36  1  0  0  0  0
 15 37  1  0  0  0  0
 16 17  1  0  0  0  0
 16 38  1  0  0  0  0
 16 39  1  0  0  0  0
 17 18  1  0  0  0  0
 17 40  1  0  0  0  0
 17 41  1  0  0  0  0
 18 19  1  0  0  0  0
 19 42  1  0  0  0  0
 19 43  1  0  0  0  0
M  END
> <s_m_source_file>
AV-unprocessed.smi

> <i_m_source_file_index>
2853

> <i_lp_mmshare_version>
43012

> <i_f3d_flags>
0

> <s_epik_input>
W0NIM11jMW5jKFtDSDJdW0NIXShbQ0gzXSlbQ0gzXSljKHMxKVtOSF1DKD1PKVtOSF1bQ0BAXTIoW0NIM10pW0NIMl1bQ0gyXU9bQ0gyXTI=

> <s_epik_cmdline>
J2VwaWtfcHl0aG9uJywgJy1waCcsICc3LjAnLCAnLXRuJywgJzgnLCAnLW1hJywgJzIwMCcsICctbWV0YWxfYmluZGluZycsICctaW1hZScsICc8aW5maWxlLm1hZT4nLCAnLW9tYWUnLCAnPG91dGZpbGUubWFlPic=

> <r_epik_Ionization_Penalty>
0.000723394

> <r_epik_Ionization_Penalty_Charging>
0

> <r_epik_Ionization_Penalty_Neutral>
0.000723394

> <r_epik_State_Penalty>
0.000446791

> <r_epik_Charging_Adjusted_Penalty>
0.000446791

> <i_epik_Tot_Q>
0

> <i_epik_Tot_abs_Q>
0

> <r_epik_Metal_State_Penalty>
-0

> <b_epik_Metal_Only>
0

> <s_lp_Force_Field>
OPLS_2005

> <r_lp_Energy>
15.1609

> <b_lp_Chiralities_Consistent>
1

> <s_lp_Variant>
AV-unprocessed.smi:2853-1

> <Gold.Version>
5.8.1

> <Gold.Id.Protein>
6NUR|6NUR_protein|mol2

> <Gold.PLP.Fitness>
39.7668

> <Gold.PLP.PLP>
-33.5096

> <Gold.PLP.part.hbond>
-3.0000

> <Gold.PLP.part.metal>
0.0000

> <Gold.PLP.part.buried>
-3.6363

> <Gold.PLP.part.nonpolar>
-27.0514

> <Gold.PLP.part.repulsive>
0.1626

> <Gold.PLP.ligand.clash>
0.0000

> <Gold.PLP.ligand.torsion>
0.7082

> <Gold.PLP.Chemscore.Hbond>
2.5440

> <Gold.PLP.Chemscore.CHOScore>
0.0000

> <Gold.PLP.Chemscore.Metal>
0.0000

> <Gold.Chemscore.Hbonds>
donor molecule, donor type, donor heavy atom, donor atom, acceptor molecule, acceptor atom, score
      L1  H    10    33       P1  7948  1.00
      L1  H    13    34       P1  7948  1.00
      P1  H  6896  6908       L1    18  0.56

> <Gold.PLP.Chemscore.Internal.Correction>
0.0416

> <Gold.Rescore>
     Score         DG    S(hbond)    S(metal)    S(lipo)     H(rot)  DE(clash)    DE(int)     intcor
     16.96     -19.05       2.45        0.00      74.01       1.28       0.02       2.07       ----

> <Gold.Chemscore.Fitness>
16.9582

> <Gold.Chemscore.DG>
-19.0501

> <Gold.Chemscore.ZeroCoef>
-5.4800

> <Gold.Chemscore.Hbond>
2.4478

> <Gold.Chemscore.Metal>
0.0000

> <Gold.Chemscore.Lipo>
74.0106

> <Gold.Chemscore.Internal_Hbond>
0.0000

> <Gold.Chemscore.DEClash>
0.0249

> <Gold.Chemscore.DEInternal>
2.0670

> <Gold.Chemscore.Rot>
1.2753

> <Gold.Chemscore.Internal.Correction>
   9.000000E+99

> <Gold.Chemscore.Hbonds>
donor molecule, donor type, donor heavy atom, donor atom, acceptor molecule, acceptor atom, score
      L1  H    10    33       P1  7948  0.23
      L1  H    13    34       P1  7948  0.60
      P1  H  6896  6908       L1    18  0.16

> <Gold.Chemscore.Hbond.Weighted>
-8.1755

> <Gold.Chemscore.Metal.Weighted>
-0.0000

> <Gold.Chemscore.Lipo.Weighted>
-8.6592

> <Gold.Chemscore.Internal_Hbond.Weighted>
0.0000

> <Gold.Chemscore.DEClash.Weighted>
0.0249

> <Gold.Chemscore.DEInternal.Weighted>
2.0670

> <Gold.Chemscore.Rot.Weighted>
3.2646

> <Gold.Chemscore.Internal.Correction.Weighted>
   9.000000E+99

> <Gold.Protein.RotatedTorsions>
[ 6907 6896 6895 6894 ] final  170.65 input  -60.11 | X-H torsion
[ 7974 7965 7964 7962 ] final  150.92 input  175.53 | X-H torsion
[ 8008 7997 7996 7995 ] final    7.26 input   59.86 | X-H torsion
[ 10167 10162 10161 10158 ] final  -38.34 input  -65.29 | X-H torsion
[ 10718 10713 10712 10709 ] final   38.10 input   66.30 | X-H torsion
[ 10763 10752 10751 10750 ] final -124.85 input  -60.55 | X-H torsion
[ 11005 11000 10999 10996 ] final  -13.64 input  -57.11 | X-H torsion

> <Gold.Protein.ActiveResidues>
 VAL166  LYS551  ARG553  GLY616  TRP617  ASP618  TYR619  PRO620  LYS621  CYS622 
 ASP623  PHE694  ASN695  SER759  ASP760  ASP761  ALA762  ILE779  LEU786  VAL792 
 PHE793  MET794  SER795  GLU796  ALA797  LYS798  CYS799  TRP800  GLU811  SER814 

> <Gold.Protein.RotatedAtoms>
  151.8127  133.3384  159.3559 H   0  0  0  0  0  0  0  0  0  0  0  0  # atno 6907 bound_to 6896
  150.7321  134.5649  159.5870 H   0  0  0  0  0  0  0  0  0  0  0  0  # atno 6908 bound_to 6896
  152.3063  134.7552  160.0398 H   0  0  0  0  0  0  0  0  0  0  0  0  # atno 6909 bound_to 6896
  144.8329  139.6471  143.6051 H   0  0  0  0  0  0  0  0  0  0  0  0  # atno 7974 bound_to 7965
  154.7516  140.2768  155.6288 H   0  0  0  0  0  0  0  0  0  0  0  0  # atno 8008 bound_to 7997
  156.2897  140.2677  156.2197 H   0  0  0  0  0  0  0  0  0  0  0  0  # atno 8009 bound_to 7997
  155.0130  140.0372  157.2397 H   0  0  0  0  0  0  0  0  0  0  0  0  # atno 8010 bound_to 7997
  140.7094  143.3283  151.2628 H   0  0  0  0  0  0  0  0  0  0  0  0  # atno 10167 bound_to 10162
  157.3548  130.7617  149.7004 H   0  0  0  0  0  0  0  0  0  0  0  0  # atno 10718 bound_to 10713
  154.8729  135.4049  154.3173 H   0  0  0  0  0  0  0  0  0  0  0  0  # atno 10763 bound_to 10752
  153.4007  135.7018  153.6433 H   0  0  0  0  0  0  0  0  0  0  0  0  # atno 10764 bound_to 10752
  153.5177  135.3694  155.2588 H   0  0  0  0  0  0  0  0  0  0  0  0  # atno 10765 bound_to 10752
  140.7782  133.8384  155.9268 H   0  0  0  0  0  0  0  0  0  0  0  0  # atno 11005 bound_to 11000
  146.2631  139.6456  142.9348 LP  0  0  0  0  0  0  0  0  0  0  0  0  # atno 17320 bound_to 7965
  145.4856  141.0438  143.2621 LP  0  0  0  0  0  0  0  0  0  0  0  0  # atno 17321 bound_to 7965
  139.6758  143.9941  152.2780 LP  0  0  0  0  0  0  0  0  0  0  0  0  # atno 17342 bound_to 10162
  139.9554  144.6593  150.8131 LP  0  0  0  0  0  0  0  0  0  0  0  0  # atno 17343 bound_to 10162
  155.9727  130.4130  150.4062 LP  0  0  0  0  0  0  0  0  0  0  0  0  # atno 17370 bound_to 10713
  157.2130  131.0465  151.2588 LP  0  0  0  0  0  0  0  0  0  0  0  0  # atno 17371 bound_to 10713
  140.9508  134.1781  157.4729 LP  0  0  0  0  0  0  0  0  0  0  0  0  # atno 17394 bound_to 11000
  139.8746  134.9908  156.5520 LP  0  0  0  0  0  0  0  0  0  0  0  0  # atno 17395 bound_to 11000

$$$$
