AV-unprocessed.smi:2142|AV-procd|sdf|8721|dock3
  -GOLD-   2272011483D 1   1.00000     0.00000
 Structure written by MMmdl.
 39 40  0  0  0  0  0  0  0  0  2 V2000
  155.9553  137.2867  151.8564 C   0  0  0  0  0  0  0  0  0  0  0  0
  155.7904  138.5587  152.4582 O   0  0  0  0  0  0  0  0  0  0  0  0
  155.7838  138.4924  153.8747 C   0  0  0  0  0  0  0  0  0  0  0  0
  154.3359  138.4525  154.3729 C   0  0  0  0  0  0  0  0  0  0  0  0
  154.3354  138.5031  155.7966 O   0  0  0  0  0  0  0  0  0  0  0  0
  153.2849  137.9196  156.4753 C   0  0  0  0  0  0  0  0  0  0  0  0
  153.2388  138.0394  157.8772 C   0  0  0  0  0  0  0  0  0  0  0  0
  152.1725  137.4378  158.5719 C   0  0  0  0  0  0  0  0  0  0  0  0
  151.1807  136.7297  157.8582 C   0  0  0  0  0  0  0  0  0  0  0  0
  150.1493  136.1411  158.4843 N   0  5  0  0  0  0  0  0  0  0  0  0
  149.4600  136.8058  159.4506 C   0  0  0  0  0  0  0  0  0  0  0  0
  149.5135  138.0254  159.6269 O   0  0  0  0  0  0  0  0  0  0  0  0
  148.5779  136.0469  160.3830 C   0  0  0  0  0  0  0  0  0  0  0  0
  148.1582  136.6132  161.4712 N   0  0  0  0  0  0  0  0  0  0  0  0
  147.3226  135.9698  162.3607 N   0  0  0  0  0  0  0  0  0  0  0  0
  146.7307  136.8340  163.3797 C   0  0  0  0  0  0  0  0  0  0  0  0
  147.0627  134.6392  162.3492 C   0  0  0  0  0  0  0  0  0  0  0  0
  146.3010  134.0836  163.1410 O   0  0  0  0  0  0  0  0  0  0  0  0
  147.8012  133.8090  161.2964 C   0  0  0  0  0  0  0  0  0  0  0  0
  148.1446  134.6326  160.0397 C   0  0  0  0  0  0  0  0  0  0  0  0
  151.3223  136.6805  156.4527 C   0  0  0  0  0  0  0  0  0  0  0  0
  152.3387  137.2518  155.7720 N   0  0  0  0  0  0  0  0  0  0  0  0
  155.9596  137.3925  150.7715 H   0  0  0  0  0  0  0  0  0  0  0  0
  155.1401  136.6140  152.1261 H   0  0  0  0  0  0  0  0  0  0  0  0
  156.8998  136.8292  152.1537 H   0  0  0  0  0  0  0  0  0  0  0  0
  156.3005  137.5858  154.1926 H   0  0  0  0  0  0  0  0  0  0  0  0
  156.3140  139.3412  154.3094 H   0  0  0  0  0  0  0  0  0  0  0  0
  153.7658  139.2788  153.9452 H   0  0  0  0  0  0  0  0  0  0  0  0
  153.8738  137.5202  154.0443 H   0  0  0  0  0  0  0  0  0  0  0  0
  154.0069  138.5791  158.4106 H   0  0  0  0  0  0  0  0  0  0  0  0
  152.1207  137.5165  159.6482 H   0  0  0  0  0  0  0  0  0  0  0  0
  147.0275  136.5103  164.3783 H   0  0  0  0  0  0  0  0  0  0  0  0
  145.6419  136.8070  163.3202 H   0  0  0  0  0  0  0  0  0  0  0  0
  147.0406  137.8740  163.2641 H   0  0  0  0  0  0  0  0  0  0  0  0
  148.7197  133.4416  161.7557 H   0  0  0  0  0  0  0  0  0  0  0  0
  147.2116  132.9323  161.0267 H   0  0  0  0  0  0  0  0  0  0  0  0
  147.2823  134.6732  159.3733 H   0  0  0  0  0  0  0  0  0  0  0  0
  148.9302  134.1076  159.4953 H   0  0  0  0  0  0  0  0  0  0  0  0
  150.5937  136.1582  155.8496 H   0  0  0  0  0  0  0  0  0  0  0  0
  1  2  1  0  0  0  0
  1 23  1  0  0  0  0
  1 24  1  0  0  0  0
  1 25  1  0  0  0  0
  2  3  1  0  0  0  0
  3  4  1  0  0  0  0
  3 26  1  0  0  0  0
  3 27  1  0  0  0  0
  4  5  1  0  0  0  0
  4 28  1  0  0  0  0
  4 29  1  0  0  0  0
  5  6  1  0  0  0  0
  6 22  1  0  0  0  0
  6  7  2  0  0  0  0
  7  8  1  0  0  0  0
  7 30  1  0  0  0  0
  8  9  2  0  0  0  0
  8 31  1  0  0  0  0
  9 10  1  0  0  0  0
  9 21  1  0  0  0  0
 10 11  1  0  0  0  0
 11 12  2  0  0  0  0
 11 13  1  0  0  0  0
 13 20  1  0  0  0  0
 13 14  2  0  0  0  0
 14 15  1  0  0  0  0
 15 16  1  0  0  0  0
 15 17  1  0  0  0  0
 16 32  1  0  0  0  0
 16 33  1  0  0  0  0
 16 34  1  0  0  0  0
 17 18  2  0  0  0  0
 17 19  1  0  0  0  0
 19 20  1  0  0  0  0
 19 35  1  0  0  0  0
 19 36  1  0  0  0  0
 20 37  1  0  0  0  0
 20 38  1  0  0  0  0
 21 22  2  0  0  0  0
 21 39  1  0  0  0  0
M  CHG  1  10  -1
M  END
> <s_m_source_file>
AV-unprocessed.smi

> <i_m_source_file_index>
2142

> <i_lp_mmshare_version>
43012

> <i_f3d_flags>
0

> <s_epik_input>
W0NIM11PW0NIMl1bQ0gyXU9jMVtjSF1bY0hdYyhbY0hdbjEpW05IXUMoPU8pQzI9Tk4oW0NIM10pQyg9TylbQ0gyXVtDSDJdMg==

> <s_epik_cmdline>
J2VwaWtfcHl0aG9uJywgJy1waCcsICc3LjAnLCAnLXRuJywgJzgnLCAnLW1hJywgJzIwMCcsICctbWV0YWxfYmluZGluZycsICctaW1hZScsICc8aW5maWxlLm1hZT4nLCAnLW9tYWUnLCAnPG91dGZpbGUubWFlPic=

> <r_lp_tautomer_probability>
1

> <r_epik_Ionization_Penalty>
5.98992

> <r_epik_Ionization_Penalty_Charging>
5.98968

> <r_epik_Ionization_Penalty_Neutral>
0.000245408

> <r_epik_State_Penalty>
5.98965

> <r_epik_Charging_Adjusted_Penalty>
11.9793

> <i_epik_Tot_Q>
-1

> <i_epik_Tot_abs_Q>
1

> <r_epik_Metal_State_Penalty>
1.94325

> <b_epik_Metal_Only>
1

> <s_epik_Chemistry_Notes>
This compound has an imine and may undergo hydrolysis.

> <s_lp_Force_Field>
OPLS_2005

> <r_lp_Energy>
19.7207

> <b_lp_Chiralities_Consistent>
1

> <s_lp_Variant>
AV-unprocessed.smi:2142-2

> <Gold.Version>
5.8.1

> <Gold.Id.Protein>
6NUR|6NUR_protein|mol2

> <Gold.PLP.Fitness>
44.2840

> <Gold.PLP.PLP>
-31.1009

> <Gold.PLP.part.hbond>
-6.3642

> <Gold.PLP.part.metal>
0.0000

> <Gold.PLP.part.buried>
-0.5791

> <Gold.PLP.part.nonpolar>
-26.3119

> <Gold.PLP.part.repulsive>
0.0889

> <Gold.PLP.ligand.clash>
0.0000

> <Gold.PLP.ligand.torsion>
0.9953

> <Gold.PLP.Chemscore.Hbond>
4.7600

> <Gold.PLP.Chemscore.CHOScore>
0.0000

> <Gold.PLP.Chemscore.Metal>
0.0000

> <Gold.Chemscore.Hbonds>
donor molecule, donor type, donor heavy atom, donor atom, acceptor molecule, acceptor atom, score
      P1  H  6896  6908       L1    10  1.60
      P1  H  6931  6943       L1    14  1.00
      P1  H  7997  8008       L1     5  0.21
      P1  H 10752 10763       L1    22  0.39

> <Gold.PLP.Chemscore.Internal.Correction>
0.8936

> <Gold.Rescore>
     Score         DG    S(hbond)    S(metal)    S(lipo)     H(rot)  DE(clash)    DE(int)     intcor
     10.92     -15.36       1.58        0.00      76.66       1.71       1.97       2.47       ----

> <Gold.Chemscore.Fitness>
10.9151

> <Gold.Chemscore.DG>
-15.3610

> <Gold.Chemscore.ZeroCoef>
-5.4800

> <Gold.Chemscore.Hbond>
1.5828

> <Gold.Chemscore.Metal>
0.0000

> <Gold.Chemscore.Lipo>
76.6550

> <Gold.Chemscore.Internal_Hbond>
0.0000

> <Gold.Chemscore.DEClash>
1.9724

> <Gold.Chemscore.DEInternal>
2.4735

> <Gold.Chemscore.Rot>
1.7087

> <Gold.Chemscore.Internal.Correction>
   9.000000E+99

> <Gold.Chemscore.Hbonds>
donor molecule, donor type, donor heavy atom, donor atom, acceptor molecule, acceptor atom, score
      P1  H  6896  6908       L1    10  0.08
      P1  H  6931  6943       L1    14  0.89
      P1  H  7997  8008       L1     5  0.07
      P1  H 10752 10763       L1    22  0.03

> <Gold.Chemscore.Hbond.Weighted>
-5.2865

> <Gold.Chemscore.Metal.Weighted>
-0.0000

> <Gold.Chemscore.Lipo.Weighted>
-8.9686

> <Gold.Chemscore.Internal_Hbond.Weighted>
0.0000

> <Gold.Chemscore.DEClash.Weighted>
1.9724

> <Gold.Chemscore.DEInternal.Weighted>
2.4735

> <Gold.Chemscore.Rot.Weighted>
4.3742

> <Gold.Chemscore.Internal.Correction.Weighted>
   9.000000E+99

> <Gold.Protein.RotatedTorsions>
[ 6907 6896 6895 6894 ] final -178.40 input  -60.11 | X-H torsion
[ 7974 7965 7964 7962 ] final   84.54 input  175.53 | X-H torsion
[ 8008 7997 7996 7995 ] final  -57.77 input   59.86 | X-H torsion
[ 10167 10162 10161 10158 ] final  148.94 input  -65.29 | X-H torsion
[ 10718 10713 10712 10709 ] final   96.88 input   66.30 | X-H torsion
[ 10763 10752 10751 10750 ] final  105.63 input  -60.55 | X-H torsion
[ 11005 11000 10999 10996 ] final  -25.50 input  -57.11 | X-H torsion

> <Gold.Protein.ActiveResidues>
 VAL166  LYS551  ARG553  GLY616  TRP617  ASP618  TYR619  PRO620  LYS621  CYS622 
 ASP623  PHE694  ASN695  SER759  ASP760  ASP761  ALA762  ILE779  LEU786  VAL792 
 PHE793  MET794  SER795  GLU796  ALA797  LYS798  CYS799  TRP800  GLU811  SER814 

> <Gold.Protein.RotatedAtoms>
  151.6365  133.3328  159.3120 H   0  0  0  0  0  0  0  0  0  0  0  0  # atno 6907 bound_to 6896
  150.8029  134.7139  159.6629 H   0  0  0  0  0  0  0  0  0  0  0  0  # atno 6908 bound_to 6896
  152.4123  134.6107  160.0076 H   0  0  0  0  0  0  0  0  0  0  0  0  # atno 6909 bound_to 6896
  145.5973  139.2347  143.2265 H   0  0  0  0  0  0  0  0  0  0  0  0  # atno 7974 bound_to 7965
  154.4281  140.1099  156.5850 H   0  0  0  0  0  0  0  0  0  0  0  0  # atno 8008 bound_to 7997
  155.6072  140.3494  155.4592 H   0  0  0  0  0  0  0  0  0  0  0  0  # atno 8009 bound_to 7997
  156.0128  140.1223  157.0426 H   0  0  0  0  0  0  0  0  0  0  0  0  # atno 8010 bound_to 7997
  139.4868  144.5640  151.7178 H   0  0  0  0  0  0  0  0  0  0  0  0  # atno 10167 bound_to 10162
  157.6921  131.0592  150.4559 H   0  0  0  0  0  0  0  0  0  0  0  0  # atno 10718 bound_to 10713
  153.3819  135.3904  155.1863 H   0  0  0  0  0  0  0  0  0  0  0  0  # atno 10763 bound_to 10752
  154.8708  135.3727  154.4846 H   0  0  0  0  0  0  0  0  0  0  0  0  # atno 10764 bound_to 10752
  153.5324  135.7085  153.5738 H   0  0  0  0  0  0  0  0  0  0  0  0  # atno 10765 bound_to 10752
  140.8943  133.7567  156.0461 H   0  0  0  0  0  0  0  0  0  0  0  0  # atno 11005 bound_to 11000
  146.1602  140.6799  142.9281 LP  0  0  0  0  0  0  0  0  0  0  0  0  # atno 17320 bound_to 7965
  144.7325  140.4713  143.6927 LP  0  0  0  0  0  0  0  0  0  0  0  0  # atno 17321 bound_to 7965
  140.5215  144.0871  150.6024 LP  0  0  0  0  0  0  0  0  0  0  0  0  # atno 17342 bound_to 10162
  140.3831  143.2792  152.0148 LP  0  0  0  0  0  0  0  0  0  0  0  0  # atno 17343 bound_to 10162
  156.4907  130.4094  149.6408 LP  0  0  0  0  0  0  0  0  0  0  0  0  # atno 17370 bound_to 10713
  156.3420  130.7387  151.2333 LP  0  0  0  0  0  0  0  0  0  0  0  0  # atno 17371 bound_to 10713
  140.8308  134.3180  157.5349 LP  0  0  0  0  0  0  0  0  0  0  0  0  # atno 17394 bound_to 11000
  139.8733  134.9362  156.3654 LP  0  0  0  0  0  0  0  0  0  0  0  0  # atno 17395 bound_to 11000

$$$$
