AV-unprocessed.smi:1432|AV-procd|sdf|5834|dock10
  -GOLD-   22720 5493D 1   1.00000     0.00000
 Structure written by MMmdl.
 47 48  0  0  0  0  0  0  0  0  2 V2000
  144.0724  145.3135  153.8068 C   0  0  0  0  0  0  0  0  0  0  0  0
  143.5987  144.2990  154.8689 C   0  0  1  0  0  0  0  0  0  0  0  0
  142.0646  144.4285  155.0187 C   0  0  0  0  0  0  0  0  0  0  0  0
  141.4894  143.4378  156.0350 C   0  0  0  0  0  0  0  0  0  0  0  0
  141.9115  142.0177  155.6573 C   0  0  0  0  0  0  0  0  0  0  0  0
  143.4396  141.9316  155.5600 C   0  0  0  0  0  0  0  0  0  0  0  0
  143.9793  142.8844  154.5494 N   0  3  2  0  0  0  0  0  0  0  0  0
  145.4358  142.6553  154.3173 C   0  0  0  0  0  0  0  0  0  0  0  0
  146.2278  142.3886  155.6163 C   0  0  0  0  0  0  0  0  0  0  0  0
  147.6551  142.2163  155.3562 N   0  0  0  0  0  0  0  0  0  0  0  0
  148.3669  141.1111  155.6248 C   0  0  0  0  0  0  0  0  0  0  0  0
  147.9003  140.1285  156.2012 O   0  0  0  0  0  0  0  0  0  0  0  0
  149.8271  141.1106  155.1565 C   0  0  0  0  0  0  0  0  0  0  0  0
  150.7725  141.0650  156.2851 N   0  0  0  0  0  0  0  0  0  0  0  0
  150.8563  142.2069  157.1060 C   0  0  0  0  0  0  0  0  0  0  0  0
  151.6655  142.2786  158.1806 C   0  0  0  0  0  0  0  0  0  0  0  0
  151.7745  143.5405  159.0224 C   0  0  0  0  0  0  0  0  0  0  0  0
  152.5925  143.3538  160.0585 F   0  0  0  0  0  0  0  0  0  0  0  0
  152.2359  144.5647  158.3036 F   0  0  0  0  0  0  0  0  0  0  0  0
  150.5747  143.8726  159.4965 F   0  0  0  0  0  0  0  0  0  0  0  0
  152.4917  141.1174  158.4452 C   0  0  0  0  0  0  0  0  0  0  0  0
  152.4281  140.0191  157.6674 C   0  0  0  0  0  0  0  0  0  0  0  0
  151.5257  139.9474  156.5168 C   0  0  0  0  0  0  0  0  0  0  0  0
  151.4468  138.9445  155.8063 O   0  0  0  0  0  0  0  0  0  0  0  0
  143.6145  146.2894  153.9708 H   0  0  0  0  0  0  0  0  0  0  0  0
  143.8040  144.9930  152.7998 H   0  0  0  0  0  0  0  0  0  0  0  0
  145.1480  145.4813  153.8388 H   0  0  0  0  0  0  0  0  0  0  0  0
  144.0594  144.5643  155.8220 H   0  0  0  0  0  0  0  0  0  0  0  0
  141.8027  145.4431  155.3217 H   0  0  0  0  0  0  0  0  0  0  0  0
  141.5846  144.2669  154.0528 H   0  0  0  0  0  0  0  0  0  0  0  0
  141.8496  143.6803  157.0357 H   0  0  0  0  0  0  0  0  0  0  0  0
  140.4020  143.5144  156.0647 H   0  0  0  0  0  0  0  0  0  0  0  0
  141.5430  141.3090  156.3997 H   0  0  0  0  0  0  0  0  0  0  0  0
  141.4626  141.7339  154.7040 H   0  0  0  0  0  0  0  0  0  0  0  0
  143.8880  142.1415  156.5323 H   0  0  0  0  0  0  0  0  0  0  0  0
  143.7134  140.9079  155.3105 H   0  0  0  0  0  0  0  0  0  0  0  0
  145.5996  141.7851  153.6877 H   0  0  0  0  0  0  0  0  0  0  0  0
  145.8631  143.4993  153.7741 H   0  0  0  0  0  0  0  0  0  0  0  0
  146.1106  143.2389  156.2882 H   0  0  0  0  0  0  0  0  0  0  0  0
  145.8228  141.5323  156.1567 H   0  0  0  0  0  0  0  0  0  0  0  0
  148.1285  142.9815  154.8970 H   0  0  0  0  0  0  0  0  0  0  0  0
  150.0081  140.2638  154.4910 H   0  0  0  0  0  0  0  0  0  0  0  0
  149.9870  141.9987  154.5436 H   0  0  0  0  0  0  0  0  0  0  0  0
  150.2143  143.0236  156.8089 H   0  0  0  0  0  0  0  0  0  0  0  0
  153.1702  141.1265  159.2856 H   0  0  0  0  0  0  0  0  0  0  0  0
  153.0563  139.1710  157.8968 H   0  0  0  0  0  0  0  0  0  0  0  0
  143.5223  142.6688  153.6743 H   0  0  0  0  0  0  0  0  0  0  0  0
  1  2  1  0  0  0  0
  1 25  1  0  0  0  0
  1 26  1  0  0  0  0
  1 27  1  0  0  0  0
  2  7  1  0  0  0  0
  2  3  1  0  0  0  0
  2 28  1  0  0  0  0
  3  4  1  0  0  0  0
  3 29  1  0  0  0  0
  3 30  1  0  0  0  0
  4  5  1  0  0  0  0
  4 31  1  0  0  0  0
  4 32  1  0  0  0  0
  5  6  1  0  0  0  0
  5 33  1  0  0  0  0
  5 34  1  0  0  0  0
  6  7  1  0  0  0  0
  6 35  1  0  0  0  0
  6 36  1  0  0  0  0
  7  8  1  0  0  0  0
  7 47  1  0  0  0  0
  8  9  1  0  0  0  0
  8 37  1  0  0  0  0
  8 38  1  0  0  0  0
  9 10  1  0  0  0  0
  9 39  1  0  0  0  0
  9 40  1  0  0  0  0
 10 11  1  0  0  0  0
 10 41  1  0  0  0  0
 11 12  2  0  0  0  0
 11 13  1  0  0  0  0
 13 14  1  0  0  0  0
 13 42  1  0  0  0  0
 13 43  1  0  0  0  0
 14 23  1  0  0  0  0
 14 15  1  0  0  0  0
 15 16  2  0  0  0  0
 15 44  1  0  0  0  0
 16 17  1  0  0  0  0
 16 21  1  0  0  0  0
 17 18  1  0  0  0  0
 17 19  1  0  0  0  0
 17 20  1  0  0  0  0
 21 22  2  0  0  0  0
 21 45  1  0  0  0  0
 22 23  1  0  0  0  0
 22 46  1  0  0  0  0
 23 24  2  0  0  0  0
M  CHG  1   7   1
M  END
> <s_m_source_file>
AV-unprocessed.smi

> <i_m_source_file_index>
1432

> <i_lp_mmshare_version>
43012

> <i_f3d_flags>
0

> <s_epik_input>
W0NIM11bQ0BASF0xW0NIMl1bQ0gyXVtDSDJdW0NIMl1OMVtDSDJdW0NIMl1bTkhdQyg9TylbQ0gyXW4yW2NIXWMoQyhGKShGKUYpW2NIXVtjSF1jMj1P

> <s_epik_cmdline>
J2VwaWtfcHl0aG9uJywgJy1waCcsICc3LjAnLCAnLXRuJywgJzgnLCAnLW1hJywgJzIwMCcsICctbWV0YWxfYmluZGluZycsICctaW1hZScsICc8aW5maWxlLm1hZT4nLCAnLW9tYWUnLCAnPG91dGZpbGUubWFlPic=

> <r_lp_tautomer_probability>
1

> <r_epik_Ionization_Penalty>
0.00237222

> <r_epik_Ionization_Penalty_Charging>
0.00237213

> <r_epik_Ionization_Penalty_Neutral>
8.2065e-08

> <r_epik_State_Penalty>
0.00163922

> <r_epik_Charging_Adjusted_Penalty>
0.00401135

> <i_epik_Tot_Q>
1

> <i_epik_Tot_abs_Q>
1

> <r_epik_Metal_State_Penalty>
-0

> <b_epik_Metal_Only>
0

> <s_lp_Force_Field>
OPLS_2005

> <r_lp_Energy>
36.6546

> <b_lp_Chiralities_Consistent>
1

> <s_lp_Variant>
AV-unprocessed.smi:1432-4

> <Gold.Version>
5.8.1

> <Gold.Id.Protein>
6NUR|6NUR_protein|mol2

> <Gold.PLP.Fitness>
55.0337

> <Gold.PLP.PLP>
-45.5222

> <Gold.PLP.part.hbond>
-2.0000

> <Gold.PLP.part.metal>
0.0000

> <Gold.PLP.part.buried>
-5.0696

> <Gold.PLP.part.nonpolar>
-39.1269

> <Gold.PLP.part.repulsive>
0.1385

> <Gold.PLP.ligand.clash>
0.0000

> <Gold.PLP.ligand.torsion>
0.4041

> <Gold.PLP.Chemscore.Hbond>
2.4000

> <Gold.PLP.Chemscore.CHOScore>
1.0000

> <Gold.PLP.Chemscore.Metal>
0.0000

> <Gold.Chemscore.Hbonds>
donor molecule, donor type, donor heavy atom, donor atom, acceptor molecule, acceptor atom, score
      L1  H     7    47       P1 10174  1.40
      L1  H    10    41       P1  8028  0.62
      L1  C    15    44       P1  8028  1.00

> <Gold.PLP.Chemscore.Internal.Correction>
0.1197

> <Gold.Rescore>
     Score         DG    S(hbond)    S(metal)    S(lipo)     H(rot)  DE(clash)    DE(int)     intcor
     13.76     -14.15       1.23        0.00      84.58       2.08       0.18       0.22       ----

> <Gold.Chemscore.Fitness>
13.7602

> <Gold.Chemscore.DG>
-14.1535

> <Gold.Chemscore.ZeroCoef>
-5.4800

> <Gold.Chemscore.Hbond>
1.2253

> <Gold.Chemscore.Metal>
0.0000

> <Gold.Chemscore.Lipo>
84.5800

> <Gold.Chemscore.Internal_Hbond>
0.0000

> <Gold.Chemscore.DEClash>
0.1771

> <Gold.Chemscore.DEInternal>
0.2162

> <Gold.Chemscore.Rot>
2.0762

> <Gold.Chemscore.Internal.Correction>
   9.000000E+99

> <Gold.Chemscore.Hbonds>
donor molecule, donor type, donor heavy atom, donor atom, acceptor molecule, acceptor atom, score
      L1  H     7    47       P1 10174  0.07
      L1  H    10    41       P1  8028  0.57

> <Gold.Chemscore.Hbond.Weighted>
-4.0926

> <Gold.Chemscore.Metal.Weighted>
-0.0000

> <Gold.Chemscore.Lipo.Weighted>
-9.8959

> <Gold.Chemscore.Internal_Hbond.Weighted>
0.0000

> <Gold.Chemscore.DEClash.Weighted>
0.1771

> <Gold.Chemscore.DEInternal.Weighted>
0.2162

> <Gold.Chemscore.Rot.Weighted>
5.3150

> <Gold.Chemscore.Internal.Correction.Weighted>
   9.000000E+99

> <Gold.Protein.RotatedTorsions>
[ 6907 6896 6895 6894 ] final  -51.80 input  -60.11 | X-H torsion
[ 7974 7965 7964 7962 ] final   -3.94 input  175.53 | X-H torsion
[ 8008 7997 7996 7995 ] final   97.36 input   59.86 | X-H torsion
[ 10167 10162 10161 10158 ] final   35.29 input  -65.29 | X-H torsion
[ 10718 10713 10712 10709 ] final   -5.88 input   66.30 | X-H torsion
[ 10763 10752 10751 10750 ] final  158.69 input  -60.55 | X-H torsion
[ 11005 11000 10999 10996 ] final   64.89 input  -57.11 | X-H torsion

> <Gold.Protein.ActiveResidues>
 VAL166  LYS551  ARG553  GLY616  TRP617  ASP618  TYR619  PRO620  LYS621  CYS622 
 ASP623  PHE694  ASN695  SER759  ASP760  ASP761  ALA762  ILE779  LEU786  VAL792 
 PHE793  MET794  SER795  GLU796  ALA797  LYS798  CYS799  TRP800  GLU811  SER814 

> <Gold.Protein.RotatedAtoms>
  150.8578  134.7921  159.7058 H   0  0  0  0  0  0  0  0  0  0  0  0  # atno 6907 bound_to 6896
  152.4624  134.5150  159.9775 H   0  0  0  0  0  0  0  0  0  0  0  0  # atno 6908 bound_to 6896
  151.5260  133.3419  159.2945 H   0  0  0  0  0  0  0  0  0  0  0  0  # atno 6909 bound_to 6896
  146.2381  140.1797  142.8332 H   0  0  0  0  0  0  0  0  0  0  0  0  # atno 7974 bound_to 7965
  156.0893  140.3259  155.7794 H   0  0  0  0  0  0  0  0  0  0  0  0  # atno 8008 bound_to 7997
  155.5024  140.0570  157.2954 H   0  0  0  0  0  0  0  0  0  0  0  0  # atno 8009 bound_to 7997
  154.4628  140.1975  156.0215 H   0  0  0  0  0  0  0  0  0  0  0  0  # atno 8010 bound_to 7997
  140.4235  144.1425  150.6150 H   0  0  0  0  0  0  0  0  0  0  0  0  # atno 10167 bound_to 10162
  156.7400  130.5207  149.5826 H   0  0  0  0  0  0  0  0  0  0  0  0  # atno 10718 bound_to 10713
  154.2201  135.2782  155.2928 H   0  0  0  0  0  0  0  0  0  0  0  0  # atno 10763 bound_to 10752
  154.5709  135.5619  153.7097 H   0  0  0  0  0  0  0  0  0  0  0  0  # atno 10764 bound_to 10752
  153.0044  135.6321  154.2341 H   0  0  0  0  0  0  0  0  0  0  0  0  # atno 10765 bound_to 10752
  139.9930  134.6562  156.0059 H   0  0  0  0  0  0  0  0  0  0  0  0  # atno 11005 bound_to 11000
  144.9945  140.8576  143.5319 LP  0  0  0  0  0  0  0  0  0  0  0  0  # atno 17320 bound_to 7965
  145.1807  139.2353  143.5294 LP  0  0  0  0  0  0  0  0  0  0  0  0  # atno 17321 bound_to 7965
  140.4507  143.2488  151.9352 LP  0  0  0  0  0  0  0  0  0  0  0  0  # atno 17342 bound_to 10162
  139.4783  144.5565  151.8305 LP  0  0  0  0  0  0  0  0  0  0  0  0  # atno 17343 bound_to 10162
  156.1471  130.6284  151.0545 LP  0  0  0  0  0  0  0  0  0  0  0  0  # atno 17370 bound_to 10713
  157.6822  131.0835  150.7339 LP  0  0  0  0  0  0  0  0  0  0  0  0  # atno 17371 bound_to 10713
  141.1581  133.6541  156.4228 LP  0  0  0  0  0  0  0  0  0  0  0  0  # atno 17394 bound_to 11000
  140.4872  134.6609  157.5196 LP  0  0  0  0  0  0  0  0  0  0  0  0  # atno 17395 bound_to 11000

$$$$
