#       Name:                AV-unprocessed.smi:1456
#       Creating user name   scv26
#       Creation time:       Fri Mar 27 06:00:24 2020


#       File generated by GOLD software.
#

@<TRIPOS>MOLECULE
AV-unprocessed.smi:1456
    45    46     1
SMALL
NO_CHARGES


@<TRIPOS>ATOM
      1 ****         0.1544  -1.4641   2.2403 C.3            1 S1                 0.0000
      2 ****        -1.2917  -1.2362   1.7463 C.3            1 S1                 0.0000
      3 ****        -2.2209  -1.8052   2.8366 C.3            1 S1                 0.0000
      4 ****        -1.6295   0.2673   1.5701 C.3            1 S1                 0.0000
      5 ****        -1.1031   0.9062   0.2754 C.3            1 S1                 0.0000
      6 ****         0.3309   1.1734   0.3494 N.am           1 S1                 0.0000
      7 ****         1.0371   1.9842  -0.4503 C.2            1 S1                 0.0000
      8 ****         0.4698   2.6210  -1.3403 O.2            1 S1                 0.0000
      9 ****         2.3597   1.9934  -0.1716 N.pl3          1 S1                -1.0000
     10 ****         3.1966   2.7388  -0.9111 C.2            1 S1                 0.0000
     11 ****         3.6680   3.9240  -0.5077 N.2            1 S1                 0.0000
     12 ****         4.5284   4.5220  -1.4305 C.2            1 S1                 0.0000
     13 ****         4.7239   3.7698  -2.5585 C.2            1 S1                 0.0000
     14 ****         3.8283   2.2788  -2.4950 S.3            1 S1                 0.0000
     15 ****        -1.5078   0.0482  -0.9388 C.3            1 S1                 0.0000
     16 ****        -1.1631  -1.4581  -0.8239 C.3            1 S1                 0.0000
     17 ****        -1.9841  -2.2137  -1.8870 C.3            1 S1                 0.0000
     18 ****         0.3235  -1.7488  -1.1287 C.3            1 S1                 0.0000
     19 ****        -1.5705  -2.0060   0.5008 N.4            1 S1                 1.0000
     20 ****         0.3028  -1.0175   3.2243 H              1 S1                 0.0000
     21 ****         0.9129  -1.0317   1.5965 H              1 S1                 0.0000
     22 ****         0.3779  -2.5275   2.3322 H              1 S1                 0.0000
     23 ****        -2.0912  -1.2808   3.7843 H              1 S1                 0.0000
     24 ****        -2.0237  -2.8626   3.0183 H              1 S1                 0.0000
     25 ****        -3.2713  -1.7155   2.5563 H              1 S1                 0.0000
     26 ****        -2.7148   0.3812   1.5599 H              1 S1                 0.0000
     27 ****        -1.2891   0.8371   2.4361 H              1 S1                 0.0000
     28 ****        -1.5904   1.8781   0.1764 H              1 S1                 0.0000
     29 ****         0.8459   0.6872   1.0687 H              1 S1                 0.0000
     30 ****         4.9584   5.4855  -1.2010 H              1 S1                 0.0000
     31 ****         5.3366   3.9987  -3.4172 H              1 S1                 0.0000
     32 ****        -2.5889   0.1486  -1.0469 H              1 S1                 0.0000
     33 ****        -1.0928   0.4605  -1.8594 H              1 S1                 0.0000
     34 ****        -1.7655  -1.8495  -2.8917 H              1 S1                 0.0000
     35 ****        -3.0563  -2.0959  -1.7248 H              1 S1                 0.0000
     36 ****        -1.7693  -3.2832  -1.8729 H              1 S1                 0.0000
     37 ****         0.5650  -1.4891  -2.1602 H              1 S1                 0.0000
     38 ****         0.5550  -2.8067  -0.9993 H              1 S1                 0.0000
     39 ****         1.0170  -1.1887  -0.5106 H              1 S1                 0.0000
     40 ****        -1.1939  -2.9378   0.5997 H              1 S1                 0.0000
     41 ****        -2.5762  -2.0847   0.4568 H              1 S1                 0.0000
     42 ****        -0.5183   2.5328  -1.4661 LP             1 S1                 0.0000
     43 ****         0.9978   3.2258  -1.9366 LP             1 S1                 0.0000
     44 ****         2.7150   1.4450   0.5854 LP             1 S1                 0.0000
     45 ****         3.4277   4.3408   0.3689 LP             1 S1                 0.0000
@<TRIPOS>BOND
    1    1    2 1     
    2    1   20 1     
    3    1   21 1     
    4    1   22 1     
    5    2   19 1     
    6    2    3 1     
    7    2    4 1     
    8    3   23 1     
    9    3   24 1     
   10    3   25 1     
   11    4    5 1     
   12    4   26 1     
   13    4   27 1     
   14    5    6 1     
   15    5   15 1     
   16    5   28 1     
   17    6    7 am    
   18    6   29 1     
   19    7    8 2     
   20    7    9 1     
   21    9   10 1     
   22   10   14 1     
   23   10   11 2     
   24   11   12 1     
   25   12   13 2     
   26   12   30 1     
   27   13   14 1     
   28   13   31 1     
   29   15   16 1     
   30   15   32 1     
   31   15   33 1     
   32   16   17 1     
   33   16   18 1     
   34   16   19 1     
   35   17   34 1     
   36   17   35 1     
   37   17   36 1     
   38   18   37 1     
   39   18   38 1     
   40   18   39 1     
   41   19   40 1     
   42   19   41 1     
   43    8   42 1     
   44    8   43 1     
   45    9   44 1     
   46   11   45 1     
@<TRIPOS>SUBSTRUCTURE
      1 S1             1
@<TRIPOS>SET
LONE_PAIRS      STATIC     ATOMS    <user>   **** ""
4 42 43 44 45
DONOR_HYDROGENS      STATIC     ATOMS    <user>   **** ""
3 29 40 41
ATOM$BLUE        STATIC     ATOMS    COLORGROUP SYSTEM
4 42 43 44 45
ATOM$RED        STATIC     ATOMS    COLORGROUP SYSTEM
3 29 40 41
