#       Name:                AV-unprocessed.smi:266
#       Creating user name   scv26
#       Creation time:       Thu Mar 26 21:25:15 2020


#       File generated by GOLD software.
#

@<TRIPOS>MOLECULE
AV-unprocessed.smi:266
    60    63     1
SMALL
NO_CHARGES


@<TRIPOS>ATOM
      1 ****        -6.3277  -0.8272  -1.1527 C.3            1 S1                 0.0000
      2 ****        -5.5643   0.5035  -1.2384 C.3            1 S1                 0.0000
      3 ****        -5.9163   1.2682  -0.0871 O.3            1 S1                 0.0000
      4 ****        -4.8052   2.0539   0.3069 C.3            1 S1                 0.0000
      5 ****        -3.6358   1.1100   0.0744 C.3            1 S1                 0.0000
      6 ****        -4.0114   0.4194  -1.2333 C.3            1 S1                 0.0000
      7 ****        -3.5342   1.2252  -2.2988 O.3            1 S1                 0.0000
      8 ****        -3.3916  -0.9939  -1.3958 C.3            1 S1                 0.0000
      9 ****        -1.9419  -1.0038  -1.2683 N.pl3          1 S1                 0.0000
     10 ****        -1.0222  -0.7322  -2.2571 C.2            1 S1                 0.0000
     11 ****         0.2285  -0.7927  -1.8877 N.2            1 S1                 0.0000
     12 ****         0.1653  -1.1421  -0.5446 C.ar           1 S1                 0.0000
     13 ****         1.1356  -1.3686   0.4703 C.ar           1 S1                 0.0000
     14 ****         2.4666  -1.2563   0.2899 N.3            1 S1                 0.0000
     15 ****         3.0190  -2.2704  -0.5983 C.3            1 S1                 0.0000
     16 ****         2.9050   0.1229   0.0993 C.3            1 S1                 0.0000
     17 ****         4.3206   0.3679   0.6483 C.3            1 S1                 0.0000
     18 ****         4.8259   1.7887   0.3321 C.3            1 S1                 0.0000
     19 ****         6.0918   2.0518   1.1532 C.3            1 S1                 0.0000
     20 ****         5.8404   1.1687   2.7373 S.o2           1 S1                 0.0000
     21 ****         6.9921   0.2879   2.9835 O.2            1 S1                 0.0000
     22 ****         5.3811   2.1195   3.7611 O.2            1 S1                 0.0000
     23 ****         4.4120   0.1689   2.1712 C.3            1 S1                 0.0000
     24 ****         0.7010  -1.7002   1.7102 N.ar           1 S1                 0.0000
     25 ****        -0.6097  -1.8091   1.9481 C.ar           1 S1                 0.0000
     26 ****        -1.6294  -1.6262   1.1059 N.ar           1 S1                 0.0000
     27 ****        -1.1910  -1.2872  -0.1409 C.ar           1 S1                 0.0000
     28 ****        -6.1140  -1.4660  -2.0096 H              1 S1                 0.0000
     29 ****        -7.4035  -0.6519  -1.1377 H              1 S1                 0.0000
     30 ****        -6.0751  -1.3753  -0.2445 H              1 S1                 0.0000
     31 ****        -5.9151   1.0449  -2.1190 H              1 S1                 0.0000
     32 ****        -4.7320   2.9372  -0.3294 H              1 S1                 0.0000
     33 ****        -4.8878   2.3782   1.3444 H              1 S1                 0.0000
     34 ****        -2.6704   1.6174   0.0457 H              1 S1                 0.0000
     35 ****        -3.6064   0.3840   0.8876 H              1 S1                 0.0000
     36 ****        -3.8566   0.8681  -3.1121 H              1 S1                 0.0000
     37 ****        -3.7905  -1.6759  -0.6448 H              1 S1                 0.0000
     38 ****        -3.6527  -1.4179  -2.3664 H              1 S1                 0.0000
     39 ****        -1.3108  -0.4761  -3.2663 H              1 S1                 0.0000
     40 ****         2.5083  -3.2267  -0.4746 H              1 S1                 0.0000
     41 ****         4.0746  -2.4294  -0.3798 H              1 S1                 0.0000
     42 ****         2.9278  -1.9656  -1.6414 H              1 S1                 0.0000
     43 ****         2.8804   0.3537  -0.9666 H              1 S1                 0.0000
     44 ****         2.2067   0.8116   0.5787 H              1 S1                 0.0000
     45 ****         5.0151  -0.3284   0.1767 H              1 S1                 0.0000
     46 ****         5.0075   1.9249  -0.7343 H              1 S1                 0.0000
     47 ****         4.0632   2.5134   0.6199 H              1 S1                 0.0000
     48 ****         6.9668   1.6242   0.6634 H              1 S1                 0.0000
     49 ****         6.2738   3.1113   1.3342 H              1 S1                 0.0000
     50 ****         3.5205   0.5484   2.6718 H              1 S1                 0.0000
     51 ****         4.5475  -0.8748   2.4548 H              1 S1                 0.0000
     52 ****        -0.8803  -2.0776   2.9586 H              1 S1                 0.0000
     53 ****        -6.1718   0.6525   0.6583 LP             1 S1                 0.0000
     54 ****        -6.6880   1.8656  -0.3053 LP             1 S1                 0.0000
     55 ****        -2.5342   1.2227  -2.3020 LP             1 S1                 0.0000
     56 ****        -3.8648   2.1624  -2.1872 LP             1 S1                 0.0000
     57 ****         1.0433  -0.6261  -2.4429 LP             1 S1                 0.0000
     58 ****         2.9066  -1.4926   1.1563 LP             1 S1                 0.0000
     59 ****         1.3591  -1.8630   2.4453 LP             1 S1                 0.0000
     60 ****        -2.5923  -1.7251   1.3571 LP             1 S1                 0.0000
@<TRIPOS>BOND
    1    1    2 1     
    2    1   28 1     
    3    1   29 1     
    4    1   30 1     
    5    2    6 1     
    6    2    3 1     
    7    2   31 1     
    8    3    4 1     
    9    4    5 1     
   10    4   32 1     
   11    4   33 1     
   12    5    6 1     
   13    5   34 1     
   14    5   35 1     
   15    6    7 1     
   16    6    8 1     
   17    7   36 1     
   18    8    9 1     
   19    8   37 1     
   20    8   38 1     
   21    9   27 1     
   22    9   10 1     
   23   10   11 2     
   24   10   39 1     
   25   11   12 1     
   26   12   27 ar    
   27   12   13 ar    
   28   13   14 1     
   29   13   24 ar    
   30   14   15 1     
   31   14   16 1     
   32   15   40 1     
   33   15   41 1     
   34   15   42 1     
   35   16   17 1     
   36   16   43 1     
   37   16   44 1     
   38   17   23 1     
   39   17   18 1     
   40   17   45 1     
   41   18   19 1     
   42   18   46 1     
   43   18   47 1     
   44   19   20 1     
   45   19   48 1     
   46   19   49 1     
   47   20   21 2     
   48   20   22 2     
   49   20   23 1     
   50   23   50 1     
   51   23   51 1     
   52   24   25 ar    
   53   25   26 ar    
   54   25   52 1     
   55   26   27 ar    
   56    3   53 1     
   57    3   54 1     
   58    7   55 1     
   59    7   56 1     
   60   11   57 1     
   61   14   58 1     
   62   24   59 1     
   63   26   60 1     
@<TRIPOS>SUBSTRUCTURE
      1 S1             1
@<TRIPOS>SET
LONE_PAIRS      STATIC     ATOMS    <user>   **** ""
10 53 54 55 56 57 58 21 22 59 60
DONOR_HYDROGENS      STATIC     ATOMS    <user>   **** ""
1 36
ATOM$BLUE        STATIC     ATOMS    COLORGROUP SYSTEM
10 53 54 55 56 57 58 21 22 59 60
ATOM$RED        STATIC     ATOMS    COLORGROUP SYSTEM
1 36
