AV-unprocessed.smi:2039|AV-procd|sdf|8285|dock6
  -GOLD-   2272010553D 1   1.00000     0.00000
 Structure written by MMmdl.
 32 33  0  0  0  0  0  0  0  0  2 V2000
  154.3840  136.2701  162.1872 C   0  0  0  0  0  0  0  0  0  0  0  0
  153.9177  137.0925  161.0353 C   0  0  0  0  0  0  0  0  0  0  0  0
  153.0614  136.6329  160.1199 N   0  0  0  0  0  0  0  0  0  0  0  0
  152.7756  137.5819  159.1488 N   0  0  0  0  0  0  0  0  0  0  0  0
  153.4106  138.7458  159.3478 C   0  0  0  0  0  0  0  0  0  0  0  0
  153.2715  139.7937  158.5186 N   0  5  0  0  0  0  0  0  0  0  0  0
  152.0382  140.1826  158.1214 C   0  0  0  0  0  0  0  0  0  0  0  0
  151.3573  141.0780  158.6270 O   0  0  0  0  0  0  0  0  0  0  0  0
  151.5655  139.4917  157.0736 N   0  0  0  0  0  0  0  0  0  0  0  0
  150.2718  139.6887  156.4246 C   0  0  2  0  0  0  0  0  0  0  0  0
  150.2003  138.9001  155.1015 C   0  0  0  0  0  0  0  0  0  0  0  0
  148.8674  139.1420  154.3717 C   0  0  0  0  0  0  0  0  0  0  0  0
  148.5876  140.6399  154.1439 C   0  0  2  0  0  0  0  0  0  0  0  0
  149.4741  141.1584  153.1720 O   0  0  0  0  0  0  0  0  0  0  0  0
  148.7079  141.4451  155.4515 C   0  0  0  0  0  0  0  0  0  0  0  0
  150.0428  141.1900  156.1736 C   0  0  0  0  0  0  0  0  0  0  0  0
  154.4477  138.7457  160.7742 S   0  0  0  0  0  0  0  0  0  0  0  0
  153.6209  136.2539  162.9653 H   0  0  0  0  0  0  0  0  0  0  0  0
  155.3011  136.6870  162.6037 H   0  0  0  0  0  0  0  0  0  0  0  0
  154.5814  135.2470  161.8659 H   0  0  0  0  0  0  0  0  0  0  0  0
  152.1577  138.7674  156.6947 H   0  0  0  0  0  0  0  0  0  0  0  0
  149.4830  139.3348  157.0913 H   0  0  0  0  0  0  0  0  0  0  0  0
  151.0290  139.1898  154.4537 H   0  0  0  0  0  0  0  0  0  0  0  0
  150.3200  137.8332  155.2924 H   0  0  0  0  0  0  0  0  0  0  0  0
  148.8568  138.6051  153.4225 H   0  0  0  0  0  0  0  0  0  0  0  0
  148.0593  138.7175  154.9688 H   0  0  0  0  0  0  0  0  0  0  0  0
  147.5790  140.7567  153.7463 H   0  0  0  0  0  0  0  0  0  0  0  0
  149.6849  140.4702  152.5599 H   0  0  0  0  0  0  0  0  0  0  0  0
  148.5864  142.5104  155.2525 H   0  0  0  0  0  0  0  0  0  0  0  0
  147.8897  141.1656  156.1163 H   0  0  0  0  0  0  0  0  0  0  0  0
  150.0546  141.7315  157.1202 H   0  0  0  0  0  0  0  0  0  0  0  0
  150.8625  141.5952  155.5783 H   0  0  0  0  0  0  0  0  0  0  0  0
  1  2  1  0  0  0  0
  1 18  1  0  0  0  0
  1 19  1  0  0  0  0
  1 20  1  0  0  0  0
  2 17  1  0  0  0  0
  2  3  2  0  0  0  0
  3  4  1  0  0  0  0
  4  5  2  0  0  0  0
  5  6  1  0  0  0  0
  5 17  1  0  0  0  0
  6  7  1  0  0  0  0
  7  8  2  0  0  0  0
  7  9  1  0  0  0  0
  9 10  1  0  0  0  0
  9 21  1  0  0  0  0
 10 16  1  0  0  0  0
 10 11  1  0  0  0  0
 10 22  1  0  0  0  0
 11 12  1  0  0  0  0
 11 23  1  0  0  0  0
 11 24  1  0  0  0  0
 12 13  1  0  0  0  0
 12 25  1  0  0  0  0
 12 26  1  0  0  0  0
 13 14  1  0  0  0  0
 13 15  1  0  0  0  0
 13 27  1  0  0  0  0
 14 28  1  0  0  0  0
 15 16  1  0  0  0  0
 15 29  1  0  0  0  0
 15 30  1  0  0  0  0
 16 31  1  0  0  0  0
 16 32  1  0  0  0  0
M  CHG  1   6  -1
M  END
> <s_m_source_file>
AV-unprocessed.smi

> <i_m_source_file_index>
2039

> <i_lp_mmshare_version>
43012

> <i_f3d_flags>
0

> <s_epik_input>
W0NIM11jMW5uYyhzMSlbTkhdQyg9TylbTkhdW0NAQEhdMltDSDJdW0NIMl1bQ0BASF0oW09IXSlbQ0gyXVtDSDJdMg==

> <s_epik_cmdline>
J2VwaWtfcHl0aG9uJywgJy1waCcsICc3LjAnLCAnLXRuJywgJzgnLCAnLW1hJywgJzIwMCcsICctbWV0YWxfYmluZGluZycsICctaW1hZScsICc8aW5maWxlLm1hZT4nLCAnLW9tYWUnLCAnPG91dGZpbGUubWFlPic=

> <r_lp_tautomer_probability>
1

> <r_epik_Ionization_Penalty>
4.54927

> <r_epik_Ionization_Penalty_Charging>
4.39069

> <r_epik_Ionization_Penalty_Neutral>
0.158583

> <r_epik_State_Penalty>
4.39033

> <r_epik_Charging_Adjusted_Penalty>
8.78102

> <i_epik_Tot_Q>
-1

> <i_epik_Tot_abs_Q>
1

> <r_epik_Metal_State_Penalty>
0.767247

> <b_epik_Metal_Only>
1

> <s_lp_Force_Field>
OPLS_2005

> <r_lp_Energy>
8.24255

> <b_lp_Chiralities_Consistent>
1

> <s_lp_Variant>
AV-unprocessed.smi:2039-4

> <Gold.Version>
5.8.1

> <Gold.Id.Protein>
6NUR|6NUR_protein|mol2

> <Gold.PLP.Fitness>
36.4482

> <Gold.PLP.PLP>
-24.5068

> <Gold.PLP.part.hbond>
-4.3376

> <Gold.PLP.part.metal>
0.0000

> <Gold.PLP.part.buried>
-3.4607

> <Gold.PLP.part.nonpolar>
-16.8179

> <Gold.PLP.part.repulsive>
0.0726

> <Gold.PLP.ligand.clash>
0.0000

> <Gold.PLP.ligand.torsion>
1.2728

> <Gold.PLP.Chemscore.Hbond>
4.8268

> <Gold.PLP.Chemscore.CHOScore>
0.0000

> <Gold.PLP.Chemscore.Metal>
0.0000

> <Gold.Chemscore.Hbonds>
donor molecule, donor type, donor heavy atom, donor atom, acceptor molecule, acceptor atom, score
      L1  H    14    28       P1  7957  0.74
      P1  H  6896  6907       L1     3  1.00
      P1  H  7997  8008       L1     6  1.87
      P1  H  8011  8017       L1    14  1.00

> <Gold.PLP.Chemscore.Internal.Correction>
0.0065

> <Gold.Rescore>
     Score         DG    S(hbond)    S(metal)    S(lipo)     H(rot)  DE(clash)    DE(int)     intcor
     15.75     -18.34       3.14        0.00      52.76       1.49       0.00       2.59       ----

> <Gold.Chemscore.Fitness>
15.7464

> <Gold.Chemscore.DG>
-18.3401

> <Gold.Chemscore.ZeroCoef>
-5.4800

> <Gold.Chemscore.Hbond>
3.1420

> <Gold.Chemscore.Metal>
0.0000

> <Gold.Chemscore.Lipo>
52.7643

> <Gold.Chemscore.Internal_Hbond>
0.0000

> <Gold.Chemscore.DEClash>
0.0000

> <Gold.Chemscore.DEInternal>
2.5937

> <Gold.Chemscore.Rot>
1.4873

> <Gold.Chemscore.Internal.Correction>
   9.000000E+99

> <Gold.Chemscore.Hbonds>
donor molecule, donor type, donor heavy atom, donor atom, acceptor molecule, acceptor atom, score
      L1  H    14    28       P1  7957  0.71
      P1  H  6896  6907       L1     3  0.93
      P1  H  7997  8008       L1     6  0.70
      P1  H  8011  8017       L1    14  0.28

> <Gold.Chemscore.Hbond.Weighted>
-10.4941

> <Gold.Chemscore.Metal.Weighted>
-0.0000

> <Gold.Chemscore.Lipo.Weighted>
-6.1734

> <Gold.Chemscore.Internal_Hbond.Weighted>
0.0000

> <Gold.Chemscore.DEClash.Weighted>
0.0000

> <Gold.Chemscore.DEInternal.Weighted>
2.5937

> <Gold.Chemscore.Rot.Weighted>
3.8075

> <Gold.Chemscore.Internal.Correction.Weighted>
   9.000000E+99

> <Gold.Protein.RotatedTorsions>
[ 6907 6896 6895 6894 ] final   28.20 input  -60.11 | X-H torsion
[ 7974 7965 7964 7962 ] final -112.22 input  175.53 | X-H torsion
[ 8008 7997 7996 7995 ] final -105.89 input   59.86 | X-H torsion
[ 10167 10162 10161 10158 ] final   30.49 input  -65.29 | X-H torsion
[ 10718 10713 10712 10709 ] final -141.79 input   66.30 | X-H torsion
[ 10763 10752 10751 10750 ] final   42.20 input  -60.55 | X-H torsion
[ 11005 11000 10999 10996 ] final    8.57 input  -57.11 | X-H torsion

> <Gold.Protein.ActiveResidues>
 VAL166  LYS551  ARG553  GLY616  TRP617  ASP618  TYR619  PRO620  LYS621  CYS622 
 ASP623  PHE694  ASN695  SER759  ASP760  ASP761  ALA762  ILE779  LEU786  VAL792 
 PHE793  MET794  SER795  GLU796  ALA797  LYS798  CYS799  TRP800  GLU811  SER814 

> <Gold.Protein.RotatedAtoms>
  152.0135  134.9863  160.0568 H   0  0  0  0  0  0  0  0  0  0  0  0  # atno 6907 bound_to 6896
  152.1406  133.4457  159.4773 H   0  0  0  0  0  0  0  0  0  0  0  0  # atno 6908 bound_to 6896
  150.6864  134.2228  159.4447 H   0  0  0  0  0  0  0  0  0  0  0  0  # atno 6909 bound_to 6896
  145.1467  140.8807  143.3670 H   0  0  0  0  0  0  0  0  0  0  0  0  # atno 7974 bound_to 7965
  154.9065  140.0411  157.1922 H   0  0  0  0  0  0  0  0  0  0  0  0  # atno 8008 bound_to 7997
  154.8391  140.2911  155.5650 H   0  0  0  0  0  0  0  0  0  0  0  0  # atno 8009 bound_to 7997
  156.2991  140.2486  156.3331 H   0  0  0  0  0  0  0  0  0  0  0  0  # atno 8010 bound_to 7997
  140.4673  144.0816  150.6228 H   0  0  0  0  0  0  0  0  0  0  0  0  # atno 10167 bound_to 10162
  156.3382  130.7623  151.1754 H   0  0  0  0  0  0  0  0  0  0  0  0  # atno 10718 bound_to 10713
  152.9889  135.6139  154.2911 H   0  0  0  0  0  0  0  0  0  0  0  0  # atno 10763 bound_to 10752
  154.2636  135.2781  155.2769 H   0  0  0  0  0  0  0  0  0  0  0  0  # atno 10764 bound_to 10752
  154.5184  135.5822  153.6718 H   0  0  0  0  0  0  0  0  0  0  0  0  # atno 10765 bound_to 10752
  140.5355  134.0424  155.7887 H   0  0  0  0  0  0  0  0  0  0  0  0  # atno 11005 bound_to 11000
  145.0475  139.3209  143.5945 LP  0  0  0  0  0  0  0  0  0  0  0  0  # atno 17320 bound_to 7965
  146.3499  139.9870  142.8689 LP  0  0  0  0  0  0  0  0  0  0  0  0  # atno 17321 bound_to 7965
  140.4020  143.2699  151.9936 LP  0  0  0  0  0  0  0  0  0  0  0  0  # atno 17342 bound_to 10162
  139.4814  144.5989  151.7641 LP  0  0  0  0  0  0  0  0  0  0  0  0  # atno 17343 bound_to 10162
  157.7442  131.0462  150.4881 LP  0  0  0  0  0  0  0  0  0  0  0  0  # atno 17370 bound_to 10713
  156.5057  130.4127  149.6328 LP  0  0  0  0  0  0  0  0  0  0  0  0  # atno 17371 bound_to 10713
  141.1257  133.9387  157.2640 LP  0  0  0  0  0  0  0  0  0  0  0  0  # atno 17394 bound_to 11000
  139.9531  135.0171  156.9051 LP  0  0  0  0  0  0  0  0  0  0  0  0  # atno 17395 bound_to 11000

$$$$
