AV-unprocessed.smi:3275|AV-procd|sdf|12533|dock6
  -GOLD-   2272018443D 1   1.00000     0.00000
 Structure written by MMmdl.
 34 35  0  0  0  0  0  0  0  0  1 V2000
  152.0121  136.8141  155.7311 O   0  0  0  0  0  0  0  0  0  0  0  0
  151.6116  136.1446  156.9071 C   0  0  0  0  0  0  0  0  0  0  0  0
  151.3561  137.1608  158.0251 C   0  0  0  0  0  0  0  0  0  0  0  0
  152.0098  138.3765  157.6913 O   0  0  0  0  0  0  0  0  0  0  0  0
  152.3516  139.1876  158.8080 C   0  0  1  0  0  0  0  0  0  0  0  0
  153.8142  138.9522  159.2413 C   0  0  0  0  0  0  0  0  0  0  0  0
  154.2151  139.9506  160.3398 C   0  0  0  0  0  0  0  0  0  0  0  0
  153.9531  141.3989  159.8949 C   0  0  0  0  0  0  0  0  0  0  0  0
  152.5682  141.5600  159.4601 N   0  0  0  0  0  0  0  0  0  0  0  0
  152.1582  142.9019  159.3575 C   0  0  0  0  0  0  0  0  0  0  0  0
  151.6593  143.4360  158.1456 C   0  0  0  0  0  0  0  0  0  0  0  0
  151.2782  144.7916  158.1037 C   0  0  0  0  0  0  0  0  0  0  0  0
  151.3617  145.6195  159.1654 N   0  0  0  0  0  0  0  0  0  0  0  0
  151.8343  145.1105  160.3221 C   0  0  0  0  0  0  0  0  0  0  0  0
  152.2438  143.7699  160.4742 C   0  0  0  0  0  0  0  0  0  0  0  0
  152.8064  143.2249  162.0167 Cl  0  0  0  0  0  0  0  0  0  0  0  0
  152.1527  140.6558  158.3899 C   0  0  0  0  0  0  0  0  0  0  0  0
  151.2467  137.1922  155.3254 H   0  0  0  0  0  0  0  0  0  0  0  0
  150.7098  135.5676  156.7004 H   0  0  0  0  0  0  0  0  0  0  0  0
  152.3915  135.4409  157.2000 H   0  0  0  0  0  0  0  0  0  0  0  0
  150.2839  137.3315  158.1353 H   0  0  0  0  0  0  0  0  0  0  0  0
  151.7277  136.7695  158.9723 H   0  0  0  0  0  0  0  0  0  0  0  0
  151.6797  138.9758  159.6420 H   0  0  0  0  0  0  0  0  0  0  0  0
  153.9554  137.9357  159.6072 H   0  0  0  0  0  0  0  0  0  0  0  0
  154.4752  139.0705  158.3819 H   0  0  0  0  0  0  0  0  0  0  0  0
  153.6469  139.7413  161.2472 H   0  0  0  0  0  0  0  0  0  0  0  0
  155.2672  139.8234  160.5963 H   0  0  0  0  0  0  0  0  0  0  0  0
  154.1852  142.0828  160.7116 H   0  0  0  0  0  0  0  0  0  0  0  0
  154.6151  141.6603  159.0682 H   0  0  0  0  0  0  0  0  0  0  0  0
  151.5750  142.8341  157.2533 H   0  0  0  0  0  0  0  0  0  0  0  0
  150.8987  145.2234  157.1895 H   0  0  0  0  0  0  0  0  0  0  0  0
  151.8834  145.7945  161.1566 H   0  0  0  0  0  0  0  0  0  0  0  0
  152.7388  140.8612  157.4933 H   0  0  0  0  0  0  0  0  0  0  0  0
  151.1055  140.8324  158.1407 H   0  0  0  0  0  0  0  0  0  0  0  0
  1  2  1  0  0  0  0
  1 18  1  0  0  0  0
  2  3  1  0  0  0  0
  2 19  1  0  0  0  0
  2 20  1  0  0  0  0
  3  4  1  0  0  0  0
  3 21  1  0  0  0  0
  3 22  1  0  0  0  0
  4  5  1  0  0  0  0
  5 17  1  0  0  0  0
  5  6  1  0  0  0  0
  5 23  1  0  0  0  0
  6  7  1  0  0  0  0
  6 24  1  0  0  0  0
  6 25  1  0  0  0  0
  7  8  1  0  0  0  0
  7 26  1  0  0  0  0
  7 27  1  0  0  0  0
  8  9  1  0  0  0  0
  8 28  1  0  0  0  0
  8 29  1  0  0  0  0
  9 10  1  0  0  0  0
  9 17  1  0  0  0  0
 10 15  1  0  0  0  0
 10 11  2  0  0  0  0
 11 12  1  0  0  0  0
 11 30  1  0  0  0  0
 12 13  2  0  0  0  0
 12 31  1  0  0  0  0
 13 14  1  0  0  0  0
 14 15  2  0  0  0  0
 14 32  1  0  0  0  0
 15 16  1  0  0  0  0
 17 33  1  0  0  0  0
 17 34  1  0  0  0  0
M  END
> <s_m_source_file>
AV-unprocessed.smi

> <i_m_source_file_index>
3275

> <i_lp_mmshare_version>
43012

> <i_f3d_flags>
0

> <s_epik_input>
W09IXVtDSDJdW0NIMl1PW0NAQEhdMVtDSDJdW0NIMl1bQ0gyXU4oW0NIMl0xKWMyW2NIXVtjSF1uW2NIXWMyQ2w=

> <s_epik_cmdline>
J2VwaWtfcHl0aG9uJywgJy1waCcsICc3LjAnLCAnLXRuJywgJzgnLCAnLW1hJywgJzIwMCcsICctbWV0YWxfYmluZGluZycsICctaW1hZScsICc8aW5maWxlLm1hZT4nLCAnLW9tYWUnLCAnPG91dGZpbGUubWFlPic=

> <r_lp_tautomer_probability>
1

> <r_epik_Ionization_Penalty>
1.24095

> <r_epik_Ionization_Penalty_Charging>
0

> <r_epik_Ionization_Penalty_Neutral>
1.24095

> <r_epik_State_Penalty>
1.30987

> <r_epik_Charging_Adjusted_Penalty>
1.30987

> <i_epik_Tot_Q>
0

> <i_epik_Tot_abs_Q>
0

> <r_epik_Metal_State_Penalty>
0.00479332

> <b_epik_Metal_Only>
0

> <s_lp_Force_Field>
OPLS_2005

> <r_lp_Energy>
20.7809

> <b_lp_Chiralities_Consistent>
1

> <s_lp_Variant>
AV-unprocessed.smi:3275-4

> <Gold.Version>
5.8.1

> <Gold.Id.Protein>
6NUR|6NUR_protein|mol2

> <Gold.PLP.Fitness>
41.1229

> <Gold.PLP.PLP>
-37.1010

> <Gold.PLP.part.hbond>
-2.0000

> <Gold.PLP.part.metal>
0.0000

> <Gold.PLP.part.buried>
-5.7417

> <Gold.PLP.part.nonpolar>
-29.3645

> <Gold.PLP.part.repulsive>
0.1560

> <Gold.PLP.ligand.clash>
0.0000

> <Gold.PLP.ligand.torsion>
1.1223

> <Gold.PLP.Chemscore.Hbond>
1.0000

> <Gold.PLP.Chemscore.CHOScore>
0.9868

> <Gold.PLP.Chemscore.Metal>
0.0000

> <Gold.Chemscore.Hbonds>
donor molecule, donor type, donor heavy atom, donor atom, acceptor molecule, acceptor atom, score
      P1  H 10752 10764       L1     1  1.00
      L1  C    12    31       P1  8028  1.00

> <Gold.PLP.Chemscore.Internal.Correction>
0.3061

> <Gold.Rescore>
     Score         DG    S(hbond)    S(metal)    S(lipo)     H(rot)  DE(clash)    DE(int)     intcor
     14.82     -16.09       0.91        0.00     109.58       2.06       0.01       1.26       ----

> <Gold.Chemscore.Fitness>
14.8168

> <Gold.Chemscore.DG>
-16.0907

> <Gold.Chemscore.ZeroCoef>
-5.4800

> <Gold.Chemscore.Hbond>
0.9148

> <Gold.Chemscore.Metal>
0.0000

> <Gold.Chemscore.Lipo>
109.5836

> <Gold.Chemscore.Internal_Hbond>
0.0000

> <Gold.Chemscore.DEClash>
0.0098

> <Gold.Chemscore.DEInternal>
1.2641

> <Gold.Chemscore.Rot>
2.0570

> <Gold.Chemscore.Internal.Correction>
   9.000000E+99

> <Gold.Chemscore.Hbonds>
donor molecule, donor type, donor heavy atom, donor atom, acceptor molecule, acceptor atom, score
      P1  H 10752 10764       L1     1  0.25

> <Gold.Chemscore.Hbond.Weighted>
-3.0554

> <Gold.Chemscore.Metal.Weighted>
-0.0000

> <Gold.Chemscore.Lipo.Weighted>
-12.8213

> <Gold.Chemscore.Internal_Hbond.Weighted>
0.0000

> <Gold.Chemscore.DEClash.Weighted>
0.0098

> <Gold.Chemscore.DEInternal.Weighted>
1.2641

> <Gold.Chemscore.Rot.Weighted>
5.2660

> <Gold.Chemscore.Internal.Correction.Weighted>
   9.000000E+99

> <Gold.Protein.RotatedTorsions>
[ 6907 6896 6895 6894 ] final  -53.20 input  -60.11 | X-H torsion
[ 7974 7965 7964 7962 ] final    5.67 input  175.53 | X-H torsion
[ 8008 7997 7996 7995 ] final  137.75 input   59.86 | X-H torsion
[ 10167 10162 10161 10158 ] final  103.56 input  -65.29 | X-H torsion
[ 10718 10713 10712 10709 ] final -107.52 input   66.30 | X-H torsion
[ 10763 10752 10751 10750 ] final  -35.76 input  -60.55 | X-H torsion
[ 11005 11000 10999 10996 ] final  174.44 input  -57.11 | X-H torsion

> <Gold.Protein.ActiveResidues>
 VAL166  LYS551  ARG553  GLY616  TRP617  ASP618  TYR619  PRO620  LYS621  CYS622 
 ASP623  PHE694  ASN695  SER759  ASP760  ASP761  ALA762  ILE779  LEU786  VAL792 
 PHE793  MET794  SER795  GLU796  ALA797  LYS798  CYS799  TRP800  GLU811  SER814 

> <Gold.Protein.RotatedAtoms>
  150.8448  134.7753  159.6961 H   0  0  0  0  0  0  0  0  0  0  0  0  # atno 6907 bound_to 6896
  152.4528  134.5354  159.9833 H   0  0  0  0  0  0  0  0  0  0  0  0  # atno 6908 bound_to 6896
  151.5487  133.3383  159.2984 H   0  0  0  0  0  0  0  0  0  0  0  0  # atno 6909 bound_to 6896
  146.2439  140.0349  142.8387 H   0  0  0  0  0  0  0  0  0  0  0  0  # atno 7974 bound_to 7965
  156.3001  140.2411  156.3961 H   0  0  0  0  0  0  0  0  0  0  0  0  # atno 8008 bound_to 7997
  154.8570  140.0421  157.1660 H   0  0  0  0  0  0  0  0  0  0  0  0  # atno 8009 bound_to 7997
  154.8937  140.2967  155.5360 H   0  0  0  0  0  0  0  0  0  0  0  0  # atno 8010 bound_to 7997
  139.7252  144.7049  151.0809 H   0  0  0  0  0  0  0  0  0  0  0  0  # atno 10167 bound_to 10162
  156.0440  130.5666  150.7832 H   0  0  0  0  0  0  0  0  0  0  0  0  # atno 10718 bound_to 10713
  153.8685  135.6833  153.4776 H   0  0  0  0  0  0  0  0  0  0  0  0  # atno 10763 bound_to 10752
  153.1301  135.4702  154.9332 H   0  0  0  0  0  0  0  0  0  0  0  0  # atno 10764 bound_to 10752
  154.7725  135.3243  154.8110 H   0  0  0  0  0  0  0  0  0  0  0  0  # atno 10765 bound_to 10752
  140.3513  134.7192  157.4270 H   0  0  0  0  0  0  0  0  0  0  0  0  # atno 11005 bound_to 11000
  145.1121  140.9412  143.4650 LP  0  0  0  0  0  0  0  0  0  0  0  0  # atno 17320 bound_to 7965
  145.0565  139.3139  143.5902 LP  0  0  0  0  0  0  0  0  0  0  0  0  # atno 17321 bound_to 7965
  140.7761  143.5114  150.9648 LP  0  0  0  0  0  0  0  0  0  0  0  0  # atno 17342 bound_to 10162
  139.8802  143.7082  152.3158 LP  0  0  0  0  0  0  0  0  0  0  0  0  # atno 17343 bound_to 10162
  157.5294  131.0936  150.9975 LP  0  0  0  0  0  0  0  0  0  0  0  0  # atno 17370 bound_to 10713
  157.0285  130.5702  149.5340 LP  0  0  0  0  0  0  0  0  0  0  0  0  # atno 17371 bound_to 10713
  140.0700  134.5875  155.8652 LP  0  0  0  0  0  0  0  0  0  0  0  0  # atno 17394 bound_to 11000
  141.2011  133.6616  156.5933 LP  0  0  0  0  0  0  0  0  0  0  0  0  # atno 17395 bound_to 11000

$$$$
