#       Name:                AV-unprocessed.smi:1593
#       Creating user name   scv26
#       Creation time:       Fri Mar 27 07:04:17 2020


#       File generated by GOLD software.
#

@<TRIPOS>MOLECULE
AV-unprocessed.smi:1593
    44    45     1
SMALL
NO_CHARGES


@<TRIPOS>ATOM
      1 ****        -4.2060   3.9156   1.3992 C.3            1 S1                 0.0000
      2 ****        -3.5813   2.5993   1.7125 C.2            1 S1                 0.0000
      3 ****        -2.3255   2.0973   1.5184 C.2            1 S1                 0.0000
      4 ****        -2.4225   0.7789   2.0516 C.2            1 S1                 0.0000
      5 ****        -1.3853  -0.1881   2.0978 N.am           1 S1                 0.0000
      6 ****        -0.1160  -0.0722   1.6728 C.2            1 S1                 0.0000
      7 ****         0.3784   0.9388   1.1743 O.2            1 S1                 0.0000
      8 ****         0.5624  -1.2139   1.8595 N.am           1 S1                 0.0000
      9 ****         1.9516  -1.4438   1.4752 C.3            1 S1                 0.0000
     10 ****         2.0509  -2.1528   0.1104 C.3            1 S1                 0.0000
     11 ****         1.5764  -1.3817  -1.0388 N.3            1 S1                 0.0000
     12 ****         1.4726  -2.2176  -2.2293 C.3            1 S1                 0.0000
     13 ****         0.9610  -1.4237  -3.4439 C.3            1 S1                 0.0000
     14 ****         1.8162  -0.3099  -3.6812 O.3            1 S1                 0.0000
     15 ****         1.9149   0.5561  -2.5550 C.3            1 S1                 0.0000
     16 ****         2.4296  -0.2340  -1.3396 C.3            1 S1                 0.0000
     17 ****        -3.6257   0.5088   2.5239 N.2            1 S1                 0.0000
     18 ****        -4.3758   1.6713   2.3103 O.3            1 S1                 0.0000
     19 ****        -3.4445   4.6794   1.2404 H              1 S1                 0.0000
     20 ****        -4.8487   4.2450   2.2159 H              1 S1                 0.0000
     21 ****        -4.8119   3.8488   0.4956 H              1 S1                 0.0000
     22 ****        -1.4875   2.6050   1.0656 H              1 S1                 0.0000
     23 ****        -1.6455  -1.0788   2.4950 H              1 S1                 0.0000
     24 ****         0.0748  -1.9920   2.2788 H              1 S1                 0.0000
     25 ****         2.5321  -0.5209   1.4981 H              1 S1                 0.0000
     26 ****         2.3938  -2.0857   2.2371 H              1 S1                 0.0000
     27 ****         3.0854  -2.4553  -0.0595 H              1 S1                 0.0000
     28 ****         1.4801  -3.0802   0.1772 H              1 S1                 0.0000
     29 ****         2.4466  -2.6496  -2.4649 H              1 S1                 0.0000
     30 ****         0.7985  -3.0531  -2.0373 H              1 S1                 0.0000
     31 ****         0.9447  -2.0564  -4.3313 H              1 S1                 0.0000
     32 ****        -0.0602  -1.0777  -3.2768 H              1 S1                 0.0000
     33 ****         2.5953   1.3742  -2.7919 H              1 S1                 0.0000
     34 ****         0.9413   1.0000  -2.3414 H              1 S1                 0.0000
     35 ****         2.4803   0.4387  -0.4850 H              1 S1                 0.0000
     36 ****         3.4492  -0.5708  -1.5330 H              1 S1                 0.0000
     37 ****        -0.1771   1.7623   1.0589 LP             1 S1                 0.0000
     38 ****         1.3355   0.9367   0.8847 LP             1 S1                 0.0000
     39 ****         0.6716  -1.0413  -0.7830 LP             1 S1                 0.0000
     40 ****         1.4559   0.2111  -4.4550 LP             1 S1                 0.0000
     41 ****         2.7298  -0.6497  -3.9047 LP             1 S1                 0.0000
     42 ****        -3.9350  -0.3441   2.9444 LP             1 S1                 0.0000
     43 ****        -5.1554   1.4648   1.7191 LP             1 S1                 0.0000
     44 ****        -4.7057   2.0245   3.1857 LP             1 S1                 0.0000
@<TRIPOS>BOND
    1    1    2 1     
    2    1   19 1     
    3    1   20 1     
    4    1   21 1     
    5    2   18 1     
    6    2    3 2     
    7    3    4 1     
    8    3   22 1     
    9    4    5 1     
   10    4   17 2     
   11    5    6 am    
   12    5   23 1     
   13    6    7 2     
   14    6    8 am    
   15    8    9 1     
   16    8   24 1     
   17    9   10 1     
   18    9   25 1     
   19    9   26 1     
   20   10   11 1     
   21   10   27 1     
   22   10   28 1     
   23   11   16 1     
   24   11   12 1     
   25   12   13 1     
   26   12   29 1     
   27   12   30 1     
   28   13   14 1     
   29   13   31 1     
   30   13   32 1     
   31   14   15 1     
   32   15   16 1     
   33   15   33 1     
   34   15   34 1     
   35   16   35 1     
   36   16   36 1     
   37   17   18 1     
   38    7   37 1     
   39    7   38 1     
   40   11   39 1     
   41   14   40 1     
   42   14   41 1     
   43   17   42 1     
   44   18   43 1     
   45   18   44 1     
@<TRIPOS>SUBSTRUCTURE
      1 S1             1
@<TRIPOS>SET
LONE_PAIRS      STATIC     ATOMS    <user>   **** ""
8 37 38 39 40 41 42 43 44
DONOR_HYDROGENS      STATIC     ATOMS    <user>   **** ""
2 23 24
ATOM$BLUE        STATIC     ATOMS    COLORGROUP SYSTEM
8 37 38 39 40 41 42 43 44
ATOM$RED        STATIC     ATOMS    COLORGROUP SYSTEM
2 23 24
