AV-unprocessed.smi:1244|AV-procd|sdf|5237|dock5
  -GOLD-   22720 4343D 1   1.00000     0.00000
 Structure written by MMmdl.
 55 57  0  0  0  0  0  0  0  0  4 V2000
  152.8069  139.2014  155.0666 C   0  0  0  0  0  0  0  0  0  0  0  0
  151.2821  139.0582  155.1228 C   0  0  2  0  0  0  0  0  0  0  0  0
  150.7650  137.9748  154.1556 C   0  0  0  0  0  0  0  0  0  0  0  0
  149.2835  137.9012  154.1795 N   0  3  1  0  0  0  0  0  0  0  0  0
  148.7347  137.1955  155.3712 C   0  0  0  0  0  0  0  0  0  0  0  0
  149.5661  135.9492  155.7392 C   0  0  0  0  0  0  0  0  0  0  0  0
  149.6587  135.0444  154.5943 N   0  5  0  0  0  0  0  0  0  0  0  0
  149.0648  133.8234  154.5189 C   0  0  0  0  0  0  0  0  0  0  0  0
  149.0897  132.9159  155.3588 O   0  0  0  0  0  0  0  0  0  0  0  0
  148.3816  133.6646  153.3730 N   0  0  0  0  0  0  0  0  0  0  0  0
  147.5483  132.5771  152.9950 C   0  0  0  0  0  0  0  0  0  0  0  0
  147.8006  131.2711  153.4844 C   0  0  0  0  0  0  0  0  0  0  0  0
  147.0152  130.1911  153.0393 C   0  0  0  0  0  0  0  0  0  0  0  0
  146.0002  130.4325  152.0976 C   0  0  0  0  0  0  0  0  0  0  0  0
  145.7940  131.6855  151.6413 N   0  3  0  0  0  0  0  0  0  0  0  0
  146.5062  132.7687  152.0426 C   0  0  0  0  0  0  0  0  0  0  0  0
  146.1693  134.0237  151.4851 N   0  0  0  0  0  0  0  0  0  0  0  0
  145.3219  134.1043  150.3014 C   0  0  0  0  0  0  0  0  0  0  0  0
  144.9153  135.5723  150.2057 C   0  0  0  0  0  0  0  0  0  0  0  0
  144.7939  135.9766  151.6720 C   0  0  0  0  0  0  0  0  0  0  0  0
  145.8782  135.1483  152.3693 C   0  0  0  0  0  0  0  0  0  0  0  0
  148.6978  139.2445  153.9204 C   0  0  0  0  0  0  0  0  0  0  0  0
  149.2866  140.3150  154.8651 C   0  0  2  0  0  0  0  0  0  0  0  0
  148.7901  141.7224  154.5167 C   0  0  0  0  0  0  0  0  0  0  0  0
  150.7066  140.3084  154.7584 O   0  0  0  0  0  0  0  0  0  0  0  0
  153.2992  138.2696  155.3464 H   0  0  0  0  0  0  0  0  0  0  0  0
  153.1505  139.9767  155.7521 H   0  0  0  0  0  0  0  0  0  0  0  0
  153.1422  139.4704  154.0645 H   0  0  0  0  0  0  0  0  0  0  0  0
  150.9966  138.8129  156.1473 H   0  0  0  0  0  0  0  0  0  0  0  0
  151.0788  138.2137  153.1383 H   0  0  0  0  0  0  0  0  0  0  0  0
  151.1997  137.0014  154.3867 H   0  0  0  0  0  0  0  0  0  0  0  0
  148.7431  137.8677  156.2306 H   0  0  0  0  0  0  0  0  0  0  0  0
  147.6892  136.9315  155.2111 H   0  0  0  0  0  0  0  0  0  0  0  0
  150.5492  136.2621  156.0937 H   0  0  0  0  0  0  0  0  0  0  0  0
  149.0972  135.4548  156.5903 H   0  0  0  0  0  0  0  0  0  0  0  0
  148.3330  134.4817  152.7821 H   0  0  0  0  0  0  0  0  0  0  0  0
  148.6038  131.0836  154.1816 H   0  0  0  0  0  0  0  0  0  0  0  0
  147.1982  129.1916  153.4054 H   0  0  0  0  0  0  0  0  0  0  0  0
  145.3539  129.6669  151.6937 H   0  0  0  0  0  0  0  0  0  0  0  0
  145.8510  133.7716  149.4078 H   0  0  0  0  0  0  0  0  0  0  0  0
  144.4331  133.4845  150.4283 H   0  0  0  0  0  0  0  0  0  0  0  0
  145.7074  136.1489  149.7258 H   0  0  0  0  0  0  0  0  0  0  0  0
  143.9947  135.7233  149.6413 H   0  0  0  0  0  0  0  0  0  0  0  0
  144.9141  137.0488  151.8300 H   0  0  0  0  0  0  0  0  0  0  0  0
  143.8124  135.6888  152.0510 H   0  0  0  0  0  0  0  0  0  0  0  0
  145.5519  134.8215  153.3576 H   0  0  0  0  0  0  0  0  0  0  0  0
  146.7831  135.7446  152.4901 H   0  0  0  0  0  0  0  0  0  0  0  0
  148.9183  139.5127  152.8863 H   0  0  0  0  0  0  0  0  0  0  0  0
  147.6105  139.2161  154.0024 H   0  0  0  0  0  0  0  0  0  0  0  0
  149.0072  140.1042  155.8981 H   0  0  0  0  0  0  0  0  0  0  0  0
  147.7046  141.7858  154.5949 H   0  0  0  0  0  0  0  0  0  0  0  0
  149.0698  142.0008  153.5003 H   0  0  0  0  0  0  0  0  0  0  0  0
  149.2154  142.4638  155.1936 H   0  0  0  0  0  0  0  0  0  0  0  0
  149.0251  137.3158  153.3978 H   0  0  0  0  0  0  0  0  0  0  0  0
  145.0510  131.8280  150.9575 H   0  0  0  0  0  0  0  0  0  0  0  0
  1  2  1  0  0  0  0
  1 26  1  0  0  0  0
  1 27  1  0  0  0  0
  1 28  1  0  0  0  0
  2 25  1  0  0  0  0
  2  3  1  0  0  0  0
  2 29  1  0  0  0  0
  3  4  1  0  0  0  0
  3 30  1  0  0  0  0
  3 31  1  0  0  0  0
  4  5  1  0  0  0  0
  4 22  1  0  0  0  0
  4 54  1  0  0  0  0
  5  6  1  0  0  0  0
  5 32  1  0  0  0  0
  5 33  1  0  0  0  0
  6  7  1  0  0  0  0
  6 34  1  0  0  0  0
  6 35  1  0  0  0  0
  7  8  1  0  0  0  0
  8  9  2  0  0  0  0
  8 10  1  0  0  0  0
 10 11  1  0  0  0  0
 10 36  1  0  0  0  0
 11 16  1  0  0  0  0
 11 12  2  0  0  0  0
 12 13  1  0  0  0  0
 12 37  1  0  0  0  0
 13 14  2  0  0  0  0
 13 38  1  0  0  0  0
 14 15  1  0  0  0  0
 14 39  1  0  0  0  0
 15 16  2  0  0  0  0
 15 55  1  0  0  0  0
 16 17  1  0  0  0  0
 17 21  1  0  0  0  0
 17 18  1  0  0  0  0
 18 19  1  0  0  0  0
 18 40  1  0  0  0  0
 18 41  1  0  0  0  0
 19 20  1  0  0  0  0
 19 42  1  0  0  0  0
 19 43  1  0  0  0  0
 20 21  1  0  0  0  0
 20 44  1  0  0  0  0
 20 45  1  0  0  0  0
 21 46  1  0  0  0  0
 21 47  1  0  0  0  0
 22 23  1  0  0  0  0
 22 48  1  0  0  0  0
 22 49  1  0  0  0  0
 23 24  1  0  0  0  0
 23 25  1  0  0  0  0
 23 50  1  0  0  0  0
 24 51  1  0  0  0  0
 24 52  1  0  0  0  0
 24 53  1  0  0  0  0
M  CHG  1   4   1
M  CHG  1   7  -1
M  CHG  1  15   1
M  END
> <s_m_source_file>
AV-unprocessed.smi

> <i_m_source_file_index>
1244

> <i_lp_mmshare_version>
43012

> <i_f3d_flags>
0

> <s_epik_input>
W0NIM11bQ0BASF0xW0NIMl1OKFtDSDJdW0NASF0oTzEpW0NIM10pW0NIMl1bQ0gyXVtOSF1DKD1PKVtOSF1jMltjSF1bY0hdW2NIXW5jMk4zW0NIMl1bQ0gyXVtDSDJdW0NIMl0z

> <s_epik_cmdline>
J2VwaWtfcHl0aG9uJywgJy1waCcsICc3LjAnLCAnLXRuJywgJzgnLCAnLW1hJywgJzIwMCcsICctbWV0YWxfYmluZGluZycsICctaW1hZScsICc8aW5maWxlLm1hZT4nLCAnLW9tYWUnLCAnPG91dGZpbGUubWFlPic=

> <r_lp_tautomer_probability>
0.999994

> <r_epik_Ionization_Penalty>
8.60539

> <r_epik_Ionization_Penalty_Charging>
8.60539

> <r_epik_Ionization_Penalty_Neutral>
3.60441e-06

> <r_epik_State_Penalty>
8.59967

> <r_epik_Charging_Adjusted_Penalty>
17.2051

> <i_epik_Tot_Q>
1

> <i_epik_Tot_abs_Q>
3

> <r_epik_Metal_State_Penalty>
4.59489

> <b_epik_Metal_Only>
1

> <s_lp_Force_Field>
OPLS_2005

> <r_lp_Energy>
45.4407

> <b_lp_Chiralities_Consistent>
1

> <s_lp_Variant>
AV-unprocessed.smi:1244-17

> <Gold.Version>
5.8.1

> <Gold.Id.Protein>
6NUR|6NUR_protein|mol2

> <Gold.PLP.Fitness>
52.9916

> <Gold.PLP.PLP>
-42.3859

> <Gold.PLP.part.hbond>
-3.0000

> <Gold.PLP.part.metal>
0.0000

> <Gold.PLP.part.buried>
-1.4128

> <Gold.PLP.part.nonpolar>
-38.4782

> <Gold.PLP.part.repulsive>
1.0982

> <Gold.PLP.ligand.clash>
0.0000

> <Gold.PLP.ligand.torsion>
0.9748

> <Gold.PLP.Chemscore.Hbond>
3.9417

> <Gold.PLP.Chemscore.CHOScore>
0.0000

> <Gold.PLP.Chemscore.Metal>
0.0000

> <Gold.Chemscore.Hbonds>
donor molecule, donor type, donor heavy atom, donor atom, acceptor molecule, acceptor atom, score
      L1  H     4    54       P1  7948  2.00
      L1  H    10    36       P1  7948  1.00
      P1  H  7989  7998       L1    25  1.00

> <Gold.PLP.Chemscore.Internal.Correction>
0.7301

> <Gold.Rescore>
     Score         DG    S(hbond)    S(metal)    S(lipo)     H(rot)  DE(clash)    DE(int)     intcor
     16.84     -19.37       2.00        0.00      96.47       1.60       0.18       2.35       ----

> <Gold.Chemscore.Fitness>
16.8389

> <Gold.Chemscore.DG>
-19.3699

> <Gold.Chemscore.ZeroCoef>
-5.4800

> <Gold.Chemscore.Hbond>
2.0041

> <Gold.Chemscore.Metal>
0.0000

> <Gold.Chemscore.Lipo>
96.4682

> <Gold.Chemscore.Internal_Hbond>
0.0000

> <Gold.Chemscore.DEClash>
0.1806

> <Gold.Chemscore.DEInternal>
2.3504

> <Gold.Chemscore.Rot>
1.5978

> <Gold.Chemscore.Internal.Correction>
   9.000000E+99

> <Gold.Chemscore.Hbonds>
donor molecule, donor type, donor heavy atom, donor atom, acceptor molecule, acceptor atom, score
      L1  H     4    54       P1  7948  1.00
      L1  H    10    36       P1  7948  0.28
      P1  H  7989  7998       L1    25  0.55

> <Gold.Chemscore.Hbond.Weighted>
-6.6936

> <Gold.Chemscore.Metal.Weighted>
-0.0000

> <Gold.Chemscore.Lipo.Weighted>
-11.2868

> <Gold.Chemscore.Internal_Hbond.Weighted>
0.0000

> <Gold.Chemscore.DEClash.Weighted>
0.1806

> <Gold.Chemscore.DEInternal.Weighted>
2.3504

> <Gold.Chemscore.Rot.Weighted>
4.0905

> <Gold.Chemscore.Internal.Correction.Weighted>
   9.000000E+99

> <Gold.Protein.RotatedTorsions>
[ 6907 6896 6895 6894 ] final -171.60 input  -60.11 | X-H torsion
[ 7974 7965 7964 7962 ] final   63.45 input  175.53 | X-H torsion
[ 8008 7997 7996 7995 ] final  -14.43 input   59.86 | X-H torsion
[ 10167 10162 10161 10158 ] final -144.53 input  -65.29 | X-H torsion
[ 10718 10713 10712 10709 ] final   39.95 input   66.30 | X-H torsion
[ 10763 10752 10751 10750 ] final   86.12 input  -60.55 | X-H torsion
[ 11005 11000 10999 10996 ] final   71.26 input  -57.11 | X-H torsion

> <Gold.Protein.ActiveResidues>
 VAL166  LYS551  ARG553  GLY616  TRP617  ASP618  TYR619  PRO620  LYS621  CYS622 
 ASP623  PHE694  ASN695  SER759  ASP760  ASP761  ALA762  ILE779  LEU786  VAL792 
 PHE793  MET794  SER795  GLU796  ALA797  LYS798  CYS799  TRP800  GLU811  SER814 

> <Gold.Protein.RotatedAtoms>
  151.5265  133.3457  159.2910 H   0  0  0  0  0  0  0  0  0  0  0  0  # atno 6907 bound_to 6896
  150.8620  134.7977  159.7101 H   0  0  0  0  0  0  0  0  0  0  0  0  # atno 6908 bound_to 6896
  152.4636  134.5135  159.9813 H   0  0  0  0  0  0  0  0  0  0  0  0  # atno 6909 bound_to 6896
  145.8617  139.3319  143.0815 H   0  0  0  0  0  0  0  0  0  0  0  0  # atno 7974 bound_to 7965
  154.5211  140.2223  155.8975 H   0  0  0  0  0  0  0  0  0  0  0  0  # atno 8008 bound_to 7997
  156.1662  140.3131  155.8858 H   0  0  0  0  0  0  0  0  0  0  0  0  # atno 8009 bound_to 7997
  155.3651  140.0463  157.3037 H   0  0  0  0  0  0  0  0  0  0  0  0  # atno 8010 bound_to 7997
  139.7891  143.7992  152.2648 H   0  0  0  0  0  0  0  0  0  0  0  0  # atno 10167 bound_to 10162
  157.3766  130.7730  149.7160 H   0  0  0  0  0  0  0  0  0  0  0  0  # atno 10718 bound_to 10713
  153.1540  135.4592  154.9677 H   0  0  0  0  0  0  0  0  0  0  0  0  # atno 10763 bound_to 10752
  154.7847  135.3200  154.7916 H   0  0  0  0  0  0  0  0  0  0  0  0  # atno 10764 bound_to 10752
  153.8416  135.6929  153.4856 H   0  0  0  0  0  0  0  0  0  0  0  0  # atno 10765 bound_to 10752
  139.9553  134.7155  156.0768 H   0  0  0  0  0  0  0  0  0  0  0  0  # atno 11005 bound_to 11000
  145.9240  140.9095  143.0390 LP  0  0  0  0  0  0  0  0  0  0  0  0  # atno 17320 bound_to 7965
  144.6726  140.1327  143.7442 LP  0  0  0  0  0  0  0  0  0  0  0  0  # atno 17321 bound_to 7965
  139.8078  144.7348  150.9738 LP  0  0  0  0  0  0  0  0  0  0  0  0  # atno 17342 bound_to 10162
  140.7820  143.4281  151.0737 LP  0  0  0  0  0  0  0  0  0  0  0  0  # atno 17343 bound_to 10162
  155.9766  130.4073  150.3765 LP  0  0  0  0  0  0  0  0  0  0  0  0  # atno 17370 bound_to 10713
  157.1863  131.0404  151.2723 LP  0  0  0  0  0  0  0  0  0  0  0  0  # atno 17371 bound_to 10713
  141.1223  133.6609  156.3247 LP  0  0  0  0  0  0  0  0  0  0  0  0  # atno 17394 bound_to 11000
  140.5624  134.5921  157.5437 LP  0  0  0  0  0  0  0  0  0  0  0  0  # atno 17395 bound_to 11000

$$$$
