AV-unprocessed.smi:1278|AV-procd|sdf|5354|dock7
  -GOLD-   22720 4493D 1   1.00000     0.00000
 Structure written by MMmdl.
 38 39  0  0  0  0  0  0  0  0  3 V2000
  151.6173  145.0674  159.4969 C   0  0  0  0  0  0  0  0  0  0  0  0
  152.0555  143.6673  159.0446 C   0  0  1  0  0  0  0  0  0  0  0  0
  153.1374  143.0906  159.9728 C   0  0  0  0  0  0  0  0  0  0  0  0
  153.5363  141.6832  159.5125 C   0  0  0  0  0  0  0  0  0  0  0  0
  152.3061  140.7677  159.4138 C   0  0  0  0  0  0  0  0  0  0  0  0
  151.2778  141.3463  158.5107 N   0  3  1  0  0  0  0  0  0  0  0  0
  150.1362  140.4227  158.2982 C   0  0  0  0  0  0  0  0  0  0  0  0
  150.5969  138.9877  157.9792 C   0  0  0  0  0  0  0  0  0  0  0  0
  149.6617  138.0017  158.5071 N   0  0  0  0  0  0  0  0  0  0  0  0
  149.9684  137.0036  159.3480 C   0  0  0  0  0  0  0  0  0  0  0  0
  151.1334  136.8525  159.7233 O   0  0  0  0  0  0  0  0  0  0  0  0
  148.9054  136.2504  159.7073 N   0  5  0  0  0  0  0  0  0  0  0  0
  148.7853  135.8192  160.9736 C   0  0  0  0  0  0  0  0  0  0  0  0
  148.7550  136.6438  162.0267 N   0  0  0  0  0  0  0  0  0  0  0  0
  148.6311  135.9791  163.2484 C   0  0  0  0  0  0  0  0  0  0  0  0
  148.5721  134.6167  163.1225 C   0  0  0  0  0  0  0  0  0  0  0  0
  148.6749  134.1243  161.4563 S   0  0  0  0  0  0  0  0  0  0  0  0
  150.8565  142.7013  158.9578 C   0  0  0  0  0  0  0  0  0  0  0  0
  151.1754  145.0428  160.4938 H   0  0  0  0  0  0  0  0  0  0  0  0
  150.8763  145.4866  158.8155 H   0  0  0  0  0  0  0  0  0  0  0  0
  152.4639  145.7542  159.5246 H   0  0  0  0  0  0  0  0  0  0  0  0
  152.4831  143.7645  158.0454 H   0  0  0  0  0  0  0  0  0  0  0  0
  154.0138  143.7398  159.9839 H   0  0  0  0  0  0  0  0  0  0  0  0
  152.7663  143.0495  160.9980 H   0  0  0  0  0  0  0  0  0  0  0  0
  154.0293  141.7406  158.5411 H   0  0  0  0  0  0  0  0  0  0  0  0
  154.2637  141.2571  160.2042 H   0  0  0  0  0  0  0  0  0  0  0  0
  152.6191  139.7917  159.0405 H   0  0  0  0  0  0  0  0  0  0  0  0
  151.8745  140.6065  160.4031 H   0  0  0  0  0  0  0  0  0  0  0  0
  149.5306  140.3952  159.2049 H   0  0  0  0  0  0  0  0  0  0  0  0
  149.4871  140.8077  157.5100 H   0  0  0  0  0  0  0  0  0  0  0  0
  150.6602  138.8282  156.9035 H   0  0  0  0  0  0  0  0  0  0  0  0
  151.5955  138.8056  158.3803 H   0  0  0  0  0  0  0  0  0  0  0  0
  148.6973  138.0836  158.2196 H   0  0  0  0  0  0  0  0  0  0  0  0
  148.5928  136.5561  164.1601 H   0  0  0  0  0  0  0  0  0  0  0  0
  148.4776  133.8765  163.9026 H   0  0  0  0  0  0  0  0  0  0  0  0
  150.3631  142.6250  159.9282 H   0  0  0  0  0  0  0  0  0  0  0  0
  150.1220  143.1104  158.2648 H   0  0  0  0  0  0  0  0  0  0  0  0
  151.7242  141.4547  157.6113 H   0  0  0  0  0  0  0  0  0  0  0  0
  1  2  1  0  0  0  0
  1 19  1  0  0  0  0
  1 20  1  0  0  0  0
  1 21  1  0  0  0  0
  2 18  1  0  0  0  0
  2  3  1  0  0  0  0
  2 22  1  0  0  0  0
  3  4  1  0  0  0  0
  3 23  1  0  0  0  0
  3 24  1  0  0  0  0
  4  5  1  0  0  0  0
  4 25  1  0  0  0  0
  4 26  1  0  0  0  0
  5  6  1  0  0  0  0
  5 27  1  0  0  0  0
  5 28  1  0  0  0  0
  6  7  1  0  0  0  0
  6 18  1  0  0  0  0
  6 38  1  0  0  0  0
  7  8  1  0  0  0  0
  7 29  1  0  0  0  0
  7 30  1  0  0  0  0
  8  9  1  0  0  0  0
  8 31  1  0  0  0  0
  8 32  1  0  0  0  0
  9 10  1  0  0  0  0
  9 33  1  0  0  0  0
 10 11  2  0  0  0  0
 10 12  1  0  0  0  0
 12 13  1  0  0  0  0
 13 17  1  0  0  0  0
 13 14  2  0  0  0  0
 14 15  1  0  0  0  0
 15 16  2  0  0  0  0
 15 34  1  0  0  0  0
 16 17  1  0  0  0  0
 16 35  1  0  0  0  0
 18 36  1  0  0  0  0
 18 37  1  0  0  0  0
M  CHG  1   6   1
M  CHG  1  12  -1
M  END
> <s_m_source_file>
AV-unprocessed.smi

> <i_m_source_file_index>
1278

> <i_lp_mmshare_version>
43012

> <i_f3d_flags>
0

> <s_epik_input>
W0NIM11bQ0BASF0xW0NIMl1bQ0gyXVtDSDJdTihbQ0gyXTEpW0NIMl1bQ0gyXVtOSF1DKD1PKVtOSF1jMm5bY0hdW2NIXXMy

> <s_epik_cmdline>
J2VwaWtfcHl0aG9uJywgJy1waCcsICc3LjAnLCAnLXRuJywgJzgnLCAnLW1hJywgJzIwMCcsICctbWV0YWxfYmluZGluZycsICctaW1hZScsICc8aW5maWxlLm1hZT4nLCAnLW9tYWUnLCAnPG91dGZpbGUubWFlPic=

> <r_lp_tautomer_probability>
0.999

> <r_epik_Ionization_Penalty>
6.22019

> <r_epik_Ionization_Penalty_Charging>
5.38911

> <r_epik_Ionization_Penalty_Neutral>
0.831074

> <r_epik_State_Penalty>
5.38904

> <r_epik_Charging_Adjusted_Penalty>
10.7782

> <i_epik_Tot_Q>
0

> <i_epik_Tot_abs_Q>
2

> <r_epik_Metal_State_Penalty>
1.41502

> <b_epik_Metal_Only>
1

> <s_lp_Force_Field>
OPLS_2005

> <r_lp_Energy>
5.28715

> <b_lp_Chiralities_Consistent>
1

> <s_lp_Variant>
AV-unprocessed.smi:1278-8

> <Gold.Version>
5.8.1

> <Gold.Id.Protein>
6NUR|6NUR_protein|mol2

> <Gold.PLP.Fitness>
47.1310

> <Gold.PLP.PLP>
-40.9714

> <Gold.PLP.part.hbond>
-3.3952

> <Gold.PLP.part.metal>
0.0000

> <Gold.PLP.part.buried>
-5.5239

> <Gold.PLP.part.nonpolar>
-32.9524

> <Gold.PLP.part.repulsive>
0.2088

> <Gold.PLP.ligand.clash>
0.0000

> <Gold.PLP.ligand.torsion>
1.1175

> <Gold.PLP.Chemscore.Hbond>
2.7840

> <Gold.PLP.Chemscore.CHOScore>
0.0000

> <Gold.PLP.Chemscore.Metal>
0.0000

> <Gold.Chemscore.Hbonds>
donor molecule, donor type, donor heavy atom, donor atom, acceptor molecule, acceptor atom, score
      P1  H  6896  6907       L1    11  0.90
      P1  H  6931  6943       L1    14  1.00

> <Gold.PLP.Chemscore.Internal.Correction>
0.0425

> <Gold.Rescore>
     Score         DG    S(hbond)    S(metal)    S(lipo)     H(rot)  DE(clash)    DE(int)     intcor
     18.07     -19.21       1.97        0.00      95.32       1.57       0.00       1.13       ----

> <Gold.Chemscore.Fitness>
18.0737

> <Gold.Chemscore.DG>
-19.2054

> <Gold.Chemscore.ZeroCoef>
-5.4800

> <Gold.Chemscore.Hbond>
1.9719

> <Gold.Chemscore.Metal>
0.0000

> <Gold.Chemscore.Lipo>
95.3198

> <Gold.Chemscore.Internal_Hbond>
0.0000

> <Gold.Chemscore.DEClash>
0.0000

> <Gold.Chemscore.DEInternal>
1.1317

> <Gold.Chemscore.Rot>
1.5676

> <Gold.Chemscore.Internal.Correction>
   9.000000E+99

> <Gold.Chemscore.Hbonds>
donor molecule, donor type, donor heavy atom, donor atom, acceptor molecule, acceptor atom, score
      P1  H  6896  6907       L1    11  0.18
      P1  H  6931  6943       L1    14  0.98

> <Gold.Chemscore.Hbond.Weighted>
-6.5860

> <Gold.Chemscore.Metal.Weighted>
-0.0000

> <Gold.Chemscore.Lipo.Weighted>
-11.1524

> <Gold.Chemscore.Internal_Hbond.Weighted>
0.0000

> <Gold.Chemscore.DEClash.Weighted>
0.0000

> <Gold.Chemscore.DEInternal.Weighted>
1.1317

> <Gold.Chemscore.Rot.Weighted>
4.0130

> <Gold.Chemscore.Internal.Correction.Weighted>
   9.000000E+99

> <Gold.Protein.RotatedTorsions>
[ 6907 6896 6895 6894 ] final  -28.58 input  -60.11 | X-H torsion
[ 7974 7965 7964 7962 ] final -165.20 input  175.53 | X-H torsion
[ 8008 7997 7996 7995 ] final  113.08 input   59.86 | X-H torsion
[ 10167 10162 10161 10158 ] final   76.89 input  -65.29 | X-H torsion
[ 10718 10713 10712 10709 ] final  -25.06 input   66.30 | X-H torsion
[ 10763 10752 10751 10750 ] final   54.61 input  -60.55 | X-H torsion
[ 11005 11000 10999 10996 ] final   97.74 input  -57.11 | X-H torsion

> <Gold.Protein.ActiveResidues>
 VAL166  LYS551  ARG553  GLY616  TRP617  ASP618  TYR619  PRO620  LYS621  CYS622 
 ASP623  PHE694  ASN695  SER759  ASP760  ASP761  ALA762  ILE779  LEU786  VAL792 
 PHE793  MET794  SER795  GLU796  ALA797  LYS798  CYS799  TRP800  GLU811  SER814 

> <Gold.Protein.RotatedAtoms>
  151.1310  135.0130  159.8581 H   0  0  0  0  0  0  0  0  0  0  0  0  # atno 6907 bound_to 6896
  152.5451  134.1611  159.8568 H   0  0  0  0  0  0  0  0  0  0  0  0  # atno 6908 bound_to 6896
  151.1677  133.4759  159.2627 H   0  0  0  0  0  0  0  0  0  0  0  0  # atno 6909 bound_to 6896
  144.7276  140.2849  143.6230 H   0  0  0  0  0  0  0  0  0  0  0  0  # atno 7974 bound_to 7965
  156.2235  140.2986  156.0009 H   0  0  0  0  0  0  0  0  0  0  0  0  # atno 8008 bound_to 7997
  155.2419  140.0422  157.2993 H   0  0  0  0  0  0  0  0  0  0  0  0  # atno 8009 bound_to 7997
  154.5878  140.2393  155.7971 H   0  0  0  0  0  0  0  0  0  0  0  0  # atno 8010 bound_to 7997
  139.9874  144.5782  150.7847 H   0  0  0  0  0  0  0  0  0  0  0  0  # atno 10167 bound_to 10162
  156.4693  130.4521  149.6879 H   0  0  0  0  0  0  0  0  0  0  0  0  # atno 10718 bound_to 10713
  152.9806  135.5739  154.4931 H   0  0  0  0  0  0  0  0  0  0  0  0  # atno 10763 bound_to 10752
  154.4463  135.2777  155.1815 H   0  0  0  0  0  0  0  0  0  0  0  0  # atno 10764 bound_to 10752
  154.3462  135.6219  153.5674 H   0  0  0  0  0  0  0  0  0  0  0  0  # atno 10765 bound_to 10752
  139.8775  134.9015  156.4352 H   0  0  0  0  0  0  0  0  0  0  0  0  # atno 11005 bound_to 11000
  145.7912  139.1928  143.2101 LP  0  0  0  0  0  0  0  0  0  0  0  0  # atno 17320 bound_to 7965
  146.0754  140.7823  142.9668 LP  0  0  0  0  0  0  0  0  0  0  0  0  # atno 17321 bound_to 7965
  140.7467  143.2895  151.3370 LP  0  0  0  0  0  0  0  0  0  0  0  0  # atno 17342 bound_to 10162
  139.6365  144.0621  152.2520 LP  0  0  0  0  0  0  0  0  0  0  0  0  # atno 17343 bound_to 10162
  156.3635  130.7493  151.2468 LP  0  0  0  0  0  0  0  0  0  0  0  0  # atno 17370 bound_to 10713
  157.7492  131.0343  150.4313 LP  0  0  0  0  0  0  0  0  0  0  0  0  # atno 17371 bound_to 10713
  140.9039  133.7760  155.9712 LP  0  0  0  0  0  0  0  0  0  0  0  0  # atno 17394 bound_to 11000
  140.8621  134.2828  157.5229 LP  0  0  0  0  0  0  0  0  0  0  0  0  # atno 17395 bound_to 11000

$$$$
