AV-unprocessed.smi:76|AV-procd|sdf|770|dock3
  -GOLD-   2262017113D 1   1.00000     0.00000
 Structure written by MMmdl.
 55 58  0  0  0  0  0  0  0  0  1 V2000
  149.0780  140.8998  157.5013 C   0  0  0  0  0  0  0  0  0  0  0  0
  150.3084  141.5048  156.7968 C   0  0  1  0  0  0  0  0  0  0  0  0
  150.6864  142.8922  157.3576 C   0  0  0  0  0  0  0  0  0  0  0  0
  151.3526  142.8115  158.7487 C   0  0  2  0  0  0  0  0  0  0  0  0
  151.7489  144.2015  159.2862 C   0  0  0  0  0  0  0  0  0  0  0  0
  150.6584  144.9463  159.4694 F   0  0  0  0  0  0  0  0  0  0  0  0
  152.3990  144.0967  160.4455 F   0  0  0  0  0  0  0  0  0  0  0  0
  152.5339  144.8228  158.4060 F   0  0  0  0  0  0  0  0  0  0  0  0
  152.5556  141.8506  158.6782 C   0  0  0  0  0  0  0  0  0  0  0  0
  152.1458  140.4753  158.1298 C   0  0  0  0  0  0  0  0  0  0  0  0
  151.4708  140.6093  156.8368 N   0  0  0  0  0  0  0  0  0  0  0  0
  151.4021  139.5063  156.0460 C   0  0  0  0  0  0  0  0  0  0  0  0
  151.1658  139.6469  154.7138 N   0  0  0  0  0  0  0  0  0  0  0  0
  151.1103  138.5745  153.9195 C   0  0  0  0  0  0  0  0  0  0  0  0
  151.2546  137.2887  154.2434 N   0  0  0  0  0  0  0  0  0  0  0  0
  151.4789  137.1374  155.5799 C   0  0  0  0  0  0  0  0  0  0  0  0
  151.5719  138.1825  156.5428 C   0  0  0  0  0  0  0  0  0  0  0  0
  151.8045  137.6417  157.8019 N   0  0  0  0  0  0  0  0  0  0  0  0
  151.8568  136.3550  157.5933 C   0  0  0  0  0  0  0  0  0  0  0  0
  151.6521  135.9614  156.2900 N   0  0  0  0  0  0  0  0  0  0  0  0
  151.6539  134.5971  155.7804 C   0  0  0  0  0  0  0  0  0  0  0  0
  150.2433  133.9427  155.6320 C   0  0  0  0  0  0  0  0  0  0  0  0
  149.2245  135.0466  155.2330 C   0  0  0  0  0  0  0  0  0  0  0  0
  148.1368  134.5612  154.4709 O   0  0  0  0  0  0  0  0  0  0  0  0
  150.3069  132.8501  154.5331 C   0  0  0  0  0  0  0  0  0  0  0  0
  151.0976  131.6045  154.9779 C   0  0  0  0  0  0  0  0  0  0  0  0
  150.5525  131.0820  156.1837 O   0  0  0  0  0  0  0  0  0  0  0  0
  150.6153  132.0003  157.2681 C   0  0  0  0  0  0  0  0  0  0  0  0
  149.7825  133.2528  156.9420 C   0  0  0  0  0  0  0  0  0  0  0  0
  148.2260  141.5774  157.4435 H   0  0  0  0  0  0  0  0  0  0  0  0
  149.2645  140.6944  158.5552 H   0  0  0  0  0  0  0  0  0  0  0  0
  148.7769  139.9625  157.0323 H   0  0  0  0  0  0  0  0  0  0  0  0
  150.0224  141.6661  155.7586 H   0  0  0  0  0  0  0  0  0  0  0  0
  151.3735  143.3749  156.6613 H   0  0  0  0  0  0  0  0  0  0  0  0
  149.8021  143.5289  157.3961 H   0  0  0  0  0  0  0  0  0  0  0  0
  150.6296  142.3905  159.4482 H   0  0  0  0  0  0  0  0  0  0  0  0
  153.3296  142.2762  158.0383 H   0  0  0  0  0  0  0  0  0  0  0  0
  153.0029  141.7298  159.6649 H   0  0  0  0  0  0  0  0  0  0  0  0
  153.0376  139.8558  158.0241 H   0  0  0  0  0  0  0  0  0  0  0  0
  151.4882  139.9682  158.8367 H   0  0  0  0  0  0  0  0  0  0  0  0
  150.9229  138.7758  152.8751 H   0  0  0  0  0  0  0  0  0  0  0  0
  152.0379  135.6521  158.3935 H   0  0  0  0  0  0  0  0  0  0  0  0
  152.1606  134.6031  154.8145 H   0  0  0  0  0  0  0  0  0  0  0  0
  152.2970  134.0124  156.4363 H   0  0  0  0  0  0  0  0  0  0  0  0
  148.8062  135.5251  156.1183 H   0  0  0  0  0  0  0  0  0  0  0  0
  149.7187  135.8277  154.6542 H   0  0  0  0  0  0  0  0  0  0  0  0
  148.2619  134.8199  153.5706 H   0  0  0  0  0  0  0  0  0  0  0  0
  149.3018  132.5177  154.2732 H   0  0  0  0  0  0  0  0  0  0  0  0
  150.7344  133.2557  153.6154 H   0  0  0  0  0  0  0  0  0  0  0  0
  151.0344  130.8343  154.2090 H   0  0  0  0  0  0  0  0  0  0  0  0
  152.1580  131.8212  155.1068 H   0  0  0  0  0  0  0  0  0  0  0  0
  150.2157  131.5133  158.1576 H   0  0  0  0  0  0  0  0  0  0  0  0
  151.6524  132.2520  157.4909 H   0  0  0  0  0  0  0  0  0  0  0  0
  149.7973  133.9479  157.7806 H   0  0  0  0  0  0  0  0  0  0  0  0
  148.7433  132.9371  156.8475 H   0  0  0  0  0  0  0  0  0  0  0  0
  1  2  1  0  0  0  0
  1 30  1  0  0  0  0
  1 31  1  0  0  0  0
  1 32  1  0  0  0  0
  2 11  1  0  0  0  0
  2  3  1  0  0  0  0
  2 33  1  0  0  0  0
  3  4  1  0  0  0  0
  3 34  1  0  0  0  0
  3 35  1  0  0  0  0
  4  5  1  0  0  0  0
  4  9  1  0  0  0  0
  4 36  1  0  0  0  0
  5  6  1  0  0  0  0
  5  7  1  0  0  0  0
  5  8  1  0  0  0  0
  9 10  1  0  0  0  0
  9 37  1  0  0  0  0
  9 38  1  0  0  0  0
 10 11  1  0  0  0  0
 10 39  1  0  0  0  0
 10 40  1  0  0  0  0
 11 12  1  0  0  0  0
 12 17  1  0  0  0  0
 12 13  2  0  0  0  0
 13 14  1  0  0  0  0
 14 15  2  0  0  0  0
 14 41  1  0  0  0  0
 15 16  1  0  0  0  0
 16 20  1  0  0  0  0
 16 17  2  0  0  0  0
 17 18  1  0  0  0  0
 18 19  2  0  0  0  0
 19 20  1  0  0  0  0
 19 42  1  0  0  0  0
 20 21  1  0  0  0  0
 21 22  1  0  0  0  0
 21 43  1  0  0  0  0
 21 44  1  0  0  0  0
 22 29  1  0  0  0  0
 22 23  1  0  0  0  0
 22 25  1  0  0  0  0
 23 24  1  0  0  0  0
 23 45  1  0  0  0  0
 23 46  1  0  0  0  0
 24 47  1  0  0  0  0
 25 26  1  0  0  0  0
 25 48  1  0  0  0  0
 25 49  1  0  0  0  0
 26 27  1  0  0  0  0
 26 50  1  0  0  0  0
 26 51  1  0  0  0  0
 27 28  1  0  0  0  0
 28 29  1  0  0  0  0
 28 52  1  0  0  0  0
 28 53  1  0  0  0  0
 29 54  1  0  0  0  0
 29 55  1  0  0  0  0
M  END
> <s_m_source_file>
AV-unprocessed.smi

> <i_m_source_file_index>
76

> <i_lp_mmshare_version>
43012

> <i_f3d_flags>
0

> <s_epik_input>
W0NIM11bQ0BASF0xW0NIMl1bQ0BASF0oQyhGKShGKUYpW0NIMl1bQ0gyXU4xYyhuW2NIXW4yKWMoYzIzKW5bY0hdbjNbQ0gyXUM0KFtDSDJdW09IXSlbQ0gyXVtDSDJdT1tDSDJdW0NIMl00

> <s_epik_cmdline>
J2VwaWtfcHl0aG9uJywgJy1waCcsICc3LjAnLCAnLXRuJywgJzgnLCAnLW1hJywgJzIwMCcsICctbWV0YWxfYmluZGluZycsICctaW1hZScsICc8aW5maWxlLm1hZT4nLCAnLW9tYWUnLCAnPG91dGZpbGUubWFlPic=

> <r_lp_tautomer_probability>
1

> <r_epik_Ionization_Penalty>
0.00244097

> <r_epik_Ionization_Penalty_Charging>
0

> <r_epik_Ionization_Penalty_Neutral>
0.00244097

> <r_epik_State_Penalty>
0.00151846

> <r_epik_Charging_Adjusted_Penalty>
0.00151846

> <i_epik_Tot_Q>
0

> <i_epik_Tot_abs_Q>
0

> <r_epik_Metal_State_Penalty>
-0

> <b_epik_Metal_Only>
0

> <s_lp_Force_Field>
OPLS_2005

> <r_lp_Energy>
37.9525

> <b_lp_Chiralities_Consistent>
1

> <s_lp_Variant>
AV-unprocessed.smi:76-4

> <Gold.Version>
5.8.1

> <Gold.Id.Protein>
6NUR|6NUR_protein|mol2

> <Gold.PLP.Fitness>
50.6896

> <Gold.PLP.PLP>
-46.3128

> <Gold.PLP.part.hbond>
-2.0000

> <Gold.PLP.part.metal>
0.0000

> <Gold.PLP.part.buried>
-5.6327

> <Gold.PLP.part.nonpolar>
-40.0050

> <Gold.PLP.part.repulsive>
0.7781

> <Gold.PLP.ligand.clash>
0.0000

> <Gold.PLP.ligand.torsion>
1.9306

> <Gold.PLP.Chemscore.Hbond>
2.0000

> <Gold.PLP.Chemscore.CHOScore>
0.6360

> <Gold.PLP.Chemscore.Metal>
0.0000

> <Gold.Chemscore.Hbonds>
donor molecule, donor type, donor heavy atom, donor atom, acceptor molecule, acceptor atom, score
      L1  H    24    47       P1  7948  0.34
      P1  H  7989  7998       L1    13  0.95
      L1  C    14    41       P1  7957  0.77

> <Gold.PLP.Chemscore.Internal.Correction>
0.3300

> <Gold.Rescore>
     Score         DG    S(hbond)    S(metal)    S(lipo)     H(rot)  DE(clash)    DE(int)     intcor
     12.68     -16.04       1.75        0.00      87.65       2.16       0.18       3.18       ----

> <Gold.Chemscore.Fitness>
12.6801

> <Gold.Chemscore.DG>
-16.0429

> <Gold.Chemscore.ZeroCoef>
-5.4800

> <Gold.Chemscore.Hbond>
1.7468

> <Gold.Chemscore.Metal>
0.0000

> <Gold.Chemscore.Lipo>
87.6521

> <Gold.Chemscore.Internal_Hbond>
0.0000

> <Gold.Chemscore.DEClash>
0.1817

> <Gold.Chemscore.DEInternal>
3.1810

> <Gold.Chemscore.Rot>
2.1589

> <Gold.Chemscore.Internal.Correction>
   9.000000E+99

> <Gold.Chemscore.Hbonds>
donor molecule, donor type, donor heavy atom, donor atom, acceptor molecule, acceptor atom, score
      L1  H    24    47       P1  7948  0.29
      P1  H  7989  7998       L1    13  0.22

> <Gold.Chemscore.Hbond.Weighted>
-5.8344

> <Gold.Chemscore.Metal.Weighted>
-0.0000

> <Gold.Chemscore.Lipo.Weighted>
-10.2553

> <Gold.Chemscore.Internal_Hbond.Weighted>
0.0000

> <Gold.Chemscore.DEClash.Weighted>
0.1817

> <Gold.Chemscore.DEInternal.Weighted>
3.1810

> <Gold.Chemscore.Rot.Weighted>
5.5268

> <Gold.Chemscore.Internal.Correction.Weighted>
   9.000000E+99

> <Gold.Protein.RotatedTorsions>
[ 6907 6896 6895 6894 ] final  125.46 input  -60.11 | X-H torsion
[ 7974 7965 7964 7962 ] final -123.65 input  175.53 | X-H torsion
[ 8008 7997 7996 7995 ] final -135.81 input   59.86 | X-H torsion
[ 10167 10162 10161 10158 ] final  -49.64 input  -65.29 | X-H torsion
[ 10718 10713 10712 10709 ] final  -38.74 input   66.30 | X-H torsion
[ 10763 10752 10751 10750 ] final   58.11 input  -60.55 | X-H torsion
[ 11005 11000 10999 10996 ] final   26.43 input  -57.11 | X-H torsion

> <Gold.Protein.ActiveResidues>
 VAL166  LYS551  ARG553  GLY616  TRP617  ASP618  TYR619  PRO620  LYS621  CYS622 
 ASP623  PHE694  ASN695  SER759  ASP760  ASP761  ALA762  ILE779  LEU786  VAL792 
 PHE793  MET794  SER795  GLU796  ALA797  LYS798  CYS799  TRP800  GLU811  SER814 

> <Gold.Protein.RotatedAtoms>
  152.3990  133.6789  159.6299 H   0  0  0  0  0  0  0  0  0  0  0  0  # atno 6907 bound_to 6896
  150.7884  133.8825  159.3298 H   0  0  0  0  0  0  0  0  0  0  0  0  # atno 6908 bound_to 6896
  151.6595  135.0993  160.0228 H   0  0  0  0  0  0  0  0  0  0  0  0  # atno 6909 bound_to 6896
  145.0164  140.7951  143.4407 H   0  0  0  0  0  0  0  0  0  0  0  0  # atno 7974 bound_to 7965
  155.3848  140.0496  157.3042 H   0  0  0  0  0  0  0  0  0  0  0  0  # atno 8008 bound_to 7997
  154.5065  140.2176  155.9203 H   0  0  0  0  0  0  0  0  0  0  0  0  # atno 8009 bound_to 7997
  156.1531  140.3132  155.8687 H   0  0  0  0  0  0  0  0  0  0  0  0  # atno 8010 bound_to 7997
  140.6675  143.2689  151.4244 H   0  0  0  0  0  0  0  0  0  0  0  0  # atno 10167 bound_to 10162
  156.3004  130.4239  149.8149 H   0  0  0  0  0  0  0  0  0  0  0  0  # atno 10718 bound_to 10713
  152.9864  135.5618  154.5499 H   0  0  0  0  0  0  0  0  0  0  0  0  # atno 10763 bound_to 10752
  154.4938  135.2794  155.1477 H   0  0  0  0  0  0  0  0  0  0  0  0  # atno 10764 bound_to 10752
  154.2936  135.6321  153.5448 H   0  0  0  0  0  0  0  0  0  0  0  0  # atno 10765 bound_to 10752
  140.3371  134.2374  155.7694 H   0  0  0  0  0  0  0  0  0  0  0  0  # atno 11005 bound_to 11000
  145.1954  139.2279  143.5221 LP  0  0  0  0  0  0  0  0  0  0  0  0  # atno 17320 bound_to 7965
  146.3478  140.1759  142.8589 LP  0  0  0  0  0  0  0  0  0  0  0  0  # atno 17321 bound_to 7965
  139.5930  144.1458  152.2111 LP  0  0  0  0  0  0  0  0  0  0  0  0  # atno 17342 bound_to 10162
  140.0818  144.5694  150.7117 LP  0  0  0  0  0  0  0  0  0  0  0  0  # atno 17343 bound_to 10162
  156.5530  130.8350  151.3305 LP  0  0  0  0  0  0  0  0  0  0  0  0  # atno 17370 bound_to 10713
  157.7366  130.9782  150.2147 LP  0  0  0  0  0  0  0  0  0  0  0  0  # atno 17371 bound_to 10713
  141.2048  133.7876  157.0265 LP  0  0  0  0  0  0  0  0  0  0  0  0  # atno 17394 bound_to 11000
  140.0812  134.9647  157.1627 LP  0  0  0  0  0  0  0  0  0  0  0  0  # atno 17395 bound_to 11000

$$$$
