AV-unprocessed.smi:1934|AV-procd|sdf|7824|dock6
  -GOLD-   22720 9573D 1   1.00000     0.00000
 Structure written by MMmdl.
 46 47  0  0  0  0  0  0  0  0  2 V2000
  147.5082  136.5000  163.1608 C   0  0  0  0  0  0  0  0  0  0  0  0
  147.7285  136.2022  161.7069 C   0  0  0  0  0  0  0  0  0  0  0  0
  147.7038  134.9343  161.0556 C   0  0  0  0  0  0  0  0  0  0  0  0
  147.9635  135.2604  159.7526 C   0  0  0  0  0  0  0  0  0  0  0  0
  148.0538  134.4453  158.6682 N   0  0  0  0  0  0  0  0  0  0  0  0
  147.4867  134.5903  157.4579 C   0  0  0  0  0  0  0  0  0  0  0  0
  146.7541  135.5192  157.1166 O   0  0  0  0  0  0  0  0  0  0  0  0
  147.8130  133.5750  156.6450 N   0  0  0  0  0  0  0  0  0  0  0  0
  147.3623  133.4304  155.2657 C   0  0  0  0  0  0  0  0  0  0  0  0
  145.8523  133.1308  155.1926 C   0  0  0  0  0  0  0  0  0  0  0  0
  145.4355  132.6535  153.8500 N   0  3  2  0  0  0  0  0  0  0  0  0
  146.1879  131.4449  153.4240 C   0  0  0  0  0  0  0  0  0  0  0  0
  145.6315  130.8804  152.1073 C   0  0  0  0  0  0  0  0  0  0  0  0
  145.6355  131.9482  151.0047 C   0  0  0  0  0  0  0  0  0  0  0  0
  144.9093  133.2267  151.4627 C   0  0  1  0  0  0  0  0  0  0  0  0
  143.3796  133.0637  151.5019 C   0  0  0  0  0  0  0  0  0  0  0  0
  145.4772  133.7181  152.8104 C   0  0  0  0  0  0  0  0  0  0  0  0
  148.1269  136.6246  159.6592 N   0  0  0  0  0  0  0  0  0  0  0  0
  148.4117  137.4417  158.4960 C   0  0  0  0  0  0  0  0  0  0  0  0
  147.9803  137.2029  160.8707 N   0  0  0  0  0  0  0  0  0  0  0  0
  147.3098  135.5884  163.7245 H   0  0  0  0  0  0  0  0  0  0  0  0
  146.6579  137.1678  163.3004 H   0  0  0  0  0  0  0  0  0  0  0  0
  148.3840  136.9780  163.6006 H   0  0  0  0  0  0  0  0  0  0  0  0
  147.5211  133.9633  161.4905 H   0  0  0  0  0  0  0  0  0  0  0  0
  148.6189  133.6192  158.7992 H   0  0  0  0  0  0  0  0  0  0  0  0
  148.4218  132.8539  157.0044 H   0  0  0  0  0  0  0  0  0  0  0  0
  147.6011  134.3321  154.6988 H   0  0  0  0  0  0  0  0  0  0  0  0
  147.9421  132.6228  154.8211 H   0  0  0  0  0  0  0  0  0  0  0  0
  145.5628  132.4028  155.9521 H   0  0  0  0  0  0  0  0  0  0  0  0
  145.3105  134.0484  155.4261 H   0  0  0  0  0  0  0  0  0  0  0  0
  147.2447  131.6929  153.3128 H   0  0  0  0  0  0  0  0  0  0  0  0
  146.1214  130.6758  154.1946 H   0  0  0  0  0  0  0  0  0  0  0  0
  146.2251  130.0215  151.7927 H   0  0  0  0  0  0  0  0  0  0  0  0
  144.6184  130.5090  152.2641 H   0  0  0  0  0  0  0  0  0  0  0  0
  146.6679  132.1936  150.7521 H   0  0  0  0  0  0  0  0  0  0  0  0
  145.1838  131.5550  150.0932 H   0  0  0  0  0  0  0  0  0  0  0  0
  145.1157  133.9991  150.7206 H   0  0  0  0  0  0  0  0  0  0  0  0
  143.0659  132.3289  152.2434 H   0  0  0  0  0  0  0  0  0  0  0  0
  142.9953  132.7425  150.5334 H   0  0  0  0  0  0  0  0  0  0  0  0
  142.8931  134.0077  151.7491 H   0  0  0  0  0  0  0  0  0  0  0  0
  144.9189  134.5955  153.1347 H   0  0  0  0  0  0  0  0  0  0  0  0
  146.5105  134.0429  152.6772 H   0  0  0  0  0  0  0  0  0  0  0  0
  149.2435  137.0114  157.9378 H   0  0  0  0  0  0  0  0  0  0  0  0
  148.6781  138.4563  158.7960 H   0  0  0  0  0  0  0  0  0  0  0  0
  147.5320  137.4803  157.8534 H   0  0  0  0  0  0  0  0  0  0  0  0
  144.4718  132.3645  153.9383 H   0  0  0  0  0  0  0  0  0  0  0  0
  1  2  1  0  0  0  0
  1 21  1  0  0  0  0
  1 22  1  0  0  0  0
  1 23  1  0  0  0  0
  2 20  2  0  0  0  0
  2  3  1  0  0  0  0
  3  4  2  0  0  0  0
  3 24  1  0  0  0  0
  4  5  1  0  0  0  0
  4 18  1  0  0  0  0
  5  6  1  0  0  0  0
  5 25  1  0  0  0  0
  6  7  2  0  0  0  0
  6  8  1  0  0  0  0
  8  9  1  0  0  0  0
  8 26  1  0  0  0  0
  9 10  1  0  0  0  0
  9 27  1  0  0  0  0
  9 28  1  0  0  0  0
 10 11  1  0  0  0  0
 10 29  1  0  0  0  0
 10 30  1  0  0  0  0
 11 17  1  0  0  0  0
 11 12  1  0  0  0  0
 11 46  1  0  0  0  0
 12 13  1  0  0  0  0
 12 31  1  0  0  0  0
 12 32  1  0  0  0  0
 13 14  1  0  0  0  0
 13 33  1  0  0  0  0
 13 34  1  0  0  0  0
 14 15  1  0  0  0  0
 14 35  1  0  0  0  0
 14 36  1  0  0  0  0
 15 16  1  0  0  0  0
 15 17  1  0  0  0  0
 15 37  1  0  0  0  0
 16 38  1  0  0  0  0
 16 39  1  0  0  0  0
 16 40  1  0  0  0  0
 17 41  1  0  0  0  0
 17 42  1  0  0  0  0
 18 19  1  0  0  0  0
 18 20  1  0  0  0  0
 19 43  1  0  0  0  0
 19 44  1  0  0  0  0
 19 45  1  0  0  0  0
M  CHG  1  11   1
M  END
> <s_m_source_file>
AV-unprocessed.smi

> <i_m_source_file_index>
1934

> <i_lp_mmshare_version>
43012

> <i_f3d_flags>
0

> <s_epik_input>
W0NIM11jMVtjSF1jKG4objEpW0NIM10pW05IXUMoPU8pW05IXVtDSDJdW0NIMl1OMltDSDJdW0NIMl1bQ0gyXVtDQEBIXShbQ0gzXSlbQ0gyXTI=

> <s_epik_cmdline>
J2VwaWtfcHl0aG9uJywgJy1waCcsICc3LjAnLCAnLXRuJywgJzgnLCAnLW1hJywgJzIwMCcsICctbWV0YWxfYmluZGluZycsICctaW1hZScsICc8aW5maWxlLm1hZT4nLCAnLW9tYWUnLCAnPG91dGZpbGUubWFlPic=

> <r_lp_tautomer_probability>
1

> <r_epik_Ionization_Penalty>
0.00202955

> <r_epik_Ionization_Penalty_Charging>
0.00195276

> <r_epik_Ionization_Penalty_Neutral>
7.67968e-05

> <r_epik_State_Penalty>
0.00133177

> <r_epik_Charging_Adjusted_Penalty>
0.00328452

> <i_epik_Tot_Q>
1

> <i_epik_Tot_abs_Q>
1

> <r_epik_Metal_State_Penalty>
-0

> <b_epik_Metal_Only>
0

> <s_lp_Force_Field>
OPLS_2005

> <r_lp_Energy>
20.6023

> <b_lp_Chiralities_Consistent>
1

> <s_lp_Variant>
AV-unprocessed.smi:1934-2

> <Gold.Version>
5.8.1

> <Gold.Id.Protein>
6NUR|6NUR_protein|mol2

> <Gold.PLP.Fitness>
38.3560

> <Gold.PLP.PLP>
-28.6109

> <Gold.PLP.part.hbond>
-3.0000

> <Gold.PLP.part.metal>
0.0000

> <Gold.PLP.part.buried>
-4.7098

> <Gold.PLP.part.nonpolar>
-22.2028

> <Gold.PLP.part.repulsive>
0.0712

> <Gold.PLP.ligand.clash>
0.0000

> <Gold.PLP.ligand.torsion>
0.5216

> <Gold.PLP.Chemscore.Hbond>
3.5820

> <Gold.PLP.Chemscore.CHOScore>
0.0000

> <Gold.PLP.Chemscore.Metal>
0.0000

> <Gold.Chemscore.Hbonds>
donor molecule, donor type, donor heavy atom, donor atom, acceptor molecule, acceptor atom, score
      L1  H    11    46       P1 10957  1.82
      P1  H  6931  6943       L1    20  0.88
      P1  H  6934  6947       L1    20  0.75

> <Gold.PLP.Chemscore.Internal.Correction>
0.0423

> <Gold.Rescore>
     Score         DG    S(hbond)    S(metal)    S(lipo)     H(rot)  DE(clash)    DE(int)     intcor
     15.50     -16.48       2.15        0.00      65.23       1.48       0.42       0.56       ----

> <Gold.Chemscore.Fitness>
15.5047

> <Gold.Chemscore.DG>
-16.4816

> <Gold.Chemscore.ZeroCoef>
-5.4800

> <Gold.Chemscore.Hbond>
2.1460

> <Gold.Chemscore.Metal>
0.0000

> <Gold.Chemscore.Lipo>
65.2337

> <Gold.Chemscore.Internal_Hbond>
0.0000

> <Gold.Chemscore.DEClash>
0.4212

> <Gold.Chemscore.DEInternal>
0.5557

> <Gold.Chemscore.Rot>
1.4838

> <Gold.Chemscore.Internal.Correction>
   9.000000E+99

> <Gold.Chemscore.Hbonds>
donor molecule, donor type, donor heavy atom, donor atom, acceptor molecule, acceptor atom, score
      L1  H    11    46       P1 10957  0.31
      P1  H  6931  6943       L1    20  0.26
      P1  H  6934  6947       L1    20  0.71

> <Gold.Chemscore.Hbond.Weighted>
-7.1677

> <Gold.Chemscore.Metal.Weighted>
-0.0000

> <Gold.Chemscore.Lipo.Weighted>
-7.6323

> <Gold.Chemscore.Internal_Hbond.Weighted>
0.0000

> <Gold.Chemscore.DEClash.Weighted>
0.4212

> <Gold.Chemscore.DEInternal.Weighted>
0.5557

> <Gold.Chemscore.Rot.Weighted>
3.7985

> <Gold.Chemscore.Internal.Correction.Weighted>
   9.000000E+99

> <Gold.Protein.RotatedTorsions>
[ 6907 6896 6895 6894 ] final  -43.69 input  -60.11 | X-H torsion
[ 7974 7965 7964 7962 ] final  -71.66 input  175.53 | X-H torsion
[ 8008 7997 7996 7995 ] final   40.54 input   59.86 | X-H torsion
[ 10167 10162 10161 10158 ] final   61.51 input  -65.29 | X-H torsion
[ 10718 10713 10712 10709 ] final  176.80 input   66.30 | X-H torsion
[ 10763 10752 10751 10750 ] final   95.10 input  -60.55 | X-H torsion
[ 11005 11000 10999 10996 ] final  118.40 input  -57.11 | X-H torsion

> <Gold.Protein.ActiveResidues>
 VAL166  LYS551  ARG553  GLY616  TRP617  ASP618  TYR619  PRO620  LYS621  CYS622 
 ASP623  PHE694  ASN695  SER759  ASP760  ASP761  ALA762  ILE779  LEU786  VAL792 
 PHE793  MET794  SER795  GLU796  ALA797  LYS798  CYS799  TRP800  GLU811  SER814 

> <Gold.Protein.RotatedAtoms>
  150.9411  134.8820  159.7612 H   0  0  0  0  0  0  0  0  0  0  0  0  # atno 6907 bound_to 6896
  152.5080  134.3940  159.9404 H   0  0  0  0  0  0  0  0  0  0  0  0  # atno 6908 bound_to 6896
  151.3961  133.3732  159.2761 H   0  0  0  0  0  0  0  0  0  0  0  0  # atno 6909 bound_to 6896
  145.6752  140.9207  143.0862 H   0  0  0  0  0  0  0  0  0  0  0  0  # atno 7974 bound_to 7965
  155.2548  140.3355  155.4278 H   0  0  0  0  0  0  0  0  0  0  0  0  # atno 8008 bound_to 7997
  156.2200  140.1805  156.7543 H   0  0  0  0  0  0  0  0  0  0  0  0  # atno 8009 bound_to 7997
  154.5811  140.0653  156.9089 H   0  0  0  0  0  0  0  0  0  0  0  0  # atno 8010 bound_to 7997
  140.1540  144.4435  150.6744 H   0  0  0  0  0  0  0  0  0  0  0  0  # atno 10167 bound_to 10162
  156.9148  130.9921  151.3014 H   0  0  0  0  0  0  0  0  0  0  0  0  # atno 10718 bound_to 10713
  153.2493  135.4266  155.0781 H   0  0  0  0  0  0  0  0  0  0  0  0  # atno 10763 bound_to 10752
  154.8375  135.3422  154.6536 H   0  0  0  0  0  0  0  0  0  0  0  0  # atno 10764 bound_to 10752
  153.6957  135.7031  153.5134 H   0  0  0  0  0  0  0  0  0  0  0  0  # atno 10765 bound_to 10752
  139.9108  134.9620  156.7498 H   0  0  0  0  0  0  0  0  0  0  0  0  # atno 11005 bound_to 11000
  144.7044  139.8624  143.7434 LP  0  0  0  0  0  0  0  0  0  0  0  0  # atno 17320 bound_to 7965
  146.1012  139.4007  143.0346 LP  0  0  0  0  0  0  0  0  0  0  0  0  # atno 17321 bound_to 7965
  140.6685  143.2277  151.5684 LP  0  0  0  0  0  0  0  0  0  0  0  0  # atno 17342 bound_to 10162
  139.5412  144.2642  152.1355 LP  0  0  0  0  0  0  0  0  0  0  0  0  # atno 17343 bound_to 10162
  157.5945  130.8467  149.8708 LP  0  0  0  0  0  0  0  0  0  0  0  0  # atno 17370 bound_to 10713
  156.0519  130.3716  150.1182 LP  0  0  0  0  0  0  0  0  0  0  0  0  # atno 17371 bound_to 10713
  140.6783  133.9498  155.7895 LP  0  0  0  0  0  0  0  0  0  0  0  0  # atno 17394 bound_to 11000
  141.0529  134.0459  157.3760 LP  0  0  0  0  0  0  0  0  0  0  0  0  # atno 17395 bound_to 11000

$$$$
