AV-unprocessed.smi:2275|AV-procd|sdf|9171|dock1
  -GOLD-   2272012383D 1   1.00000     0.00000
 Structure written by MMmdl.
 38 39  0  0  0  0  0  0  0  0  1 V2000
  146.3627  137.9768  153.9296 C   0  0  0  0  0  0  0  0  0  0  0  0
  147.8098  138.2687  154.2853 C   0  0  0  0  0  0  0  0  0  0  0  0
  148.5597  137.1699  154.7150 N   0  0  0  0  0  0  0  0  0  0  0  0
  149.8036  137.3229  155.0330 C   0  0  0  0  0  0  0  0  0  0  0  0
  150.4361  138.5740  154.9550 N   0  0  0  0  0  0  0  0  0  0  0  0
  151.8574  138.6104  155.3362 C   0  0  0  0  0  0  0  0  0  0  0  0
  152.0518  138.9979  156.8193 C   0  0  1  0  0  0  0  0  0  0  0  0
  153.4273  139.0365  157.1415 O   0  0  0  0  0  0  0  0  0  0  0  0
  151.4509  140.3697  157.1682 C   0  0  0  0  0  0  0  0  0  0  0  0
  152.0166  140.8519  158.3814 O   0  0  0  0  0  0  0  0  0  0  0  0
  151.9612  142.2051  158.6363 C   0  0  0  0  0  0  0  0  0  0  0  0
  152.4284  142.6378  159.8947 C   0  0  0  0  0  0  0  0  0  0  0  0
  152.4095  144.0025  160.2411 C   0  0  0  0  0  0  0  0  0  0  0  0
  151.9209  144.9532  159.3264 C   0  0  0  0  0  0  0  0  0  0  0  0
  151.4512  144.5360  158.0673 C   0  0  0  0  0  0  0  0  0  0  0  0
  151.4698  143.1706  157.7211 C   0  0  0  0  0  0  0  0  0  0  0  0
  149.7727  139.7015  154.5674 C   0  0  0  0  0  0  0  0  0  0  0  0
  150.3302  140.8002  154.5318 O   0  0  0  0  0  0  0  0  0  0  0  0
  148.3603  139.5105  154.2000 C   0  0  0  0  0  0  0  0  0  0  0  0
  147.5939  140.7435  153.7378 C   0  0  0  0  0  0  0  0  0  0  0  0
  146.1754  138.2014  152.8795 H   0  0  0  0  0  0  0  0  0  0  0  0
  145.6898  138.5778  154.5416 H   0  0  0  0  0  0  0  0  0  0  0  0
  146.1156  136.9276  154.0963 H   0  0  0  0  0  0  0  0  0  0  0  0
  150.4312  136.5003  155.3806 H   0  0  0  0  0  0  0  0  0  0  0  0
  152.3657  137.6695  155.1147 H   0  0  0  0  0  0  0  0  0  0  0  0
  152.3647  139.3406  154.7028 H   0  0  0  0  0  0  0  0  0  0  0  0
  151.5859  138.2563  157.4697 H   0  0  0  0  0  0  0  0  0  0  0  0
  153.7974  138.1834  156.9722 H   0  0  0  0  0  0  0  0  0  0  0  0
  151.6888  141.0662  156.3625 H   0  0  0  0  0  0  0  0  0  0  0  0
  150.3636  140.3045  157.2387 H   0  0  0  0  0  0  0  0  0  0  0  0
  152.8053  141.9148  160.6032 H   0  0  0  0  0  0  0  0  0  0  0  0
  152.7698  144.3191  161.2087 H   0  0  0  0  0  0  0  0  0  0  0  0
  151.9059  146.0006  159.5902 H   0  0  0  0  0  0  0  0  0  0  0  0
  151.0756  145.2649  157.3643 H   0  0  0  0  0  0  0  0  0  0  0  0
  151.1015  142.8900  156.7462 H   0  0  0  0  0  0  0  0  0  0  0  0
  147.5729  141.4918  154.5307 H   0  0  0  0  0  0  0  0  0  0  0  0
  146.5631  140.5298  153.4599 H   0  0  0  0  0  0  0  0  0  0  0  0
  148.0819  141.1854  152.8684 H   0  0  0  0  0  0  0  0  0  0  0  0
  1  2  1  0  0  0  0
  1 21  1  0  0  0  0
  1 22  1  0  0  0  0
  1 23  1  0  0  0  0
  2 19  2  0  0  0  0
  2  3  1  0  0  0  0
  3  4  2  0  0  0  0
  4  5  1  0  0  0  0
  4 24  1  0  0  0  0
  5  6  1  0  0  0  0
  5 17  1  0  0  0  0
  6  7  1  0  0  0  0
  6 25  1  0  0  0  0
  6 26  1  0  0  0  0
  7  8  1  0  0  0  0
  7  9  1  0  0  0  0
  7 27  1  0  0  0  0
  8 28  1  0  0  0  0
  9 10  1  0  0  0  0
  9 29  1  0  0  0  0
  9 30  1  0  0  0  0
 10 11  1  0  0  0  0
 11 16  1  0  0  0  0
 11 12  2  0  0  0  0
 12 13  1  0  0  0  0
 12 31  1  0  0  0  0
 13 14  2  0  0  0  0
 13 32  1  0  0  0  0
 14 15  1  0  0  0  0
 14 33  1  0  0  0  0
 15 16  2  0  0  0  0
 15 34  1  0  0  0  0
 16 35  1  0  0  0  0
 17 18  2  0  0  0  0
 17 19  1  0  0  0  0
 19 20  1  0  0  0  0
 20 36  1  0  0  0  0
 20 37  1  0  0  0  0
 20 38  1  0  0  0  0
M  END
> <s_m_source_file>
AV-unprocessed.smi

> <i_m_source_file_index>
2275

> <i_lp_mmshare_version>
43012

> <i_f3d_flags>
0

> <s_epik_input>
W0NIM11jMW5bY0hdbihjKD1PKWMxW0NIM10pW0NIMl1bQ0BIXShbT0hdKVtDSDJdT2MyW2NIXVtjSF1bY0hdW2NIXVtjSF0y

> <s_epik_cmdline>
J2VwaWtfcHl0aG9uJywgJy1waCcsICc3LjAnLCAnLXRuJywgJzgnLCAnLW1hJywgJzIwMCcsICctbWV0YWxfYmluZGluZycsICctaW1hZScsICc8aW5maWxlLm1hZT4nLCAnLW9tYWUnLCAnPG91dGZpbGUubWFlPic=

> <r_lp_tautomer_probability>
1

> <r_epik_Ionization_Penalty>
4.18311e-05

> <r_epik_Ionization_Penalty_Charging>
1.04093e-07

> <r_epik_Ionization_Penalty_Neutral>
4.1727e-05

> <r_epik_State_Penalty>
-0

> <r_epik_Charging_Adjusted_Penalty>
1.04093e-07

> <i_epik_Tot_Q>
0

> <i_epik_Tot_abs_Q>
0

> <r_epik_Metal_State_Penalty>
-0

> <b_epik_Metal_Only>
0

> <s_lp_Force_Field>
OPLS_2005

> <r_lp_Energy>
23.5562

> <b_lp_Chiralities_Consistent>
1

> <s_lp_Variant>
AV-unprocessed.smi:2275-2

> <Gold.Version>
5.8.1

> <Gold.Id.Protein>
6NUR|6NUR_protein|mol2

> <Gold.PLP.Fitness>
43.4451

> <Gold.PLP.PLP>
-39.3577

> <Gold.PLP.part.hbond>
-1.5948

> <Gold.PLP.part.metal>
0.0000

> <Gold.PLP.part.buried>
-4.0752

> <Gold.PLP.part.nonpolar>
-34.2773

> <Gold.PLP.part.repulsive>
0.8118

> <Gold.PLP.ligand.clash>
0.0000

> <Gold.PLP.ligand.torsion>
0.6670

> <Gold.PLP.Chemscore.Hbond>
1.7840

> <Gold.PLP.Chemscore.CHOScore>
0.0000

> <Gold.PLP.Chemscore.Metal>
0.0000

> <Gold.Chemscore.Hbonds>
donor molecule, donor type, donor heavy atom, donor atom, acceptor molecule, acceptor atom, score
      P1  H  7989  7998       L1    18  0.78
      P1  H  7997  8010       L1     8  0.96

> <Gold.PLP.Chemscore.Internal.Correction>
0.0694

> <Gold.Rescore>
     Score         DG    S(hbond)    S(metal)    S(lipo)     H(rot)  DE(clash)    DE(int)     intcor
     17.23     -17.86       1.87        0.00     104.47       2.38       0.04       0.59       ----

> <Gold.Chemscore.Fitness>
17.2331

> <Gold.Chemscore.DG>
-17.8624

> <Gold.Chemscore.ZeroCoef>
-5.4800

> <Gold.Chemscore.Hbond>
1.8740

> <Gold.Chemscore.Metal>
0.0000

> <Gold.Chemscore.Lipo>
104.4688

> <Gold.Chemscore.Internal_Hbond>
0.0000

> <Gold.Chemscore.DEClash>
0.0417

> <Gold.Chemscore.DEInternal>
0.5875

> <Gold.Chemscore.Rot>
2.3826

> <Gold.Chemscore.Internal.Correction>
   9.000000E+99

> <Gold.Chemscore.Hbonds>
donor molecule, donor type, donor heavy atom, donor atom, acceptor molecule, acceptor atom, score
      P1  H  7989  7998       L1    18  0.70
      P1  H  7997  8010       L1     8  0.44

> <Gold.Chemscore.Hbond.Weighted>
-6.2591

> <Gold.Chemscore.Metal.Weighted>
-0.0000

> <Gold.Chemscore.Lipo.Weighted>
-12.2228

> <Gold.Chemscore.Internal_Hbond.Weighted>
0.0000

> <Gold.Chemscore.DEClash.Weighted>
0.0417

> <Gold.Chemscore.DEInternal.Weighted>
0.5875

> <Gold.Chemscore.Rot.Weighted>
6.0996

> <Gold.Chemscore.Internal.Correction.Weighted>
   9.000000E+99

> <Gold.Protein.RotatedTorsions>
[ 6907 6896 6895 6894 ] final   84.48 input  -60.11 | X-H torsion
[ 7974 7965 7964 7962 ] final  172.90 input  175.53 | X-H torsion
[ 8008 7997 7996 7995 ] final   36.10 input   59.86 | X-H torsion
[ 10167 10162 10161 10158 ] final  177.40 input  -65.29 | X-H torsion
[ 10718 10713 10712 10709 ] final  -72.77 input   66.30 | X-H torsion
[ 10763 10752 10751 10750 ] final  157.53 input  -60.55 | X-H torsion
[ 11005 11000 10999 10996 ] final  176.20 input  -57.11 | X-H torsion

> <Gold.Protein.ActiveResidues>
 VAL166  LYS551  ARG553  GLY616  TRP617  ASP618  TYR619  PRO620  LYS621  CYS622 
 ASP623  PHE694  ASN695  SER759  ASP760  ASP761  ALA762  ILE779  LEU786  VAL792 
 PHE793  MET794  SER795  GLU796  ALA797  LYS798  CYS799  TRP800  GLU811  SER814 

> <Gold.Protein.RotatedAtoms>
  152.5353  134.2734  159.8979 H   0  0  0  0  0  0  0  0  0  0  0  0  # atno 6907 bound_to 6896
  151.2690  133.4258  159.2628 H   0  0  0  0  0  0  0  0  0  0  0  0  # atno 6908 bound_to 6896
  151.0385  134.9605  159.8205 H   0  0  0  0  0  0  0  0  0  0  0  0  # atno 6909 bound_to 6896
  144.7256  139.9568  143.6433 H   0  0  0  0  0  0  0  0  0  0  0  0  # atno 7974 bound_to 7965
  155.1819  140.3300  155.4373 H   0  0  0  0  0  0  0  0  0  0  0  0  # atno 8008 bound_to 7997
  156.2473  140.1925  156.6867 H   0  0  0  0  0  0  0  0  0  0  0  0  # atno 8009 bound_to 7997
  154.6265  140.0588  156.9666 H   0  0  0  0  0  0  0  0  0  0  0  0  # atno 8010 bound_to 7997
  139.5252  144.2802  152.0553 H   0  0  0  0  0  0  0  0  0  0  0  0  # atno 10167 bound_to 10162
  156.0307  130.4379  150.2642 H   0  0  0  0  0  0  0  0  0  0  0  0  # atno 10718 bound_to 10713
  154.2016  135.2790  155.2989 H   0  0  0  0  0  0  0  0  0  0  0  0  # atno 10763 bound_to 10752
  154.5849  135.5578  153.7225 H   0  0  0  0  0  0  0  0  0  0  0  0  # atno 10764 bound_to 10752
  153.0086  135.6354  154.2155 H   0  0  0  0  0  0  0  0  0  0  0  0  # atno 10765 bound_to 10752
  140.3706  134.7033  157.4389 H   0  0  0  0  0  0  0  0  0  0  0  0  # atno 11005 bound_to 11000
  146.0669  139.3659  143.0547 LP  0  0  0  0  0  0  0  0  0  0  0  0  # atno 17320 bound_to 7965
  145.8020  140.9766  143.0994 LP  0  0  0  0  0  0  0  0  0  0  0  0  # atno 17321 bound_to 7965
  140.2258  144.4420  150.6322 LP  0  0  0  0  0  0  0  0  0  0  0  0  # atno 17342 bound_to 10162
  140.6388  143.2200  151.6335 LP  0  0  0  0  0  0  0  0  0  0  0  0  # atno 17343 bound_to 10162
  157.0744  131.0126  151.3179 LP  0  0  0  0  0  0  0  0  0  0  0  0  # atno 17370 bound_to 10713
  157.4975  130.7859  149.7570 LP  0  0  0  0  0  0  0  0  0  0  0  0  # atno 17371 bound_to 10713
  140.0555  134.6070  155.8810 LP  0  0  0  0  0  0  0  0  0  0  0  0  # atno 17394 bound_to 11000
  141.1956  133.6588  156.5649 LP  0  0  0  0  0  0  0  0  0  0  0  0  # atno 17395 bound_to 11000

$$$$
