AV-unprocessed.smi:1556|AV-procd|sdf|6268|dock8
  -GOLD-   22720 6463D 1   1.00000     0.00000
 Structure written by MMmdl.
 37 38  0  0  0  0  0  0  0  0  1 V2000
  144.5223  131.2617  150.8413 C   0  0  0  0  0  0  0  0  0  0  0  0
  144.9986  132.6201  150.9893 N   0  0  0  0  0  0  0  0  0  0  0  0
  144.3136  133.7990  150.7882 C   0  0  0  0  0  0  0  0  0  0  0  0
  145.1777  134.8250  151.0483 C   0  0  0  0  0  0  0  0  0  0  0  0
  144.9255  136.3051  150.9742 C   0  0  0  0  0  0  0  0  0  0  0  0
  145.0439  136.9703  152.3550 C   0  0  0  0  0  0  0  0  0  0  0  0
  146.4227  137.3381  152.6534 N   0  0  0  0  0  0  0  0  0  0  0  0
  146.8198  138.0205  153.7410 C   0  0  0  0  0  0  0  0  0  0  0  0
  146.0460  138.4245  154.6069 O   0  0  0  0  0  0  0  0  0  0  0  0
  148.1439  138.2449  153.8145 N   0  0  0  0  0  0  0  0  0  0  0  0
  148.8854  138.9505  154.8604 C   0  0  2  0  0  0  0  0  0  0  0  0
  149.0622  140.4378  154.5009 C   0  0  0  0  0  0  0  0  0  0  0  0
  150.1276  141.0472  155.4214 C   0  0  0  0  0  0  0  0  0  0  0  0
  151.2758  139.6831  155.8487 S   0  0  0  0  0  0  0  0  0  0  0  0
  152.5354  139.8435  155.1066 O   0  0  0  0  0  0  0  0  0  0  0  0
  151.2738  139.5011  157.3080 O   0  0  0  0  0  0  0  0  0  0  0  0
  150.2856  138.3530  155.0716 C   0  0  0  0  0  0  0  0  0  0  0  0
  146.3834  134.1575  151.4086 C   0  0  0  0  0  0  0  0  0  0  0  0
  146.2735  132.8395  151.3711 N   0  0  0  0  0  0  0  0  0  0  0  0
  143.4620  131.2629  150.5869 H   0  0  0  0  0  0  0  0  0  0  0  0
  144.6617  130.7169  151.7754 H   0  0  0  0  0  0  0  0  0  0  0  0
  145.0771  130.7611  150.0474 H   0  0  0  0  0  0  0  0  0  0  0  0
  143.2788  133.8111  150.4789 H   0  0  0  0  0  0  0  0  0  0  0  0
  145.6280  136.7740  150.2842 H   0  0  0  0  0  0  0  0  0  0  0  0
  143.9339  136.5007  150.5643 H   0  0  0  0  0  0  0  0  0  0  0  0
  144.4381  137.8763  152.3871 H   0  0  0  0  0  0  0  0  0  0  0  0
  144.6554  136.3099  153.1324 H   0  0  0  0  0  0  0  0  0  0  0  0
  147.1257  137.0506  151.9884 H   0  0  0  0  0  0  0  0  0  0  0  0
  148.6945  137.9193  153.0330 H   0  0  0  0  0  0  0  0  0  0  0  0
  148.3365  138.9065  155.8029 H   0  0  0  0  0  0  0  0  0  0  0  0
  149.4080  140.5186  153.4692 H   0  0  0  0  0  0  0  0  0  0  0  0
  148.1212  140.9852  154.5627 H   0  0  0  0  0  0  0  0  0  0  0  0
  150.6732  141.8667  154.9533 H   0  0  0  0  0  0  0  0  0  0  0  0
  149.6796  141.4112  156.3461 H   0  0  0  0  0  0  0  0  0  0  0  0
  150.2868  137.4658  155.7051 H   0  0  0  0  0  0  0  0  0  0  0  0
  150.7552  138.1026  154.1196 H   0  0  0  0  0  0  0  0  0  0  0  0
  147.3311  134.5909  151.6921 H   0  0  0  0  0  0  0  0  0  0  0  0
  1  2  1  0  0  0  0
  1 20  1  0  0  0  0
  1 21  1  0  0  0  0
  1 22  1  0  0  0  0
  2 19  1  0  0  0  0
  2  3  1  0  0  0  0
  3  4  2  0  0  0  0
  3 23  1  0  0  0  0
  4  5  1  0  0  0  0
  4 18  1  0  0  0  0
  5  6  1  0  0  0  0
  5 24  1  0  0  0  0
  5 25  1  0  0  0  0
  6  7  1  0  0  0  0
  6 26  1  0  0  0  0
  6 27  1  0  0  0  0
  7  8  1  0  0  0  0
  7 28  1  0  0  0  0
  8  9  2  0  0  0  0
  8 10  1  0  0  0  0
 10 11  1  0  0  0  0
 10 29  1  0  0  0  0
 11 17  1  0  0  0  0
 11 12  1  0  0  0  0
 11 30  1  0  0  0  0
 12 13  1  0  0  0  0
 12 31  1  0  0  0  0
 12 32  1  0  0  0  0
 13 14  1  0  0  0  0
 13 33  1  0  0  0  0
 13 34  1  0  0  0  0
 14 15  2  0  0  0  0
 14 16  2  0  0  0  0
 14 17  1  0  0  0  0
 17 35  1  0  0  0  0
 17 36  1  0  0  0  0
 18 19  2  0  0  0  0
 18 37  1  0  0  0  0
M  END
> <s_m_source_file>
AV-unprocessed.smi

> <i_m_source_file_index>
1556

> <i_lp_mmshare_version>
43012

> <i_f3d_flags>
0

> <s_epik_input>
W0NIM11uMVtjSF1jKFtjSF1uMSlbQ0gyXVtDSDJdW05IXUMoPU8pW05IXVtDQEBIXShbQ0gyXTIpW0NIMl1bQ0gyXVMyKD1PKT1P

> <s_epik_cmdline>
J2VwaWtfcHl0aG9uJywgJy1waCcsICc3LjAnLCAnLXRuJywgJzgnLCAnLW1hJywgJzIwMCcsICctbWV0YWxfYmluZGluZycsICctaW1hZScsICc8aW5maWxlLm1hZT4nLCAnLW9tYWUnLCAnPG91dGZpbGUubWFlPic=

> <r_lp_tautomer_probability>
1

> <r_epik_Ionization_Penalty>
0.000530192

> <r_epik_Ionization_Penalty_Charging>
0

> <r_epik_Ionization_Penalty_Neutral>
0.000530192

> <r_epik_State_Penalty>
-0

> <r_epik_Charging_Adjusted_Penalty>
0

> <i_epik_Tot_Q>
0

> <i_epik_Tot_abs_Q>
0

> <r_epik_Metal_State_Penalty>
-0

> <b_epik_Metal_Only>
0

> <s_lp_Force_Field>
OPLS_2005

> <r_lp_Energy>
8.62968

> <b_lp_Chiralities_Consistent>
1

> <s_lp_Variant>
AV-unprocessed.smi:1556-1

> <Gold.Version>
5.8.1

> <Gold.Id.Protein>
6NUR|6NUR_protein|mol2

> <Gold.PLP.Fitness>
44.1150

> <Gold.PLP.PLP>
-30.5558

> <Gold.PLP.part.hbond>
-3.8115

> <Gold.PLP.part.metal>
0.0000

> <Gold.PLP.part.buried>
-1.7101

> <Gold.PLP.part.nonpolar>
-26.1426

> <Gold.PLP.part.repulsive>
0.3172

> <Gold.PLP.ligand.clash>
0.0000

> <Gold.PLP.ligand.torsion>
0.5484

> <Gold.PLP.Chemscore.Hbond>
2.8853

> <Gold.PLP.Chemscore.CHOScore>
1.9990

> <Gold.PLP.Chemscore.Metal>
0.0000

> <Gold.Chemscore.Hbonds>
donor molecule, donor type, donor heavy atom, donor atom, acceptor molecule, acceptor atom, score
      L1  H     7    28       P1  7948  0.88
      L1  H    10    29       P1  7948  0.80
      P1  H  7989  7998       L1    15  0.42
      P1  H  7997  8008       L1    15  0.83
      L1  C     3    23       P1 10186  1.00
      L1  C    18    37       P1  7948  1.00

> <Gold.PLP.Chemscore.Internal.Correction>
0.0032

> <Gold.Rescore>
     Score         DG    S(hbond)    S(metal)    S(lipo)     H(rot)  DE(clash)    DE(int)     intcor
     16.01     -17.25       2.84        0.00      59.32       1.82       0.84       0.39       ----

> <Gold.Chemscore.Fitness>
16.0129

> <Gold.Chemscore.DG>
-17.2469

> <Gold.Chemscore.ZeroCoef>
-5.4800

> <Gold.Chemscore.Hbond>
2.8415

> <Gold.Chemscore.Metal>
0.0000

> <Gold.Chemscore.Lipo>
59.3216

> <Gold.Chemscore.Internal_Hbond>
0.0000

> <Gold.Chemscore.DEClash>
0.8417

> <Gold.Chemscore.DEInternal>
0.3923

> <Gold.Chemscore.Rot>
1.8220

> <Gold.Chemscore.Internal.Correction>
   9.000000E+99

> <Gold.Chemscore.Hbonds>
donor molecule, donor type, donor heavy atom, donor atom, acceptor molecule, acceptor atom, score
      L1  H     7    28       P1  7948  0.84
      L1  H    10    29       P1  7948  0.75
      P1  H  7989  7998       L1    15  0.06
      P1  H  7997  8008       L1    15  0.80

> <Gold.Chemscore.Hbond.Weighted>
-9.4905

> <Gold.Chemscore.Metal.Weighted>
-0.0000

> <Gold.Chemscore.Lipo.Weighted>
-6.9406

> <Gold.Chemscore.Internal_Hbond.Weighted>
0.0000

> <Gold.Chemscore.DEClash.Weighted>
0.8417

> <Gold.Chemscore.DEInternal.Weighted>
0.3923

> <Gold.Chemscore.Rot.Weighted>
4.6642

> <Gold.Chemscore.Internal.Correction.Weighted>
   9.000000E+99

> <Gold.Protein.RotatedTorsions>
[ 6907 6896 6895 6894 ] final -164.20 input  -60.11 | X-H torsion
[ 7974 7965 7964 7962 ] final -133.59 input  175.53 | X-H torsion
[ 8008 7997 7996 7995 ] final  -14.36 input   59.86 | X-H torsion
[ 10167 10162 10161 10158 ] final -167.63 input  -65.29 | X-H torsion
[ 10718 10713 10712 10709 ] final  152.55 input   66.30 | X-H torsion
[ 10763 10752 10751 10750 ] final  -24.84 input  -60.55 | X-H torsion
[ 11005 11000 10999 10996 ] final  157.23 input  -57.11 | X-H torsion

> <Gold.Protein.ActiveResidues>
 VAL166  LYS551  ARG553  GLY616  TRP617  ASP618  TYR619  PRO620  LYS621  CYS622 
 ASP623  PHE694  ASN695  SER759  ASP760  ASP761  ALA762  ILE779  LEU786  VAL792 
 PHE793  MET794  SER795  GLU796  ALA797  LYS798  CYS799  TRP800  GLU811  SER814 

> <Gold.Protein.RotatedAtoms>
  151.4080  133.3736  159.2740 H   0  0  0  0  0  0  0  0  0  0  0  0  # atno 6907 bound_to 6896
  150.9384  134.8796  159.7607 H   0  0  0  0  0  0  0  0  0  0  0  0  # atno 6908 bound_to 6896
  152.5060  134.4029  159.9475 H   0  0  0  0  0  0  0  0  0  0  0  0  # atno 6909 bound_to 6896
  144.9180  140.6978  143.4983 H   0  0  0  0  0  0  0  0  0  0  0  0  # atno 7974 bound_to 7965
  154.5217  140.2225  155.8964 H   0  0  0  0  0  0  0  0  0  0  0  0  # atno 8008 bound_to 7997
  156.1669  140.3130  155.8869 H   0  0  0  0  0  0  0  0  0  0  0  0  # atno 8009 bound_to 7997
  155.3638  140.0462  157.3037 H   0  0  0  0  0  0  0  0  0  0  0  0  # atno 8010 bound_to 7997
  139.6037  144.0958  152.1770 H   0  0  0  0  0  0  0  0  0  0  0  0  # atno 10167 bound_to 10162
  157.2563  131.0789  151.1696 H   0  0  0  0  0  0  0  0  0  0  0  0  # atno 10718 bound_to 10713
  153.6902  135.6962  153.5092 H   0  0  0  0  0  0  0  0  0  0  0  0  # atno 10763 bound_to 10752
  153.2419  135.4303  155.0706 H   0  0  0  0  0  0  0  0  0  0  0  0  # atno 10764 bound_to 10752
  154.8375  135.3510  154.6443 H   0  0  0  0  0  0  0  0  0  0  0  0  # atno 10765 bound_to 10752
  140.1750  134.8516  157.2735 H   0  0  0  0  0  0  0  0  0  0  0  0  # atno 11005 bound_to 11000
  145.3344  139.1750  143.4519 LP  0  0  0  0  0  0  0  0  0  0  0  0  # atno 17320 bound_to 7965
  146.3191  140.3377  142.8645 LP  0  0  0  0  0  0  0  0  0  0  0  0  # atno 17321 bound_to 7965
  140.0560  144.5895  150.7299 LP  0  0  0  0  0  0  0  0  0  0  0  0  # atno 17342 bound_to 10162
  140.7269  143.2645  151.4090 LP  0  0  0  0  0  0  0  0  0  0  0  0  # atno 17343 bound_to 10162
  157.3223  130.6943  149.6276 LP  0  0  0  0  0  0  0  0  0  0  0  0  # atno 17370 bound_to 10713
  155.9665  130.4331  150.4994 LP  0  0  0  0  0  0  0  0  0  0  0  0  # atno 17371 bound_to 10713
  140.2333  134.3883  155.7512 LP  0  0  0  0  0  0  0  0  0  0  0  0  # atno 17394 bound_to 11000
  141.2220  133.7226  156.8675 LP  0  0  0  0  0  0  0  0  0  0  0  0  # atno 17395 bound_to 11000

$$$$
