AV-unprocessed.smi:2492|AV-procd|sdf|9813|dock7
  -GOLD-   2272013443D 1   1.00000     0.00000
 Structure written by MMmdl.
 33 34  0  0  0  0  0  0  0  0  1 V2000
  155.0182  140.6479  160.1693 C   0  0  0  0  0  0  0  0  0  0  0  0
  153.2496  141.0233  160.2960 S   0  0  0  0  0  0  0  0  0  0  0  0
  153.1222  142.3900  159.1065 C   0  0  2  0  0  0  0  0  0  0  0  0
  152.9996  143.7591  159.7736 C   0  0  0  0  0  0  0  0  0  0  0  0
  152.4119  144.6542  158.6823 C   0  0  0  0  0  0  0  0  0  0  0  0
  151.5311  143.7397  157.8114 C   0  0  2  0  0  0  0  0  0  0  0  0
  150.1170  144.0456  158.0112 N   0  0  0  0  0  0  0  0  0  0  0  0
  149.4153  143.7444  159.1134 C   0  0  0  0  0  0  0  0  0  0  0  0
  149.8975  143.1672  160.0884 O   0  0  0  0  0  0  0  0  0  0  0  0
  148.1403  144.1554  159.0083 N   0  0  0  0  0  0  0  0  0  0  0  0
  147.1025  144.0131  159.9639 C   0  0  0  0  0  0  0  0  0  0  0  0
  145.8117  144.2925  159.7822 N   0  0  0  0  0  0  0  0  0  0  0  0
  145.3060  143.9751  161.0058 C   0  0  0  0  0  0  0  0  0  0  0  0
  143.8599  144.1057  161.3421 C   0  0  0  0  0  0  0  0  0  0  0  0
  146.1816  143.5285  161.8991 N   0  0  0  0  0  0  0  0  0  0  0  0
  147.3990  143.5543  161.2024 O   0  0  0  0  0  0  0  0  0  0  0  0
  151.8682  142.2944  158.2327 C   0  0  0  0  0  0  0  0  0  0  0  0
  155.2697  139.8071  160.8154 H   0  0  0  0  0  0  0  0  0  0  0  0
  155.6170  141.5059  160.4744 H   0  0  0  0  0  0  0  0  0  0  0  0
  155.2801  140.3859  159.1441 H   0  0  0  0  0  0  0  0  0  0  0  0
  154.0018  142.3809  158.4610 H   0  0  0  0  0  0  0  0  0  0  0  0
  152.3072  143.7051  160.6149 H   0  0  0  0  0  0  0  0  0  0  0  0
  153.9525  144.1340  160.1478 H   0  0  0  0  0  0  0  0  0  0  0  0
  151.8749  145.5076  159.0985 H   0  0  0  0  0  0  0  0  0  0  0  0
  153.2235  145.0549  158.0730 H   0  0  0  0  0  0  0  0  0  0  0  0
  151.7923  143.8971  156.7631 H   0  0  0  0  0  0  0  0  0  0  0  0
  149.6436  144.5228  157.2578 H   0  0  0  0  0  0  0  0  0  0  0  0
  147.8824  144.6220  158.1514 H   0  0  0  0  0  0  0  0  0  0  0  0
  143.7356  144.4934  162.3538 H   0  0  0  0  0  0  0  0  0  0  0  0
  143.3706  143.1336  161.2796 H   0  0  0  0  0  0  0  0  0  0  0  0
  143.3645  144.7874  160.6501 H   0  0  0  0  0  0  0  0  0  0  0  0
  152.0199  141.6416  157.3724 H   0  0  0  0  0  0  0  0  0  0  0  0
  151.0493  141.8692  158.8157 H   0  0  0  0  0  0  0  0  0  0  0  0
  1  2  1  0  0  0  0
  1 18  1  0  0  0  0
  1 19  1  0  0  0  0
  1 20  1  0  0  0  0
  2  3  1  0  0  0  0
  3 17  1  0  0  0  0
  3  4  1  0  0  0  0
  3 21  1  0  0  0  0
  4  5  1  0  0  0  0
  4 22  1  0  0  0  0
  4 23  1  0  0  0  0
  5  6  1  0  0  0  0
  5 24  1  0  0  0  0
  5 25  1  0  0  0  0
  6  7  1  0  0  0  0
  6 17  1  0  0  0  0
  6 26  1  0  0  0  0
  7  8  1  0  0  0  0
  7 27  1  0  0  0  0
  8  9  2  0  0  0  0
  8 10  1  0  0  0  0
 10 11  1  0  0  0  0
 10 28  1  0  0  0  0
 11 16  1  0  0  0  0
 11 12  2  0  0  0  0
 12 13  1  0  0  0  0
 13 14  1  0  0  0  0
 13 15  2  0  0  0  0
 14 29  1  0  0  0  0
 14 30  1  0  0  0  0
 14 31  1  0  0  0  0
 15 16  1  0  0  0  0
 17 32  1  0  0  0  0
 17 33  1  0  0  0  0
M  END
> <s_m_source_file>
AV-unprocessed.smi

> <i_m_source_file_index>
2492

> <i_lp_mmshare_version>
43012

> <i_f3d_flags>
0

> <s_epik_input>
W0NIM11TW0NAQEhdMVtDSDJdW0NIMl1bQ0BIXShbQ0gyXTEpW05IXUMoPU8pW05IXWMybmMoW0NIM10pbm8y

> <s_epik_cmdline>
J2VwaWtfcHl0aG9uJywgJy1waCcsICc3LjAnLCAnLXRuJywgJzgnLCAnLW1hJywgJzIwMCcsICctbWV0YWxfYmluZGluZycsICctaW1hZScsICc8aW5maWxlLm1hZT4nLCAnLW9tYWUnLCAnPG91dGZpbGUubWFlPic=

> <r_lp_tautomer_probability>
1

> <r_epik_Ionization_Penalty>
3.56659e-05

> <r_epik_Ionization_Penalty_Charging>
0

> <r_epik_Ionization_Penalty_Neutral>
3.56659e-05

> <r_epik_State_Penalty>
-0

> <r_epik_Charging_Adjusted_Penalty>
0

> <i_epik_Tot_Q>
0

> <i_epik_Tot_abs_Q>
0

> <r_epik_Metal_State_Penalty>
0.0146047

> <b_epik_Metal_Only>
0

> <s_lp_Force_Field>
OPLS_2005

> <r_lp_Energy>
15.0837

> <b_lp_Chiralities_Consistent>
1

> <s_lp_Variant>
AV-unprocessed.smi:2492-3

> <Gold.Version>
5.8.1

> <Gold.Id.Protein>
6NUR|6NUR_protein|mol2

> <Gold.PLP.Fitness>
40.0863

> <Gold.PLP.PLP>
-33.3131

> <Gold.PLP.part.hbond>
-4.5813

> <Gold.PLP.part.metal>
0.0000

> <Gold.PLP.part.buried>
-4.3095

> <Gold.PLP.part.nonpolar>
-24.7901

> <Gold.PLP.part.repulsive>
0.4849

> <Gold.PLP.ligand.clash>
0.0000

> <Gold.PLP.ligand.torsion>
0.7795

> <Gold.PLP.Chemscore.Hbond>
2.7760

> <Gold.PLP.Chemscore.CHOScore>
0.0000

> <Gold.PLP.Chemscore.Metal>
0.0000

> <Gold.Chemscore.Hbonds>
donor molecule, donor type, donor heavy atom, donor atom, acceptor molecule, acceptor atom, score
      L1  H     7    27       P1  8028  0.80
      L1  H    10    28       P1  8029  0.99
      P1  H  6933  6944       L1    16  1.00

> <Gold.PLP.Chemscore.Internal.Correction>
0.0041

> <Gold.Rescore>
     Score         DG    S(hbond)    S(metal)    S(lipo)     H(rot)  DE(clash)    DE(int)     intcor
     14.50     -18.14       1.91        0.00      81.72       1.28       0.00       3.63       ----

> <Gold.Chemscore.Fitness>
14.5027

> <Gold.Chemscore.DG>
-18.1372

> <Gold.Chemscore.ZeroCoef>
-5.4800

> <Gold.Chemscore.Hbond>
1.9092

> <Gold.Chemscore.Metal>
0.0000

> <Gold.Chemscore.Lipo>
81.7181

> <Gold.Chemscore.Internal_Hbond>
0.0000

> <Gold.Chemscore.DEClash>
0.0000

> <Gold.Chemscore.DEInternal>
3.6344

> <Gold.Chemscore.Rot>
1.2815

> <Gold.Chemscore.Internal.Correction>
   9.000000E+99

> <Gold.Chemscore.Hbonds>
donor molecule, donor type, donor heavy atom, donor atom, acceptor molecule, acceptor atom, score
      L1  H     7    27       P1  8028  0.12
      L1  H    10    28       P1  8029  0.64
      P1  H  6933  6944       L1    16  0.96

> <Gold.Chemscore.Hbond.Weighted>
-6.3769

> <Gold.Chemscore.Metal.Weighted>
-0.0000

> <Gold.Chemscore.Lipo.Weighted>
-9.5610

> <Gold.Chemscore.Internal_Hbond.Weighted>
0.0000

> <Gold.Chemscore.DEClash.Weighted>
0.0000

> <Gold.Chemscore.DEInternal.Weighted>
3.6344

> <Gold.Chemscore.Rot.Weighted>
3.2808

> <Gold.Chemscore.Internal.Correction.Weighted>
   9.000000E+99

> <Gold.Protein.RotatedTorsions>
[ 6907 6896 6895 6894 ] final   26.96 input  -60.11 | X-H torsion
[ 7974 7965 7964 7962 ] final -157.65 input  175.53 | X-H torsion
[ 8008 7997 7996 7995 ] final -144.08 input   59.86 | X-H torsion
[ 10167 10162 10161 10158 ] final  104.16 input  -65.29 | X-H torsion
[ 10718 10713 10712 10709 ] final  137.21 input   66.30 | X-H torsion
[ 10763 10752 10751 10750 ] final  163.07 input  -60.55 | X-H torsion
[ 11005 11000 10999 10996 ] final  -82.71 input  -57.11 | X-H torsion

> <Gold.Protein.ActiveResidues>
 VAL166  LYS551  ARG553  GLY616  TRP617  ASP618  TYR619  PRO620  LYS621  CYS622 
 ASP623  PHE694  ASN695  SER759  ASP760  ASP761  ALA762  ILE779  LEU786  VAL792 
 PHE793  MET794  SER795  GLU796  ALA797  LYS798  CYS799  TRP800  GLU811  SER814 

> <Gold.Protein.RotatedAtoms>
  151.9952  134.9958  160.0562 H   0  0  0  0  0  0  0  0  0  0  0  0  # atno 6907 bound_to 6896
  152.1571  133.4553  159.4850 H   0  0  0  0  0  0  0  0  0  0  0  0  # atno 6908 bound_to 6896
  150.6883  134.2035  159.4374 H   0  0  0  0  0  0  0  0  0  0  0  0  # atno 6909 bound_to 6896
  144.7539  140.3940  143.6027 H   0  0  0  0  0  0  0  0  0  0  0  0  # atno 7974 bound_to 7965
  155.5210  140.0591  157.2906 H   0  0  0  0  0  0  0  0  0  0  0  0  # atno 8008 bound_to 7997
  154.4517  140.1952  156.0444 H   0  0  0  0  0  0  0  0  0  0  0  0  # atno 8009 bound_to 7997
  156.0719  140.3259  155.7590 H   0  0  0  0  0  0  0  0  0  0  0  0  # atno 8010 bound_to 7997
  139.7200  144.7060  151.0887 H   0  0  0  0  0  0  0  0  0  0  0  0  # atno 10167 bound_to 10162
  157.4385  131.1055  151.0171 H   0  0  0  0  0  0  0  0  0  0  0  0  # atno 10718 bound_to 10713
  154.2881  135.2761  155.2667 H   0  0  0  0  0  0  0  0  0  0  0  0  # atno 10763 bound_to 10752
  154.5158  135.5770  153.6645 H   0  0  0  0  0  0  0  0  0  0  0  0  # atno 10764 bound_to 10752
  152.9918  135.6192  154.3044 H   0  0  0  0  0  0  0  0  0  0  0  0  # atno 10765 bound_to 10752
  141.1662  133.7258  156.8612 H   0  0  0  0  0  0  0  0  0  0  0  0  # atno 11005 bound_to 11000
  145.6846  139.1626  143.2681 LP  0  0  0  0  0  0  0  0  0  0  0  0  # atno 17320 bound_to 7965
  146.1525  140.6904  142.9315 LP  0  0  0  0  0  0  0  0  0  0  0  0  # atno 17321 bound_to 7965
  140.7752  143.5178  150.9573 LP  0  0  0  0  0  0  0  0  0  0  0  0  # atno 17342 bound_to 10162
  139.8865  143.7007  152.3151 LP  0  0  0  0  0  0  0  0  0  0  0  0  # atno 17343 bound_to 10162
  157.1042  130.5994  149.5467 LP  0  0  0  0  0  0  0  0  0  0  0  0  # atno 17370 bound_to 10713
  155.9939  130.5002  150.7400 LP  0  0  0  0  0  0  0  0  0  0  0  0  # atno 17371 bound_to 10713
  140.1847  134.9008  157.2990 LP  0  0  0  0  0  0  0  0  0  0  0  0  # atno 17394 bound_to 11000
  140.2356  134.3857  155.7502 LP  0  0  0  0  0  0  0  0  0  0  0  0  # atno 17395 bound_to 11000

$$$$
