AV-unprocessed.smi:3316|AV-procd|sdf|12759|dock4
  -GOLD-   2272019 93D 1   1.00000     0.00000
 Structure written by MMmdl.
 41 43  0  0  0  0  0  0  0  0  2 V2000
  151.3715  144.8758  158.5027 C   0  0  0  0  0  0  0  0  0  0  0  0
  152.0352  143.4900  158.5317 C   0  0  2  0  0  0  0  0  0  0  0  0
  151.1071  142.4095  157.9441 C   0  0  0  0  0  0  0  0  0  0  0  0
  150.7807  142.6816  156.5295 N   0  3  0  0  0  0  0  0  0  0  0  0
  150.3055  141.4998  155.7847 C   0  0  0  0  0  0  0  0  0  0  0  0
  151.2731  140.3125  155.9468 C   0  0  1  0  0  0  0  0  0  0  0  0
  150.9494  139.3970  157.1671 C   0  0  0  0  0  0  0  0  0  0  0  0
  150.8830  137.9870  156.5363 C   0  0  1  0  0  0  0  0  0  0  0  0
  149.6565  137.9379  155.6509 C   0  0  0  0  0  0  0  0  0  0  0  0
  149.8979  138.7174  154.5956 C   0  0  0  0  0  0  0  0  0  0  0  0
  151.2876  139.2973  154.7712 C   0  0  2  0  0  0  0  0  0  0  0  0
  151.9755  138.1182  155.4699 C   0  0  0  0  0  0  0  0  0  0  0  0
  152.5147  143.1347  159.9341 C   0  0  0  0  0  0  0  0  0  0  0  0
  153.2579  141.9567  160.1603 C   0  0  0  0  0  0  0  0  0  0  0  0
  153.6751  141.6634  161.4741 C   0  0  0  0  0  0  0  0  0  0  0  0
  153.3966  142.4521  162.5337 N   0  0  0  0  0  0  0  0  0  0  0  0
  152.6873  143.5792  162.3128 C   0  0  0  0  0  0  0  0  0  0  0  0
  152.2229  143.9639  161.0390 C   0  0  0  0  0  0  0  0  0  0  0  0
  152.0533  145.6439  158.8693 H   0  0  0  0  0  0  0  0  0  0  0  0
  150.4730  144.9062  159.1197 H   0  0  0  0  0  0  0  0  0  0  0  0
  151.0833  145.1512  157.4881 H   0  0  0  0  0  0  0  0  0  0  0  0
  152.9145  143.5487  157.8879 H   0  0  0  0  0  0  0  0  0  0  0  0
  151.5673  141.4239  158.0253 H   0  0  0  0  0  0  0  0  0  0  0  0
  150.1784  142.3732  158.5153 H   0  0  0  0  0  0  0  0  0  0  0  0
  150.0621  143.3907  156.4961 H   0  0  0  0  0  0  0  0  0  0  0  0
  149.3220  141.2213  156.1656 H   0  0  0  0  0  0  0  0  0  0  0  0
  150.1742  141.7572  154.7330 H   0  0  0  0  0  0  0  0  0  0  0  0
  152.2819  140.7094  156.0758 H   0  0  0  0  0  0  0  0  0  0  0  0
  151.7422  139.4560  157.9138 H   0  0  0  0  0  0  0  0  0  0  0  0
  150.0116  139.6607  157.6588 H   0  0  0  0  0  0  0  0  0  0  0  0
  150.9892  137.1439  157.2196 H   0  0  0  0  0  0  0  0  0  0  0  0
  148.7540  137.3891  155.8764 H   0  0  0  0  0  0  0  0  0  0  0  0
  149.2339  138.9419  153.7739 H   0  0  0  0  0  0  0  0  0  0  0  0
  151.7656  139.6303  153.8495 H   0  0  0  0  0  0  0  0  0  0  0  0
  152.9621  138.3536  155.8740 H   0  0  0  0  0  0  0  0  0  0  0  0
  152.0578  137.2343  154.8338 H   0  0  0  0  0  0  0  0  0  0  0  0
  153.5086  141.2887  159.3493 H   0  0  0  0  0  0  0  0  0  0  0  0
  154.2457  140.7698  161.6793 H   0  0  0  0  0  0  0  0  0  0  0  0
  152.4807  144.1923  163.1775 H   0  0  0  0  0  0  0  0  0  0  0  0
  151.6583  144.8769  160.9202 H   0  0  0  0  0  0  0  0  0  0  0  0
  151.6080  143.0385  156.0725 H   0  0  0  0  0  0  0  0  0  0  0  0
  1  2  1  0  0  0  0
  1 19  1  0  0  0  0
  1 20  1  0  0  0  0
  1 21  1  0  0  0  0
  2  3  1  0  0  0  0
  2 13  1  0  0  0  0
  2 22  1  0  0  0  0
  3  4  1  0  0  0  0
  3 23  1  0  0  0  0
  3 24  1  0  0  0  0
  4  5  1  0  0  0  0
  4 25  1  0  0  0  0
  4 41  1  0  0  0  0
  5  6  1  0  0  0  0
  5 26  1  0  0  0  0
  5 27  1  0  0  0  0
  6 11  1  0  0  0  0
  6  7  1  0  0  0  0
  6 28  1  0  0  0  0
  7  8  1  0  0  0  0
  7 29  1  0  0  0  0
  7 30  1  0  0  0  0
  8 12  1  0  0  0  0
  8  9  1  0  0  0  0
  8 31  1  0  0  0  0
  9 10  2  0  0  0  0
  9 32  1  0  0  0  0
 10 11  1  0  0  0  0
 10 33  1  0  0  0  0
 11 12  1  0  0  0  0
 11 34  1  0  0  0  0
 12 35  1  0  0  0  0
 12 36  1  0  0  0  0
 13 18  1  0  0  0  0
 13 14  2  0  0  0  0
 14 15  1  0  0  0  0
 14 37  1  0  0  0  0
 15 16  2  0  0  0  0
 15 38  1  0  0  0  0
 16 17  1  0  0  0  0
 17 18  2  0  0  0  0
 17 39  1  0  0  0  0
 18 40  1  0  0  0  0
M  CHG  1   4   1
M  END
> <s_m_source_file>
AV-unprocessed.smi

> <i_m_source_file_index>
3316

> <i_lp_mmshare_version>
43012

> <i_f3d_flags>
0

> <s_epik_input>
W2NIXTFbY0hdbltjSF1bY0hdYzFbQ0BIXShbQ0gzXSlbQ0gyXVtOSF1bQ0gyXVtDQEhdKFtDSDJdW0NASF0yMylbQ0BIXShbQ0gyXTMpW0NIXT1bQ0hdMg==

> <s_epik_cmdline>
J2VwaWtfcHl0aG9uJywgJy1waCcsICc3LjAnLCAnLXRuJywgJzgnLCAnLW1hJywgJzIwMCcsICctbWV0YWxfYmluZGluZycsICctaW1hZScsICc8aW5maWxlLm1hZT4nLCAnLW9tYWUnLCAnPG91dGZpbGUubWFlPic=

> <r_lp_tautomer_probability>
1

> <r_epik_Ionization_Penalty>
0.00280406

> <r_epik_Ionization_Penalty_Charging>
0.000446589

> <r_epik_Ionization_Penalty_Neutral>
0.00235747

> <r_epik_State_Penalty>
-0

> <r_epik_Charging_Adjusted_Penalty>
0.000446589

> <i_epik_Tot_Q>
1

> <i_epik_Tot_abs_Q>
1

> <r_epik_Metal_State_Penalty>
-0

> <b_epik_Metal_Only>
0

> <s_lp_Force_Field>
OPLS_2005

> <r_lp_Energy>
65.6453

> <b_lp_Chiralities_Consistent>
1

> <s_lp_Variant>
AV-unprocessed.smi:3316-7

> <Gold.Version>
5.8.1

> <Gold.Id.Protein>
6NUR|6NUR_protein|mol2

> <Gold.PLP.Fitness>
51.1926

> <Gold.PLP.PLP>
-46.1073

> <Gold.PLP.part.hbond>
-1.0000

> <Gold.PLP.part.metal>
0.0000

> <Gold.PLP.part.buried>
-4.4247

> <Gold.PLP.part.nonpolar>
-41.5368

> <Gold.PLP.part.repulsive>
0.1327

> <Gold.PLP.ligand.clash>
0.0000

> <Gold.PLP.ligand.torsion>
0.5042

> <Gold.PLP.Chemscore.Hbond>
2.0000

> <Gold.PLP.Chemscore.CHOScore>
0.0000

> <Gold.PLP.Chemscore.Metal>
0.0000

> <Gold.Chemscore.Hbonds>
donor molecule, donor type, donor heavy atom, donor atom, acceptor molecule, acceptor atom, score
      L1  H     4    25       P1  8028  2.00

> <Gold.PLP.Chemscore.Internal.Correction>
0.0938

> <Gold.Rescore>
     Score         DG    S(hbond)    S(metal)    S(lipo)     H(rot)  DE(clash)    DE(int)     intcor
     20.94     -21.64       0.99        0.00     139.67       1.36       0.18       0.53       ----

> <Gold.Chemscore.Fitness>
20.9361

> <Gold.Chemscore.DG>
-21.6401

> <Gold.Chemscore.ZeroCoef>
-5.4800

> <Gold.Chemscore.Hbond>
0.9912

> <Gold.Chemscore.Metal>
0.0000

> <Gold.Chemscore.Lipo>
139.6694

> <Gold.Chemscore.Internal_Hbond>
0.0000

> <Gold.Chemscore.DEClash>
0.1778

> <Gold.Chemscore.DEInternal>
0.5262

> <Gold.Chemscore.Rot>
1.3640

> <Gold.Chemscore.Internal.Correction>
   9.000000E+99

> <Gold.Chemscore.Hbonds>
donor molecule, donor type, donor heavy atom, donor atom, acceptor molecule, acceptor atom, score
      L1  H     4    25       P1  8028  0.98

> <Gold.Chemscore.Hbond.Weighted>
-3.3107

> <Gold.Chemscore.Metal.Weighted>
-0.0000

> <Gold.Chemscore.Lipo.Weighted>
-16.3413

> <Gold.Chemscore.Internal_Hbond.Weighted>
0.0000

> <Gold.Chemscore.DEClash.Weighted>
0.1778

> <Gold.Chemscore.DEInternal.Weighted>
0.5262

> <Gold.Chemscore.Rot.Weighted>
3.4919

> <Gold.Chemscore.Internal.Correction.Weighted>
   9.000000E+99

> <Gold.Protein.RotatedTorsions>
[ 6907 6896 6895 6894 ] final  -14.04 input  -60.11 | X-H torsion
[ 7974 7965 7964 7962 ] final    0.92 input  175.53 | X-H torsion
[ 8008 7997 7996 7995 ] final  -96.26 input   59.86 | X-H torsion
[ 10167 10162 10161 10158 ] final  127.90 input  -65.29 | X-H torsion
[ 10718 10713 10712 10709 ] final  172.21 input   66.30 | X-H torsion
[ 10763 10752 10751 10750 ] final   81.61 input  -60.55 | X-H torsion
[ 11005 11000 10999 10996 ] final   15.09 input  -57.11 | X-H torsion

> <Gold.Protein.ActiveResidues>
 VAL166  LYS551  ARG553  GLY616  TRP617  ASP618  TYR619  PRO620  LYS621  CYS622 
 ASP623  PHE694  ASN695  SER759  ASP760  ASP761  ALA762  ILE779  LEU786  VAL792 
 PHE793  MET794  SER795  GLU796  ALA797  LYS798  CYS799  TRP800  GLU811  SER814 

> <Gold.Protein.RotatedAtoms>
  151.3456  135.0873  159.9385 H   0  0  0  0  0  0  0  0  0  0  0  0  # atno 6907 bound_to 6896
  152.5200  133.9404  159.7634 H   0  0  0  0  0  0  0  0  0  0  0  0  # atno 6908 bound_to 6896
  150.9769  133.6232  159.2758 H   0  0  0  0  0  0  0  0  0  0  0  0  # atno 6909 bound_to 6896
  146.2437  140.1065  142.8345 H   0  0  0  0  0  0  0  0  0  0  0  0  # atno 7974 bound_to 7965
  154.7722  140.0473  157.1060 H   0  0  0  0  0  0  0  0  0  0  0  0  # atno 8008 bound_to 7997
  154.9807  140.3101  155.4928 H   0  0  0  0  0  0  0  0  0  0  0  0  # atno 8009 bound_to 7997
  156.2923  140.2236  156.4906 H   0  0  0  0  0  0  0  0  0  0  0  0  # atno 8010 bound_to 7997
  139.5554  144.6845  151.4198 H   0  0  0  0  0  0  0  0  0  0  0  0  # atno 10167 bound_to 10162
  156.9823  131.0123  151.2878 H   0  0  0  0  0  0  0  0  0  0  0  0  # atno 10718 bound_to 10713
  153.1131  135.4759  154.9069 H   0  0  0  0  0  0  0  0  0  0  0  0  # atno 10763 bound_to 10752
  154.7501  135.3104  154.8575 H   0  0  0  0  0  0  0  0  0  0  0  0  # atno 10764 bound_to 10752
  153.9159  135.6860  153.4803 H   0  0  0  0  0  0  0  0  0  0  0  0  # atno 10765 bound_to 10752
  140.4622  134.1115  155.7718 H   0  0  0  0  0  0  0  0  0  0  0  0  # atno 11005 bound_to 11000
  145.0523  140.9027  143.4988 LP  0  0  0  0  0  0  0  0  0  0  0  0  # atno 17320 bound_to 7965
  145.1166  139.2721  143.5610 LP  0  0  0  0  0  0  0  0  0  0  0  0  # atno 17321 bound_to 7965
  140.6826  143.8047  150.7142 LP  0  0  0  0  0  0  0  0  0  0  0  0  # atno 17342 bound_to 10162
  140.1505  143.4361  152.2134 LP  0  0  0  0  0  0  0  0  0  0  0  0  # atno 17343 bound_to 10162
  157.5517  130.8187  149.8154 LP  0  0  0  0  0  0  0  0  0  0  0  0  # atno 17370 bound_to 10713
  156.0239  130.3786  150.1879 LP  0  0  0  0  0  0  0  0  0  0  0  0  # atno 17371 bound_to 10713
  141.1616  133.8782  157.1832 LP  0  0  0  0  0  0  0  0  0  0  0  0  # atno 17394 bound_to 11000
  139.9938  135.0054  157.0035 LP  0  0  0  0  0  0  0  0  0  0  0  0  # atno 17395 bound_to 11000

$$$$
