AV-unprocessed.smi:18|AV-procd|sdf|107|dock4
  -GOLD-   2262015263D 1   1.00000     0.00000
 Structure written by MMmdl.
 47 50  0  0  0  0  0  0  0  0  1 V2000
  148.0617  140.3231  153.0943 O   0  0  0  0  0  0  0  0  0  0  0  0
  148.2264  139.2076  153.9463 C   0  0  0  0  0  0  0  0  0  0  0  0
  147.2305  139.2423  155.1190 C   0  0  0  0  0  0  0  0  0  0  0  0
  147.4301  140.5121  155.9727 C   0  0  0  0  0  0  0  0  0  0  0  0
  148.7048  140.5634  156.6724 N   0  0  0  0  0  0  0  0  0  0  0  0
  149.7042  141.4950  156.4938 C   0  0  0  0  0  0  0  0  0  0  0  0
  150.7577  141.3355  157.2477 N   0  0  0  0  0  0  0  0  0  0  0  0
  150.4688  140.1984  157.9904 C   0  0  0  0  0  0  0  0  0  0  0  0
  151.1657  139.4737  158.9933 C   0  0  0  0  0  0  0  0  0  0  0  0
  152.3982  139.8443  159.4160 N   0  0  0  0  0  0  0  0  0  0  0  0
  153.1262  138.6770  159.9033 C   0  0  0  0  0  0  0  0  0  0  0  0
  154.5810  139.0440  160.2206 C   0  0  0  0  0  0  0  0  0  0  0  0
  154.5894  140.1067  161.1629 O   0  0  0  0  0  0  0  0  0  0  0  0
  153.9768  141.2796  160.6412 C   0  0  0  0  0  0  0  0  0  0  0  0
  152.4913  141.0190  160.2961 C   0  0  1  0  0  0  0  0  0  0  0  0
  151.8489  142.2790  159.6588 C   0  0  0  0  0  0  0  0  0  0  0  0
  152.2832  143.6050  160.3022 C   0  0  0  0  0  0  0  0  0  0  0  0
  151.8072  144.6264  159.5909 F   0  0  0  0  0  0  0  0  0  0  0  0
  151.8234  143.6942  161.5498 F   0  0  0  0  0  0  0  0  0  0  0  0
  150.5690  138.3627  159.5025 N   0  0  0  0  0  0  0  0  0  0  0  0
  149.3585  137.9966  159.0705 C   0  0  0  0  0  0  0  0  0  0  0  0
  148.5868  138.5838  158.1533 N   0  0  0  0  0  0  0  0  0  0  0  0
  149.1869  139.6935  157.6350 C   0  0  0  0  0  0  0  0  0  0  0  0
  145.7825  138.9161  154.7251 C   0  0  0  0  0  0  0  0  0  0  0  0
  145.9032  137.5575  155.1963 O   0  0  0  0  0  0  0  0  0  0  0  0
  147.1092  137.9255  155.8981 C   0  0  0  0  0  0  0  0  0  0  0  0
  148.7868  140.3482  152.4887 H   0  0  0  0  0  0  0  0  0  0  0  0
  148.1315  138.2921  153.3624 H   0  0  0  0  0  0  0  0  0  0  0  0
  149.2523  139.2213  154.3160 H   0  0  0  0  0  0  0  0  0  0  0  0
  147.3552  141.4054  155.3513 H   0  0  0  0  0  0  0  0  0  0  0  0
  146.6328  140.6061  156.7109 H   0  0  0  0  0  0  0  0  0  0  0  0
  149.6215  142.3092  155.7885 H   0  0  0  0  0  0  0  0  0  0  0  0
  152.6379  138.2919  160.7999 H   0  0  0  0  0  0  0  0  0  0  0  0
  153.1059  137.8795  159.1589 H   0  0  0  0  0  0  0  0  0  0  0  0
  155.1016  138.1861  160.6461 H   0  0  0  0  0  0  0  0  0  0  0  0
  155.1207  139.3314  159.3167 H   0  0  0  0  0  0  0  0  0  0  0  0
  154.0652  142.0585  161.3973 H   0  0  0  0  0  0  0  0  0  0  0  0
  154.5278  141.6243  159.7645 H   0  0  0  0  0  0  0  0  0  0  0  0
  151.9660  140.7857  161.2235 H   0  0  0  0  0  0  0  0  0  0  0  0
  152.0808  142.3027  158.5932 H   0  0  0  0  0  0  0  0  0  0  0  0
  150.7623  142.2308  159.7233 H   0  0  0  0  0  0  0  0  0  0  0  0
  153.3656  143.7239  160.3345 H   0  0  0  0  0  0  0  0  0  0  0  0
  148.9499  137.1061  159.5249 H   0  0  0  0  0  0  0  0  0  0  0  0
  145.0288  139.4659  155.2898 H   0  0  0  0  0  0  0  0  0  0  0  0
  145.5872  138.9763  153.6538 H   0  0  0  0  0  0  0  0  0  0  0  0
  147.9274  137.2258  155.7238 H   0  0  0  0  0  0  0  0  0  0  0  0
  146.9309  138.0577  156.9665 H   0  0  0  0  0  0  0  0  0  0  0  0
  1  2  1  0  0  0  0
  1 27  1  0  0  0  0
  2  3  1  0  0  0  0
  2 28  1  0  0  0  0
  2 29  1  0  0  0  0
  3 26  1  0  0  0  0
  3  4  1  0  0  0  0
  3 24  1  0  0  0  0
  4  5  1  0  0  0  0
  4 30  1  0  0  0  0
  4 31  1  0  0  0  0
  5 23  1  0  0  0  0
  5  6  1  0  0  0  0
  6  7  2  0  0  0  0
  6 32  1  0  0  0  0
  7  8  1  0  0  0  0
  8 23  2  0  0  0  0
  8  9  1  0  0  0  0
  9 10  1  0  0  0  0
  9 20  2  0  0  0  0
 10 15  1  0  0  0  0
 10 11  1  0  0  0  0
 11 12  1  0  0  0  0
 11 33  1  0  0  0  0
 11 34  1  0  0  0  0
 12 13  1  0  0  0  0
 12 35  1  0  0  0  0
 12 36  1  0  0  0  0
 13 14  1  0  0  0  0
 14 15  1  0  0  0  0
 14 37  1  0  0  0  0
 14 38  1  0  0  0  0
 15 16  1  0  0  0  0
 15 39  1  0  0  0  0
 16 17  1  0  0  0  0
 16 40  1  0  0  0  0
 16 41  1  0  0  0  0
 17 18  1  0  0  0  0
 17 19  1  0  0  0  0
 17 42  1  0  0  0  0
 20 21  1  0  0  0  0
 21 22  2  0  0  0  0
 21 43  1  0  0  0  0
 22 23  1  0  0  0  0
 24 25  1  0  0  0  0
 24 44  1  0  0  0  0
 24 45  1  0  0  0  0
 25 26  1  0  0  0  0
 26 46  1  0  0  0  0
 26 47  1  0  0  0  0
M  END
> <s_m_source_file>
AV-unprocessed.smi

> <i_m_source_file_index>
18

> <i_lp_mmshare_version>
43012

> <i_f3d_flags>
0

> <s_epik_input>
W0NIMl0xT1tDSDJdQzEoW0NIMl1bT0hdKVtDSDJdbihbY0hdbjIpYyhjMjMpbltjSF1uYzNONFtDSDJdW0NIMl1PW0NIMl1bQ0BIXTRbQ0gyXVtDSF0oRilG

> <s_epik_cmdline>
J2VwaWtfcHl0aG9uJywgJy1waCcsICc3LjAnLCAnLXRuJywgJzgnLCAnLW1hJywgJzIwMCcsICctbWV0YWxfYmluZGluZycsICctaW1hZScsICc8aW5maWxlLm1hZT4nLCAnLW9tYWUnLCAnPG91dGZpbGUubWFlPic=

> <r_lp_tautomer_probability>
1

> <r_epik_Ionization_Penalty>
6.63711e-05

> <r_epik_Ionization_Penalty_Charging>
0

> <r_epik_Ionization_Penalty_Neutral>
6.63711e-05

> <r_epik_State_Penalty>
-0

> <r_epik_Charging_Adjusted_Penalty>
0

> <i_epik_Tot_Q>
0

> <i_epik_Tot_abs_Q>
0

> <r_epik_Metal_State_Penalty>
-0

> <b_epik_Metal_Only>
0

> <s_lp_Force_Field>
OPLS_2005

> <r_lp_Energy>
38.6486

> <b_lp_Chiralities_Consistent>
1

> <s_lp_Variant>
AV-unprocessed.smi:18-1

> <Gold.Version>
5.8.1

> <Gold.Id.Protein>
6NUR|6NUR_protein|mol2

> <Gold.PLP.Fitness>
41.6526

> <Gold.PLP.PLP>
-36.9494

> <Gold.PLP.part.hbond>
-1.1872

> <Gold.PLP.part.metal>
0.0000

> <Gold.PLP.part.buried>
-6.3568

> <Gold.PLP.part.nonpolar>
-29.9202

> <Gold.PLP.part.repulsive>
0.0815

> <Gold.PLP.ligand.clash>
0.0000

> <Gold.PLP.ligand.torsion>
0.9224

> <Gold.PLP.Chemscore.Hbond>
1.0000

> <Gold.PLP.Chemscore.CHOScore>
1.0000

> <Gold.PLP.Chemscore.Metal>
0.0000

> <Gold.Chemscore.Hbonds>
donor molecule, donor type, donor heavy atom, donor atom, acceptor molecule, acceptor atom, score
      L1  H     1    27       P1  7957  1.00
      L1  C     6    32       P1  8028  1.00

> <Gold.PLP.Chemscore.Internal.Correction>
0.5480

> <Gold.Rescore>
     Score         DG    S(hbond)    S(metal)    S(lipo)     H(rot)  DE(clash)    DE(int)     intcor
      6.31      -8.70       1.00        0.00      63.87       2.96       0.05       2.33       ----

> <Gold.Chemscore.Fitness>
6.3142

> <Gold.Chemscore.DG>
-8.6984

> <Gold.Chemscore.ZeroCoef>
-5.4800

> <Gold.Chemscore.Hbond>
0.9983

> <Gold.Chemscore.Metal>
0.0000

> <Gold.Chemscore.Lipo>
63.8697

> <Gold.Chemscore.Internal_Hbond>
0.0000

> <Gold.Chemscore.DEClash>
0.0505

> <Gold.Chemscore.DEInternal>
2.3337

> <Gold.Chemscore.Rot>
2.9643

> <Gold.Chemscore.Internal.Correction>
   9.000000E+99

> <Gold.Chemscore.Hbonds>
donor molecule, donor type, donor heavy atom, donor atom, acceptor molecule, acceptor atom, score
      L1  H     1    27       P1  7957  0.97

> <Gold.Chemscore.Hbond.Weighted>
-3.3342

> <Gold.Chemscore.Metal.Weighted>
-0.0000

> <Gold.Chemscore.Lipo.Weighted>
-7.4727

> <Gold.Chemscore.Internal_Hbond.Weighted>
0.0000

> <Gold.Chemscore.DEClash.Weighted>
0.0505

> <Gold.Chemscore.DEInternal.Weighted>
2.3337

> <Gold.Chemscore.Rot.Weighted>
7.5886

> <Gold.Chemscore.Internal.Correction.Weighted>
   9.000000E+99

> <Gold.Protein.RotatedTorsions>
[ 6907 6896 6895 6894 ] final  -90.10 input  -60.11 | X-H torsion
[ 7974 7965 7964 7962 ] final  -92.02 input  175.53 | X-H torsion
[ 8008 7997 7996 7995 ] final -158.56 input   59.86 | X-H torsion
[ 10167 10162 10161 10158 ] final  110.91 input  -65.29 | X-H torsion
[ 10718 10713 10712 10709 ] final   87.37 input   66.30 | X-H torsion
[ 10763 10752 10751 10750 ] final  -47.77 input  -60.55 | X-H torsion
[ 11005 11000 10999 10996 ] final  162.90 input  -57.11 | X-H torsion

> <Gold.Protein.ActiveResidues>
 VAL166  LYS551  ARG553  GLY616  TRP617  ASP618  TYR619  PRO620  LYS621  CYS622 
 ASP623  PHE694  ASN695  SER759  ASP760  ASP761  ALA762  ILE779  LEU786  VAL792 
 PHE793  MET794  SER795  GLU796  ALA797  LYS798  CYS799  TRP800  GLU811  SER814 

> <Gold.Protein.RotatedAtoms>
  150.6879  134.2485  159.4500 H   0  0  0  0  0  0  0  0  0  0  0  0  # atno 6907 bound_to 6896
  152.0424  134.9701  160.0583 H   0  0  0  0  0  0  0  0  0  0  0  0  # atno 6908 bound_to 6896
  152.1197  133.4312  159.4707 H   0  0  0  0  0  0  0  0  0  0  0  0  # atno 6909 bound_to 6896
  145.4053  140.9541  143.2264 H   0  0  0  0  0  0  0  0  0  0  0  0  # atno 7974 bound_to 7965
  155.7493  140.0824  157.2209 H   0  0  0  0  0  0  0  0  0  0  0  0  # atno 8008 bound_to 7997
  154.4014  140.1563  156.2762 H   0  0  0  0  0  0  0  0  0  0  0  0  # atno 8009 bound_to 7997
  155.8945  140.3413  155.5983 H   0  0  0  0  0  0  0  0  0  0  0  0  # atno 8010 bound_to 7997
  139.6652  144.7127  151.1790 H   0  0  0  0  0  0  0  0  0  0  0  0  # atno 10167 bound_to 10162
  157.6939  131.0253  150.3113 H   0  0  0  0  0  0  0  0  0  0  0  0  # atno 10718 bound_to 10713
  154.0668  135.6610  153.4819 H   0  0  0  0  0  0  0  0  0  0  0  0  # atno 10763 bound_to 10752
  153.0406  135.5148  154.7605 H   0  0  0  0  0  0  0  0  0  0  0  0  # atno 10764 bound_to 10752
  154.6659  135.3022  154.9773 H   0  0  0  0  0  0  0  0  0  0  0  0  # atno 10765 bound_to 10752
  140.2303  134.8129  157.3310 H   0  0  0  0  0  0  0  0  0  0  0  0  # atno 11005 bound_to 11000
  144.8346  139.5572  143.6928 LP  0  0  0  0  0  0  0  0  0  0  0  0  # atno 17320 bound_to 7965
  146.2732  139.6686  142.9282 LP  0  0  0  0  0  0  0  0  0  0  0  0  # atno 17321 bound_to 7965
  140.7596  143.5931  150.8776 LP  0  0  0  0  0  0  0  0  0  0  0  0  # atno 17342 bound_to 10162
  139.9592  143.6183  152.3007 LP  0  0  0  0  0  0  0  0  0  0  0  0  # atno 17343 bound_to 10162
  156.3614  130.3847  149.7248 LP  0  0  0  0  0  0  0  0  0  0  0  0  # atno 17370 bound_to 10713
  156.4693  130.7989  151.3007 LP  0  0  0  0  0  0  0  0  0  0  0  0  # atno 17371 bound_to 10713
  140.1757  134.4553  155.7803 LP  0  0  0  0  0  0  0  0  0  0  0  0  # atno 17394 bound_to 11000
  141.2218  133.6961  156.7783 LP  0  0  0  0  0  0  0  0  0  0  0  0  # atno 17395 bound_to 11000

$$$$
