AV-unprocessed.smi:1962|AV-procd|sdf|7924|dock1
  -GOLD-   2272010 93D 1   1.00000     0.00000
 Structure written by MMmdl.
 35 36  0  0  0  0  0  0  0  0  2 V2000
  149.6237  141.7447  156.8094 C   0  0  0  0  0  0  0  0  0  0  0  0
  151.1345  141.5380  156.9857 C   0  0  2  0  0  0  0  0  0  0  0  0
  151.6701  140.4606  156.0057 C   0  0  0  0  0  0  0  0  0  0  0  0
  150.6521  139.5439  155.4975 N   0  0  0  0  0  0  0  0  0  0  0  0
  149.9045  138.6093  156.1895 C   0  0  0  0  0  0  0  0  0  0  0  0
  149.0941  137.9814  155.2877 C   0  0  0  0  0  0  0  0  0  0  0  0
  149.4284  138.5962  154.0493 C   0  0  0  0  0  0  0  0  0  0  0  0
  150.3681  139.5184  154.1739 N   0  0  0  0  0  0  0  0  0  0  0  0
  151.3919  141.1372  158.3738 N   0  5  0  0  0  0  0  0  0  0  0  0
  152.5931  140.7052  158.8663 C   0  0  0  0  0  0  0  0  0  0  0  0
  153.3179  139.8379  158.3635 O   0  0  0  0  0  0  0  0  0  0  0  0
  153.1027  141.2999  160.1373 C   0  0  0  0  0  0  0  0  0  0  0  0
  153.8407  140.5854  160.9287 N   0  0  0  0  0  0  0  0  0  0  0  0
  154.3637  141.0879  162.1020 N   0  0  0  0  0  0  0  0  0  0  0  0
  155.3912  140.2531  162.7207 C   0  0  0  0  0  0  0  0  0  0  0  0
  153.9739  142.2482  162.6847 C   0  0  0  0  0  0  0  0  0  0  0  0
  154.4652  142.6926  163.7226 O   0  0  0  0  0  0  0  0  0  0  0  0
  152.8339  143.0056  161.9991 C   0  0  0  0  0  0  0  0  0  0  0  0
  152.7929  142.7464  160.4801 C   0  0  0  0  0  0  0  0  0  0  0  0
  149.3888  142.0605  155.7929 H   0  0  0  0  0  0  0  0  0  0  0  0
  149.2494  142.5141  157.4857 H   0  0  0  0  0  0  0  0  0  0  0  0
  149.0689  140.8269  157.0082 H   0  0  0  0  0  0  0  0  0  0  0  0
  151.6146  142.4867  156.7400 H   0  0  0  0  0  0  0  0  0  0  0  0
  152.1754  140.9343  155.1620 H   0  0  0  0  0  0  0  0  0  0  0  0
  152.4256  139.8560  156.5085 H   0  0  0  0  0  0  0  0  0  0  0  0
  150.0066  138.4783  157.2568 H   0  0  0  0  0  0  0  0  0  0  0  0
  148.3731  137.2020  155.4832 H   0  0  0  0  0  0  0  0  0  0  0  0
  149.0227  138.3972  153.0684 H   0  0  0  0  0  0  0  0  0  0  0  0
  155.1064  139.9794  163.7378 H   0  0  0  0  0  0  0  0  0  0  0  0
  156.3420  140.7866  162.7622 H   0  0  0  0  0  0  0  0  0  0  0  0
  155.5557  139.3281  162.1649 H   0  0  0  0  0  0  0  0  0  0  0  0
  151.9000  142.6718  162.4529 H   0  0  0  0  0  0  0  0  0  0  0  0
  152.9173  144.0742  162.1999 H   0  0  0  0  0  0  0  0  0  0  0  0
  153.5061  143.3961  159.9714 H   0  0  0  0  0  0  0  0  0  0  0  0
  151.8044  143.0285  160.1159 H   0  0  0  0  0  0  0  0  0  0  0  0
  1  2  1  0  0  0  0
  1 20  1  0  0  0  0
  1 21  1  0  0  0  0
  1 22  1  0  0  0  0
  2  3  1  0  0  0  0
  2  9  1  0  0  0  0
  2 23  1  0  0  0  0
  3  4  1  0  0  0  0
  3 24  1  0  0  0  0
  3 25  1  0  0  0  0
  4  8  1  0  0  0  0
  4  5  1  0  0  0  0
  5  6  2  0  0  0  0
  5 26  1  0  0  0  0
  6  7  1  0  0  0  0
  6 27  1  0  0  0  0
  7  8  2  0  0  0  0
  7 28  1  0  0  0  0
  9 10  1  0  0  0  0
 10 11  2  0  0  0  0
 10 12  1  0  0  0  0
 12 19  1  0  0  0  0
 12 13  2  0  0  0  0
 13 14  1  0  0  0  0
 14 15  1  0  0  0  0
 14 16  1  0  0  0  0
 15 29  1  0  0  0  0
 15 30  1  0  0  0  0
 15 31  1  0  0  0  0
 16 17  2  0  0  0  0
 16 18  1  0  0  0  0
 18 19  1  0  0  0  0
 18 32  1  0  0  0  0
 18 33  1  0  0  0  0
 19 34  1  0  0  0  0
 19 35  1  0  0  0  0
M  CHG  1   9  -1
M  END
> <s_m_source_file>
AV-unprocessed.smi

> <i_m_source_file_index>
1962

> <i_lp_mmshare_version>
43012

> <i_f3d_flags>
0

> <s_epik_input>
bjFbY0hdW2NIXVtjSF1uMVtDSDJdW0NAQEhdKFtDSDNdKVtOSF1DKD1PKUMyPU5OKFtDSDNdKUMoPU8pW0NIMl1bQ0gyXTI=

> <s_epik_cmdline>
J2VwaWtfcHl0aG9uJywgJy1waCcsICc3LjAnLCAnLXRuJywgJzgnLCAnLW1hJywgJzIwMCcsICctbWV0YWxfYmluZGluZycsICctaW1hZScsICc8aW5maWxlLm1hZT4nLCAnLW9tYWUnLCAnPG91dGZpbGUubWFlPic=

> <r_lp_tautomer_probability>
1

> <r_epik_Ionization_Penalty>
5.21086

> <r_epik_Ionization_Penalty_Charging>
5.21084

> <r_epik_Ionization_Penalty_Neutral>
2.41961e-05

> <r_epik_State_Penalty>
5.21075

> <r_epik_Charging_Adjusted_Penalty>
10.4216

> <i_epik_Tot_Q>
-1

> <i_epik_Tot_abs_Q>
1

> <r_epik_Metal_State_Penalty>
1.27477

> <b_epik_Metal_Only>
1

> <s_epik_Chemistry_Notes>
This compound has an imine and may undergo hydrolysis.

> <s_lp_Force_Field>
OPLS_2005

> <r_lp_Energy>
24.8429

> <b_lp_Chiralities_Consistent>
1

> <s_lp_Variant>
AV-unprocessed.smi:1962-3

> <Gold.Version>
5.8.1

> <Gold.Id.Protein>
6NUR|6NUR_protein|mol2

> <Gold.PLP.Fitness>
44.9356

> <Gold.PLP.PLP>
-36.5145

> <Gold.PLP.part.hbond>
-3.0000

> <Gold.PLP.part.metal>
0.0000

> <Gold.PLP.part.buried>
-0.7762

> <Gold.PLP.part.nonpolar>
-31.2225

> <Gold.PLP.part.repulsive>
0.3038

> <Gold.PLP.ligand.clash>
0.0000

> <Gold.PLP.ligand.torsion>
1.4748

> <Gold.PLP.Chemscore.Hbond>
2.0000

> <Gold.PLP.Chemscore.CHOScore>
1.7400

> <Gold.PLP.Chemscore.Metal>
0.0000

> <Gold.Chemscore.Hbonds>
donor molecule, donor type, donor heavy atom, donor atom, acceptor molecule, acceptor atom, score
      P1  H  7989  7998       L1     8  1.00
      P1  H  7997  8008       L1    11  1.00
      L1  C     7    28       P1  7948  0.96
      L1  C     7    28       P1  7957  0.70

> <Gold.PLP.Chemscore.Internal.Correction>
0.1508

> <Gold.Rescore>
     Score         DG    S(hbond)    S(metal)    S(lipo)     H(rot)  DE(clash)    DE(int)     intcor
     13.37     -16.31       1.84        0.00      72.90       1.50       0.11       2.83       ----

> <Gold.Chemscore.Fitness>
13.3718

> <Gold.Chemscore.DG>
-16.3124

> <Gold.Chemscore.ZeroCoef>
-5.4800

> <Gold.Chemscore.Hbond>
1.8364

> <Gold.Chemscore.Metal>
0.0000

> <Gold.Chemscore.Lipo>
72.9044

> <Gold.Chemscore.Internal_Hbond>
0.0000

> <Gold.Chemscore.DEClash>
0.1060

> <Gold.Chemscore.DEInternal>
2.8346

> <Gold.Chemscore.Rot>
1.4964

> <Gold.Chemscore.Internal.Correction>
   9.000000E+99

> <Gold.Chemscore.Hbonds>
donor molecule, donor type, donor heavy atom, donor atom, acceptor molecule, acceptor atom, score
      P1  H  7989  7998       L1     8  0.34
      P1  H  7997  8008       L1    11  0.99

> <Gold.Chemscore.Hbond.Weighted>
-6.1334

> <Gold.Chemscore.Metal.Weighted>
-0.0000

> <Gold.Chemscore.Lipo.Weighted>
-8.5298

> <Gold.Chemscore.Internal_Hbond.Weighted>
0.0000

> <Gold.Chemscore.DEClash.Weighted>
0.1060

> <Gold.Chemscore.DEInternal.Weighted>
2.8346

> <Gold.Chemscore.Rot.Weighted>
3.8309

> <Gold.Chemscore.Internal.Correction.Weighted>
   9.000000E+99

> <Gold.Protein.RotatedTorsions>
[ 6907 6896 6895 6894 ] final   40.27 input  -60.11 | X-H torsion
[ 7974 7965 7964 7962 ] final  -28.40 input  175.53 | X-H torsion
[ 8008 7997 7996 7995 ] final  -84.29 input   59.86 | X-H torsion
[ 10167 10162 10161 10158 ] final -160.64 input  -65.29 | X-H torsion
[ 10718 10713 10712 10709 ] final   93.34 input   66.30 | X-H torsion
[ 10763 10752 10751 10750 ] final   54.93 input  -60.55 | X-H torsion
[ 11005 11000 10999 10996 ] final    1.05 input  -57.11 | X-H torsion

> <Gold.Protein.ActiveResidues>
 VAL166  LYS551  ARG553  GLY616  TRP617  ASP618  TYR619  PRO620  LYS621  CYS622 
 ASP623  PHE694  ASN695  SER759  ASP760  ASP761  ALA762  ILE779  LEU786  VAL792 
 PHE793  MET794  SER795  GLU796  ALA797  LYS798  CYS799  TRP800  GLU811  SER814 

> <Gold.Protein.RotatedAtoms>
  152.1804  134.8759  160.0526 H   0  0  0  0  0  0  0  0  0  0  0  0  # atno 6907 bound_to 6896
  151.9686  133.3713  159.4070 H   0  0  0  0  0  0  0  0  0  0  0  0  # atno 6908 bound_to 6896
  150.6916  134.4088  159.5196 H   0  0  0  0  0  0  0  0  0  0  0  0  # atno 6909 bound_to 6896
  146.1290  140.5278  142.8701 H   0  0  0  0  0  0  0  0  0  0  0  0  # atno 7974 bound_to 7965
  154.6283  140.0607  156.9700 H   0  0  0  0  0  0  0  0  0  0  0  0  # atno 8008 bound_to 7997
  155.1707  140.3290  155.4375 H   0  0  0  0  0  0  0  0  0  0  0  0  # atno 8009 bound_to 7997
  156.2469  140.1914  156.6809 H   0  0  0  0  0  0  0  0  0  0  0  0  # atno 8010 bound_to 7997
  139.6524  144.0059  152.2171 H   0  0  0  0  0  0  0  0  0  0  0  0  # atno 10167 bound_to 10162
  157.6955  131.0475  150.4019 H   0  0  0  0  0  0  0  0  0  0  0  0  # atno 10718 bound_to 10713
  152.9810  135.5728  154.4984 H   0  0  0  0  0  0  0  0  0  0  0  0  # atno 10763 bound_to 10752
  154.4508  135.2778  155.1785 H   0  0  0  0  0  0  0  0  0  0  0  0  # atno 10764 bound_to 10752
  154.3413  135.6228  153.5651 H   0  0  0  0  0  0  0  0  0  0  0  0  # atno 10765 bound_to 10752
  140.6198  133.9672  155.8219 H   0  0  0  0  0  0  0  0  0  0  0  0  # atno 11005 bound_to 11000
  144.7672  140.5556  143.6695 LP  0  0  0  0  0  0  0  0  0  0  0  0  # atno 17320 bound_to 7965
  145.5301  139.1475  143.3504 LP  0  0  0  0  0  0  0  0  0  0  0  0  # atno 17321 bound_to 7965
  139.9777  144.6450  150.7930 LP  0  0  0  0  0  0  0  0  0  0  0  0  # atno 17342 bound_to 10162
  140.7544  143.3026  151.3042 LP  0  0  0  0  0  0  0  0  0  0  0  0  # atno 17343 bound_to 10162
  156.4411  130.3992  149.6696 LP  0  0  0  0  0  0  0  0  0  0  0  0  # atno 17370 bound_to 10713
  156.3879  130.7612  151.2611 LP  0  0  0  0  0  0  0  0  0  0  0  0  # atno 17371 bound_to 10713
  141.0750  134.0148  157.3470 LP  0  0  0  0  0  0  0  0  0  0  0  0  # atno 17394 bound_to 11000
  139.9158  135.0196  156.7875 LP  0  0  0  0  0  0  0  0  0  0  0  0  # atno 17395 bound_to 11000

$$$$
