#       Name:                AV-unprocessed.smi:360
#       Creating user name   scv26
#       Creation time:       Thu Mar 26 22:35:45 2020


#       File generated by GOLD software.
#

@<TRIPOS>MOLECULE
AV-unprocessed.smi:360
    42    43     1
SMALL
NO_CHARGES


@<TRIPOS>ATOM
      1 ****        -6.5424  -1.1653   0.1279 C.2            1 S1                 0.0000
      2 ****        -5.7932  -0.5902   1.0801 C.2            1 S1                 0.0000
      3 ****        -4.3498  -0.9452   1.3594 C.3            1 S1                 0.0000
      4 ****        -3.4831   0.2199   1.3150 N.pl3          1 S1                 0.0000
      5 ****        -2.0974   0.2562   1.4007 C.2            1 S1                 0.0000
      6 ****        -1.3423   1.4977   1.3406 C.2            1 S1                 0.0000
      7 ****        -0.0575   1.5379   1.4231 N.2            1 S1                 0.0000
      8 ****         0.6528   0.3639   1.5753 N.am           1 S1                 0.0000
      9 ****         2.1064   0.5536   1.6486 C.3            1 S1                 0.0000
     10 ****         2.7537   0.5574   0.2543 C.3            1 S1                 0.0000
     11 ****         2.7031  -0.7517  -0.2967 O.3            1 S1                 0.0000
     12 ****         3.2186  -0.9515  -1.5587 C.ar           1 S1                 0.0000
     13 ****         3.1249  -2.2555  -2.0874 C.ar           1 S1                 0.0000
     14 ****         3.6269  -2.5519  -3.3692 C.ar           1 S1                 0.0000
     15 ****         4.2301  -1.5401  -4.1391 C.ar           1 S1                 0.0000
     16 ****         4.8460  -1.8998  -5.7102 Cl             1 S1                 0.0000
     17 ****         4.3301  -0.2340  -3.6241 C.ar           1 S1                 0.0000
     18 ****         3.8286   0.0617  -2.3413 C.ar           1 S1                 0.0000
     19 ****         0.0928  -0.8807   1.6407 C.2            1 S1                 0.0000
     20 ****         0.7669  -1.9036   1.7678 O.2            1 S1                 0.0000
     21 ****        -1.3743  -0.8864   1.5451 C.2            1 S1                 0.0000
     22 ****        -2.1727  -2.4217   1.6245 Cl             1 S1                 0.0000
     23 ****        -6.1401  -1.9354  -0.5143 H              1 S1                 0.0000
     24 ****        -7.5710  -0.8714  -0.0215 H              1 S1                 0.0000
     25 ****        -6.2300   0.1748   1.7057 H              1 S1                 0.0000
     26 ****        -4.2854  -1.3993   2.3485 H              1 S1                 0.0000
     27 ****        -4.0089  -1.6854   0.6349 H              1 S1                 0.0000
     28 ****        -3.9606   1.1073   1.2413 H              1 S1                 0.0000
     29 ****        -1.9273   2.4090   1.2200 H              1 S1                 0.0000
     30 ****         2.3147   1.5069   2.1374 H              1 S1                 0.0000
     31 ****         2.5787  -0.1992   2.2818 H              1 S1                 0.0000
     32 ****         2.2417   1.2713  -0.3932 H              1 S1                 0.0000
     33 ****         3.7938   0.8733   0.3462 H              1 S1                 0.0000
     34 ****         2.6624  -3.0375  -1.5030 H              1 S1                 0.0000
     35 ****         3.5476  -3.5561  -3.7591 H              1 S1                 0.0000
     36 ****         4.7935   0.5447  -4.2120 H              1 S1                 0.0000
     37 ****         3.9255   1.0741  -1.9801 H              1 S1                 0.0000
     38 ****         0.4224   2.4140   1.3772 LP             1 S1                 0.0000
     39 ****         1.7413  -1.0242  -0.3236 LP             1 S1                 0.0000
     40 ****         3.2029  -1.3540   0.3257 LP             1 S1                 0.0000
     41 ****         1.7632  -1.8416   1.8272 LP             1 S1                 0.0000
     42 ****         0.3179  -2.7960   1.8116 LP             1 S1                 0.0000
@<TRIPOS>BOND
    1    1    2 2     
    2    1   23 1     
    3    1   24 1     
    4    2    3 1     
    5    2   25 1     
    6    3    4 1     
    7    3   26 1     
    8    3   27 1     
    9    4    5 1     
   10    4   28 1     
   11    5   21 2     
   12    5    6 1     
   13    6    7 2     
   14    6   29 1     
   15    7    8 1     
   16    8    9 1     
   17    8   19 am    
   18    9   10 1     
   19    9   30 1     
   20    9   31 1     
   21   10   11 1     
   22   10   32 1     
   23   10   33 1     
   24   11   12 1     
   25   12   18 ar    
   26   12   13 ar    
   27   13   14 ar    
   28   13   34 1     
   29   14   15 ar    
   30   14   35 1     
   31   15   16 1     
   32   15   17 ar    
   33   17   18 ar    
   34   17   36 1     
   35   18   37 1     
   36   19   20 2     
   37   19   21 1     
   38   21   22 1     
   39    7   38 1     
   40   11   39 1     
   41   11   40 1     
   42   20   41 1     
   43   20   42 1     
@<TRIPOS>SUBSTRUCTURE
      1 S1             1
@<TRIPOS>SET
LONE_PAIRS      STATIC     ATOMS    <user>   **** ""
5 38 39 40 41 42
DONOR_HYDROGENS      STATIC     ATOMS    <user>   **** ""
1 28
ATOM$BLUE        STATIC     ATOMS    COLORGROUP SYSTEM
5 38 39 40 41 42
ATOM$RED        STATIC     ATOMS    COLORGROUP SYSTEM
1 28
