#       Name:                AV-unprocessed.smi:125
#       Creating user name   scv26
#       Creation time:       Thu Mar 26 18:28:28 2020


#       File generated by GOLD software.
#

@<TRIPOS>MOLECULE
AV-unprocessed.smi:125
    69    72     1
SMALL
NO_CHARGES


@<TRIPOS>ATOM
      1 ****        -5.6542   0.6391  -0.0951 C.3            1 S1                 0.0000
      2 ****        -4.1561   0.6454  -0.3503 C.ar           1 S1                 0.0000
      3 ****        -3.4753  -0.5898  -0.3737 C.ar           1 S1                 0.0000
      4 ****        -2.0882  -0.6461  -0.6038 C.ar           1 S1                 0.0000
      5 ****        -1.3509   0.5437  -0.8049 C.ar           1 S1                 0.0000
      6 ****         0.0467   0.5722  -1.0617 N.am           1 S1                 0.0000
      7 ****         0.9780  -0.3548  -0.7718 C.2            1 S1                 0.0000
      8 ****         0.7599  -1.3932  -0.1468 O.2            1 S1                 0.0000
      9 ****         2.4043  -0.0157  -1.2310 C.3            1 S1                 0.0000
     10 ****         3.2323  -1.2154  -1.4830 N.am           1 S1                 0.0000
     11 ****         3.1449  -1.8374  -2.7534 C.2            1 S1                 0.0000
     12 ****         2.4049  -1.3919  -3.6322 O.2            1 S1                 0.0000
     13 ****         3.9777  -3.0208  -2.9348 C.2            1 S1                 0.0000
     14 ****         3.9742  -3.6627  -4.1154 F              1 S1                 0.0000
     15 ****         4.7575  -3.4805  -1.9352 C.2            1 S1                 0.0000
     16 ****         4.8178  -2.8754  -0.6934 N.am           1 S1                 0.0000
     17 ****         5.7062  -3.4198   0.4032 C.3            1 S1                 0.0000
     18 ****         7.0839  -2.7502   0.3497 C.3            1 S1                 0.0000
     19 ****         7.8781  -3.7367  -0.4786 C.3            1 S1                 0.0000
     20 ****         7.2745  -5.0639  -0.0344 C.3            1 S1                 0.0000
     21 ****         5.8952  -4.7908   0.1991 O.3            1 S1                 0.0000
     22 ****         4.0555  -1.7133  -0.4445 C.2            1 S1                 0.0000
     23 ****         4.1086  -1.1482   0.6498 O.2            1 S1                 0.0000
     24 ****        -2.0284   1.7788  -0.7991 C.ar           1 S1                 0.0000
     25 ****        -3.4195   1.8385  -0.5704 C.ar           1 S1                 0.0000
     26 ****        -4.1922   3.4655  -0.5512 S.o2           1 S1                 0.0000
     27 ****        -3.1528   4.5006  -0.6667 O.2            1 S1                 0.0000
     28 ****        -5.3144   3.4460  -1.5023 O.2            1 S1                 0.0000
     29 ****        -4.8356   3.5620   1.0535 N.pl3          1 S1                 0.0000
     30 ****        -6.1941   4.0869   1.2646 C.3            1 S1                 0.0000
     31 ****        -6.7247   3.6969   2.6543 C.3            1 S1                 0.0000
     32 ****        -5.7936   4.0647   3.6611 O.3            1 S1                 0.0000
     33 ****        -4.5637   3.3721   3.5089 C.3            1 S1                 0.0000
     34 ****        -3.9044   3.7547   2.1748 C.3            1 S1                 0.0000
     35 ****        -6.0405  -0.3797  -0.0534 H              1 S1                 0.0000
     36 ****        -6.1934   1.1538  -0.8887 H              1 S1                 0.0000
     37 ****        -5.8876   1.1119   0.8575 H              1 S1                 0.0000
     38 ****        -4.0177  -1.5110  -0.2190 H              1 S1                 0.0000
     39 ****        -1.6168  -1.6160  -0.6349 H              1 S1                 0.0000
     40 ****         0.3900   1.4216  -1.4862 H              1 S1                 0.0000
     41 ****         2.3575   0.6074  -2.1261 H              1 S1                 0.0000
     42 ****         2.8551   0.6352  -0.4807 H              1 S1                 0.0000
     43 ****         5.3570  -4.3577  -2.1281 H              1 S1                 0.0000
     44 ****         5.1714  -3.2605   1.3407 H              1 S1                 0.0000
     45 ****         7.0432  -1.7448  -0.0708 H              1 S1                 0.0000
     46 ****         7.4831  -2.6943   1.3632 H              1 S1                 0.0000
     47 ****         7.6947  -3.5731  -1.5410 H              1 S1                 0.0000
     48 ****         8.9525  -3.6765  -0.3036 H              1 S1                 0.0000
     49 ****         7.4064  -5.8545  -0.7732 H              1 S1                 0.0000
     50 ****         7.7290  -5.3928   0.9009 H              1 S1                 0.0000
     51 ****        -1.4674   2.6862  -0.9671 H              1 S1                 0.0000
     52 ****        -6.1694   5.1720   1.1597 H              1 S1                 0.0000
     53 ****        -6.8675   3.7039   0.4983 H              1 S1                 0.0000
     54 ****        -7.6717   4.2013   2.8468 H              1 S1                 0.0000
     55 ****        -6.9239   2.6252   2.7041 H              1 S1                 0.0000
     56 ****        -3.9058   3.6332   4.3378 H              1 S1                 0.0000
     57 ****        -4.7291   2.2949   3.5642 H              1 S1                 0.0000
     58 ****        -3.0077   3.1555   2.0157 H              1 S1                 0.0000
     59 ****        -3.5929   4.7995   2.1960 H              1 S1                 0.0000
     60 ****        -0.1625  -1.5937   0.1835 LP             1 S1                 0.0000
     61 ****         1.5052  -2.0360   0.0306 LP             1 S1                 0.0000
     62 ****         1.8524  -0.5775  -3.4551 LP             1 S1                 0.0000
     63 ****         2.3569  -1.8448  -4.5224 LP             1 S1                 0.0000
     64 ****         5.3608  -5.0843  -0.5935 LP             1 S1                 0.0000
     65 ****         5.5912  -5.2912   1.0098 LP             1 S1                 0.0000
     66 ****         3.5650  -0.3251   0.8144 LP             1 S1                 0.0000
     67 ****         4.6952  -1.5129   1.3729 LP             1 S1                 0.0000
     68 ****        -6.1806   3.8470   4.5571 LP             1 S1                 0.0000
     69 ****        -5.6224   5.0481   3.6021 LP             1 S1                 0.0000
@<TRIPOS>BOND
    1    1    2 1     
    2    1   35 1     
    3    1   36 1     
    4    1   37 1     
    5    2   25 ar    
    6    2    3 ar    
    7    3    4 ar    
    8    3   38 1     
    9    4    5 ar    
   10    4   39 1     
   11    5    6 1     
   12    5   24 ar    
   13    6    7 am    
   14    6   40 1     
   15    7    8 2     
   16    7    9 1     
   17    9   10 1     
   18    9   41 1     
   19    9   42 1     
   20   10   22 am    
   21   10   11 am    
   22   11   12 2     
   23   11   13 1     
   24   13   14 1     
   25   13   15 2     
   26   15   16 1     
   27   15   43 1     
   28   16   17 1     
   29   16   22 am    
   30   17   21 1     
   31   17   18 1     
   32   17   44 1     
   33   18   19 1     
   34   18   45 1     
   35   18   46 1     
   36   19   20 1     
   37   19   47 1     
   38   19   48 1     
   39   20   21 1     
   40   20   49 1     
   41   20   50 1     
   42   22   23 2     
   43   24   25 ar    
   44   24   51 1     
   45   25   26 1     
   46   26   27 2     
   47   26   28 2     
   48   26   29 1     
   49   29   34 1     
   50   29   30 1     
   51   30   31 1     
   52   30   52 1     
   53   30   53 1     
   54   31   32 1     
   55   31   54 1     
   56   31   55 1     
   57   32   33 1     
   58   33   34 1     
   59   33   56 1     
   60   33   57 1     
   61   34   58 1     
   62   34   59 1     
   63    8   60 1     
   64    8   61 1     
   65   12   62 1     
   66   12   63 1     
   67   21   64 1     
   68   21   65 1     
   69   23   66 1     
   70   23   67 1     
   71   32   68 1     
   72   32   69 1     
@<TRIPOS>SUBSTRUCTURE
      1 S1             1
@<TRIPOS>SET
LONE_PAIRS      STATIC     ATOMS    <user>   **** ""
12 60 61 62 63 64 65 66 67 27 28 68 69
DONOR_HYDROGENS      STATIC     ATOMS    <user>   **** ""
1 40
ATOM$BLUE        STATIC     ATOMS    COLORGROUP SYSTEM
12 60 61 62 63 64 65 66 67 27 28 68 69
ATOM$RED        STATIC     ATOMS    COLORGROUP SYSTEM
1 40
