AV-unprocessed.smi:283|AV-procd|sdf|2145|dock2
  -GOLD-   2262021473D 1   1.00000     0.00000
 Structure written by MMmdl.
 48 51  0  0  0  0  0  0  0  0  1 V2000
  151.3772  140.6187  155.8056 C   0  0  0  0  0  0  0  0  0  0  0  0
  150.5217  141.3609  156.8409 C   0  0  2  0  0  0  0  0  0  0  0  0
  149.3993  142.0227  156.1778 N   0  0  0  0  0  0  0  0  0  0  0  0
  148.4296  141.3012  155.5725 C   0  0  0  0  0  0  0  0  0  0  0  0
  148.2532  141.3501  154.2261 N   0  0  0  0  0  0  0  0  0  0  0  0
  147.2876  140.6268  153.6521 C   0  0  0  0  0  0  0  0  0  0  0  0
  146.4038  139.8092  154.2284 N   0  0  0  0  0  0  0  0  0  0  0  0
  146.5745  139.7591  155.5820 C   0  0  0  0  0  0  0  0  0  0  0  0
  147.5564  140.4734  156.3233 C   0  0  0  0  0  0  0  0  0  0  0  0
  147.4315  140.1815  157.6753 N   0  0  0  0  0  0  0  0  0  0  0  0
  146.4310  139.3437  157.7261 C   0  0  0  0  0  0  0  0  0  0  0  0
  145.8552  139.0365  156.5135 N   0  0  0  0  0  0  0  0  0  0  0  0
  144.7019  138.1161  156.2618 C   0  0  2  0  0  0  0  0  0  0  0  0
  145.0063  137.2837  155.1948 O   0  0  0  0  0  0  0  0  0  0  0  0
  143.7939  136.7559  154.6733 C   0  0  1  0  0  0  0  0  0  0  0  0
  143.5628  135.3793  155.3348 C   0  0  0  0  0  0  0  0  0  0  0  0
  142.3795  134.7782  154.8520 O   0  0  0  0  0  0  0  0  0  0  0  0
  142.7316  137.8548  154.9346 C   0  0  1  0  0  0  0  0  0  0  0  0
  141.5434  137.3502  155.5156 O   0  0  0  0  0  0  0  0  0  0  0  0
  143.4016  138.8433  155.8914 C   0  0  2  0  0  0  0  0  0  0  0  0
  143.6095  140.0959  155.2644 O   0  0  0  0  0  0  0  0  0  0  0  0
  151.3929  142.2932  157.6858 C   0  0  0  0  0  0  0  0  0  0  0  0
  151.3012  143.6932  157.5067 C   0  0  0  0  0  0  0  0  0  0  0  0
  152.0935  144.5686  158.2725 C   0  0  0  0  0  0  0  0  0  0  0  0
  152.9933  144.0526  159.2222 C   0  0  0  0  0  0  0  0  0  0  0  0
  153.1012  142.6612  159.4012 C   0  0  0  0  0  0  0  0  0  0  0  0
  152.3092  141.7798  158.6379 C   0  0  0  0  0  0  0  0  0  0  0  0
  152.4920  140.0795  158.8931 Cl  0  0  0  0  0  0  0  0  0  0  0  0
  144.6071  137.5225  157.1726 H   0  0  0  0  0  0  0  0  0  0  0  0
  143.9348  136.6138  153.6010 H   0  0  0  0  0  0  0  0  0  0  0  0
  142.4662  138.3457  153.9969 H   0  0  0  0  0  0  0  0  0  0  0  0
  142.8256  139.0121  156.8025 H   0  0  0  0  0  0  0  0  0  0  0  0
  152.1700  140.0485  156.2903 H   0  0  0  0  0  0  0  0  0  0  0  0
  151.8458  141.3118  155.1060 H   0  0  0  0  0  0  0  0  0  0  0  0
  150.7750  139.9168  155.2278 H   0  0  0  0  0  0  0  0  0  0  0  0
  150.0807  140.6064  157.4915 H   0  0  0  0  0  0  0  0  0  0  0  0
  149.3070  143.0115  156.3607 H   0  0  0  0  0  0  0  0  0  0  0  0
  147.2114  140.7170  152.5785 H   0  0  0  0  0  0  0  0  0  0  0  0
  146.0809  138.9244  158.6580 H   0  0  0  0  0  0  0  0  0  0  0  0
  144.3881  134.7115  155.0859 H   0  0  0  0  0  0  0  0  0  0  0  0
  143.5331  135.4507  156.4225 H   0  0  0  0  0  0  0  0  0  0  0  0
  142.4615  133.8411  154.9373 H   0  0  0  0  0  0  0  0  0  0  0  0
  140.8185  137.8806  155.2225 H   0  0  0  0  0  0  0  0  0  0  0  0
  143.3553  140.0216  154.3573 H   0  0  0  0  0  0  0  0  0  0  0  0
  150.6183  144.1060  156.7789 H   0  0  0  0  0  0  0  0  0  0  0  0
  152.0109  145.6360  158.1296 H   0  0  0  0  0  0  0  0  0  0  0  0
  153.6026  144.7226  159.8108 H   0  0  0  0  0  0  0  0  0  0  0  0
  153.7972  142.2685  160.1278 H   0  0  0  0  0  0  0  0  0  0  0  0
  1  2  1  0  0  0  0
  1 33  1  0  0  0  0
  1 34  1  0  0  0  0
  1 35  1  0  0  0  0
  2  3  1  0  0  0  0
  2 22  1  0  0  0  0
  2 36  1  0  0  0  0
  3  4  1  0  0  0  0
  3 37  1  0  0  0  0
  4  9  1  0  0  0  0
  4  5  2  0  0  0  0
  5  6  1  0  0  0  0
  6  7  2  0  0  0  0
  6 38  1  0  0  0  0
  7  8  1  0  0  0  0
  8 12  1  0  0  0  0
  8  9  2  0  0  0  0
  9 10  1  0  0  0  0
 10 11  2  0  0  0  0
 11 12  1  0  0  0  0
 11 39  1  0  0  0  0
 12 13  1  0  0  0  0
 13 29  1  0  0  0  0
 13 20  1  0  0  0  0
 13 14  1  0  0  0  0
 14 15  1  0  0  0  0
 15 30  1  0  0  0  0
 15 16  1  0  0  0  0
 15 18  1  0  0  0  0
 16 17  1  0  0  0  0
 16 40  1  0  0  0  0
 16 41  1  0  0  0  0
 17 42  1  0  0  0  0
 18 31  1  0  0  0  0
 18 19  1  0  0  0  0
 18 20  1  0  0  0  0
 19 43  1  0  0  0  0
 20 32  1  0  0  0  0
 20 21  1  0  0  0  0
 21 44  1  0  0  0  0
 22 27  1  0  0  0  0
 22 23  2  0  0  0  0
 23 24  1  0  0  0  0
 23 45  1  0  0  0  0
 24 25  2  0  0  0  0
 24 46  1  0  0  0  0
 25 26  1  0  0  0  0
 25 47  1  0  0  0  0
 26 27  2  0  0  0  0
 26 48  1  0  0  0  0
 27 28  1  0  0  0  0
M  END
> <s_m_source_file>
AV-unprocessed.smi

> <i_m_source_file_index>
283

> <i_lp_mmshare_version>
43012

> <i_f3d_flags>
0

> <s_epik_input>
Q2xjMVtjSF1bY0hdW2NIXVtjSF1jMVtDQEhdKFtDSDNdKVtOSF1jKG5bY0hdbjIpYyhjMjMpbltjSF1uM1tDQEBIXTRPW0NASF0oW0NIMl1bT0hdKVtDQEBIXShbT0hdKVtDQEhdNFtPSF0=

> <s_epik_cmdline>
J2VwaWtfcHl0aG9uJywgJy1waCcsICc3LjAnLCAnLXRuJywgJzgnLCAnLW1hJywgJzIwMCcsICctbWV0YWxfYmluZGluZycsICctaW1hZScsICc8aW5maWxlLm1hZT4nLCAnLW9tYWUnLCAnPG91dGZpbGUubWFlPic=

> <r_lp_tautomer_probability>
1

> <r_epik_Ionization_Penalty>
0.000266407

> <r_epik_Ionization_Penalty_Charging>
0

> <r_epik_Ionization_Penalty_Neutral>
0.000266407

> <r_epik_State_Penalty>
-0

> <r_epik_Charging_Adjusted_Penalty>
0

> <i_epik_Tot_Q>
0

> <i_epik_Tot_abs_Q>
0

> <r_epik_Metal_State_Penalty>
-0

> <b_epik_Metal_Only>
0

> <s_epik_Chemistry_Notes>
This compound contains an acetal/aminal-like group ( X-CH(R)-Y where X, Y are N, S, or O) that may be acid/base labile, releasing an aldehyde.

> <s_lp_Force_Field>
OPLS_2005

> <r_lp_Energy>
49.3255

> <b_lp_Chiralities_Consistent>
1

> <s_lp_Variant>
AV-unprocessed.smi:283-21

> <Gold.Version>
5.8.1

> <Gold.Id.Protein>
6NUR|6NUR_protein|mol2

> <Gold.PLP.Fitness>
47.3360

> <Gold.PLP.PLP>
-38.3996

> <Gold.PLP.part.hbond>
-3.6363

> <Gold.PLP.part.metal>
0.0000

> <Gold.PLP.part.buried>
-5.3842

> <Gold.PLP.part.nonpolar>
-30.1984

> <Gold.PLP.part.repulsive>
0.3909

> <Gold.PLP.ligand.clash>
0.0000

> <Gold.PLP.ligand.torsion>
1.3252

> <Gold.PLP.Chemscore.Hbond>
3.0000

> <Gold.PLP.Chemscore.CHOScore>
0.8189

> <Gold.PLP.Chemscore.Metal>
0.0000

> <Gold.Chemscore.Hbonds>
donor molecule, donor type, donor heavy atom, donor atom, acceptor molecule, acceptor atom, score
      L1  H     3    37       P1  8028  0.94
      L1  H    17    42       P1 10957  0.88
      L1  H    21    44       P1 10175  1.00
      L1  C     6    38       P1  7957  0.16

> <Gold.PLP.Chemscore.Internal.Correction>
0.1302

> <Gold.Rescore>
     Score         DG    S(hbond)    S(metal)    S(lipo)     H(rot)  DE(clash)    DE(int)     intcor
     13.37     -16.08       2.89        0.00      97.74       4.10       0.13       2.58       ----

> <Gold.Chemscore.Fitness>
13.3705

> <Gold.Chemscore.DG>
-16.0846

> <Gold.Chemscore.ZeroCoef>
-5.4800

> <Gold.Chemscore.Hbond>
2.8914

> <Gold.Chemscore.Metal>
0.0000

> <Gold.Chemscore.Lipo>
97.7371

> <Gold.Chemscore.Internal_Hbond>
0.0000

> <Gold.Chemscore.DEClash>
0.1329

> <Gold.Chemscore.DEInternal>
2.5812

> <Gold.Chemscore.Rot>
4.0968

> <Gold.Chemscore.Internal.Correction>
   9.000000E+99

> <Gold.Chemscore.Hbonds>
donor molecule, donor type, donor heavy atom, donor atom, acceptor molecule, acceptor atom, score
      L1  H     3    37       P1  8028  0.91
      L1  H    17    42       P1 10957  0.86
      L1  H    21    44       P1 10175  0.94

> <Gold.Chemscore.Hbond.Weighted>
-9.6573

> <Gold.Chemscore.Metal.Weighted>
-0.0000

> <Gold.Chemscore.Lipo.Weighted>
-11.4352

> <Gold.Chemscore.Internal_Hbond.Weighted>
0.0000

> <Gold.Chemscore.DEClash.Weighted>
0.1329

> <Gold.Chemscore.DEInternal.Weighted>
2.5812

> <Gold.Chemscore.Rot.Weighted>
10.4879

> <Gold.Chemscore.Internal.Correction.Weighted>
   9.000000E+99

> <Gold.Protein.RotatedTorsions>
[ 6907 6896 6895 6894 ] final   10.82 input  -60.11 | X-H torsion
[ 7974 7965 7964 7962 ] final  -47.32 input  175.53 | X-H torsion
[ 8008 7997 7996 7995 ] final   16.48 input   59.86 | X-H torsion
[ 10167 10162 10161 10158 ] final   51.48 input  -65.29 | X-H torsion
[ 10718 10713 10712 10709 ] final  109.32 input   66.30 | X-H torsion
[ 10763 10752 10751 10750 ] final -136.91 input  -60.55 | X-H torsion
[ 11005 11000 10999 10996 ] final  -86.83 input  -57.11 | X-H torsion

> <Gold.Protein.ActiveResidues>
 VAL166  LYS551  ARG553  GLY616  TRP617  ASP618  TYR619  PRO620  LYS621  CYS622 
 ASP623  PHE694  ASN695  SER759  ASP760  ASP761  ALA762  ILE779  LEU786  VAL792 
 PHE793  MET794  SER795  GLU796  ALA797  LYS798  CYS799  TRP800  GLU811  SER814 

> <Gold.Protein.RotatedAtoms>
  151.7444  135.0847  160.0320 H   0  0  0  0  0  0  0  0  0  0  0  0  # atno 6907 bound_to 6896
  152.3458  133.6116  159.5917 H   0  0  0  0  0  0  0  0  0  0  0  0  # atno 6908 bound_to 6896
  150.7508  133.9568  159.3544 H   0  0  0  0  0  0  0  0  0  0  0  0  # atno 6909 bound_to 6896
  145.9628  140.7462  142.9449 H   0  0  0  0  0  0  0  0  0  0  0  0  # atno 7974 bound_to 7965
  154.8776  140.2968  155.5444 H   0  0  0  0  0  0  0  0  0  0  0  0  # atno 8008 bound_to 7997
  156.3022  140.2448  156.3707 H   0  0  0  0  0  0  0  0  0  0  0  0  # atno 8009 bound_to 7997
  154.8751  140.0400  157.1737 H   0  0  0  0  0  0  0  0  0  0  0  0  # atno 8010 bound_to 7997
  140.2614  144.3368  150.6317 H   0  0  0  0  0  0  0  0  0  0  0  0  # atno 10167 bound_to 10162
  157.6546  131.0911  150.6437 H   0  0  0  0  0  0  0  0  0  0  0  0  # atno 10718 bound_to 10713
  154.8674  135.3658  154.5137 H   0  0  0  0  0  0  0  0  0  0  0  0  # atno 10763 bound_to 10752
  153.5771  135.7019  153.5484 H   0  0  0  0  0  0  0  0  0  0  0  0  # atno 10764 bound_to 10752
  153.3490  135.4077  155.1594 H   0  0  0  0  0  0  0  0  0  0  0  0  # atno 10765 bound_to 10752
  141.1625  133.7476  156.9218 H   0  0  0  0  0  0  0  0  0  0  0  0  # atno 11005 bound_to 11000
  144.6819  140.2619  143.7318 LP  0  0  0  0  0  0  0  0  0  0  0  0  # atno 17320 bound_to 7965
  145.8016  139.1966  143.2045 LP  0  0  0  0  0  0  0  0  0  0  0  0  # atno 17321 bound_to 7965
  140.5962  143.2167  151.7159 LP  0  0  0  0  0  0  0  0  0  0  0  0  # atno 17342 bound_to 10162
  139.5015  144.3863  152.0325 LP  0  0  0  0  0  0  0  0  0  0  0  0  # atno 17343 bound_to 10162
  156.6745  130.4549  149.5647 LP  0  0  0  0  0  0  0  0  0  0  0  0  # atno 17370 bound_to 10713
  156.1974  130.6598  151.1129 LP  0  0  0  0  0  0  0  0  0  0  0  0  # atno 17371 bound_to 10713
  140.1446  134.9271  157.2513 LP  0  0  0  0  0  0  0  0  0  0  0  0  # atno 17394 bound_to 11000
  140.2795  134.3366  155.7347 LP  0  0  0  0  0  0  0  0  0  0  0  0  # atno 17395 bound_to 11000

$$$$
