AV-unprocessed.smi:2124|AV-procd|sdf|8653|dock8
  -GOLD-   2272011403D 1   1.00000     0.00000
 Structure written by MMmdl.
 47 49  0  0  0  0  0  0  0  0  1 V2000
  143.1477  134.4776  162.8674 C   0  0  0  0  0  0  0  0  0  0  0  0
  144.5500  134.7554  162.3685 C   0  0  0  0  0  0  0  0  0  0  0  0
  145.5153  133.8971  162.4144 N   0  0  0  0  0  0  0  0  0  0  0  0
  146.7738  134.2719  161.9231 C   0  0  0  0  0  0  0  0  0  0  0  0
  147.8589  133.2131  162.0199 C   0  0  0  0  0  0  0  0  0  0  0  0
  146.9962  135.5117  161.3965 C   0  0  0  0  0  0  0  0  0  0  0  0
  148.3564  135.9532  160.8574 C   0  0  0  0  0  0  0  0  0  0  0  0
  148.3743  136.4912  159.4242 C   0  0  0  0  0  0  0  0  0  0  0  0
  147.9440  135.8087  158.4941 O   0  0  0  0  0  0  0  0  0  0  0  0
  148.8741  137.7292  159.2725 N   0  0  0  0  0  0  0  0  0  0  0  0
  148.9827  138.5019  158.0314 C   0  0  1  0  0  0  0  0  0  0  0  0
  147.6128  138.5972  157.3302 C   0  0  0  0  0  0  0  0  0  0  0  0
  149.6598  139.8821  158.2576 C   0  0  1  0  0  0  0  0  0  0  0  0
  151.0828  139.7932  158.8657 C   0  0  0  0  0  0  0  0  0  0  0  0
  151.9398  140.6148  157.8871 C   0  0  2  0  0  0  0  0  0  0  0  0
  151.5723  142.1050  158.0043 C   0  0  0  0  0  0  0  0  0  0  0  0
  150.1861  142.1639  157.3363 C   0  0  0  0  0  0  0  0  0  0  0  0
  149.9248  140.6917  156.9632 C   0  0  1  0  0  0  0  0  0  0  0  0
  151.3205  140.2361  156.5489 C   0  0  0  0  0  0  0  0  0  0  0  0
  145.8873  136.4838  161.3500 C   0  0  0  0  0  0  0  0  0  0  0  0
  145.9801  137.6269  160.9053 O   0  0  0  0  0  0  0  0  0  0  0  0
  144.7122  136.0382  161.8478 N   0  0  0  0  0  0  0  0  0  0  0  0
  143.9229  136.6675  161.8413 H   0  0  0  0  0  0  0  0  0  0  0  0
  143.1701  134.2209  163.9266 H   0  0  0  0  0  0  0  0  0  0  0  0
  142.7135  133.6404  162.3205 H   0  0  0  0  0  0  0  0  0  0  0  0
  142.4959  135.3432  162.7400 H   0  0  0  0  0  0  0  0  0  0  0  0
  148.1754  132.8990  161.0252 H   0  0  0  0  0  0  0  0  0  0  0  0
  147.5040  132.3301  162.5525 H   0  0  0  0  0  0  0  0  0  0  0  0
  148.7270  133.5972  162.5559 H   0  0  0  0  0  0  0  0  0  0  0  0
  148.7533  136.7298  161.5116 H   0  0  0  0  0  0  0  0  0  0  0  0
  149.0754  135.1363  160.9285 H   0  0  0  0  0  0  0  0  0  0  0  0
  149.2030  138.1927  160.1071 H   0  0  0  0  0  0  0  0  0  0  0  0
  149.6317  137.9084  157.3870 H   0  0  0  0  0  0  0  0  0  0  0  0
  147.7056  138.9879  156.3178 H   0  0  0  0  0  0  0  0  0  0  0  0
  146.9257  139.2488  157.8702 H   0  0  0  0  0  0  0  0  0  0  0  0
  147.1452  137.6154  157.2500 H   0  0  0  0  0  0  0  0  0  0  0  0
  149.0217  140.4714  158.9173 H   0  0  0  0  0  0  0  0  0  0  0  0
  151.1221  140.1843  159.8831 H   0  0  0  0  0  0  0  0  0  0  0  0
  151.4451  138.7648  158.8951 H   0  0  0  0  0  0  0  0  0  0  0  0
  153.0091  140.4187  157.9722 H   0  0  0  0  0  0  0  0  0  0  0  0
  151.5507  142.4440  159.0408 H   0  0  0  0  0  0  0  0  0  0  0  0
  152.2855  142.7270  157.4621 H   0  0  0  0  0  0  0  0  0  0  0  0
  149.4202  142.5724  157.9965 H   0  0  0  0  0  0  0  0  0  0  0  0
  150.2202  142.7875  156.4420 H   0  0  0  0  0  0  0  0  0  0  0  0
  149.1635  140.5831  156.1918 H   0  0  0  0  0  0  0  0  0  0  0  0
  151.7281  140.8007  155.7083 H   0  0  0  0  0  0  0  0  0  0  0  0
  151.3855  139.1701  156.3260 H   0  0  0  0  0  0  0  0  0  0  0  0
  1  2  1  0  0  0  0
  1 24  1  0  0  0  0
  1 25  1  0  0  0  0
  1 26  1  0  0  0  0
  2 22  1  0  0  0  0
  2  3  2  0  0  0  0
  3  4  1  0  0  0  0
  4  5  1  0  0  0  0
  4  6  2  0  0  0  0
  5 27  1  0  0  0  0
  5 28  1  0  0  0  0
  5 29  1  0  0  0  0
  6  7  1  0  0  0  0
  6 20  1  0  0  0  0
  7  8  1  0  0  0  0
  7 30  1  0  0  0  0
  7 31  1  0  0  0  0
  8  9  2  0  0  0  0
  8 10  1  0  0  0  0
 10 11  1  0  0  0  0
 10 32  1  0  0  0  0
 11 12  1  0  0  0  0
 11 13  1  0  0  0  0
 11 33  1  0  0  0  0
 12 34  1  0  0  0  0
 12 35  1  0  0  0  0
 12 36  1  0  0  0  0
 13 18  1  0  0  0  0
 13 14  1  0  0  0  0
 13 37  1  0  0  0  0
 14 15  1  0  0  0  0
 14 38  1  0  0  0  0
 14 39  1  0  0  0  0
 15 19  1  0  0  0  0
 15 16  1  0  0  0  0
 15 40  1  0  0  0  0
 16 17  1  0  0  0  0
 16 41  1  0  0  0  0
 16 42  1  0  0  0  0
 17 18  1  0  0  0  0
 17 43  1  0  0  0  0
 17 44  1  0  0  0  0
 18 19  1  0  0  0  0
 18 45  1  0  0  0  0
 19 46  1  0  0  0  0
 19 47  1  0  0  0  0
 20 21  2  0  0  0  0
 20 22  1  0  0  0  0
 22 23  1  0  0  0  0
M  END
> <s_m_source_file>
AV-unprocessed.smi

> <i_m_source_file_index>
2124

> <i_lp_mmshare_version>
43012

> <i_f3d_flags>
0

> <s_epik_input>
W0NIM11jMW5jKFtDSDNdKWMoYyg9TylbbkhdMSlbQ0gyXUMoPU8pW05IXVtDQEhdKFtDSDNdKVtDQEhdKFtDSDJdW0NASF0yMylbQ0BIXShbQ0gyXTMpW0NIMl1bQ0gyXTI=

> <s_epik_cmdline>
J2VwaWtfcHl0aG9uJywgJy1waCcsICc3LjAnLCAnLXRuJywgJzgnLCAnLW1hJywgJzIwMCcsICctbWV0YWxfYmluZGluZycsICctaW1hZScsICc8aW5maWxlLm1hZT4nLCAnLW9tYWUnLCAnPG91dGZpbGUubWFlPic=

> <r_lp_tautomer_probability>
0.839158

> <r_epik_Ionization_Penalty>
0.000383628

> <r_epik_Ionization_Penalty_Charging>
0.00035045

> <r_epik_Ionization_Penalty_Neutral>
3.31781e-05

> <r_epik_State_Penalty>
0.09125

> <r_epik_Charging_Adjusted_Penalty>
0.0916005

> <i_epik_Tot_Q>
0

> <i_epik_Tot_abs_Q>
0

> <r_epik_Metal_State_Penalty>
0.255229

> <b_epik_Metal_Only>
0

> <s_lp_Force_Field>
OPLS_2005

> <r_lp_Energy>
52.6925

> <b_lp_Chiralities_Consistent>
1

> <s_lp_Variant>
AV-unprocessed.smi:2124-4

> <Gold.Version>
5.8.1

> <Gold.Id.Protein>
6NUR|6NUR_protein|mol2

> <Gold.PLP.Fitness>
35.4809

> <Gold.PLP.PLP>
-32.5722

> <Gold.PLP.part.hbond>
-0.9360

> <Gold.PLP.part.metal>
0.0000

> <Gold.PLP.part.buried>
-6.7135

> <Gold.PLP.part.nonpolar>
-25.6035

> <Gold.PLP.part.repulsive>
0.3430

> <Gold.PLP.ligand.clash>
0.0000

> <Gold.PLP.ligand.torsion>
0.0789

> <Gold.PLP.Chemscore.Hbond>
1.0000

> <Gold.PLP.Chemscore.CHOScore>
0.0000

> <Gold.PLP.Chemscore.Metal>
0.0000

> <Gold.Chemscore.Hbonds>
donor molecule, donor type, donor heavy atom, donor atom, acceptor molecule, acceptor atom, score
      P1  H  6934  6947       L1    21  1.00

> <Gold.PLP.Chemscore.Internal.Correction>
0.0665

> <Gold.Rescore>
     Score         DG    S(hbond)    S(metal)    S(lipo)     H(rot)  DE(clash)    DE(int)     intcor
     13.44     -13.51       0.99        0.00      76.71       1.65       0.03       0.04       ----

> <Gold.Chemscore.Fitness>
13.4417

> <Gold.Chemscore.DG>
-13.5127

> <Gold.Chemscore.ZeroCoef>
-5.4800

> <Gold.Chemscore.Hbond>
0.9850

> <Gold.Chemscore.Metal>
0.0000

> <Gold.Chemscore.Lipo>
76.7116

> <Gold.Chemscore.Internal_Hbond>
0.0000

> <Gold.Chemscore.DEClash>
0.0276

> <Gold.Chemscore.DEInternal>
0.0435

> <Gold.Chemscore.Rot>
1.6534

> <Gold.Chemscore.Internal.Correction>
   9.000000E+99

> <Gold.Chemscore.Hbonds>
donor molecule, donor type, donor heavy atom, donor atom, acceptor molecule, acceptor atom, score
      P1  H  6934  6947       L1    21  0.99

> <Gold.Chemscore.Hbond.Weighted>
-3.2901

> <Gold.Chemscore.Metal.Weighted>
-0.0000

> <Gold.Chemscore.Lipo.Weighted>
-8.9753

> <Gold.Chemscore.Internal_Hbond.Weighted>
0.0000

> <Gold.Chemscore.DEClash.Weighted>
0.0276

> <Gold.Chemscore.DEInternal.Weighted>
0.0435

> <Gold.Chemscore.Rot.Weighted>
4.2326

> <Gold.Chemscore.Internal.Correction.Weighted>
   9.000000E+99

> <Gold.Protein.RotatedTorsions>
[ 6907 6896 6895 6894 ] final   18.39 input  -60.11 | X-H torsion
[ 7974 7965 7964 7962 ] final   10.67 input  175.53 | X-H torsion
[ 8008 7997 7996 7995 ] final  -14.84 input   59.86 | X-H torsion
[ 10167 10162 10161 10158 ] final  -35.72 input  -65.29 | X-H torsion
[ 10718 10713 10712 10709 ] final -148.16 input   66.30 | X-H torsion
[ 10763 10752 10751 10750 ] final   20.78 input  -60.55 | X-H torsion
[ 11005 11000 10999 10996 ] final  -99.22 input  -57.11 | X-H torsion

> <Gold.Protein.ActiveResidues>
 VAL166  LYS551  ARG553  GLY616  TRP617  ASP618  TYR619  PRO620  LYS621  CYS622 
 ASP623  PHE694  ASN695  SER759  ASP760  ASP761  ALA762  ILE779  LEU786  VAL792 
 PHE793  MET794  SER795  GLU796  ALA797  LYS798  CYS799  TRP800  GLU811  SER814 

> <Gold.Protein.RotatedAtoms>
  151.8646  135.0512  160.0472 H   0  0  0  0  0  0  0  0  0  0  0  0  # atno 6907 bound_to 6896
  152.2636  133.5315  159.5405 H   0  0  0  0  0  0  0  0  0  0  0  0  # atno 6908 bound_to 6896
  150.7125  134.0711  159.3907 H   0  0  0  0  0  0  0  0  0  0  0  0  # atno 6909 bound_to 6896
  146.2384  139.9599  142.8460 H   0  0  0  0  0  0  0  0  0  0  0  0  # atno 7974 bound_to 7965
  154.5177  140.2212  155.9034 H   0  0  0  0  0  0  0  0  0  0  0  0  # atno 8008 bound_to 7997
  156.1627  140.3139  155.8800 H   0  0  0  0  0  0  0  0  0  0  0  0  # atno 8009 bound_to 7997
  155.3719  140.0467  157.3036 H   0  0  0  0  0  0  0  0  0  0  0  0  # atno 8010 bound_to 7997
  140.7159  143.3458  151.2260 H   0  0  0  0  0  0  0  0  0  0  0  0  # atno 10167 bound_to 10162
  156.4167  130.8008  151.2229 H   0  0  0  0  0  0  0  0  0  0  0  0  # atno 10718 bound_to 10713
  153.1049  135.6682  153.9604 H   0  0  0  0  0  0  0  0  0  0  0  0  # atno 10763 bound_to 10752
  153.9164  135.3019  155.3449 H   0  0  0  0  0  0  0  0  0  0  0  0  # atno 10764 bound_to 10752
  154.7470  135.5052  153.9298 H   0  0  0  0  0  0  0  0  0  0  0  0  # atno 10765 bound_to 10752
  141.1316  133.8305  157.0943 H   0  0  0  0  0  0  0  0  0  0  0  0  # atno 11005 bound_to 11000
  145.1780  140.9753  143.4282 LP  0  0  0  0  0  0  0  0  0  0  0  0  # atno 17320 bound_to 7965
  144.9968  139.3637  143.6187 LP  0  0  0  0  0  0  0  0  0  0  0  0  # atno 17321 bound_to 7965
  139.6977  143.9586  152.2890 LP  0  0  0  0  0  0  0  0  0  0  0  0  # atno 17342 bound_to 10162
  139.9268  144.6766  150.8404 LP  0  0  0  0  0  0  0  0  0  0  0  0  # atno 17343 bound_to 10162
  157.7508  131.0241  150.3861 LP  0  0  0  0  0  0  0  0  0  0  0  0  # atno 17370 bound_to 10713
  156.4170  130.3945  149.6851 LP  0  0  0  0  0  0  0  0  0  0  0  0  # atno 17371 bound_to 10713
  140.0373  134.9872  157.0894 LP  0  0  0  0  0  0  0  0  0  0  0  0  # atno 17394 bound_to 11000
  140.4191  134.1900  155.7164 LP  0  0  0  0  0  0  0  0  0  0  0  0  # atno 17395 bound_to 11000

$$$$
