#       Name:                AV-unprocessed.smi:1047
#       Creating user name   scv26
#       Creation time:       Fri Mar 27 03:09:43 2020


#       File generated by GOLD software.
#

@<TRIPOS>MOLECULE
AV-unprocessed.smi:1047
    62    64     1
SMALL
NO_CHARGES


@<TRIPOS>ATOM
      1 ****        -6.9263   5.0930  -0.3269 C.3            1 S1                 0.0000
      2 ****        -6.4732   3.6486  -0.5825 C.3            1 S1                 0.0000
      3 ****        -5.0031   3.5319  -0.7516 N.4            1 S1                 1.0000
      4 ****        -4.5082   4.0815  -2.0382 C.3            1 S1                 0.0000
      5 ****        -2.9800   3.9416  -2.1297 C.3            1 S1                 0.0000
      6 ****        -2.6183   2.5764  -1.9678 O.3            1 S1                 0.0000
      7 ****        -2.9903   2.0672  -0.6910 C.3            1 S1                 0.0000
      8 ****        -2.4831   0.6212  -0.5919 C.3            1 S1                 0.0000
      9 ****        -1.0304   0.5808  -0.4605 N.3            1 S1                 0.0000
     10 ****        -0.4904  -0.7744  -0.4046 C.3            1 S1                 0.0000
     11 ****         1.0475  -0.7654  -0.3646 C.3            1 S1                 0.0000
     12 ****         1.4627  -0.5007   0.9609 O.3            1 S1                 0.0000
     13 ****         1.6368  -2.1145  -0.8216 C.3            1 S1                 0.0000
     14 ****         3.1068  -2.1131  -0.8492 N.pl3          1 S1                 0.0000
     15 ****         3.9527  -1.6561  -1.8120 C.2            1 S1                 0.0000
     16 ****         5.2250  -1.8741  -1.3795 N.pl3          1 S1                 1.0000
     17 ****         5.1921  -2.4800  -0.1220 C.ar           1 S1                 0.0000
     18 ****         6.2221  -2.8914   0.7155 C.ar           1 S1                 0.0000
     19 ****         5.8560  -3.4792   1.9471 C.ar           1 S1                 0.0000
     20 ****         6.9575  -3.9385   2.8873 C.3            1 S1                 0.0000
     21 ****         4.4917  -3.6380   2.3028 C.ar           1 S1                 0.0000
     22 ****         4.1099  -4.2710   3.6300 C.3            1 S1                 0.0000
     23 ****         3.4586  -3.2127   1.4369 C.ar           1 S1                 0.0000
     24 ****         3.8359  -2.6362   0.2260 C.ar           1 S1                 0.0000
     25 ****        -4.5251   2.1405  -0.5668 C.3            1 S1                 0.0000
     26 ****        -7.9962   5.1268  -0.1201 H              1 S1                 0.0000
     27 ****        -6.7454   5.7371  -1.1870 H              1 S1                 0.0000
     28 ****        -6.4105   5.5222   0.5325 H              1 S1                 0.0000
     29 ****        -6.7809   3.0468   0.2739 H              1 S1                 0.0000
     30 ****        -6.9845   3.2335  -1.4523 H              1 S1                 0.0000
     31 ****        -4.9793   3.5529  -2.8684 H              1 S1                 0.0000
     32 ****        -4.7766   5.1330  -2.1346 H              1 S1                 0.0000
     33 ****        -2.6287   4.2865  -3.1023 H              1 S1                 0.0000
     34 ****        -2.4841   4.5557  -1.3762 H              1 S1                 0.0000
     35 ****        -2.5329   2.6678   0.0982 H              1 S1                 0.0000
     36 ****        -2.9360   0.1353   0.2732 H              1 S1                 0.0000
     37 ****        -2.8035   0.0582  -1.4695 H              1 S1                 0.0000
     38 ****        -0.6033   1.0874  -1.2296 H              1 S1                 0.0000
     39 ****        -0.8960  -1.3211   0.4480 H              1 S1                 0.0000
     40 ****        -0.8133  -1.3141  -1.2959 H              1 S1                 0.0000
     41 ****         1.4331   0.0215  -1.0151 H              1 S1                 0.0000
     42 ****         1.0775  -1.1474   1.5319 H              1 S1                 0.0000
     43 ****         1.2832  -2.9365  -0.1990 H              1 S1                 0.0000
     44 ****         1.3039  -2.3376  -1.8362 H              1 S1                 0.0000
     45 ****         3.6668  -1.2017  -2.7498 H              1 S1                 0.0000
     46 ****         7.2586  -2.7660   0.4382 H              1 S1                 0.0000
     47 ****         6.8898  -5.0128   3.0605 H              1 S1                 0.0000
     48 ****         6.8800  -3.4262   3.8466 H              1 S1                 0.0000
     49 ****         7.9457  -3.7285   2.4771 H              1 S1                 0.0000
     50 ****         3.0275  -4.3335   3.7464 H              1 S1                 0.0000
     51 ****         4.5013  -3.6829   4.4604 H              1 S1                 0.0000
     52 ****         4.5108  -5.2824   3.7014 H              1 S1                 0.0000
     53 ****         2.4215  -3.3301   1.7128 H              1 S1                 0.0000
     54 ****        -4.8304   1.7763   0.4152 H              1 S1                 0.0000
     55 ****        -4.9955   1.4929  -1.3091 H              1 S1                 0.0000
     56 ****        -4.5810   4.0771  -0.0134 H              1 S1                 0.0000
     57 ****         6.0530  -1.6254  -1.9054 H              1 S1                 0.0000
     58 ****        -1.6274   2.4916  -2.0717 LP             1 S1                 0.0000
     59 ****        -3.0750   2.0365  -2.6749 LP             1 S1                 0.0000
     60 ****        -0.8092   1.0142   0.4131 LP             1 S1                 0.0000
     61 ****         1.1594   0.4125   1.2330 LP             1 S1                 0.0000
     62 ****         2.4597  -0.5517   1.0183 LP             1 S1                 0.0000
@<TRIPOS>BOND
    1    1    2 1     
    2    1   26 1     
    3    1   27 1     
    4    1   28 1     
    5    2    3 1     
    6    2   29 1     
    7    2   30 1     
    8    3   25 1     
    9    3    4 1     
   10    3   56 1     
   11    4    5 1     
   12    4   31 1     
   13    4   32 1     
   14    5    6 1     
   15    5   33 1     
   16    5   34 1     
   17    6    7 1     
   18    7    8 1     
   19    7   25 1     
   20    7   35 1     
   21    8    9 1     
   22    8   36 1     
   23    8   37 1     
   24    9   10 1     
   25    9   38 1     
   26   10   11 1     
   27   10   39 1     
   28   10   40 1     
   29   11   12 1     
   30   11   13 1     
   31   11   41 1     
   32   12   42 1     
   33   13   14 1     
   34   13   43 1     
   35   13   44 1     
   36   14   24 1     
   37   14   15 1     
   38   15   16 2     
   39   15   45 1     
   40   16   17 1     
   41   16   57 1     
   42   17   24 ar    
   43   17   18 ar    
   44   18   19 ar    
   45   18   46 1     
   46   19   20 1     
   47   19   21 ar    
   48   20   47 1     
   49   20   48 1     
   50   20   49 1     
   51   21   22 1     
   52   21   23 ar    
   53   22   50 1     
   54   22   51 1     
   55   22   52 1     
   56   23   24 ar    
   57   23   53 1     
   58   25   54 1     
   59   25   55 1     
   60    6   58 1     
   61    6   59 1     
   62    9   60 1     
   63   12   61 1     
   64   12   62 1     
@<TRIPOS>SUBSTRUCTURE
      1 S1             1
@<TRIPOS>SET
LONE_PAIRS      STATIC     ATOMS    <user>   **** ""
5 58 59 60 61 62
DONOR_HYDROGENS      STATIC     ATOMS    <user>   **** ""
4 56 38 42 57
ATOM$BLUE        STATIC     ATOMS    COLORGROUP SYSTEM
5 58 59 60 61 62
ATOM$RED        STATIC     ATOMS    COLORGROUP SYSTEM
4 56 38 42 57
