#       Name:                AV-unprocessed.smi:49
#       Creating user name   scv26
#       Creation time:       Thu Mar 26 16:33:31 2020


#       File generated by GOLD software.
#

@<TRIPOS>MOLECULE
AV-unprocessed.smi:49
    32    33     1
SMALL
NO_CHARGES


@<TRIPOS>ATOM
      1 ****        -4.1180   1.4728   0.4948 C.3            1 S1                 0.0000
      2 ****        -3.8028  -0.0214   0.3664 C.3            1 S1                 0.0000
      3 ****        -2.3377  -0.3046   0.4245 C.2            1 S1                 0.0000
      4 ****        -1.4938  -0.1804  -0.5945 N.2            1 S1                 0.0000
      5 ****        -0.3236  -0.5425   0.0116 C.2            1 S1                 0.0000
      6 ****         0.9863  -0.5241  -0.7122 C.3            1 S1                 0.0000
      7 ****         1.7276   0.8102  -0.5952 C.3            1 S1                 0.0000
      8 ****         3.1740   0.4062  -0.8617 C.3            1 S1                 0.0000
      9 ****         4.0934   1.3377  -0.3323 O.3            1 S1                 0.0000
     10 ****         3.2845  -0.9648  -0.1866 C.3            1 S1                 0.0000
     11 ****         1.9295  -1.5510  -0.2217 N.4            1 S1                 1.0000
     12 ****        -0.4085  -0.8462   1.3075 N.2            1 S1                 0.0000
     13 ****        -1.7280  -0.6903   1.5472 N.pl3          1 S1                 0.0000
     14 ****         0.8096  -0.7350  -1.7682 H              1 S1                 0.0000
     15 ****         3.3350   0.3042  -1.9360 H              1 S1                 0.0000
     16 ****        -2.1477  -0.8423   2.4537 H              1 S1                 0.0000
     17 ****        -5.1924   1.6490   0.4413 H              1 S1                 0.0000
     18 ****        -3.6467   2.0444  -0.3054 H              1 S1                 0.0000
     19 ****        -3.7613   1.8699   1.4454 H              1 S1                 0.0000
     20 ****        -4.3061  -0.5769   1.1586 H              1 S1                 0.0000
     21 ****        -4.1947  -0.4024  -0.5773 H              1 S1                 0.0000
     22 ****         1.3522   1.5707  -1.2806 H              1 S1                 0.0000
     23 ****         1.6368   1.1989   0.4210 H              1 S1                 0.0000
     24 ****         3.9769   2.1650  -0.7748 H              1 S1                 0.0000
     25 ****         4.0157  -1.6103  -0.6739 H              1 S1                 0.0000
     26 ****         3.5732  -0.8592   0.8602 H              1 S1                 0.0000
     27 ****         1.6665  -1.8193   0.7163 H              1 S1                 0.0000
     28 ****         1.9014  -2.3585  -0.8273 H              1 S1                 0.0000
     29 ****        -1.6665   0.0993  -1.5390 LP             1 S1                 0.0000
     30 ****         5.0265   1.0080  -0.4760 LP             1 S1                 0.0000
     31 ****         3.9280   1.4540   0.6470 LP             1 S1                 0.0000
     32 ****         0.3176  -1.1189   1.9386 LP             1 S1                 0.0000
@<TRIPOS>BOND
    1    1    2 1     
    2    1   17 1     
    3    1   18 1     
    4    1   19 1     
    5    2    3 1     
    6    2   20 1     
    7    2   21 1     
    8    3   13 1     
    9    3    4 2     
   10    4    5 1     
   11    5    6 1     
   12    5   12 2     
   13    6   14 1     
   14    6   11 1     
   15    6    7 1     
   16    7    8 1     
   17    7   22 1     
   18    7   23 1     
   19    8   15 1     
   20    8    9 1     
   21    8   10 1     
   22    9   24 1     
   23   10   11 1     
   24   10   25 1     
   25   10   26 1     
   26   11   27 1     
   27   11   28 1     
   28   12   13 1     
   29   13   16 1     
   30    4   29 1     
   31    9   30 1     
   32    9   31 1     
   33   12   32 1     
@<TRIPOS>SUBSTRUCTURE
      1 S1             1
@<TRIPOS>SET
LONE_PAIRS      STATIC     ATOMS    <user>   **** ""
4 29 30 31 32
DONOR_HYDROGENS      STATIC     ATOMS    <user>   **** ""
4 24 27 28 16
ATOM$BLUE        STATIC     ATOMS    COLORGROUP SYSTEM
4 29 30 31 32
ATOM$RED        STATIC     ATOMS    COLORGROUP SYSTEM
4 24 27 28 16
