AV-unprocessed.smi:3045|AV-procd|sdf|11612|dock4
  -GOLD-   2272016593D 1   1.00000     0.00000
 Structure written by MMmdl.
 36 37  0  0  0  0  0  0  0  0  2 V2000
  151.7972  144.9702  160.6368 C   0  0  0  0  0  0  0  0  0  0  0  0
  152.5044  143.7351  160.3268 N   0  0  0  0  0  0  0  0  0  0  0  0
  153.0289  143.4822  158.9954 C   0  0  0  0  0  0  0  0  0  0  0  0
  153.5178  142.0168  159.0175 C   0  0  2  0  0  0  0  0  0  0  0  0
  152.6160  141.0767  158.2031 C   0  0  0  0  0  0  0  0  0  0  0  0
  153.0206  139.9606  157.8746 O   0  0  0  0  0  0  0  0  0  0  0  0
  151.4070  141.5514  157.8629 N   0  0  0  0  0  0  0  0  0  0  0  0
  150.4219  140.8532  157.0397 C   0  0  0  0  0  0  0  0  0  0  0  0
  150.9034  140.6514  155.5883 C   0  0  0  0  0  0  0  0  0  0  0  0
  149.8098  140.1921  154.6383 C   0  0  0  0  0  0  0  0  0  0  0  0
  148.7298  141.0436  154.3137 C   0  0  0  0  0  0  0  0  0  0  0  0
  147.7509  140.6014  153.3997 C   0  0  0  0  0  0  0  0  0  0  0  0
  147.8726  139.3170  152.8313 C   0  0  0  0  0  0  0  0  0  0  0  0
  148.9160  138.5284  153.1698 N   0  3  0  0  0  0  0  0  0  0  0  0
  149.8726  138.9136  154.0425 C   0  0  0  0  0  0  0  0  0  0  0  0
  153.5222  141.6199  160.5076 C   0  0  0  0  0  0  0  0  0  0  0  0
  152.7783  142.7545  161.1915 C   0  0  0  0  0  0  0  0  0  0  0  0
  152.4744  142.7304  162.3830 O   0  0  0  0  0  0  0  0  0  0  0  0
  152.3733  145.5725  161.3400 H   0  0  0  0  0  0  0  0  0  0  0  0
  150.8253  144.7552  161.0829 H   0  0  0  0  0  0  0  0  0  0  0  0
  151.6313  145.5648  159.7379 H   0  0  0  0  0  0  0  0  0  0  0  0
  152.2658  143.6689  158.2377 H   0  0  0  0  0  0  0  0  0  0  0  0
  153.8583  144.1634  158.8007 H   0  0  0  0  0  0  0  0  0  0  0  0
  154.5323  141.9686  158.6177 H   0  0  0  0  0  0  0  0  0  0  0  0
  151.1569  142.4761  158.1826 H   0  0  0  0  0  0  0  0  0  0  0  0
  150.1607  139.8932  157.4882 H   0  0  0  0  0  0  0  0  0  0  0  0
  149.5054  141.4435  157.0382 H   0  0  0  0  0  0  0  0  0  0  0  0
  151.3205  141.5853  155.2100 H   0  0  0  0  0  0  0  0  0  0  0  0
  151.7198  139.9282  155.5713 H   0  0  0  0  0  0  0  0  0  0  0  0
  148.6568  142.0299  154.7482 H   0  0  0  0  0  0  0  0  0  0  0  0
  146.9218  141.2410  153.1343 H   0  0  0  0  0  0  0  0  0  0  0  0
  147.1735  138.9008  152.1206 H   0  0  0  0  0  0  0  0  0  0  0  0
  150.6630  138.1993  154.2227 H   0  0  0  0  0  0  0  0  0  0  0  0
  153.0325  140.6663  160.7109 H   0  0  0  0  0  0  0  0  0  0  0  0
  154.5392  141.5663  160.8971 H   0  0  0  0  0  0  0  0  0  0  0  0
  148.9871  137.6035  152.7448 H   0  0  0  0  0  0  0  0  0  0  0  0
  1  2  1  0  0  0  0
  1 19  1  0  0  0  0
  1 20  1  0  0  0  0
  1 21  1  0  0  0  0
  2 17  1  0  0  0  0
  2  3  1  0  0  0  0
  3  4  1  0  0  0  0
  3 22  1  0  0  0  0
  3 23  1  0  0  0  0
  4  5  1  0  0  0  0
  4 16  1  0  0  0  0
  4 24  1  0  0  0  0
  5  6  2  0  0  0  0
  5  7  1  0  0  0  0
  7  8  1  0  0  0  0
  7 25  1  0  0  0  0
  8  9  1  0  0  0  0
  8 26  1  0  0  0  0
  8 27  1  0  0  0  0
  9 10  1  0  0  0  0
  9 28  1  0  0  0  0
  9 29  1  0  0  0  0
 10 15  1  0  0  0  0
 10 11  2  0  0  0  0
 11 12  1  0  0  0  0
 11 30  1  0  0  0  0
 12 13  2  0  0  0  0
 12 31  1  0  0  0  0
 13 14  1  0  0  0  0
 13 32  1  0  0  0  0
 14 15  2  0  0  0  0
 14 36  1  0  0  0  0
 15 33  1  0  0  0  0
 16 17  1  0  0  0  0
 16 34  1  0  0  0  0
 16 35  1  0  0  0  0
 17 18  2  0  0  0  0
M  CHG  1  14   1
M  END
> <s_m_source_file>
AV-unprocessed.smi

> <i_m_source_file_index>
3045

> <i_lp_mmshare_version>
43012

> <i_f3d_flags>
0

> <s_epik_input>
W0NIM11OMVtDSDJdW0NASF0oW0NIMl1DMT1PKUMoPU8pW05IXVtDSDJdW0NIMl1jMltjSF1bY0hdW2NIXW5bY0hdMg==

> <s_epik_cmdline>
J2VwaWtfcHl0aG9uJywgJy1waCcsICc3LjAnLCAnLXRuJywgJzgnLCAnLW1hJywgJzIwMCcsICctbWV0YWxfYmluZGluZycsICctaW1hZScsICc8aW5maWxlLm1hZT4nLCAnLW9tYWUnLCAnPG91dGZpbGUubWFlPic=

> <r_epik_Ionization_Penalty>
2.26523

> <r_epik_Ionization_Penalty_Charging>
2.26523

> <r_epik_Ionization_Penalty_Neutral>
2.92809e-08

> <r_epik_State_Penalty>
2.41338

> <r_epik_Charging_Adjusted_Penalty>
4.67861

> <i_epik_Tot_Q>
1

> <i_epik_Tot_abs_Q>
1

> <r_epik_Metal_State_Penalty>
2.42626

> <b_epik_Metal_Only>
0

> <s_lp_Force_Field>
OPLS_2005

> <r_lp_Energy>
17.4324

> <b_lp_Chiralities_Consistent>
1

> <s_lp_Variant>
AV-unprocessed.smi:3045-4

> <Gold.Version>
5.8.1

> <Gold.Id.Protein>
6NUR|6NUR_protein|mol2

> <Gold.PLP.Fitness>
50.1161

> <Gold.PLP.PLP>
-42.1660

> <Gold.PLP.part.hbond>
-3.0000

> <Gold.PLP.part.metal>
0.0000

> <Gold.PLP.part.buried>
-2.7700

> <Gold.PLP.part.nonpolar>
-35.0202

> <Gold.PLP.part.repulsive>
0.2531

> <Gold.PLP.ligand.clash>
0.0000

> <Gold.PLP.ligand.torsion>
0.5373

> <Gold.PLP.Chemscore.Hbond>
3.0000

> <Gold.PLP.Chemscore.CHOScore>
0.0000

> <Gold.PLP.Chemscore.Metal>
0.0000

> <Gold.Chemscore.Hbonds>
donor molecule, donor type, donor heavy atom, donor atom, acceptor molecule, acceptor atom, score
      L1  H    14    36       P1  7948  2.00
      P1  H  7997  8009       L1     6  1.00

> <Gold.PLP.Chemscore.Internal.Correction>
0.0247

> <Gold.Rescore>
     Score         DG    S(hbond)    S(metal)    S(lipo)     H(rot)  DE(clash)    DE(int)     intcor
     16.40     -18.44       1.82        0.00      96.39       1.71       1.73       0.32       ----

> <Gold.Chemscore.Fitness>
16.3985

> <Gold.Chemscore.DG>
-18.4448

> <Gold.Chemscore.ZeroCoef>
-5.4800

> <Gold.Chemscore.Hbond>
1.8162

> <Gold.Chemscore.Metal>
0.0000

> <Gold.Chemscore.Lipo>
96.3902

> <Gold.Chemscore.Internal_Hbond>
0.0000

> <Gold.Chemscore.DEClash>
1.7252

> <Gold.Chemscore.DEInternal>
0.3211

> <Gold.Chemscore.Rot>
1.7105

> <Gold.Chemscore.Internal.Correction>
   9.000000E+99

> <Gold.Chemscore.Hbonds>
donor molecule, donor type, donor heavy atom, donor atom, acceptor molecule, acceptor atom, score
      L1  H    14    36       P1  7948  0.99
      P1  H  7997  8009       L1     6  0.81

> <Gold.Chemscore.Hbond.Weighted>
-6.0660

> <Gold.Chemscore.Metal.Weighted>
-0.0000

> <Gold.Chemscore.Lipo.Weighted>
-11.2777

> <Gold.Chemscore.Internal_Hbond.Weighted>
0.0000

> <Gold.Chemscore.DEClash.Weighted>
1.7252

> <Gold.Chemscore.DEInternal.Weighted>
0.3211

> <Gold.Chemscore.Rot.Weighted>
4.3789

> <Gold.Chemscore.Internal.Correction.Weighted>
   9.000000E+99

> <Gold.Protein.RotatedTorsions>
[ 6907 6896 6895 6894 ] final -123.20 input  -60.11 | X-H torsion
[ 7974 7965 7964 7962 ] final  123.12 input  175.53 | X-H torsion
[ 8008 7997 7996 7995 ] final  156.92 input   59.86 | X-H torsion
[ 10167 10162 10161 10158 ] final -148.39 input  -65.29 | X-H torsion
[ 10718 10713 10712 10709 ] final  -41.08 input   66.30 | X-H torsion
[ 10763 10752 10751 10750 ] final -179.85 input  -60.55 | X-H torsion
[ 11005 11000 10999 10996 ] final -171.75 input  -57.11 | X-H torsion

> <Gold.Protein.ActiveResidues>
 VAL166  LYS551  ARG553  GLY616  TRP617  ASP618  TYR619  PRO620  LYS621  CYS622 
 ASP623  PHE694  ASN695  SER759  ASP760  ASP761  ALA762  ILE779  LEU786  VAL792 
 PHE793  MET794  SER795  GLU796  ALA797  LYS798  CYS799  TRP800  GLU811  SER814 

> <Gold.Protein.RotatedAtoms>
  150.8649  133.7590  159.2980 H   0  0  0  0  0  0  0  0  0  0  0  0  # atno 6907 bound_to 6896
  151.5220  135.1066  159.9890 H   0  0  0  0  0  0  0  0  0  0  0  0  # atno 6908 bound_to 6896
  152.4653  133.7865  159.6935 H   0  0  0  0  0  0  0  0  0  0  0  0  # atno 6909 bound_to 6896
  145.0996  139.3528  143.4819 H   0  0  0  0  0  0  0  0  0  0  0  0  # atno 7974 bound_to 7965
  156.2394  140.1899  156.7029 H   0  0  0  0  0  0  0  0  0  0  0  0  # atno 8008 bound_to 7997
  154.6169  140.0614  156.9592 H   0  0  0  0  0  0  0  0  0  0  0  0  # atno 8009 bound_to 7997
  155.1925  140.3285  155.4359 H   0  0  0  0  0  0  0  0  0  0  0  0  # atno 8010 bound_to 7997
  139.7536  143.8482  152.2592 H   0  0  0  0  0  0  0  0  0  0  0  0  # atno 10167 bound_to 10162
  156.2743  130.4210  149.8404 H   0  0  0  0  0  0  0  0  0  0  0  0  # atno 10718 bound_to 10713
  154.5298  135.2799  155.1190 H   0  0  0  0  0  0  0  0  0  0  0  0  # atno 10763 bound_to 10752
  154.2714  135.6303  153.5315 H   0  0  0  0  0  0  0  0  0  0  0  0  # atno 10764 bound_to 10752
  152.9954  135.5629  154.5809 H   0  0  0  0  0  0  0  0  0  0  0  0  # atno 10765 bound_to 10752
  140.5047  134.5860  157.4999 H   0  0  0  0  0  0  0  0  0  0  0  0  # atno 11005 bound_to 11000
  146.3530  140.0867  142.8615 LP  0  0  0  0  0  0  0  0  0  0  0  0  # atno 17320 bound_to 7965
  145.0971  140.9322  143.4734 LP  0  0  0  0  0  0  0  0  0  0  0  0  # atno 17321 bound_to 7965
  139.8467  144.7184  150.9264 LP  0  0  0  0  0  0  0  0  0  0  0  0  # atno 17342 bound_to 10162
  140.7800  143.3935  151.1269 LP  0  0  0  0  0  0  0  0  0  0  0  0  # atno 17343 bound_to 10162
  156.5874  130.8492  151.3399 LP  0  0  0  0  0  0  0  0  0  0  0  0  # atno 17370 bound_to 10713
  157.7294  130.9671  150.1786 LP  0  0  0  0  0  0  0  0  0  0  0  0  # atno 17371 bound_to 10713
  139.9693  134.7319  156.0074 LP  0  0  0  0  0  0  0  0  0  0  0  0  # atno 17394 bound_to 11000
  141.1417  133.6563  156.3749 LP  0  0  0  0  0  0  0  0  0  0  0  0  # atno 17395 bound_to 11000

$$$$
