AV-unprocessed.smi:839|AV-procd|sdf|3910|dock1
  -GOLD-   22720 1373D 1   1.00000     0.00000
 Structure written by MMmdl.
 47 49  0  0  0  0  0  0  0  0  1 V2000
  146.9314  136.6524  155.7302 O   0  0  0  0  0  0  0  0  0  0  0  0
  147.5494  136.6039  154.6669 C   0  0  0  0  0  0  0  0  0  0  0  0
  147.2081  135.7971  153.6514 N   0  0  0  0  0  0  0  0  0  0  0  0
  146.0571  134.8956  153.6413 C   0  0  0  0  0  0  0  0  0  0  0  0
  146.3405  133.5458  152.9558 C   0  0  0  0  0  0  0  0  0  0  0  0
  147.1924  132.7852  153.4194 O   0  0  0  0  0  0  0  0  0  0  0  0
  145.6254  133.2312  151.8557 N   0  0  0  0  0  0  0  0  0  0  0  0
  144.5928  134.0651  151.2410 C   0  0  0  0  0  0  0  0  0  0  0  0
  144.2247  133.3711  149.9290 C   0  0  0  0  0  0  0  0  0  0  0  0
  144.5932  131.9121  150.1590 C   0  0  0  0  0  0  0  0  0  0  0  0
  145.7746  131.9729  151.1272 C   0  0  0  0  0  0  0  0  0  0  0  0
  148.6454  137.3224  154.3684 N   0  0  0  0  0  0  0  0  0  0  0  0
  149.3122  138.2974  155.1593 C   0  0  0  0  0  0  0  0  0  0  0  0
  149.3404  138.2990  156.5732 C   0  0  0  0  0  0  0  0  0  0  0  0
  150.0218  139.3348  157.2407 C   0  0  0  0  0  0  0  0  0  0  0  0
  150.6513  140.3515  156.4846 C   0  0  0  0  0  0  0  0  0  0  0  0
  151.3368  141.4007  157.1356 N   0  0  0  0  0  0  0  0  0  0  0  0
  150.8648  142.7673  156.9187 C   0  0  0  0  0  0  0  0  0  0  0  0
  151.8876  143.7810  157.4594 C   0  0  0  0  0  0  0  0  0  0  0  0
  152.1578  143.5044  158.8293 O   0  0  0  0  0  0  0  0  0  0  0  0
  152.7224  142.2094  159.0053 C   0  0  0  0  0  0  0  0  0  0  0  0
  151.7325  141.1376  158.5171 C   0  0  0  0  0  0  0  0  0  0  0  0
  150.6173  140.3488  155.1295 N   0  0  0  0  0  0  0  0  0  0  0  0
  149.9625  139.3550  154.4936 C   0  0  0  0  0  0  0  0  0  0  0  0
  147.7722  135.8204  152.8146 H   0  0  0  0  0  0  0  0  0  0  0  0
  145.7688  134.7119  154.6766 H   0  0  0  0  0  0  0  0  0  0  0  0
  145.2099  135.3857  153.1593 H   0  0  0  0  0  0  0  0  0  0  0  0
  143.7281  134.1100  151.9044 H   0  0  0  0  0  0  0  0  0  0  0  0
  144.9364  135.0834  151.0568 H   0  0  0  0  0  0  0  0  0  0  0  0
  143.1767  133.5054  149.6597 H   0  0  0  0  0  0  0  0  0  0  0  0
  144.8319  133.7762  149.1183 H   0  0  0  0  0  0  0  0  0  0  0  0
  143.7579  131.3955  150.6338 H   0  0  0  0  0  0  0  0  0  0  0  0
  144.8306  131.3842  149.2349 H   0  0  0  0  0  0  0  0  0  0  0  0
  146.7189  131.9890  150.5807 H   0  0  0  0  0  0  0  0  0  0  0  0
  145.7832  131.1094  151.7942 H   0  0  0  0  0  0  0  0  0  0  0  0
  149.0826  137.1149  153.4823 H   0  0  0  0  0  0  0  0  0  0  0  0
  148.8487  137.5392  157.1599 H   0  0  0  0  0  0  0  0  0  0  0  0
  150.0610  139.3302  158.3196 H   0  0  0  0  0  0  0  0  0  0  0  0
  150.7062  142.9478  155.8547 H   0  0  0  0  0  0  0  0  0  0  0  0
  149.9053  142.9021  157.4199 H   0  0  0  0  0  0  0  0  0  0  0  0
  152.8121  143.7477  156.8808 H   0  0  0  0  0  0  0  0  0  0  0  0
  151.4942  144.7938  157.3721 H   0  0  0  0  0  0  0  0  0  0  0  0
  153.6695  142.1378  158.4679 H   0  0  0  0  0  0  0  0  0  0  0  0
  152.9444  142.0602  160.0619 H   0  0  0  0  0  0  0  0  0  0  0  0
  150.8402  141.1409  159.1444 H   0  0  0  0  0  0  0  0  0  0  0  0
  152.1922  140.1565  158.6268 H   0  0  0  0  0  0  0  0  0  0  0  0
  149.9627  139.4061  153.4145 H   0  0  0  0  0  0  0  0  0  0  0  0
  1  2  2  0  0  0  0
  2  3  1  0  0  0  0
  2 12  1  0  0  0  0
  3  4  1  0  0  0  0
  3 25  1  0  0  0  0
  4  5  1  0  0  0  0
  4 26  1  0  0  0  0
  4 27  1  0  0  0  0
  5  6  2  0  0  0  0
  5  7  1  0  0  0  0
  7 11  1  0  0  0  0
  7  8  1  0  0  0  0
  8  9  1  0  0  0  0
  8 28  1  0  0  0  0
  8 29  1  0  0  0  0
  9 10  1  0  0  0  0
  9 30  1  0  0  0  0
  9 31  1  0  0  0  0
 10 11  1  0  0  0  0
 10 32  1  0  0  0  0
 10 33  1  0  0  0  0
 11 34  1  0  0  0  0
 11 35  1  0  0  0  0
 12 13  1  0  0  0  0
 12 36  1  0  0  0  0
 13 24  1  0  0  0  0
 13 14  2  0  0  0  0
 14 15  1  0  0  0  0
 14 37  1  0  0  0  0
 15 16  2  0  0  0  0
 15 38  1  0  0  0  0
 16 17  1  0  0  0  0
 16 23  1  0  0  0  0
 17 22  1  0  0  0  0
 17 18  1  0  0  0  0
 18 19  1  0  0  0  0
 18 39  1  0  0  0  0
 18 40  1  0  0  0  0
 19 20  1  0  0  0  0
 19 41  1  0  0  0  0
 19 42  1  0  0  0  0
 20 21  1  0  0  0  0
 21 22  1  0  0  0  0
 21 43  1  0  0  0  0
 21 44  1  0  0  0  0
 22 45  1  0  0  0  0
 22 46  1  0  0  0  0
 23 24  2  0  0  0  0
 24 47  1  0  0  0  0
M  END
> <s_m_source_file>
AV-unprocessed.smi

> <i_m_source_file_index>
839

> <i_lp_mmshare_version>
43012

> <i_f3d_flags>
0

> <s_epik_input>
W0NIMl0xW0NIMl1bQ0gyXVtDSDJdTjFDKD1PKVtDSDJdW05IXUMoPU8pW05IXWMyW2NIXVtjSF1jKG5bY0hdMilOM1tDSDJdW0NIMl1PW0NIMl1bQ0gyXTM=

> <s_epik_cmdline>
J2VwaWtfcHl0aG9uJywgJy1waCcsICc3LjAnLCAnLXRuJywgJzgnLCAnLW1hJywgJzIwMCcsICctbWV0YWxfYmluZGluZycsICctaW1hZScsICc8aW5maWxlLm1hZT4nLCAnLW9tYWUnLCAnPG91dGZpbGUubWFlPic=

> <r_lp_tautomer_probability>
1

> <r_epik_Ionization_Penalty>
0.00586185

> <r_epik_Ionization_Penalty_Charging>
0

> <r_epik_Ionization_Penalty_Neutral>
0.00586185

> <r_epik_State_Penalty>
0.00428328

> <r_epik_Charging_Adjusted_Penalty>
0.00428328

> <i_epik_Tot_Q>
0

> <i_epik_Tot_abs_Q>
0

> <r_epik_Metal_State_Penalty>
-0

> <b_epik_Metal_Only>
0

> <s_lp_Force_Field>
OPLS_2005

> <r_lp_Energy>
41.3163

> <b_lp_Chiralities_Consistent>
1

> <s_lp_Variant>
AV-unprocessed.smi:839-1

> <Gold.Version>
5.8.1

> <Gold.Id.Protein>
6NUR|6NUR_protein|mol2

> <Gold.PLP.Fitness>
44.2285

> <Gold.PLP.PLP>
-33.9141

> <Gold.PLP.part.hbond>
-3.0000

> <Gold.PLP.part.metal>
0.0000

> <Gold.PLP.part.buried>
-5.7734

> <Gold.PLP.part.nonpolar>
-26.4079

> <Gold.PLP.part.repulsive>
0.2259

> <Gold.PLP.ligand.clash>
0.0000

> <Gold.PLP.ligand.torsion>
0.6296

> <Gold.PLP.Chemscore.Hbond>
2.7420

> <Gold.PLP.Chemscore.CHOScore>
1.0000

> <Gold.PLP.Chemscore.Metal>
0.0000

> <Gold.Chemscore.Hbonds>
donor molecule, donor type, donor heavy atom, donor atom, acceptor molecule, acceptor atom, score
      L1  H     3    25       P1  7948  1.00
      L1  H    12    36       P1  7948  0.96
      P1  H  7989  7998       L1    23  0.65
      L1  C    24    47       P1  7957  1.00

> <Gold.PLP.Chemscore.Internal.Correction>
0.3477

> <Gold.Rescore>
     Score         DG    S(hbond)    S(metal)    S(lipo)     H(rot)  DE(clash)    DE(int)     intcor
     17.06     -18.76       2.10        0.00      86.43       1.50       0.23       1.47       ----

> <Gold.Chemscore.Fitness>
17.0642

> <Gold.Chemscore.DG>
-18.7633

> <Gold.Chemscore.ZeroCoef>
-5.4800

> <Gold.Chemscore.Hbond>
2.0990

> <Gold.Chemscore.Metal>
0.0000

> <Gold.Chemscore.Lipo>
86.4336

> <Gold.Chemscore.Internal_Hbond>
0.0000

> <Gold.Chemscore.DEClash>
0.2266

> <Gold.Chemscore.DEInternal>
1.4725

> <Gold.Chemscore.Rot>
1.5001

> <Gold.Chemscore.Internal.Correction>
   9.000000E+99

> <Gold.Chemscore.Hbonds>
donor molecule, donor type, donor heavy atom, donor atom, acceptor molecule, acceptor atom, score
      L1  H     3    25       P1  7948  0.95
      L1  H    12    36       P1  7948  0.92
      P1  H  7989  7998       L1    23  0.05

> <Gold.Chemscore.Hbond.Weighted>
-7.0107

> <Gold.Chemscore.Metal.Weighted>
-0.0000

> <Gold.Chemscore.Lipo.Weighted>
-10.1127

> <Gold.Chemscore.Internal_Hbond.Weighted>
0.0000

> <Gold.Chemscore.DEClash.Weighted>
0.2266

> <Gold.Chemscore.DEInternal.Weighted>
1.4725

> <Gold.Chemscore.Rot.Weighted>
3.8402

> <Gold.Chemscore.Internal.Correction.Weighted>
   9.000000E+99

> <Gold.Protein.RotatedTorsions>
[ 6907 6896 6895 6894 ] final -119.90 input  -60.11 | X-H torsion
[ 7974 7965 7964 7962 ] final  107.79 input  175.53 | X-H torsion
[ 8008 7997 7996 7995 ] final   -7.34 input   59.86 | X-H torsion
[ 10167 10162 10161 10158 ] final  -57.52 input  -65.29 | X-H torsion
[ 10718 10713 10712 10709 ] final  -23.35 input   66.30 | X-H torsion
[ 10763 10752 10751 10750 ] final    9.73 input  -60.55 | X-H torsion
[ 11005 11000 10999 10996 ] final  -42.40 input  -57.11 | X-H torsion

> <Gold.Protein.ActiveResidues>
 VAL166  LYS551  ARG553  GLY616  TRP617  ASP618  TYR619  PRO620  LYS621  CYS622 
 ASP623  PHE694  ASN695  SER759  ASP760  ASP761  ALA762  ILE779  LEU786  VAL792 
 PHE793  MET794  SER795  GLU796  ALA797  LYS798  CYS799  TRP800  GLU811  SER814 

> <Gold.Protein.RotatedAtoms>
  150.8346  133.8035  159.3084 H   0  0  0  0  0  0  0  0  0  0  0  0  # atno 6907 bound_to 6896
  151.5755  135.1059  160.0014 H   0  0  0  0  0  0  0  0  0  0  0  0  # atno 6908 bound_to 6896
  152.4420  133.7424  159.6705 H   0  0  0  0  0  0  0  0  0  0  0  0  # atno 6909 bound_to 6896
  145.2891  139.2606  143.3874 H   0  0  0  0  0  0  0  0  0  0  0  0  # atno 7974 bound_to 7965
  154.5848  140.2409  155.8002 H   0  0  0  0  0  0  0  0  0  0  0  0  # atno 8008 bound_to 7997
  156.2205  140.2999  155.9897 H   0  0  0  0  0  0  0  0  0  0  0  0  # atno 8009 bound_to 7997
  155.2477  140.0409  157.2973 H   0  0  0  0  0  0  0  0  0  0  0  0  # atno 8010 bound_to 7997
  140.6253  143.2436  151.5378 H   0  0  0  0  0  0  0  0  0  0  0  0  # atno 10167 bound_to 10162
  156.4923  130.4569  149.6748 H   0  0  0  0  0  0  0  0  0  0  0  0  # atno 10718 bound_to 10713
  153.2108  135.6868  153.8116 H   0  0  0  0  0  0  0  0  0  0  0  0  # atno 10763 bound_to 10752
  153.7349  135.3247  155.3294 H   0  0  0  0  0  0  0  0  0  0  0  0  # atno 10764 bound_to 10752
  154.8221  135.4644  154.0915 H   0  0  0  0  0  0  0  0  0  0  0  0  # atno 10765 bound_to 10752
  141.0313  133.6819  156.2589 H   0  0  0  0  0  0  0  0  0  0  0  0  # atno 11005 bound_to 11000
  146.3191  140.3377  142.8645 LP  0  0  0  0  0  0  0  0  0  0  0  0  # atno 17320 bound_to 7965
  144.9188  140.7844  143.5761 LP  0  0  0  0  0  0  0  0  0  0  0  0  # atno 17321 bound_to 7965
  139.5474  144.2484  152.1469 LP  0  0  0  0  0  0  0  0  0  0  0  0  # atno 17342 bound_to 10162
  140.1714  144.4932  150.6578 LP  0  0  0  0  0  0  0  0  0  0  0  0  # atno 17343 bound_to 10162
  156.3414  130.7384  151.2330 LP  0  0  0  0  0  0  0  0  0  0  0  0  # atno 17370 bound_to 10713
  157.7472  131.0402  150.4589 LP  0  0  0  0  0  0  0  0  0  0  0  0  # atno 17371 bound_to 10713
  140.6402  134.5174  157.5568 LP  0  0  0  0  0  0  0  0  0  0  0  0  # atno 17394 bound_to 11000
  139.9210  134.8150  156.1213 LP  0  0  0  0  0  0  0  0  0  0  0  0  # atno 17395 bound_to 11000

$$$$
