AV-unprocessed.smi:387|AV-procd|sdf|2474|dock10
  -GOLD-   2262022413D 1   1.00000     0.00000
 Structure written by MMmdl.
 39 40  0  0  0  0  0  0  0  0  1 V2000
  155.8938  137.1466  157.0213 C   0  0  0  0  0  0  0  0  0  0  0  0
  155.9074  136.7605  158.5111 C   0  0  0  0  0  0  0  0  0  0  0  0
  155.4697  135.2873  158.6512 C   0  0  0  0  0  0  0  0  0  0  0  0
  157.3335  136.9590  159.0672 C   0  0  0  0  0  0  0  0  0  0  0  0
  154.9566  137.6493  159.1897 N   0  0  0  0  0  0  0  0  0  0  0  0
  155.0047  138.9872  159.3151 C   0  0  0  0  0  0  0  0  0  0  0  0
  155.9042  139.6868  158.8472 O   0  0  0  0  0  0  0  0  0  0  0  0
  153.8434  139.6168  160.0999 C   0  0  0  0  0  0  0  0  0  0  0  0
  152.9934  140.5119  159.2844 N   0  0  0  0  0  0  0  0  0  0  0  0
  152.4814  140.0271  158.0538 C   0  0  0  0  0  0  0  0  0  0  0  0
  152.7120  138.8758  157.6795 O   0  0  0  0  0  0  0  0  0  0  0  0
  151.6937  140.9837  157.2799 C   0  0  0  0  0  0  0  0  0  0  0  0
  151.1896  140.5442  156.0211 C   0  0  0  0  0  0  0  0  0  0  0  0
  150.7702  140.2100  154.9956 N   0  0  0  0  0  0  0  0  0  0  0  0
  151.4642  142.2300  157.7419 C   0  0  0  0  0  0  0  0  0  0  0  0
  151.9381  142.6687  158.9590 N   0  0  0  0  0  0  0  0  0  0  0  0
  151.8178  144.0426  159.3579 C   0  0  0  0  0  0  0  0  0  0  0  0
  151.0080  145.0149  158.5221 C   0  0  0  0  0  0  0  0  0  0  0  0
  152.5143  145.1079  158.5396 C   0  0  0  0  0  0  0  0  0  0  0  0
  152.7641  141.8325  159.7416 C   0  0  0  0  0  0  0  0  0  0  0  0
  153.2807  142.2409  160.7848 O   0  0  0  0  0  0  0  0  0  0  0  0
  156.5790  136.5252  156.4436 H   0  0  0  0  0  0  0  0  0  0  0  0
  156.1934  138.1854  156.8769 H   0  0  0  0  0  0  0  0  0  0  0  0
  154.8998  137.0280  156.5878 H   0  0  0  0  0  0  0  0  0  0  0  0
  154.4509  135.1396  158.2912 H   0  0  0  0  0  0  0  0  0  0  0  0
  155.5069  134.9438  159.6849 H   0  0  0  0  0  0  0  0  0  0  0  0
  156.1189  134.6288  158.0733 H   0  0  0  0  0  0  0  0  0  0  0  0
  158.0594  136.3721  158.5033 H   0  0  0  0  0  0  0  0  0  0  0  0
  157.4156  136.6499  160.1092 H   0  0  0  0  0  0  0  0  0  0  0  0
  157.6409  138.0037  159.0079 H   0  0  0  0  0  0  0  0  0  0  0  0
  154.1666  137.1886  159.6176 H   0  0  0  0  0  0  0  0  0  0  0  0
  153.2515  138.8153  160.5448 H   0  0  0  0  0  0  0  0  0  0  0  0
  154.2557  140.1477  160.9596 H   0  0  0  0  0  0  0  0  0  0  0  0
  150.8824  142.9119  157.1383 H   0  0  0  0  0  0  0  0  0  0  0  0
  151.7956  144.2119  160.4331 H   0  0  0  0  0  0  0  0  0  0  0  0
  150.5443  144.6478  157.6084 H   0  0  0  0  0  0  0  0  0  0  0  0
  150.4495  145.7845  159.0507 H   0  0  0  0  0  0  0  0  0  0  0  0
  152.9601  145.9419  159.0778 H   0  0  0  0  0  0  0  0  0  0  0  0
  153.0419  144.8003  157.6385 H   0  0  0  0  0  0  0  0  0  0  0  0
  1  2  1  0  0  0  0
  1 22  1  0  0  0  0
  1 23  1  0  0  0  0
  1 24  1  0  0  0  0
  2  3  1  0  0  0  0
  2  4  1  0  0  0  0
  2  5  1  0  0  0  0
  3 25  1  0  0  0  0
  3 26  1  0  0  0  0
  3 27  1  0  0  0  0
  4 28  1  0  0  0  0
  4 29  1  0  0  0  0
  4 30  1  0  0  0  0
  5  6  1  0  0  0  0
  5 31  1  0  0  0  0
  6  7  2  0  0  0  0
  6  8  1  0  0  0  0
  8  9  1  0  0  0  0
  8 32  1  0  0  0  0
  8 33  1  0  0  0  0
  9 20  1  0  0  0  0
  9 10  1  0  0  0  0
 10 11  2  0  0  0  0
 10 12  1  0  0  0  0
 12 13  1  0  0  0  0
 12 15  2  0  0  0  0
 13 14  3  0  0  0  0
 15 16  1  0  0  0  0
 15 34  1  0  0  0  0
 16 17  1  0  0  0  0
 16 20  1  0  0  0  0
 17 19  1  0  0  0  0
 17 18  1  0  0  0  0
 17 35  1  0  0  0  0
 18 19  1  0  0  0  0
 18 36  1  0  0  0  0
 18 37  1  0  0  0  0
 19 38  1  0  0  0  0
 19 39  1  0  0  0  0
 20 21  2  0  0  0  0
M  END
> <s_m_source_file>
AV-unprocessed.smi

> <i_m_source_file_index>
387

> <i_lp_mmshare_version>
43012

> <i_f3d_flags>
0

> <s_epik_input>
W0NIM11DKFtDSDNdKShbQ0gzXSlbTkhdQyg9TylbQ0gyXW4xYyg9TyljKEMjTilbY0hdbihjMT1PKVtDSF0yW0NIMl1bQ0gyXTI=

> <s_epik_cmdline>
J2VwaWtfcHl0aG9uJywgJy1waCcsICc3LjAnLCAnLXRuJywgJzgnLCAnLW1hJywgJzIwMCcsICctbWV0YWxfYmluZGluZycsICctaW1hZScsICc8aW5maWxlLm1hZT4nLCAnLW9tYWUnLCAnPG91dGZpbGUubWFlPic=

> <r_lp_tautomer_probability>
1

> <r_epik_Ionization_Penalty>
2.47136e-08

> <r_epik_Ionization_Penalty_Charging>
8.30431e-11

> <r_epik_Ionization_Penalty_Neutral>
2.46306e-08

> <r_epik_State_Penalty>
-0

> <r_epik_Charging_Adjusted_Penalty>
8.30431e-11

> <i_epik_Tot_Q>
0

> <i_epik_Tot_abs_Q>
0

> <r_epik_Metal_State_Penalty>
-0

> <b_epik_Metal_Only>
0

> <s_lp_Force_Field>
OPLS_2005

> <r_lp_Energy>
29.2267

> <b_lp_Chiralities_Consistent>
1

> <s_lp_Variant>
AV-unprocessed.smi:387-1

> <Gold.Version>
5.8.1

> <Gold.Id.Protein>
6NUR|6NUR_protein|mol2

> <Gold.PLP.Fitness>
41.5299

> <Gold.PLP.PLP>
-35.7258

> <Gold.PLP.part.hbond>
-2.0000

> <Gold.PLP.part.metal>
0.0000

> <Gold.PLP.part.buried>
-6.7286

> <Gold.PLP.part.nonpolar>
-27.2875

> <Gold.PLP.part.repulsive>
0.1435

> <Gold.PLP.ligand.clash>
0.0000

> <Gold.PLP.ligand.torsion>
0.2053

> <Gold.PLP.Chemscore.Hbond>
2.0000

> <Gold.PLP.Chemscore.CHOScore>
0.0000

> <Gold.PLP.Chemscore.Metal>
0.0000

> <Gold.Chemscore.Hbonds>
donor molecule, donor type, donor heavy atom, donor atom, acceptor molecule, acceptor atom, score
      P1  H  7989  7998       L1    14  1.00
      P1  H  7997  8008       L1     7  1.00

> <Gold.PLP.Chemscore.Internal.Correction>
0.2148

> <Gold.Rescore>
     Score         DG    S(hbond)    S(metal)    S(lipo)     H(rot)  DE(clash)    DE(int)     intcor
     13.86     -15.28       1.91        0.00      68.20       1.78       0.01       1.41       ----

> <Gold.Chemscore.Fitness>
13.8641

> <Gold.Chemscore.DG>
-15.2804

> <Gold.Chemscore.ZeroCoef>
-5.4800

> <Gold.Chemscore.Hbond>
1.9062

> <Gold.Chemscore.Metal>
0.0000

> <Gold.Chemscore.Lipo>
68.2010

> <Gold.Chemscore.Internal_Hbond>
0.0000

> <Gold.Chemscore.DEClash>
0.0106

> <Gold.Chemscore.DEInternal>
1.4057

> <Gold.Chemscore.Rot>
1.7757

> <Gold.Chemscore.Internal.Correction>
   9.000000E+99

> <Gold.Chemscore.Hbonds>
donor molecule, donor type, donor heavy atom, donor atom, acceptor molecule, acceptor atom, score
      P1  H  7989  7998       L1    14  0.92
      P1  H  7997  8008       L1     7  0.83

> <Gold.Chemscore.Hbond.Weighted>
-6.3668

> <Gold.Chemscore.Metal.Weighted>
-0.0000

> <Gold.Chemscore.Lipo.Weighted>
-7.9795

> <Gold.Chemscore.Internal_Hbond.Weighted>
0.0000

> <Gold.Chemscore.DEClash.Weighted>
0.0106

> <Gold.Chemscore.DEInternal.Weighted>
1.4057

> <Gold.Chemscore.Rot.Weighted>
4.5459

> <Gold.Chemscore.Internal.Correction.Weighted>
   9.000000E+99

> <Gold.Protein.RotatedTorsions>
[ 6907 6896 6895 6894 ] final  -48.81 input  -60.11 | X-H torsion
[ 7974 7965 7964 7962 ] final  109.64 input  175.53 | X-H torsion
[ 8008 7997 7996 7995 ] final -152.39 input   59.86 | X-H torsion
[ 10167 10162 10161 10158 ] final -163.28 input  -65.29 | X-H torsion
[ 10718 10713 10712 10709 ] final   66.54 input   66.30 | X-H torsion
[ 10763 10752 10751 10750 ] final  106.37 input  -60.55 | X-H torsion
[ 11005 11000 10999 10996 ] final  -77.45 input  -57.11 | X-H torsion

> <Gold.Protein.ActiveResidues>
 VAL166  LYS551  ARG553  GLY616  TRP617  ASP618  TYR619  PRO620  LYS621  CYS622 
 ASP623  PHE694  ASN695  SER759  ASP760  ASP761  ALA762  ILE779  LEU786  VAL792 
 PHE793  MET794  SER795  GLU796  ALA797  LYS798  CYS799  TRP800  GLU811  SER814 

> <Gold.Protein.RotatedAtoms>
  150.8868  134.8267  159.7264 H   0  0  0  0  0  0  0  0  0  0  0  0  # atno 6907 bound_to 6896
  152.4812  134.4710  159.9645 H   0  0  0  0  0  0  0  0  0  0  0  0  # atno 6908 bound_to 6896
  151.4778  133.3515  159.2869 H   0  0  0  0  0  0  0  0  0  0  0  0  # atno 6909 bound_to 6896
  145.2653  139.2687  143.3995 H   0  0  0  0  0  0  0  0  0  0  0  0  # atno 7974 bound_to 7965
  155.6544  140.0715  157.2576 H   0  0  0  0  0  0  0  0  0  0  0  0  # atno 8008 bound_to 7997
  154.4155  140.1727  156.1759 H   0  0  0  0  0  0  0  0  0  0  0  0  # atno 8009 bound_to 7997
  155.9750  140.3358  155.6613 H   0  0  0  0  0  0  0  0  0  0  0  0  # atno 8010 bound_to 7997
  139.6332  144.0400  152.2033 H   0  0  0  0  0  0  0  0  0  0  0  0  # atno 10167 bound_to 10162
  157.6175  130.9273  150.0122 H   0  0  0  0  0  0  0  0  0  0  0  0  # atno 10718 bound_to 10713
  153.3921  135.3879  155.1930 H   0  0  0  0  0  0  0  0  0  0  0  0  # atno 10763 bound_to 10752
  154.8720  135.3751  154.4725 H   0  0  0  0  0  0  0  0  0  0  0  0  # atno 10764 bound_to 10752
  153.5213  135.7087  153.5792 H   0  0  0  0  0  0  0  0  0  0  0  0  # atno 10765 bound_to 10752
  141.1660  133.7023  156.7822 H   0  0  0  0  0  0  0  0  0  0  0  0  # atno 11005 bound_to 11000
  146.3263  140.3081  142.8625 LP  0  0  0  0  0  0  0  0  0  0  0  0  # atno 17320 bound_to 7965
  144.9383  140.8050  143.5646 LP  0  0  0  0  0  0  0  0  0  0  0  0  # atno 17321 bound_to 7965
  140.0070  144.6251  150.7680 LP  0  0  0  0  0  0  0  0  0  0  0  0  # atno 17342 bound_to 10162
  140.7451  143.2870  151.3436 LP  0  0  0  0  0  0  0  0  0  0  0  0  # atno 17343 bound_to 10162
  156.1304  130.3643  149.9741 LP  0  0  0  0  0  0  0  0  0  0  0  0  # atno 17370 bound_to 10713
  156.7803  130.9219  151.3646 LP  0  0  0  0  0  0  0  0  0  0  0  0  # atno 17371 bound_to 10713
  140.2386  134.8631  157.3550 LP  0  0  0  0  0  0  0  0  0  0  0  0  # atno 17394 bound_to 11000
  140.1818  134.4480  155.7767 LP  0  0  0  0  0  0  0  0  0  0  0  0  # atno 17395 bound_to 11000

$$$$
