#       Name:                AV-unprocessed.smi:1348
#       Creating user name   scv26
#       Creation time:       Fri Mar 27 05:10:23 2020


#       File generated by GOLD software.
#

@<TRIPOS>MOLECULE
AV-unprocessed.smi:1348
    34    35     1
SMALL
NO_CHARGES


@<TRIPOS>ATOM
      1 ****        -2.9636   0.6665   0.1168 C.3            1 S1                 0.0000
      2 ****        -2.4694   1.5779  -1.0160 C.3            1 S1                 0.0000
      3 ****        -2.9545   1.1323  -2.4029 C.3            1 S1                 0.0000
      4 ****        -0.9863   1.7709  -0.9729 C.2            1 S1                 0.0000
      5 ****        -0.1056   0.7817  -1.1502 N.2            1 S1                 0.0000
      6 ****         1.2213   1.2107  -1.0405 C.2            1 S1                 0.0000
      7 ****         2.3431   0.2237  -1.1900 C.3            1 S1                 0.0000
      8 ****         2.6926  -0.3935   0.1661 C.2            1 S1                 0.0000
      9 ****         3.7615  -0.1170   0.7104 O.2            1 S1                 0.0000
     10 ****         1.7835  -1.2270   0.6946 N.am           1 S1                 0.0000
     11 ****         1.8964  -1.8942   1.9501 C.3            1 S1                 0.0000
     12 ****         1.2544  -3.2586   2.0805 C.3            1 S1                 0.0000
     13 ****         0.6328  -2.0718   2.7636 C.3            1 S1                 0.0000
     14 ****         1.3342   2.5565  -0.7937 C.2            1 S1                 0.0000
     15 ****        -0.2228   3.3287  -0.6743 S.3            1 S1                 0.0000
     16 ****        -2.6709   1.0585   1.0913 H              1 S1                 0.0000
     17 ****        -2.5522  -0.3391   0.0251 H              1 S1                 0.0000
     18 ****        -4.0506   0.5829   0.1074 H              1 S1                 0.0000
     19 ****        -2.9115   2.5585  -0.8361 H              1 S1                 0.0000
     20 ****        -2.6556   1.8463  -3.1706 H              1 S1                 0.0000
     21 ****        -4.0414   1.0520  -2.4318 H              1 S1                 0.0000
     22 ****        -2.5428   0.1596  -2.6735 H              1 S1                 0.0000
     23 ****         2.0735  -0.5709  -1.8869 H              1 S1                 0.0000
     24 ****         3.2273   0.7095  -1.6049 H              1 S1                 0.0000
     25 ****         0.9349  -1.3872   0.1708 H              1 S1                 0.0000
     26 ****         2.8138  -1.7421   2.5171 H              1 S1                 0.0000
     27 ****         0.7382  -3.6647   1.2127 H              1 S1                 0.0000
     28 ****         1.7579  -3.9917   2.7076 H              1 S1                 0.0000
     29 ****         0.7218  -2.0116   3.8463 H              1 S1                 0.0000
     30 ****        -0.2968  -1.6842   2.3506 H              1 S1                 0.0000
     31 ****         2.2364   3.1367  -0.6680 H              1 S1                 0.0000
     32 ****        -0.3672  -0.1644  -1.3409 LP             1 S1                 0.0000
     33 ****         4.4010   0.5107   0.2665 LP             1 S1                 0.0000
     34 ****         3.9904  -0.5200   1.5966 LP             1 S1                 0.0000
@<TRIPOS>BOND
    1    1    2 1     
    2    1   16 1     
    3    1   17 1     
    4    1   18 1     
    5    2    3 1     
    6    2    4 1     
    7    2   19 1     
    8    3   20 1     
    9    3   21 1     
   10    3   22 1     
   11    4   15 1     
   12    4    5 2     
   13    5    6 1     
   14    6    7 1     
   15    6   14 2     
   16    7    8 1     
   17    7   23 1     
   18    7   24 1     
   19    8    9 2     
   20    8   10 am    
   21   10   11 1     
   22   10   25 1     
   23   11   13 1     
   24   11   12 1     
   25   11   26 1     
   26   12   13 1     
   27   12   27 1     
   28   12   28 1     
   29   13   29 1     
   30   13   30 1     
   31   14   15 1     
   32   14   31 1     
   33    5   32 1     
   34    9   33 1     
   35    9   34 1     
@<TRIPOS>SUBSTRUCTURE
      1 S1             1
@<TRIPOS>SET
LONE_PAIRS      STATIC     ATOMS    <user>   **** ""
3 32 33 34
DONOR_HYDROGENS      STATIC     ATOMS    <user>   **** ""
1 25
ATOM$BLUE        STATIC     ATOMS    COLORGROUP SYSTEM
3 32 33 34
ATOM$RED        STATIC     ATOMS    COLORGROUP SYSTEM
1 25
