#       Name:                AV-unprocessed.smi:1356
#       Creating user name   scv26
#       Creation time:       Fri Mar 27 05:13:44 2020


#       File generated by GOLD software.
#

@<TRIPOS>MOLECULE
AV-unprocessed.smi:1356
    46    47     1
SMALL
NO_CHARGES


@<TRIPOS>ATOM
      1 ****        -3.0898   3.7694  -3.4538 C.3            1 S1                 0.0000
      2 ****        -2.3935   4.4913  -2.3134 C.3            1 S1                 0.0000
      3 ****        -2.9197   4.3942  -0.9015 C.3            1 S1                 0.0000
      4 ****        -1.5663   3.7990  -1.2377 C.3            1 S1                 0.0000
      5 ****        -1.4338   2.3076  -1.2343 C.2            1 S1                 0.0000
      6 ****        -2.3920   1.5377  -1.3142 O.2            1 S1                 0.0000
      7 ****        -0.1681   1.8786  -1.1279 N.am           1 S1                 0.0000
      8 ****         0.2251   0.4765  -1.1054 C.3            1 S1                 0.0000
      9 ****         1.7443   0.3395  -0.9171 C.3            1 S1                 0.0000
     10 ****         2.1723  -1.1268  -0.8394 C.2            1 S1                 0.0000
     11 ****         1.9223  -1.8937  -1.7689 O.2            1 S1                 0.0000
     12 ****         2.8001  -1.5092   0.2830 N.am           1 S1                 0.0000
     13 ****         3.2278  -2.8724   0.5860 C.3            1 S1                 0.0000
     14 ****         2.0500  -3.8343   0.8520 C.3            1 S1                 0.0000
     15 ****         1.0239  -3.2899   1.8313 C.ar           1 S1                 0.0000
     16 ****        -0.2131  -2.7583   1.4046 C.ar           1 S1                 0.0000
     17 ****        -1.1156  -2.2552   2.3643 C.ar           1 S1                 0.0000
     18 ****        -0.7643  -2.2971   3.7295 C.ar           1 S1                 0.0000
     19 ****         0.4825  -2.8411   4.1003 C.ar           1 S1                 0.0000
     20 ****         1.3208  -3.3116   3.1506 N.pl3          1 S1                 1.0000
     21 ****        -3.6660   2.9158  -3.0980 H              1 S1                 0.0000
     22 ****        -2.3559   3.4205  -4.1805 H              1 S1                 0.0000
     23 ****        -3.7764   4.4502  -3.9570 H              1 S1                 0.0000
     24 ****        -1.9998   5.4589  -2.6185 H              1 S1                 0.0000
     25 ****        -2.9233   5.2983  -0.2963 H              1 S1                 0.0000
     26 ****        -3.7559   3.7213  -0.7196 H              1 S1                 0.0000
     27 ****        -0.6905   4.3494  -0.8968 H              1 S1                 0.0000
     28 ****         0.5679   2.5674  -1.0667 H              1 S1                 0.0000
     29 ****        -0.3008  -0.0297  -0.2935 H              1 S1                 0.0000
     30 ****        -0.0881   0.0032  -2.0377 H              1 S1                 0.0000
     31 ****         2.2695   0.8095  -1.7496 H              1 S1                 0.0000
     32 ****         2.0568   0.8650  -0.0132 H              1 S1                 0.0000
     33 ****         2.9753  -0.8086   0.9890 H              1 S1                 0.0000
     34 ****         3.8594  -3.2559  -0.2167 H              1 S1                 0.0000
     35 ****         3.8581  -2.8203   1.4741 H              1 S1                 0.0000
     36 ****         1.5459  -4.0660  -0.0871 H              1 S1                 0.0000
     37 ****         2.4305  -4.7852   1.2268 H              1 S1                 0.0000
     38 ****        -0.4653  -2.7287   0.3542 H              1 S1                 0.0000
     39 ****        -2.0647  -1.8410   2.0565 H              1 S1                 0.0000
     40 ****        -1.4411  -1.9173   4.4810 H              1 S1                 0.0000
     41 ****         0.8323  -2.9126   5.1198 H              1 S1                 0.0000
     42 ****         2.2184  -3.6996   3.4420 H              1 S1                 0.0000
     43 ****        -3.3208   1.9012  -1.3863 LP             1 S1                 0.0000
     44 ****        -2.2411   0.5492  -1.3069 LP             1 S1                 0.0000
     45 ****         1.4383  -1.5585  -2.5773 LP             1 S1                 0.0000
     46 ****         2.2032  -2.8520  -1.7158 LP             1 S1                 0.0000
@<TRIPOS>BOND
    1    1    2 1     
    2    1   21 1     
    3    1   22 1     
    4    1   23 1     
    5    2    4 1     
    6    2    3 1     
    7    2   24 1     
    8    3    4 1     
    9    3   25 1     
   10    3   26 1     
   11    4    5 1     
   12    4   27 1     
   13    5    6 2     
   14    5    7 am    
   15    7    8 1     
   16    7   28 1     
   17    8    9 1     
   18    8   29 1     
   19    8   30 1     
   20    9   10 1     
   21    9   31 1     
   22    9   32 1     
   23   10   11 2     
   24   10   12 am    
   25   12   13 1     
   26   12   33 1     
   27   13   14 1     
   28   13   34 1     
   29   13   35 1     
   30   14   15 1     
   31   14   36 1     
   32   14   37 1     
   33   15   20 ar    
   34   15   16 ar    
   35   16   17 ar    
   36   16   38 1     
   37   17   18 ar    
   38   17   39 1     
   39   18   19 ar    
   40   18   40 1     
   41   19   20 ar    
   42   19   41 1     
   43   20   42 1     
   44    6   43 1     
   45    6   44 1     
   46   11   45 1     
   47   11   46 1     
@<TRIPOS>SUBSTRUCTURE
      1 S1             1
@<TRIPOS>SET
LONE_PAIRS      STATIC     ATOMS    <user>   **** ""
4 43 44 45 46
DONOR_HYDROGENS      STATIC     ATOMS    <user>   **** ""
3 28 33 42
ATOM$BLUE        STATIC     ATOMS    COLORGROUP SYSTEM
4 43 44 45 46
ATOM$RED        STATIC     ATOMS    COLORGROUP SYSTEM
3 28 33 42
