AV-unprocessed.smi:3113|AV-procd|sdf|11853|dock3
  -GOLD-   2272017233D 1   1.00000     0.00000
 Structure written by MMmdl.
 35 36  0  0  0  0  0  0  0  0  2 V2000
  151.2972  137.9201  154.3941 C   0  0  0  0  0  0  0  0  0  0  0  0
  152.0092  139.0407  154.9065 C   0  0  0  0  0  0  0  0  0  0  0  0
  151.2767  140.1428  154.9307 N   0  0  0  0  0  0  0  0  0  0  0  0
  150.0796  139.7643  154.4338 N   0  0  0  0  0  0  0  0  0  0  0  0
  149.0121  140.7379  154.3158 C   0  0  0  0  0  0  0  0  0  0  0  0
  148.6104  141.3062  155.6840 C   0  0  0  0  0  0  0  0  0  0  0  0
  149.7237  142.0603  156.2908 N   0  3  0  0  0  0  0  0  0  0  0  0
  149.9089  141.8037  157.7328 C   0  0  0  0  0  0  0  0  0  0  0  0
  151.1599  142.5175  158.2641 C   0  0  1  0  0  0  0  0  0  0  0  0
  150.9951  144.0496  158.2608 C   0  0  0  0  0  0  0  0  0  0  0  0
  152.2271  144.7244  158.8748 C   0  0  0  0  0  0  0  0  0  0  0  0
  152.5102  144.1275  160.2573 C   0  0  0  0  0  0  0  0  0  0  0  0
  152.5826  142.5943  160.1747 C   0  0  0  0  0  0  0  0  0  0  0  0
  151.3833  142.0797  159.6030 O   0  0  0  0  0  0  0  0  0  0  0  0
  150.0630  138.4260  154.1012 C   0  0  0  0  0  0  0  0  0  0  0  0
  151.6395  136.9043  154.2623 H   0  0  0  0  0  0  0  0  0  0  0  0
  153.0289  139.0854  155.2604 H   0  0  0  0  0  0  0  0  0  0  0  0
  149.3414  141.5373  153.6501 H   0  0  0  0  0  0  0  0  0  0  0  0
  148.1578  140.2583  153.8364 H   0  0  0  0  0  0  0  0  0  0  0  0
  147.7473  141.9647  155.5748 H   0  0  0  0  0  0  0  0  0  0  0  0
  148.3186  140.4984  156.3568 H   0  0  0  0  0  0  0  0  0  0  0  0
  150.5784  141.8126  155.8120 H   0  0  0  0  0  0  0  0  0  0  0  0
  149.0264  142.1610  158.2652 H   0  0  0  0  0  0  0  0  0  0  0  0
  149.9799  140.7297  157.9111 H   0  0  0  0  0  0  0  0  0  0  0  0
  152.0160  142.2452  157.6436 H   0  0  0  0  0  0  0  0  0  0  0  0
  150.8413  144.4125  157.2440 H   0  0  0  0  0  0  0  0  0  0  0  0
  150.1062  144.3266  158.8294 H   0  0  0  0  0  0  0  0  0  0  0  0
  153.0901  144.5735  158.2252 H   0  0  0  0  0  0  0  0  0  0  0  0
  152.0750  145.8015  158.9489 H   0  0  0  0  0  0  0  0  0  0  0  0
  153.4416  144.5286  160.6580 H   0  0  0  0  0  0  0  0  0  0  0  0
  151.7203  144.4178  160.9513 H   0  0  0  0  0  0  0  0  0  0  0  0
  153.4440  142.2757  159.5856 H   0  0  0  0  0  0  0  0  0  0  0  0
  152.7066  142.1716  161.1719 H   0  0  0  0  0  0  0  0  0  0  0  0
  149.1852  137.9494  153.6901 H   0  0  0  0  0  0  0  0  0  0  0  0
  149.5540  143.0471  156.1591 H   0  0  0  0  0  0  0  0  0  0  0  0
  1 15  2  0  0  0  0
  1  2  1  0  0  0  0
  1 16  1  0  0  0  0
  2  3  2  0  0  0  0
  2 17  1  0  0  0  0
  3  4  1  0  0  0  0
  4  5  1  0  0  0  0
  4 15  1  0  0  0  0
  5  6  1  0  0  0  0
  5 18  1  0  0  0  0
  5 19  1  0  0  0  0
  6  7  1  0  0  0  0
  6 20  1  0  0  0  0
  6 21  1  0  0  0  0
  7  8  1  0  0  0  0
  7 22  1  0  0  0  0
  7 35  1  0  0  0  0
  8  9  1  0  0  0  0
  8 23  1  0  0  0  0
  8 24  1  0  0  0  0
  9 14  1  0  0  0  0
  9 10  1  0  0  0  0
  9 25  1  0  0  0  0
 10 11  1  0  0  0  0
 10 26  1  0  0  0  0
 10 27  1  0  0  0  0
 11 12  1  0  0  0  0
 11 28  1  0  0  0  0
 11 29  1  0  0  0  0
 12 13  1  0  0  0  0
 12 30  1  0  0  0  0
 12 31  1  0  0  0  0
 13 14  1  0  0  0  0
 13 32  1  0  0  0  0
 13 33  1  0  0  0  0
 15 34  1  0  0  0  0
M  CHG  1   7   1
M  END
> <s_m_source_file>
AV-unprocessed.smi

> <i_m_source_file_index>
3113

> <i_lp_mmshare_version>
43012

> <i_f3d_flags>
0

> <s_epik_input>
W2NIXTFbY0hdW2NIXW5uMVtDSDJdW0NIMl1bTkhdW0NIMl1bQ0BASF0yW0NIMl1bQ0gyXVtDSDJdW0NIMl1PMg==

> <s_epik_cmdline>
J2VwaWtfcHl0aG9uJywgJy1waCcsICc3LjAnLCAnLXRuJywgJzgnLCAnLW1hJywgJzIwMCcsICctbWV0YWxfYmluZGluZycsICctaW1hZScsICc8aW5maWxlLm1hZT4nLCAnLW9tYWUnLCAnPG91dGZpbGUubWFlPic=

> <r_lp_tautomer_probability>
1

> <r_epik_Ionization_Penalty>
0.00849054

> <r_epik_Ionization_Penalty_Charging>
0.00848754

> <r_epik_Ionization_Penalty_Neutral>
3.00382e-06

> <r_epik_State_Penalty>
0.00639836

> <r_epik_Charging_Adjusted_Penalty>
0.0148859

> <i_epik_Tot_Q>
1

> <i_epik_Tot_abs_Q>
1

> <r_epik_Metal_State_Penalty>
0.00641155

> <b_epik_Metal_Only>
0

> <s_lp_Force_Field>
OPLS_2005

> <r_lp_Energy>
10.7636

> <b_lp_Chiralities_Consistent>
1

> <s_lp_Variant>
AV-unprocessed.smi:3113-2

> <Gold.Version>
5.8.1

> <Gold.Id.Protein>
6NUR|6NUR_protein|mol2

> <Gold.PLP.Fitness>
48.5478

> <Gold.PLP.PLP>
-38.4563

> <Gold.PLP.part.hbond>
-2.6475

> <Gold.PLP.part.metal>
0.0000

> <Gold.PLP.part.buried>
-4.3116

> <Gold.PLP.part.nonpolar>
-32.4111

> <Gold.PLP.part.repulsive>
0.1239

> <Gold.PLP.ligand.clash>
0.0000

> <Gold.PLP.ligand.torsion>
0.3503

> <Gold.PLP.Chemscore.Hbond>
2.6000

> <Gold.PLP.Chemscore.CHOScore>
0.9798

> <Gold.PLP.Chemscore.Metal>
0.0000

> <Gold.Chemscore.Hbonds>
donor molecule, donor type, donor heavy atom, donor atom, acceptor molecule, acceptor atom, score
      L1  H     7    35       P1  8028  2.00
      P1  H  7989  7998       L1     3  0.50
      L1  C    15    34       P1  7948  0.99

> <Gold.PLP.Chemscore.Internal.Correction>
0.0528

> <Gold.Rescore>
     Score         DG    S(hbond)    S(metal)    S(lipo)     H(rot)  DE(clash)    DE(int)     intcor
     15.46     -15.86       1.01        0.00      97.11       1.70       0.01       0.38       ----

> <Gold.Chemscore.Fitness>
15.4646

> <Gold.Chemscore.DG>
-15.8558

> <Gold.Chemscore.ZeroCoef>
-5.4800

> <Gold.Chemscore.Hbond>
1.0065

> <Gold.Chemscore.Metal>
0.0000

> <Gold.Chemscore.Lipo>
97.1141

> <Gold.Chemscore.Internal_Hbond>
0.0000

> <Gold.Chemscore.DEClash>
0.0133

> <Gold.Chemscore.DEInternal>
0.3778

> <Gold.Chemscore.Rot>
1.6985

> <Gold.Chemscore.Internal.Correction>
   9.000000E+99

> <Gold.Chemscore.Hbonds>
donor molecule, donor type, donor heavy atom, donor atom, acceptor molecule, acceptor atom, score
      L1  H     7    35       P1  8028  1.00
      P1  H  7989  7998       L1     3  0.01

> <Gold.Chemscore.Hbond.Weighted>
-3.3617

> <Gold.Chemscore.Metal.Weighted>
-0.0000

> <Gold.Chemscore.Lipo.Weighted>
-11.3624

> <Gold.Chemscore.Internal_Hbond.Weighted>
0.0000

> <Gold.Chemscore.DEClash.Weighted>
0.0133

> <Gold.Chemscore.DEInternal.Weighted>
0.3778

> <Gold.Chemscore.Rot.Weighted>
4.3482

> <Gold.Chemscore.Internal.Correction.Weighted>
   9.000000E+99

> <Gold.Protein.RotatedTorsions>
[ 6907 6896 6895 6894 ] final  -56.65 input  -60.11 | X-H torsion
[ 7974 7965 7964 7962 ] final   89.78 input  175.53 | X-H torsion
[ 8008 7997 7996 7995 ] final   65.54 input   59.86 | X-H torsion
[ 10167 10162 10161 10158 ] final  -83.81 input  -65.29 | X-H torsion
[ 10718 10713 10712 10709 ] final   48.32 input   66.30 | X-H torsion
[ 10763 10752 10751 10750 ] final   88.56 input  -60.55 | X-H torsion
[ 11005 11000 10999 10996 ] final  140.87 input  -57.11 | X-H torsion

> <Gold.Protein.ActiveResidues>
 VAL166  LYS551  ARG553  GLY616  TRP617  ASP618  TYR619  PRO620  LYS621  CYS622 
 ASP623  PHE694  ASN695  SER759  ASP760  ASP761  ALA762  ILE779  LEU786  VAL792 
 PHE793  MET794  SER795  GLU796  ALA797  LYS798  CYS799  TRP800  GLU811  SER814 

> <Gold.Protein.RotatedAtoms>
  150.8150  134.7327  159.6721 H   0  0  0  0  0  0  0  0  0  0  0  0  # atno 6907 bound_to 6896
  152.4269  134.5848  159.9967 H   0  0  0  0  0  0  0  0  0  0  0  0  # atno 6908 bound_to 6896
  151.6047  133.3315  159.3091 H   0  0  0  0  0  0  0  0  0  0  0  0  # atno 6909 bound_to 6896
  145.5278  139.2282  143.2636 H   0  0  0  0  0  0  0  0  0  0  0  0  # atno 7974 bound_to 7965
  155.6633  140.3497  155.4791 H   0  0  0  0  0  0  0  0  0  0  0  0  # atno 8008 bound_to 7997
  155.9750  140.1163  157.0801 H   0  0  0  0  0  0  0  0  0  0  0  0  # atno 8009 bound_to 7997
  154.4176  140.1149  156.5344 H   0  0  0  0  0  0  0  0  0  0  0  0  # atno 8010 bound_to 7997
  140.4192  143.2591  151.8913 H   0  0  0  0  0  0  0  0  0  0  0  0  # atno 10167 bound_to 10162
  157.4675  130.8234  149.7952 H   0  0  0  0  0  0  0  0  0  0  0  0  # atno 10718 bound_to 10713
  153.1781  135.4502  154.9992 H   0  0  0  0  0  0  0  0  0  0  0  0  # atno 10763 bound_to 10752
  154.8012  135.3256  154.7549 H   0  0  0  0  0  0  0  0  0  0  0  0  # atno 10764 bound_to 10752
  153.8016  135.6962  153.4909 H   0  0  0  0  0  0  0  0  0  0  0  0  # atno 10765 bound_to 10752
  140.0359  134.9329  157.0751 H   0  0  0  0  0  0  0  0  0  0  0  0  # atno 11005 bound_to 11000
  146.2064  140.6093  142.9079 LP  0  0  0  0  0  0  0  0  0  0  0  0  # atno 17320 bound_to 7965
  144.7642  140.5492  143.6714 LP  0  0  0  0  0  0  0  0  0  0  0  0  # atno 17321 bound_to 7965
  139.4782  144.5456  151.8464 LP  0  0  0  0  0  0  0  0  0  0  0  0  # atno 17342 bound_to 10162
  140.4553  144.1798  150.5901 LP  0  0  0  0  0  0  0  0  0  0  0  0  # atno 17343 bound_to 10162
  156.0057  130.3857  150.2439 LP  0  0  0  0  0  0  0  0  0  0  0  0  # atno 17370 bound_to 10713
  157.0620  131.0092  151.3219 LP  0  0  0  0  0  0  0  0  0  0  0  0  # atno 17371 bound_to 10713
  140.4149  134.1942  155.7163 LP  0  0  0  0  0  0  0  0  0  0  0  0  # atno 17394 bound_to 11000
  141.1857  133.8318  157.1095 LP  0  0  0  0  0  0  0  0  0  0  0  0  # atno 17395 bound_to 11000

$$$$
