AV-unprocessed.smi:109|AV-procd|sdf|1047|dock10
  -GOLD-   2262018 93D 1   1.00000     0.00000
 Structure written by MMmdl.
 58 61  0  0  0  0  0  0  0  0  1 V2000
  147.9502  142.6916  154.2533 O   0  0  0  0  0  0  0  0  0  0  0  0
  148.6942  141.8200  155.0772 C   0  0  0  0  0  0  0  0  0  0  0  0
  150.1218  142.3636  155.2583 C   0  0  0  0  0  0  0  0  0  0  0  0
  150.9245  141.6692  156.3857 C   0  0  2  0  0  0  0  0  0  0  0  0
  150.4499  140.2930  156.5442 N   0  0  0  0  0  0  0  0  0  0  0  0
  151.2349  139.2276  156.2677 C   0  0  0  0  0  0  0  0  0  0  0  0
  152.5787  139.2624  156.4647 N   0  0  0  0  0  0  0  0  0  0  0  0
  153.3255  138.1910  156.1808 C   0  0  0  0  0  0  0  0  0  0  0  0
  152.9381  137.0063  155.7017 N   0  0  0  0  0  0  0  0  0  0  0  0
  151.5892  136.9693  155.4993 C   0  0  0  0  0  0  0  0  0  0  0  0
  150.6761  138.0292  155.7549 C   0  0  0  0  0  0  0  0  0  0  0  0
  149.3863  137.6260  155.4353 N   0  0  0  0  0  0  0  0  0  0  0  0
  149.5338  136.3960  155.0215 C   0  0  0  0  0  0  0  0  0  0  0  0
  150.8284  135.9213  155.0284 N   0  0  0  0  0  0  0  0  0  0  0  0
  151.3441  134.5706  154.6320 C   0  0  2  0  0  0  0  0  0  0  0  0
  151.0402  134.3915  153.2814 O   0  0  0  0  0  0  0  0  0  0  0  0
  150.1267  133.3119  153.1039 C   0  0  2  0  0  0  0  0  0  0  0  0
  149.1252  133.6564  151.9891 C   0  0  0  0  0  0  0  0  0  0  0  0
  149.7879  133.7964  150.7510 O   0  0  0  0  0  0  0  0  0  0  0  0
  149.5043  133.0726  154.4846 C   0  0  1  0  0  0  0  0  0  0  0  0
  149.1578  131.7125  154.6528 O   0  0  0  0  0  0  0  0  0  0  0  0
  150.6446  133.4446  155.4175 C   0  0  2  0  0  0  0  0  0  0  0  0
  150.1523  133.8364  156.6868 O   0  0  0  0  0  0  0  0  0  0  0  0
  150.8382  142.4031  157.7551 C   0  0  0  0  0  0  0  0  0  0  0  0
  151.3846  143.8521  157.7063 C   0  0  0  0  0  0  0  0  0  0  0  0
  151.3271  144.5481  159.0761 C   0  0  0  0  0  0  0  0  0  0  0  0
  152.0744  143.7441  160.1468 C   0  0  0  0  0  0  0  0  0  0  0  0
  151.5249  142.3154  160.2282 C   0  0  0  0  0  0  0  0  0  0  0  0
  151.5902  141.6174  158.8611 C   0  0  0  0  0  0  0  0  0  0  0  0
  152.4210  134.6218  154.7952 H   0  0  0  0  0  0  0  0  0  0  0  0
  150.7306  132.4504  152.8126 H   0  0  0  0  0  0  0  0  0  0  0  0
  148.6392  133.7193  154.6403 H   0  0  0  0  0  0  0  0  0  0  0  0
  151.3511  132.6194  155.5196 H   0  0  0  0  0  0  0  0  0  0  0  0
  147.9849  143.5593  154.6259 H   0  0  0  0  0  0  0  0  0  0  0  0
  148.1809  141.7268  156.0343 H   0  0  0  0  0  0  0  0  0  0  0  0
  148.7152  140.8312  154.6185 H   0  0  0  0  0  0  0  0  0  0  0  0
  150.6304  142.2304  154.3050 H   0  0  0  0  0  0  0  0  0  0  0  0
  150.0868  143.4387  155.4411 H   0  0  0  0  0  0  0  0  0  0  0  0
  151.9752  141.6814  156.0964 H   0  0  0  0  0  0  0  0  0  0  0  0
  149.5627  140.1977  157.0172 H   0  0  0  0  0  0  0  0  0  0  0  0
  154.3841  138.2983  156.3656 H   0  0  0  0  0  0  0  0  0  0  0  0
  148.6930  135.8001  154.7012 H   0  0  0  0  0  0  0  0  0  0  0  0
  148.3482  132.8970  151.9038 H   0  0  0  0  0  0  0  0  0  0  0  0
  148.6286  134.6007  152.2134 H   0  0  0  0  0  0  0  0  0  0  0  0
  150.1022  132.9475  150.4798 H   0  0  0  0  0  0  0  0  0  0  0  0
  149.9476  131.2240  154.8290 H   0  0  0  0  0  0  0  0  0  0  0  0
  149.6314  134.6176  156.5776 H   0  0  0  0  0  0  0  0  0  0  0  0
  149.7862  142.4578  158.0409 H   0  0  0  0  0  0  0  0  0  0  0  0
  152.4131  143.8454  157.3430 H   0  0  0  0  0  0  0  0  0  0  0  0
  150.8119  144.4608  157.0086 H   0  0  0  0  0  0  0  0  0  0  0  0
  151.7521  145.5496  159.0012 H   0  0  0  0  0  0  0  0  0  0  0  0
  150.2862  144.6765  159.3760 H   0  0  0  0  0  0  0  0  0  0  0  0
  153.1389  143.7164  159.9106 H   0  0  0  0  0  0  0  0  0  0  0  0
  151.9834  144.2357  161.1158 H   0  0  0  0  0  0  0  0  0  0  0  0
  152.0893  141.7425  160.9646 H   0  0  0  0  0  0  0  0  0  0  0  0
  150.4924  142.3379  160.5792 H   0  0  0  0  0  0  0  0  0  0  0  0
  151.1783  140.6144  158.9731 H   0  0  0  0  0  0  0  0  0  0  0  0
  152.6336  141.4867  158.5711 H   0  0  0  0  0  0  0  0  0  0  0  0
  1  2  1  0  0  0  0
  1 34  1  0  0  0  0
  2  3  1  0  0  0  0
  2 35  1  0  0  0  0
  2 36  1  0  0  0  0
  3  4  1  0  0  0  0
  3 37  1  0  0  0  0
  3 38  1  0  0  0  0
  4  5  1  0  0  0  0
  4 24  1  0  0  0  0
  4 39  1  0  0  0  0
  5  6  1  0  0  0  0
  5 40  1  0  0  0  0
  6 11  1  0  0  0  0
  6  7  2  0  0  0  0
  7  8  1  0  0  0  0
  8  9  2  0  0  0  0
  8 41  1  0  0  0  0
  9 10  1  0  0  0  0
 10 14  1  0  0  0  0
 10 11  2  0  0  0  0
 11 12  1  0  0  0  0
 12 13  2  0  0  0  0
 13 14  1  0  0  0  0
 13 42  1  0  0  0  0
 14 15  1  0  0  0  0
 15 30  1  0  0  0  0
 15 22  1  0  0  0  0
 15 16  1  0  0  0  0
 16 17  1  0  0  0  0
 17 31  1  0  0  0  0
 17 18  1  0  0  0  0
 17 20  1  0  0  0  0
 18 19  1  0  0  0  0
 18 43  1  0  0  0  0
 18 44  1  0  0  0  0
 19 45  1  0  0  0  0
 20 32  1  0  0  0  0
 20 21  1  0  0  0  0
 20 22  1  0  0  0  0
 21 46  1  0  0  0  0
 22 33  1  0  0  0  0
 22 23  1  0  0  0  0
 23 47  1  0  0  0  0
 24 29  1  0  0  0  0
 24 25  1  0  0  0  0
 24 48  1  0  0  0  0
 25 26  1  0  0  0  0
 25 49  1  0  0  0  0
 25 50  1  0  0  0  0
 26 27  1  0  0  0  0
 26 51  1  0  0  0  0
 26 52  1  0  0  0  0
 27 28  1  0  0  0  0
 27 53  1  0  0  0  0
 27 54  1  0  0  0  0
 28 29  1  0  0  0  0
 28 55  1  0  0  0  0
 28 56  1  0  0  0  0
 29 57  1  0  0  0  0
 29 58  1  0  0  0  0
M  END
> <s_m_source_file>
AV-unprocessed.smi

> <i_m_source_file_index>
109

> <i_lp_mmshare_version>
43012

> <i_f3d_flags>
0

> <s_epik_input>
W0NIMl0xW0NIMl1bQ0gyXVtDSDJdW0NIMl1bQ0hdMVtDQEhdKFtDSDJdW0NIMl1bT0hdKVtOSF1jKG5bY0hdbjIpYyhjMjMpbltjSF1uM1tDQEBIXTRPW0NASF0oW0NIMl1bT0hdKVtDQEBIXShbT0hdKVtDQEhdNFtPSF0=

> <s_epik_cmdline>
J2VwaWtfcHl0aG9uJywgJy1waCcsICc3LjAnLCAnLXRuJywgJzgnLCAnLW1hJywgJzIwMCcsICctbWV0YWxfYmluZGluZycsICctaW1hZScsICc8aW5maWxlLm1hZT4nLCAnLW9tYWUnLCAnPG91dGZpbGUubWFlPic=

> <r_lp_tautomer_probability>
1

> <r_epik_Ionization_Penalty>
0.000793976

> <r_epik_Ionization_Penalty_Charging>
0

> <r_epik_Ionization_Penalty_Neutral>
0.000793976

> <r_epik_State_Penalty>
-0

> <r_epik_Charging_Adjusted_Penalty>
0

> <i_epik_Tot_Q>
0

> <i_epik_Tot_abs_Q>
0

> <r_epik_Metal_State_Penalty>
-0

> <b_epik_Metal_Only>
0

> <s_epik_Chemistry_Notes>
This compound contains an acetal/aminal-like group ( X-CH(R)-Y where X, Y are N, S, or O) that may be acid/base labile, releasing an aldehyde.

> <s_lp_Force_Field>
OPLS_2005

> <r_lp_Energy>
53.0649

> <b_lp_Chiralities_Consistent>
1

> <s_lp_Variant>
AV-unprocessed.smi:109-17

> <Gold.Version>
5.8.1

> <Gold.Id.Protein>
6NUR|6NUR_protein|mol2

> <Gold.PLP.Fitness>
51.3464

> <Gold.PLP.PLP>
-40.8303

> <Gold.PLP.part.hbond>
-4.0601

> <Gold.PLP.part.metal>
0.0000

> <Gold.PLP.part.buried>
0.0129

> <Gold.PLP.part.nonpolar>
-36.0707

> <Gold.PLP.part.repulsive>
0.2333

> <Gold.PLP.ligand.clash>
0.0000

> <Gold.PLP.ligand.torsion>
0.7392

> <Gold.PLP.Chemscore.Hbond>
3.9451

> <Gold.PLP.Chemscore.CHOScore>
0.0000

> <Gold.PLP.Chemscore.Metal>
0.0000

> <Gold.Chemscore.Hbonds>
donor molecule, donor type, donor heavy atom, donor atom, acceptor molecule, acceptor atom, score
      L1  H     1    34       P1  8028  0.98
      L1  H    19    45       P1 10747  0.07
      P1  H  7997  8009       L1     7  0.05
      P1  H 10752 10765       L1     9  0.53
      L1  C    13    42       P1  7948  0.06

> <Gold.PLP.Chemscore.Internal.Correction>
0.1591

> <Gold.Rescore>
     Score         DG    S(hbond)    S(metal)    S(lipo)     H(rot)  DE(clash)    DE(int)     intcor
     11.43     -14.53       3.19        0.00     105.79       5.47       2.39       0.71       ----

> <Gold.Chemscore.Fitness>
11.4261

> <Gold.Chemscore.DG>
-14.5260

> <Gold.Chemscore.ZeroCoef>
-5.4800

> <Gold.Chemscore.Hbond>
3.1923

> <Gold.Chemscore.Metal>
0.0000

> <Gold.Chemscore.Lipo>
105.7872

> <Gold.Chemscore.Internal_Hbond>
0.0000

> <Gold.Chemscore.DEClash>
2.3938

> <Gold.Chemscore.DEInternal>
0.7062

> <Gold.Chemscore.Rot>
5.4662

> <Gold.Chemscore.Internal.Correction>
   9.000000E+99

> <Gold.Chemscore.Hbonds>
donor molecule, donor type, donor heavy atom, donor atom, acceptor molecule, acceptor atom, score
      L1  H     1    34       P1  8028  0.69
      P1  H 10752 10765       L1     9  0.14

> <Gold.Chemscore.Hbond.Weighted>
-10.6624

> <Gold.Chemscore.Metal.Weighted>
-0.0000

> <Gold.Chemscore.Lipo.Weighted>
-12.3771

> <Gold.Chemscore.Internal_Hbond.Weighted>
0.0000

> <Gold.Chemscore.DEClash.Weighted>
2.3938

> <Gold.Chemscore.DEInternal.Weighted>
0.7062

> <Gold.Chemscore.Rot.Weighted>
13.9935

> <Gold.Chemscore.Internal.Correction.Weighted>
   9.000000E+99

> <Gold.Protein.RotatedTorsions>
[ 6907 6896 6895 6894 ] final   -9.89 input  -60.11 | X-H torsion
[ 7974 7965 7964 7962 ] final -163.97 input  175.53 | X-H torsion
[ 8008 7997 7996 7995 ] final -166.62 input   59.86 | X-H torsion
[ 10167 10162 10161 10158 ] final  -55.72 input  -65.29 | X-H torsion
[ 10718 10713 10712 10709 ] final   49.44 input   66.30 | X-H torsion
[ 10763 10752 10751 10750 ] final -135.53 input  -60.55 | X-H torsion
[ 11005 11000 10999 10996 ] final  141.68 input  -57.11 | X-H torsion

> <Gold.Protein.ActiveResidues>
 VAL166  LYS551  ARG553  GLY616  TRP617  ASP618  TYR619  PRO620  LYS621  CYS622 
 ASP623  PHE694  ASN695  SER759  ASP760  ASP761  ALA762  ILE779  LEU786  VAL792 
 PHE793  MET794  SER795  GLU796  ALA797  LYS798  CYS799  TRP800  GLU811  SER814 

> <Gold.Protein.RotatedAtoms>
  151.4105  135.0984  159.9583 H   0  0  0  0  0  0  0  0  0  0  0  0  # atno 6907 bound_to 6896
  152.5021  133.8802  159.7352 H   0  0  0  0  0  0  0  0  0  0  0  0  # atno 6908 bound_to 6896
  150.9295  133.6726  159.2842 H   0  0  0  0  0  0  0  0  0  0  0  0  # atno 6909 bound_to 6896
  144.7310  140.3029  143.6201 H   0  0  0  0  0  0  0  0  0  0  0  0  # atno 7974 bound_to 7965
  155.8663  140.0986  157.1580 H   0  0  0  0  0  0  0  0  0  0  0  0  # atno 8008 bound_to 7997
  154.3994  140.1355  156.4085 H   0  0  0  0  0  0  0  0  0  0  0  0  # atno 8009 bound_to 7997
  155.7800  140.3458  155.5295 H   0  0  0  0  0  0  0  0  0  0  0  0  # atno 8010 bound_to 7997
  140.6359  143.2482  151.5120 H   0  0  0  0  0  0  0  0  0  0  0  0  # atno 10167 bound_to 10162
  157.4786  130.8301  149.8068 H   0  0  0  0  0  0  0  0  0  0  0  0  # atno 10718 bound_to 10713
  154.8701  135.3700  154.4913 H   0  0  0  0  0  0  0  0  0  0  0  0  # atno 10763 bound_to 10752
  153.5560  135.7024  153.5574 H   0  0  0  0  0  0  0  0  0  0  0  0  # atno 10764 bound_to 10752
  153.3671  135.4031  155.1725 H   0  0  0  0  0  0  0  0  0  0  0  0  # atno 10765 bound_to 10752
  140.0419  134.9300  157.0859 H   0  0  0  0  0  0  0  0  0  0  0  0  # atno 11005 bound_to 11000
  145.7742  139.1868  143.2195 LP  0  0  0  0  0  0  0  0  0  0  0  0  # atno 17320 bound_to 7965
  146.0886  140.7682  142.9606 LP  0  0  0  0  0  0  0  0  0  0  0  0  # atno 17321 bound_to 7965
  139.5569  144.2253  152.1627 LP  0  0  0  0  0  0  0  0  0  0  0  0  # atno 17342 bound_to 10162
  140.1509  144.5115  150.6688 LP  0  0  0  0  0  0  0  0  0  0  0  0  # atno 17343 bound_to 10162
  156.0110  130.3833  150.2266 LP  0  0  0  0  0  0  0  0  0  0  0  0  # atno 17370 bound_to 10713
  157.0451  131.0046  151.3271 LP  0  0  0  0  0  0  0  0  0  0  0  0  # atno 17371 bound_to 10713
  140.4055  134.2037  155.7163 LP  0  0  0  0  0  0  0  0  0  0  0  0  # atno 17394 bound_to 11000
  141.1887  133.8253  157.0983 LP  0  0  0  0  0  0  0  0  0  0  0  0  # atno 17395 bound_to 11000

$$$$
