AV-unprocessed.smi:445|AV-procd|sdf|2589|dock3
  -GOLD-   2262022583D 1   1.00000     0.00000
 Structure written by MMmdl.
 44 45  0  0  0  0  0  0  0  0  3 V2000
  151.6675  144.9085  159.7279 C   0  0  0  0  0  0  0  0  0  0  0  0
  152.0308  143.6726  160.5710 C   0  0  2  0  0  0  0  0  0  0  0  0
  152.5437  144.0989  161.9617 C   0  0  0  0  0  0  0  0  0  0  0  0
  152.9068  142.8880  162.8340 C   0  0  0  0  0  0  0  0  0  0  0  0
  153.9401  141.9953  162.1341 C   0  0  0  0  0  0  0  0  0  0  0  0
  153.4371  141.5494  160.7537 C   0  0  0  0  0  0  0  0  0  0  0  0
  153.0614  142.7552  159.8662 C   0  0  1  0  0  0  0  0  0  0  0  0
  152.5315  142.2822  158.5891 N   0  0  0  0  0  0  0  0  0  0  0  0
  151.5389  141.3922  158.4400 C   0  0  0  0  0  0  0  0  0  0  0  0
  150.9395  140.8831  159.3880 O   0  0  0  0  0  0  0  0  0  0  0  0
  151.1575  141.0481  156.9933 C   0  0  0  0  0  0  0  0  0  0  0  0
  149.7480  141.3452  156.6799 N   0  0  0  0  0  0  0  0  0  0  0  0
  148.9756  141.8904  157.7208 C   0  0  0  0  0  0  0  0  0  0  0  0
  147.6763  142.1986  157.5643 C   0  0  0  0  0  0  0  0  0  0  0  0
  146.9008  142.7525  158.6536 N   0  3  0  0  0  0  0  0  0  0  0  0
  145.7303  143.0575  158.4486 O   0  0  0  0  0  0  0  0  0  0  0  0
  147.4341  142.9020  159.7490 O   0  5  0  0  0  0  0  0  0  0  0  0
  147.0743  141.9550  156.2697 C   0  0  0  0  0  0  0  0  0  0  0  0
  147.7989  141.4243  155.2516 C   0  0  0  0  0  0  0  0  0  0  0  0
  147.2248  141.1591  153.9131 C   0  0  0  0  0  0  0  0  0  0  0  0
  145.9073  141.3819  153.8242 N   0  0  0  0  0  0  0  0  0  0  0  0
  147.8275  140.7681  152.9135 O   0  0  0  0  0  0  0  0  0  0  0  0
  149.2348  141.0792  155.4378 C   0  0  0  0  0  0  0  0  0  0  0  0
  149.9593  140.5856  154.5691 O   0  0  0  0  0  0  0  0  0  0  0  0
  152.5498  145.5115  159.5110 H   0  0  0  0  0  0  0  0  0  0  0  0
  150.9526  145.5434  160.2518 H   0  0  0  0  0  0  0  0  0  0  0  0
  151.2135  144.6301  158.7767 H   0  0  0  0  0  0  0  0  0  0  0  0
  151.1144  143.0991  160.7209 H   0  0  0  0  0  0  0  0  0  0  0  0
  153.4198  144.7396  161.8503 H   0  0  0  0  0  0  0  0  0  0  0  0
  151.7878  144.6980  162.4704 H   0  0  0  0  0  0  0  0  0  0  0  0
  153.2971  143.2255  163.7946 H   0  0  0  0  0  0  0  0  0  0  0  0
  152.0081  142.3089  163.0507 H   0  0  0  0  0  0  0  0  0  0  0  0
  154.8796  142.5383  162.0239 H   0  0  0  0  0  0  0  0  0  0  0  0
  154.1568  141.1225  162.7508 H   0  0  0  0  0  0  0  0  0  0  0  0
  154.2049  140.9474  160.2662 H   0  0  0  0  0  0  0  0  0  0  0  0
  152.5701  140.8990  160.8791 H   0  0  0  0  0  0  0  0  0  0  0  0
  153.9624  143.3433  159.6804 H   0  0  0  0  0  0  0  0  0  0  0  0
  152.9631  142.6526  157.7548 H   0  0  0  0  0  0  0  0  0  0  0  0
  151.8240  141.5998  156.3288 H   0  0  0  0  0  0  0  0  0  0  0  0
  151.3761  139.9963  156.7982 H   0  0  0  0  0  0  0  0  0  0  0  0
  149.5094  142.0292  158.6499 H   0  0  0  0  0  0  0  0  0  0  0  0
  146.0330  142.2087  156.1410 H   0  0  0  0  0  0  0  0  0  0  0  0
  145.4250  141.2298  152.9504 H   0  0  0  0  0  0  0  0  0  0  0  0
  145.3997  141.7035  154.6359 H   0  0  0  0  0  0  0  0  0  0  0  0
  1  2  1  0  0  0  0
  1 25  1  0  0  0  0
  1 26  1  0  0  0  0
  1 27  1  0  0  0  0
  2  7  1  0  0  0  0
  2  3  1  0  0  0  0
  2 28  1  0  0  0  0
  3  4  1  0  0  0  0
  3 29  1  0  0  0  0
  3 30  1  0  0  0  0
  4  5  1  0  0  0  0
  4 31  1  0  0  0  0
  4 32  1  0  0  0  0
  5  6  1  0  0  0  0
  5 33  1  0  0  0  0
  5 34  1  0  0  0  0
  6  7  1  0  0  0  0
  6 35  1  0  0  0  0
  6 36  1  0  0  0  0
  7  8  1  0  0  0  0
  7 37  1  0  0  0  0
  8  9  1  0  0  0  0
  8 38  1  0  0  0  0
  9 10  2  0  0  0  0
  9 11  1  0  0  0  0
 11 12  1  0  0  0  0
 11 39  1  0  0  0  0
 11 40  1  0  0  0  0
 12 23  1  0  0  0  0
 12 13  1  0  0  0  0
 13 14  2  0  0  0  0
 13 41  1  0  0  0  0
 14 15  1  0  0  0  0
 14 18  1  0  0  0  0
 15 16  2  0  0  0  0
 15 17  1  0  0  0  0
 18 19  2  0  0  0  0
 18 42  1  0  0  0  0
 19 20  1  0  0  0  0
 19 23  1  0  0  0  0
 20 21  1  0  0  0  0
 20 22  2  0  0  0  0
 21 43  1  0  0  0  0
 21 44  1  0  0  0  0
 23 24  2  0  0  0  0
M  CHG  1  15   1
M  CHG  1  17  -1
M  END
> <s_m_source_file>
AV-unprocessed.smi

> <i_m_source_file_index>
445

> <i_lp_mmshare_version>
43012

> <i_f3d_flags>
0

> <s_epik_input>
W0NIM11bQ0BASF0xW0NIMl1bQ0gyXVtDSDJdW0NIMl1bQ0BIXTFbTkhdQyg9TylbQ0gyXW4yW2NIXWMoW04rXSg9TylbTy1dKVtjSF1jKGMyPU8pQyg9TylbTkgyXQ==

> <s_epik_cmdline>
J2VwaWtfcHl0aG9uJywgJy1waCcsICc3LjAnLCAnLXRuJywgJzgnLCAnLW1hJywgJzIwMCcsICctbWV0YWxfYmluZGluZycsICctaW1hZScsICc8aW5maWxlLm1hZT4nLCAnLW9tYWUnLCAnPG91dGZpbGUubWFlPic=

> <r_lp_tautomer_probability>
1

> <r_epik_Ionization_Penalty>
2.81321e-06

> <r_epik_Ionization_Penalty_Charging>
2.43777e-12

> <r_epik_Ionization_Penalty_Neutral>
2.81321e-06

> <r_epik_State_Penalty>
-0

> <r_epik_Charging_Adjusted_Penalty>
2.43777e-12

> <i_epik_Tot_Q>
0

> <i_epik_Tot_abs_Q>
2

> <r_epik_Metal_State_Penalty>
-0

> <b_epik_Metal_Only>
0

> <s_lp_Force_Field>
OPLS_2005

> <r_lp_Energy>
28.5082

> <b_lp_Chiralities_Consistent>
1

> <s_lp_Variant>
AV-unprocessed.smi:445-1

> <Gold.Version>
5.8.1

> <Gold.Id.Protein>
6NUR|6NUR_protein|mol2

> <Gold.PLP.Fitness>
47.9441

> <Gold.PLP.PLP>
-41.8294

> <Gold.PLP.part.hbond>
-4.9921

> <Gold.PLP.part.metal>
0.0000

> <Gold.PLP.part.buried>
-4.2714

> <Gold.PLP.part.nonpolar>
-35.9961

> <Gold.PLP.part.repulsive>
3.7613

> <Gold.PLP.ligand.clash>
1.4990

> <Gold.PLP.ligand.torsion>
0.1022

> <Gold.PLP.Chemscore.Hbond>
2.5934

> <Gold.PLP.Chemscore.CHOScore>
0.0000

> <Gold.PLP.Chemscore.Metal>
0.0000

> <Gold.Chemscore.Hbonds>
donor molecule, donor type, donor heavy atom, donor atom, acceptor molecule, acceptor atom, score
      L1  H    21    43       P1 10175  0.52
      P1  H  6933  6944       L1    17  0.73
      P1  H  6934  6946       L1    17  0.21
      P1  H  7989  7998       L1    24  0.83

> <Gold.PLP.Chemscore.Internal.Correction>
0.0377

> <Gold.Rescore>
     Score         DG    S(hbond)    S(metal)    S(lipo)     H(rot)  DE(clash)    DE(int)     intcor
     12.53     -20.61       2.33        0.00     100.24       1.71       3.75       4.32       ----

> <Gold.Chemscore.Fitness>
12.5289

> <Gold.Chemscore.DG>
-20.6075

> <Gold.Chemscore.ZeroCoef>
-5.4800

> <Gold.Chemscore.Hbond>
2.3303

> <Gold.Chemscore.Metal>
0.0000

> <Gold.Chemscore.Lipo>
100.2380

> <Gold.Chemscore.Internal_Hbond>
0.0000

> <Gold.Chemscore.DEClash>
3.7537

> <Gold.Chemscore.DEInternal>
4.3249

> <Gold.Chemscore.Rot>
1.7123

> <Gold.Chemscore.Internal.Correction>
   9.000000E+99

> <Gold.Chemscore.Hbonds>
donor molecule, donor type, donor heavy atom, donor atom, acceptor molecule, acceptor atom, score
      L1  H    21    43       P1 10175  0.07
      P1  H  6933  6944       L1    17  0.69
      P1  H  6934  6946       L1    17  0.05
      P1  H  7989  7998       L1    24  0.79

> <Gold.Chemscore.Hbond.Weighted>
-7.7832

> <Gold.Chemscore.Metal.Weighted>
-0.0000

> <Gold.Chemscore.Lipo.Weighted>
-11.7278

> <Gold.Chemscore.Internal_Hbond.Weighted>
0.0000

> <Gold.Chemscore.DEClash.Weighted>
3.7537

> <Gold.Chemscore.DEInternal.Weighted>
4.3249

> <Gold.Chemscore.Rot.Weighted>
4.3835

> <Gold.Chemscore.Internal.Correction.Weighted>
   9.000000E+99

> <Gold.Protein.RotatedTorsions>
[ 6907 6896 6895 6894 ] final  148.75 input  -60.11 | X-H torsion
[ 7974 7965 7964 7962 ] final  -98.97 input  175.53 | X-H torsion
[ 8008 7997 7996 7995 ] final -140.65 input   59.86 | X-H torsion
[ 10167 10162 10161 10158 ] final   57.01 input  -65.29 | X-H torsion
[ 10718 10713 10712 10709 ] final -165.14 input   66.30 | X-H torsion
[ 10763 10752 10751 10750 ] final -172.35 input  -60.55 | X-H torsion
[ 11005 11000 10999 10996 ] final   12.15 input  -57.11 | X-H torsion

> <Gold.Protein.ActiveResidues>
 VAL166  LYS551  ARG553  GLY616  TRP617  ASP618  TYR619  PRO620  LYS621  CYS622 
 ASP623  PHE694  ASN695  SER759  ASP760  ASP761  ALA762  ILE779  LEU786  VAL792 
 PHE793  MET794  SER795  GLU796  ALA797  LYS798  CYS799  TRP800  GLU811  SER814 

> <Gold.Protein.RotatedAtoms>
  152.1373  133.4442  159.4749 H   0  0  0  0  0  0  0  0  0  0  0  0  # atno 6907 bound_to 6896
  150.6883  134.2349  159.4458 H   0  0  0  0  0  0  0  0  0  0  0  0  # atno 6908 bound_to 6896
  152.0237  134.9808  160.0622 H   0  0  0  0  0  0  0  0  0  0  0  0  # atno 6909 bound_to 6896
  145.3137  140.9406  143.2755 H   0  0  0  0  0  0  0  0  0  0  0  0  # atno 7974 bound_to 7965
  155.4649  140.0548  157.2986 H   0  0  0  0  0  0  0  0  0  0  0  0  # atno 8008 bound_to 7997
  154.4722  140.2045  155.9921 H   0  0  0  0  0  0  0  0  0  0  0  0  # atno 8009 bound_to 7997
  156.1074  140.3209  155.8030 H   0  0  0  0  0  0  0  0  0  0  0  0  # atno 8010 bound_to 7997
  140.2026  144.3972  150.6522 H   0  0  0  0  0  0  0  0  0  0  0  0  # atno 10167 bound_to 10162
  156.6492  130.9000  151.3010 H   0  0  0  0  0  0  0  0  0  0  0  0  # atno 10718 bound_to 10713
  154.6203  135.2874  155.0334 H   0  0  0  0  0  0  0  0  0  0  0  0  # atno 10763 bound_to 10752
  154.1531  135.6500  153.4972 H   0  0  0  0  0  0  0  0  0  0  0  0  # atno 10764 bound_to 10752
  153.0233  135.5360  154.6990 H   0  0  0  0  0  0  0  0  0  0  0  0  # atno 10765 bound_to 10752
  140.4952  134.0801  155.7780 H   0  0  0  0  0  0  0  0  0  0  0  0  # atno 11005 bound_to 11000
  144.8995  139.4668  143.6639 LP  0  0  0  0  0  0  0  0  0  0  0  0  # atno 17320 bound_to 7965
  146.3108  139.7741  142.9021 LP  0  0  0  0  0  0  0  0  0  0  0  0  # atno 17321 bound_to 7965
  140.6380  143.2198  151.6353 LP  0  0  0  0  0  0  0  0  0  0  0  0  # atno 17342 bound_to 10162
  139.5211  144.3203  152.0916 LP  0  0  0  0  0  0  0  0  0  0  0  0  # atno 17343 bound_to 10162
  157.7146  130.9482  150.1210 LP  0  0  0  0  0  0  0  0  0  0  0  0  # atno 17370 bound_to 10713
  156.2098  130.3666  149.8685 LP  0  0  0  0  0  0  0  0  0  0  0  0  # atno 17371 bound_to 10713
  141.1464  133.9048  157.2205 LP  0  0  0  0  0  0  0  0  0  0  0  0  # atno 17394 bound_to 11000
  139.9746  135.0118  156.9598 LP  0  0  0  0  0  0  0  0  0  0  0  0  # atno 17395 bound_to 11000

$$$$
