AV-unprocessed.smi:99|AV-procd|sdf|883|dock2
  -GOLD-   2262017363D 1   1.00000     0.00000
 Structure written by MMmdl.
 52 55  0  0  0  0  0  0  0  0  2 V2000
  148.0371  133.0270  153.7266 O   0  0  0  0  0  0  0  0  0  0  0  0
  147.2220  133.9304  153.5276 C   0  0  0  0  0  0  0  0  0  0  0  0
  147.0537  134.9859  154.3542 O   0  0  0  0  0  0  0  0  0  0  0  0
  148.0565  135.3626  155.2923 C   0  0  0  0  0  0  0  0  0  0  0  0
  147.7689  136.7468  155.8994 C   0  0  2  0  0  0  0  0  0  0  0  0
  148.3449  137.7730  155.0946 O   0  0  0  0  0  0  0  0  0  0  0  0
  148.9228  138.7714  155.8889 C   0  0  2  0  0  0  0  0  0  0  0  0
  150.4267  138.7386  155.6460 N   0  0  0  0  0  0  0  0  0  0  0  0
  151.0148  137.9700  154.6497 C   0  0  0  0  0  0  0  0  0  0  0  0
  152.3400  138.0198  154.4050 C   0  0  0  0  0  0  0  0  0  0  0  0
  153.1816  138.9141  155.1909 C   0  0  0  0  0  0  0  0  0  0  0  0
  154.3899  138.9467  154.9658 O   0  0  0  0  0  0  0  0  0  0  0  0
  152.5826  139.6839  156.1427 N   0  5  0  0  0  0  0  0  0  0  0  0
  151.2404  139.6415  156.3879 C   0  0  0  0  0  0  0  0  0  0  0  0
  150.6948  140.3553  157.2300 O   0  0  0  0  0  0  0  0  0  0  0  0
  148.4986  138.4978  157.3433 C   0  0  1  0  0  0  0  0  0  0  0  0
  147.2932  139.1825  157.6304 O   0  0  0  0  0  0  0  0  0  0  0  0
  148.3081  136.9868  157.3074 C   0  0  1  0  0  0  0  0  0  0  0  0
  147.4755  136.4837  158.3448 O   0  0  0  0  0  0  0  0  0  0  0  0
  147.7387  136.7753  159.6367 C   0  0  0  0  0  0  0  0  0  0  0  0
  148.4401  137.7239  159.9949 O   0  0  0  0  0  0  0  0  0  0  0  0
  147.0952  135.8249  160.5885 C   0  0  0  0  0  0  0  0  0  0  0  0
  146.8233  136.2465  161.9113 C   0  0  0  0  0  0  0  0  0  0  0  0
  146.2226  135.3691  162.8348 C   0  0  0  0  0  0  0  0  0  0  0  0
  145.8859  134.0594  162.4468 C   0  0  0  0  0  0  0  0  0  0  0  0
  146.1499  133.6281  161.1338 C   0  0  0  0  0  0  0  0  0  0  0  0
  146.7509  134.5041  160.2088 C   0  0  0  0  0  0  0  0  0  0  0  0
  146.3387  133.9896  152.3284 C   0  0  0  0  0  0  0  0  0  0  0  0
  145.7242  135.2149  151.9811 C   0  0  0  0  0  0  0  0  0  0  0  0
  144.8698  135.2974  150.8644 C   0  0  0  0  0  0  0  0  0  0  0  0
  144.6201  134.1554  150.0812 C   0  0  0  0  0  0  0  0  0  0  0  0
  145.2284  132.9314  150.4145 C   0  0  0  0  0  0  0  0  0  0  0  0
  146.0833  132.8469  151.5306 C   0  0  0  0  0  0  0  0  0  0  0  0
  148.0625  134.6182  156.0887 H   0  0  0  0  0  0  0  0  0  0  0  0
  149.0531  135.3412  154.8493 H   0  0  0  0  0  0  0  0  0  0  0  0
  146.6915  136.9180  155.9027 H   0  0  0  0  0  0  0  0  0  0  0  0
  148.6139  139.7669  155.5644 H   0  0  0  0  0  0  0  0  0  0  0  0
  150.4320  137.3057  154.0342 H   0  0  0  0  0  0  0  0  0  0  0  0
  152.7739  137.4143  153.6230 H   0  0  0  0  0  0  0  0  0  0  0  0
  149.2433  138.8355  158.0632 H   0  0  0  0  0  0  0  0  0  0  0  0
  147.4514  139.7773  158.3475 H   0  0  0  0  0  0  0  0  0  0  0  0
  149.2858  136.5170  157.3761 H   0  0  0  0  0  0  0  0  0  0  0  0
  147.0743  137.2470  162.2331 H   0  0  0  0  0  0  0  0  0  0  0  0
  146.0210  135.7019  163.8424 H   0  0  0  0  0  0  0  0  0  0  0  0
  145.4260  133.3866  163.1556 H   0  0  0  0  0  0  0  0  0  0  0  0
  145.8921  132.6226  160.8349 H   0  0  0  0  0  0  0  0  0  0  0  0
  146.9410  134.1405  159.2094 H   0  0  0  0  0  0  0  0  0  0  0  0
  145.8955  136.1035  152.5715 H   0  0  0  0  0  0  0  0  0  0  0  0
  144.4032  136.2379  150.6111 H   0  0  0  0  0  0  0  0  0  0  0  0
  143.9613  134.2170  149.2276 H   0  0  0  0  0  0  0  0  0  0  0  0
  145.0331  132.0521  149.8186 H   0  0  0  0  0  0  0  0  0  0  0  0
  146.5246  131.8890  151.7640 H   0  0  0  0  0  0  0  0  0  0  0  0
  1  2  2  0  0  0  0
  2  3  1  0  0  0  0
  2 28  1  0  0  0  0
  3  4  1  0  0  0  0
  4  5  1  0  0  0  0
  4 34  1  0  0  0  0
  4 35  1  0  0  0  0
  5 18  1  0  0  0  0
  5  6  1  0  0  0  0
  5 36  1  0  0  0  0
  6  7  1  0  0  0  0
  7  8  1  0  0  0  0
  7 16  1  0  0  0  0
  7 37  1  0  0  0  0
  8 14  1  0  0  0  0
  8  9  1  0  0  0  0
  9 10  2  0  0  0  0
  9 38  1  0  0  0  0
 10 11  1  0  0  0  0
 10 39  1  0  0  0  0
 11 12  2  0  0  0  0
 11 13  1  0  0  0  0
 13 14  1  0  0  0  0
 14 15  2  0  0  0  0
 16 17  1  0  0  0  0
 16 18  1  0  0  0  0
 16 40  1  0  0  0  0
 17 41  1  0  0  0  0
 18 19  1  0  0  0  0
 18 42  1  0  0  0  0
 19 20  1  0  0  0  0
 20 21  2  0  0  0  0
 20 22  1  0  0  0  0
 22 27  1  0  0  0  0
 22 23  2  0  0  0  0
 23 24  1  0  0  0  0
 23 43  1  0  0  0  0
 24 25  2  0  0  0  0
 24 44  1  0  0  0  0
 25 26  1  0  0  0  0
 25 45  1  0  0  0  0
 26 27  2  0  0  0  0
 26 46  1  0  0  0  0
 27 47  1  0  0  0  0
 28 33  1  0  0  0  0
 28 29  2  0  0  0  0
 29 30  1  0  0  0  0
 29 48  1  0  0  0  0
 30 31  2  0  0  0  0
 30 49  1  0  0  0  0
 31 32  1  0  0  0  0
 31 50  1  0  0  0  0
 32 33  2  0  0  0  0
 32 51  1  0  0  0  0
 33 52  1  0  0  0  0
M  CHG  1  13  -1
M  END
> <s_m_source_file>
AV-unprocessed.smi

> <i_m_source_file_index>
99

> <i_lp_mmshare_version>
43012

> <i_f3d_flags>
0

> <s_epik_input>
W2NIXTFbY0hdW2NIXVtjSF1bY0hdYzFDKD1PKU9bQ0gyXVtDQEBIXTJPW0NAQEhdKG4zW2NIXVtjSF1jKD1PKVtuSF1jMz1PKVtDQEBIXShbT0hdKVtDQEhdMk9DKD1PKWM0W2NIXVtjSF1bY0hdW2NIXVtjSF00

> <s_epik_cmdline>
J2VwaWtfcHl0aG9uJywgJy1waCcsICc3LjAnLCAnLXRuJywgJzgnLCAnLW1hJywgJzIwMCcsICctbWV0YWxfYmluZGluZycsICctaW1hZScsICc8aW5maWxlLm1hZT4nLCAnLW9tYWUnLCAnPG91dGZpbGUubWFlPic=

> <r_lp_tautomer_probability>
1

> <r_epik_Ionization_Penalty>
2.89159

> <r_epik_Ionization_Penalty_Charging>
2.1077e-08

> <r_epik_Ionization_Penalty_Neutral>
2.89159

> <r_epik_State_Penalty>
2.88671

> <r_epik_Charging_Adjusted_Penalty>
2.88671

> <i_epik_Tot_Q>
-1

> <i_epik_Tot_abs_Q>
1

> <r_epik_Metal_State_Penalty>
0.0727308

> <b_epik_Metal_Only>
1

> <s_epik_Chemistry_Notes>
This compound has an ester and may undergo hydrolysis at high or low pH. This compound contains an acetal/aminal-like group ( X-CH(R)-Y where X, Y are N, S, or O) that may be acid/base labile, releasing an aldehyde.

> <s_lp_Force_Field>
OPLS_2005

> <r_lp_Energy>
45.2738

> <b_lp_Chiralities_Consistent>
1

> <s_lp_Variant>
AV-unprocessed.smi:99-19

> <Gold.Version>
5.8.1

> <Gold.Id.Protein>
6NUR|6NUR_protein|mol2

> <Gold.PLP.Fitness>
55.7399

> <Gold.PLP.PLP>
-48.7654

> <Gold.PLP.part.hbond>
-3.5684

> <Gold.PLP.part.metal>
0.0000

> <Gold.PLP.part.buried>
-4.4567

> <Gold.PLP.part.nonpolar>
-41.7743

> <Gold.PLP.part.repulsive>
0.3365

> <Gold.PLP.ligand.clash>
0.0000

> <Gold.PLP.ligand.torsion>
1.4373

> <Gold.PLP.Chemscore.Hbond>
2.2392

> <Gold.PLP.Chemscore.CHOScore>
0.9649

> <Gold.PLP.Chemscore.Metal>
0.0000

> <Gold.Chemscore.Hbonds>
donor molecule, donor type, donor heavy atom, donor atom, acceptor molecule, acceptor atom, score
      P1  H  6931  6943       L1    21  0.32
      P1  H  6934  6947       L1    21  0.37
      P1  H  7997  8008       L1    12  0.04
      L1  C     9    38       P1  7948  0.32

> <Gold.PLP.Chemscore.Internal.Correction>
0.2366

> <Gold.Rescore>
     Score         DG    S(hbond)    S(metal)    S(lipo)     H(rot)  DE(clash)    DE(int)     intcor
      7.02     -12.77       1.04        0.00     101.21       3.13       1.69       4.06       ----

> <Gold.Chemscore.Fitness>
7.0179

> <Gold.Chemscore.DG>
-12.7667

> <Gold.Chemscore.ZeroCoef>
-5.4800

> <Gold.Chemscore.Hbond>
1.0387

> <Gold.Chemscore.Metal>
0.0000

> <Gold.Chemscore.Lipo>
101.2127

> <Gold.Chemscore.Internal_Hbond>
0.0000

> <Gold.Chemscore.DEClash>
1.6924

> <Gold.Chemscore.DEInternal>
4.0565

> <Gold.Chemscore.Rot>
3.1346

> <Gold.Chemscore.Internal.Correction>
   9.000000E+99

> <Gold.Chemscore.Hbonds>
donor molecule, donor type, donor heavy atom, donor atom, acceptor molecule, acceptor atom, score
      P1  H  6931  6943       L1    21  0.31
      P1  H  6934  6947       L1    21  0.22

> <Gold.Chemscore.Hbond.Weighted>
-3.4694

> <Gold.Chemscore.Metal.Weighted>
-0.0000

> <Gold.Chemscore.Lipo.Weighted>
-11.8419

> <Gold.Chemscore.Internal_Hbond.Weighted>
0.0000

> <Gold.Chemscore.DEClash.Weighted>
1.6924

> <Gold.Chemscore.DEInternal.Weighted>
4.0565

> <Gold.Chemscore.Rot.Weighted>
8.0246

> <Gold.Chemscore.Internal.Correction.Weighted>
   9.000000E+99

> <Gold.Protein.RotatedTorsions>
[ 6907 6896 6895 6894 ] final -130.08 input  -60.11 | X-H torsion
[ 7974 7965 7964 7962 ] final  165.81 input  175.53 | X-H torsion
[ 8008 7997 7996 7995 ] final  -39.46 input   59.86 | X-H torsion
[ 10167 10162 10161 10158 ] final -172.61 input  -65.29 | X-H torsion
[ 10718 10713 10712 10709 ] final  -41.05 input   66.30 | X-H torsion
[ 10763 10752 10751 10750 ] final  -70.99 input  -60.55 | X-H torsion
[ 11005 11000 10999 10996 ] final   13.09 input  -57.11 | X-H torsion

> <Gold.Protein.ActiveResidues>
 VAL166  LYS551  ARG553  GLY616  TRP617  ASP618  TYR619  PRO620  LYS621  CYS622 
 ASP623  PHE694  ASN695  SER759  ASP760  ASP761  ALA762  ILE779  LEU786  VAL792 
 PHE793  MET794  SER795  GLU796  ALA797  LYS798  CYS799  TRP800  GLU811  SER814 

> <Gold.Protein.RotatedAtoms>
  150.9358  133.6714  159.2800 H   0  0  0  0  0  0  0  0  0  0  0  0  # atno 6907 bound_to 6896
  151.4120  135.0985  159.9597 H   0  0  0  0  0  0  0  0  0  0  0  0  # atno 6908 bound_to 6896
  152.5047  133.8829  159.7410 H   0  0  0  0  0  0  0  0  0  0  0  0  # atno 6909 bound_to 6896
  144.7487  139.8525  143.6373 H   0  0  0  0  0  0  0  0  0  0  0  0  # atno 7974 bound_to 7965
  154.4023  140.1551  156.2867 H   0  0  0  0  0  0  0  0  0  0  0  0  # atno 8008 bound_to 7997
  155.8822  140.3443  155.5874 H   0  0  0  0  0  0  0  0  0  0  0  0  # atno 8009 bound_to 7997
  155.7654  140.0823  157.2125 H   0  0  0  0  0  0  0  0  0  0  0  0  # atno 8010 bound_to 7997
  139.5734  144.1587  152.1417 H   0  0  0  0  0  0  0  0  0  0  0  0  # atno 10167 bound_to 10162
  156.2746  130.4210  149.8401 H   0  0  0  0  0  0  0  0  0  0  0  0  # atno 10718 bound_to 10713
  154.4254  135.5976  153.6035 H   0  0  0  0  0  0  0  0  0  0  0  0  # atno 10763 bound_to 10752
  152.9796  135.5962  154.3904 H   0  0  0  0  0  0  0  0  0  0  0  0  # atno 10764 bound_to 10752
  154.3735  135.2841  155.2231 H   0  0  0  0  0  0  0  0  0  0  0  0  # atno 10765 bound_to 10752
  140.4846  134.0901  155.7758 H   0  0  0  0  0  0  0  0  0  0  0  0  # atno 11005 bound_to 11000
  146.1406  139.4462  143.0111 LP  0  0  0  0  0  0  0  0  0  0  0  0  # atno 17320 bound_to 7965
  145.7024  141.0132  143.1497 LP  0  0  0  0  0  0  0  0  0  0  0  0  # atno 17321 bound_to 7965
  140.1125  144.5444  150.6915 LP  0  0  0  0  0  0  0  0  0  0  0  0  # atno 17342 bound_to 10162
  140.7018  143.2440  151.4842 LP  0  0  0  0  0  0  0  0  0  0  0  0  # atno 17343 bound_to 10162
  156.5870  130.8490  151.3398 LP  0  0  0  0  0  0  0  0  0  0  0  0  # atno 17370 bound_to 10713
  157.7295  130.9672  150.1790 LP  0  0  0  0  0  0  0  0  0  0  0  0  # atno 17371 bound_to 10713
  141.1514  133.8962  157.2088 LP  0  0  0  0  0  0  0  0  0  0  0  0  # atno 17394 bound_to 11000
  139.9805  135.0099  156.9739 LP  0  0  0  0  0  0  0  0  0  0  0  0  # atno 17395 bound_to 11000

$$$$
