AV-unprocessed.smi:3017|AV-procd|sdf|11478|dock10
  -GOLD-   2272016413D 1   1.00000     0.00000
 Structure written by MMmdl.
 37 38  0  0  0  0  0  0  0  0  1 V2000
  146.6764  142.5498  154.3192 C   0  0  0  0  0  0  0  0  0  0  0  0
  147.4700  141.3125  154.7618 C   0  0  1  0  0  0  0  0  0  0  0  0
  146.6039  140.0390  154.7139 C   0  0  0  0  0  0  0  0  0  0  0  0
  147.3991  138.7999  155.1540 C   0  0  0  0  0  0  0  0  0  0  0  0
  148.6761  138.6272  154.3150 C   0  0  0  0  0  0  0  0  0  0  0  0
  149.5566  139.8888  154.3473 C   0  0  2  0  0  0  0  0  0  0  0  0
  150.0512  140.0364  155.6728 O   0  0  0  0  0  0  0  0  0  0  0  0
  150.9026  141.1587  155.8704 C   0  0  0  0  0  0  0  0  0  0  0  0
  151.7545  140.9498  157.1249 C   0  0  0  0  0  0  0  0  0  0  0  0
  152.5385  140.0018  157.1610 O   0  0  0  0  0  0  0  0  0  0  0  0
  151.5753  141.8282  158.1300 N   0  0  0  0  0  0  0  0  0  0  0  0
  152.2425  141.8805  159.3813 C   0  0  0  0  0  0  0  0  0  0  0  0
  151.9506  143.0075  160.1854 C   0  0  0  0  0  0  0  0  0  0  0  0
  152.5111  143.2017  161.4001 N   0  0  0  0  0  0  0  0  0  0  0  0
  153.3785  142.2574  161.8225 C   0  0  0  0  0  0  0  0  0  0  0  0
  153.6809  141.1283  161.0355 C   0  0  0  0  0  0  0  0  0  0  0  0
  153.1165  140.9399  159.8228 N   0  0  0  0  0  0  0  0  0  0  0  0
  148.7448  141.1285  153.9138 C   0  0  0  0  0  0  0  0  0  0  0  0
  146.3374  142.4562  153.2870 H   0  0  0  0  0  0  0  0  0  0  0  0
  147.2859  143.4513  154.3889 H   0  0  0  0  0  0  0  0  0  0  0  0
  145.7974  142.6980  154.9471 H   0  0  0  0  0  0  0  0  0  0  0  0
  147.7734  141.4742  155.7974 H   0  0  0  0  0  0  0  0  0  0  0  0
  145.7289  140.1574  155.3541 H   0  0  0  0  0  0  0  0  0  0  0  0
  146.2269  139.8869  153.7016 H   0  0  0  0  0  0  0  0  0  0  0  0
  147.6613  138.8899  156.2091 H   0  0  0  0  0  0  0  0  0  0  0  0
  146.7764  137.9094  155.0674 H   0  0  0  0  0  0  0  0  0  0  0  0
  149.2432  137.7668  154.6713 H   0  0  0  0  0  0  0  0  0  0  0  0
  148.4007  138.4066  153.2828 H   0  0  0  0  0  0  0  0  0  0  0  0
  150.3930  139.7381  153.6625 H   0  0  0  0  0  0  0  0  0  0  0  0
  151.5620  141.2895  155.0115 H   0  0  0  0  0  0  0  0  0  0  0  0
  150.3232  142.0743  155.9890 H   0  0  0  0  0  0  0  0  0  0  0  0
  150.8910  142.5532  157.9679 H   0  0  0  0  0  0  0  0  0  0  0  0
  151.2589  143.7667  159.8502 H   0  0  0  0  0  0  0  0  0  0  0  0
  153.8333  142.4026  162.7912 H   0  0  0  0  0  0  0  0  0  0  0  0
  154.3761  140.3765  161.3786 H   0  0  0  0  0  0  0  0  0  0  0  0
  148.4649  141.0173  152.8653 H   0  0  0  0  0  0  0  0  0  0  0  0
  149.3591  142.0271  153.9616 H   0  0  0  0  0  0  0  0  0  0  0  0
  1  2  1  0  0  0  0
  1 19  1  0  0  0  0
  1 20  1  0  0  0  0
  1 21  1  0  0  0  0
  2 18  1  0  0  0  0
  2  3  1  0  0  0  0
  2 22  1  0  0  0  0
  3  4  1  0  0  0  0
  3 23  1  0  0  0  0
  3 24  1  0  0  0  0
  4  5  1  0  0  0  0
  4 25  1  0  0  0  0
  4 26  1  0  0  0  0
  5  6  1  0  0  0  0
  5 27  1  0  0  0  0
  5 28  1  0  0  0  0
  6  7  1  0  0  0  0
  6 18  1  0  0  0  0
  6 29  1  0  0  0  0
  7  8  1  0  0  0  0
  8  9  1  0  0  0  0
  8 30  1  0  0  0  0
  8 31  1  0  0  0  0
  9 10  2  0  0  0  0
  9 11  1  0  0  0  0
 11 12  1  0  0  0  0
 11 32  1  0  0  0  0
 12 17  1  0  0  0  0
 12 13  2  0  0  0  0
 13 14  1  0  0  0  0
 13 33  1  0  0  0  0
 14 15  2  0  0  0  0
 15 16  1  0  0  0  0
 15 34  1  0  0  0  0
 16 17  2  0  0  0  0
 16 35  1  0  0  0  0
 18 36  1  0  0  0  0
 18 37  1  0  0  0  0
M  END
> <s_m_source_file>
AV-unprocessed.smi

> <i_m_source_file_index>
3017

> <i_lp_mmshare_version>
43012

> <i_f3d_flags>
0

> <s_epik_input>
W0NIM11bQ0BASF0xW0NIMl1bQ0gyXVtDSDJdW0NASF0oW0NIMl0xKU9bQ0gyXUMoPU8pW05IXWMyW2NIXW5bY0hdW2NIXW4y

> <s_epik_cmdline>
J2VwaWtfcHl0aG9uJywgJy1waCcsICc3LjAnLCAnLXRuJywgJzgnLCAnLW1hJywgJzIwMCcsICctbWV0YWxfYmluZGluZycsICctaW1hZScsICc8aW5maWxlLm1hZT4nLCAnLW9tYWUnLCAnPG91dGZpbGUubWFlPic=

> <r_lp_tautomer_probability>
1

> <r_epik_Ionization_Penalty>
2.89243e-06

> <r_epik_Ionization_Penalty_Charging>
0

> <r_epik_Ionization_Penalty_Neutral>
2.89243e-06

> <r_epik_State_Penalty>
-0

> <r_epik_Charging_Adjusted_Penalty>
0

> <i_epik_Tot_Q>
0

> <i_epik_Tot_abs_Q>
0

> <r_epik_Metal_State_Penalty>
-0

> <b_epik_Metal_Only>
0

> <s_lp_Force_Field>
OPLS_2005

> <r_lp_Energy>
20.5114

> <b_lp_Chiralities_Consistent>
1

> <s_lp_Variant>
AV-unprocessed.smi:3017-4

> <Gold.Version>
5.8.1

> <Gold.Id.Protein>
6NUR|6NUR_protein|mol2

> <Gold.PLP.Fitness>
36.1967

> <Gold.PLP.PLP>
-33.4126

> <Gold.PLP.part.hbond>
-1.0000

> <Gold.PLP.part.metal>
0.0000

> <Gold.PLP.part.buried>
-3.5839

> <Gold.PLP.part.nonpolar>
-28.1101

> <Gold.PLP.part.repulsive>
0.1910

> <Gold.PLP.ligand.clash>
0.0000

> <Gold.PLP.ligand.torsion>
0.1121

> <Gold.PLP.Chemscore.Hbond>
1.0000

> <Gold.PLP.Chemscore.CHOScore>
0.0000

> <Gold.PLP.Chemscore.Metal>
0.0000

> <Gold.Chemscore.Hbonds>
donor molecule, donor type, donor heavy atom, donor atom, acceptor molecule, acceptor atom, score
      P1  H  7997  8010       L1    10  1.00

> <Gold.PLP.Chemscore.Internal.Correction>
0.0083

> <Gold.Rescore>
     Score         DG    S(hbond)    S(metal)    S(lipo)     H(rot)  DE(clash)    DE(int)     intcor
     12.25     -13.64       0.99        0.00      74.55       1.51       0.01       1.39       ----

> <Gold.Chemscore.Fitness>
12.2499

> <Gold.Chemscore.DG>
-13.6448

> <Gold.Chemscore.ZeroCoef>
-5.4800

> <Gold.Chemscore.Hbond>
0.9920

> <Gold.Chemscore.Metal>
0.0000

> <Gold.Chemscore.Lipo>
74.5489

> <Gold.Chemscore.Internal_Hbond>
0.0000

> <Gold.Chemscore.DEClash>
0.0078

> <Gold.Chemscore.DEInternal>
1.3870

> <Gold.Chemscore.Rot>
1.5119

> <Gold.Chemscore.Internal.Correction>
   9.000000E+99

> <Gold.Chemscore.Hbonds>
donor molecule, donor type, donor heavy atom, donor atom, acceptor molecule, acceptor atom, score
      P1  H  7997  8010       L1    10  0.95

> <Gold.Chemscore.Hbond.Weighted>
-3.3132

> <Gold.Chemscore.Metal.Weighted>
-0.0000

> <Gold.Chemscore.Lipo.Weighted>
-8.7222

> <Gold.Chemscore.Internal_Hbond.Weighted>
0.0000

> <Gold.Chemscore.DEClash.Weighted>
0.0078

> <Gold.Chemscore.DEInternal.Weighted>
1.3870

> <Gold.Chemscore.Rot.Weighted>
3.8706

> <Gold.Chemscore.Internal.Correction.Weighted>
   9.000000E+99

> <Gold.Protein.RotatedTorsions>
[ 6907 6896 6895 6894 ] final  100.91 input  -60.11 | X-H torsion
[ 7974 7965 7964 7962 ] final   -8.60 input  175.53 | X-H torsion
[ 8008 7997 7996 7995 ] final   71.87 input   59.86 | X-H torsion
[ 10167 10162 10161 10158 ] final  118.89 input  -65.29 | X-H torsion
[ 10718 10713 10712 10709 ] final  -93.28 input   66.30 | X-H torsion
[ 10763 10752 10751 10750 ] final   46.53 input  -60.55 | X-H torsion
[ 11005 11000 10999 10996 ] final  -84.32 input  -57.11 | X-H torsion

> <Gold.Protein.ActiveResidues>
 VAL166  LYS551  ARG553  GLY616  TRP617  ASP618  TYR619  PRO620  LYS621  CYS622 
 ASP623  PHE694  ASN695  SER759  ASP760  ASP761  ALA762  ILE779  LEU786  VAL792 
 PHE793  MET794  SER795  GLU796  ALA797  LYS798  CYS799  TRP800  GLU811  SER814 

> <Gold.Protein.RotatedAtoms>
  152.5361  134.0206  159.7979 H   0  0  0  0  0  0  0  0  0  0  0  0  # atno 6907 bound_to 6896
  151.0393  133.5713  159.2660 H   0  0  0  0  0  0  0  0  0  0  0  0  # atno 6908 bound_to 6896
  151.2689  135.0685  159.9180 H   0  0  0  0  0  0  0  0  0  0  0  0  # atno 6909 bound_to 6896
  146.2276  140.2492  142.8346 H   0  0  0  0  0  0  0  0  0  0  0  0  # atno 7974 bound_to 7965
  155.7604  140.3486  155.5195 H   0  0  0  0  0  0  0  0  0  0  0  0  # atno 8008 bound_to 7997
  155.8919  140.1019  157.1433 H   0  0  0  0  0  0  0  0  0  0  0  0  # atno 8009 bound_to 7997
  154.4034  140.1302  156.4314 H   0  0  0  0  0  0  0  0  0  0  0  0  # atno 8010 bound_to 7997
  139.6082  144.7075  151.2905 H   0  0  0  0  0  0  0  0  0  0  0  0  # atno 10167 bound_to 10162
  156.0011  130.5021  150.5753 H   0  0  0  0  0  0  0  0  0  0  0  0  # atno 10718 bound_to 10713
  152.9810  135.6005  154.3615 H   0  0  0  0  0  0  0  0  0  0  0  0  # atno 10763 bound_to 10752
  154.3296  135.2768  155.2480 H   0  0  0  0  0  0  0  0  0  0  0  0  # atno 10764 bound_to 10752
  154.4610  135.5966  153.6311 H   0  0  0  0  0  0  0  0  0  0  0  0  # atno 10765 bound_to 10752
  141.1651  133.7340  156.8850 H   0  0  0  0  0  0  0  0  0  0  0  0  # atno 11005 bound_to 11000
  144.9425  140.8093  143.5622 LP  0  0  0  0  0  0  0  0  0  0  0  0  # atno 17320 bound_to 7965
  145.2445  139.2058  143.4975 LP  0  0  0  0  0  0  0  0  0  0  0  0  # atno 17321 bound_to 7965
  140.7300  143.6892  150.7936 LP  0  0  0  0  0  0  0  0  0  0  0  0  # atno 17342 bound_to 10162
  140.0482  143.5277  152.2686 LP  0  0  0  0  0  0  0  0  0  0  0  0  # atno 17343 bound_to 10162
  157.3641  131.0755  151.1612 LP  0  0  0  0  0  0  0  0  0  0  0  0  # atno 17370 bound_to 10713
  157.2387  130.6559  149.5880 LP  0  0  0  0  0  0  0  0  0  0  0  0  # atno 17371 bound_to 10713
  140.1688  134.9114  157.2807 LP  0  0  0  0  0  0  0  0  0  0  0  0  # atno 17394 bound_to 11000
  140.2526  134.3665  155.7436 LP  0  0  0  0  0  0  0  0  0  0  0  0  # atno 17395 bound_to 11000

$$$$
