AV-unprocessed.smi:2003|AV-procd|sdf|8118|dock5
  -GOLD-   2272010353D 1   1.00000     0.00000
 Structure written by MMmdl.
 43 44  0  0  0  0  0  0  0  0  1 V2000
  143.6488  131.7546  150.8253 C   0  0  0  0  0  0  0  0  0  0  0  0
  144.7028  132.6231  151.4472 C   0  0  0  0  0  0  0  0  0  0  0  0
  144.7244  134.0449  151.5409 C   0  0  0  0  0  0  0  0  0  0  0  0
  145.9000  134.2867  152.1983 C   0  0  0  0  0  0  0  0  0  0  0  0
  146.4405  135.4788  152.5668 N   0  0  0  0  0  0  0  0  0  0  0  0
  145.8222  136.5685  153.0538 C   0  0  0  0  0  0  0  0  0  0  0  0
  144.6108  136.6779  153.2453 O   0  0  0  0  0  0  0  0  0  0  0  0
  146.7014  137.5456  153.3189 N   0  0  0  0  0  0  0  0  0  0  0  0
  146.3590  138.8479  153.8845 C   0  0  0  0  0  0  0  0  0  0  0  0
  147.4028  139.9558  153.5577 C   0  0  1  0  0  0  0  0  0  0  0  0
  146.7213  141.3403  153.7046 C   0  0  0  0  0  0  0  0  0  0  0  0
  148.6485  139.8432  154.3517 N   0  0  0  0  0  0  0  0  0  0  0  0
  149.3590  141.1228  154.4639 C   0  0  0  0  0  0  0  0  0  0  0  0
  150.6718  141.0128  155.2583 C   0  0  0  0  0  0  0  0  0  0  0  0
  151.5145  140.0399  154.6573 O   0  0  0  0  0  0  0  0  0  0  0  0
  150.8954  138.7625  154.6014 C   0  0  0  0  0  0  0  0  0  0  0  0
  149.5844  138.8553  153.8016 C   0  0  0  0  0  0  0  0  0  0  0  0
  146.5167  133.0825  152.4630 N   0  0  0  0  0  0  0  0  0  0  0  0
  147.7704  132.8007  153.1358 C   0  0  0  0  0  0  0  0  0  0  0  0
  145.7709  132.0575  151.9977 N   0  0  0  0  0  0  0  0  0  0  0  0
  142.9464  132.3477  150.2395 H   0  0  0  0  0  0  0  0  0  0  0  0
  143.0792  131.2237  151.5883 H   0  0  0  0  0  0  0  0  0  0  0  0
  144.0896  131.0120  150.1598 H   0  0  0  0  0  0  0  0  0  0  0  0
  143.9892  134.7485  151.1805 H   0  0  0  0  0  0  0  0  0  0  0  0
  147.4431  135.5432  152.4701 H   0  0  0  0  0  0  0  0  0  0  0  0
  147.6782  137.3748  153.1299 H   0  0  0  0  0  0  0  0  0  0  0  0
  145.3792  139.1370  153.5031 H   0  0  0  0  0  0  0  0  0  0  0  0
  146.2388  138.6986  154.9566 H   0  0  0  0  0  0  0  0  0  0  0  0
  147.6704  139.8453  152.5059 H   0  0  0  0  0  0  0  0  0  0  0  0
  145.7779  141.4005  153.1632 H   0  0  0  0  0  0  0  0  0  0  0  0
  147.3312  142.1458  153.2983 H   0  0  0  0  0  0  0  0  0  0  0  0
  146.5133  141.5680  154.7505 H   0  0  0  0  0  0  0  0  0  0  0  0
  149.5712  141.5165  153.4687 H   0  0  0  0  0  0  0  0  0  0  0  0
  148.7417  141.8616  154.9717 H   0  0  0  0  0  0  0  0  0  0  0  0
  151.1886  141.9725  155.2688 H   0  0  0  0  0  0  0  0  0  0  0  0
  150.4742  140.7438  156.2971 H   0  0  0  0  0  0  0  0  0  0  0  0
  151.5783  138.0569  154.1283 H   0  0  0  0  0  0  0  0  0  0  0  0
  150.7066  138.3964  155.6119 H   0  0  0  0  0  0  0  0  0  0  0  0
  149.1439  137.8606  153.8068 H   0  0  0  0  0  0  0  0  0  0  0  0
  149.8104  139.0979  152.7621 H   0  0  0  0  0  0  0  0  0  0  0  0
  148.3139  133.7228  153.3410 H   0  0  0  0  0  0  0  0  0  0  0  0
  148.3915  132.1619  152.5071 H   0  0  0  0  0  0  0  0  0  0  0  0
  147.5727  132.2900  154.0787 H   0  0  0  0  0  0  0  0  0  0  0  0
  1  2  1  0  0  0  0
  1 21  1  0  0  0  0
  1 22  1  0  0  0  0
  1 23  1  0  0  0  0
  2 20  2  0  0  0  0
  2  3  1  0  0  0  0
  3  4  2  0  0  0  0
  3 24  1  0  0  0  0
  4  5  1  0  0  0  0
  4 18  1  0  0  0  0
  5  6  1  0  0  0  0
  5 25  1  0  0  0  0
  6  7  2  0  0  0  0
  6  8  1  0  0  0  0
  8  9  1  0  0  0  0
  8 26  1  0  0  0  0
  9 10  1  0  0  0  0
  9 27  1  0  0  0  0
  9 28  1  0  0  0  0
 10 11  1  0  0  0  0
 10 12  1  0  0  0  0
 10 29  1  0  0  0  0
 11 30  1  0  0  0  0
 11 31  1  0  0  0  0
 11 32  1  0  0  0  0
 12 17  1  0  0  0  0
 12 13  1  0  0  0  0
 13 14  1  0  0  0  0
 13 33  1  0  0  0  0
 13 34  1  0  0  0  0
 14 15  1  0  0  0  0
 14 35  1  0  0  0  0
 14 36  1  0  0  0  0
 15 16  1  0  0  0  0
 16 17  1  0  0  0  0
 16 37  1  0  0  0  0
 16 38  1  0  0  0  0
 17 39  1  0  0  0  0
 17 40  1  0  0  0  0
 18 19  1  0  0  0  0
 18 20  1  0  0  0  0
 19 41  1  0  0  0  0
 19 42  1  0  0  0  0
 19 43  1  0  0  0  0
M  END
> <s_m_source_file>
AV-unprocessed.smi

> <i_m_source_file_index>
2003

> <i_lp_mmshare_version>
43012

> <i_f3d_flags>
0

> <s_epik_input>
W0NIM11jMVtjSF1jKG4objEpW0NIM10pW05IXUMoPU8pW05IXVtDSDJdW0NASF0oW0NIM10pTjJbQ0gyXVtDSDJdT1tDSDJdW0NIMl0y

> <s_epik_cmdline>
J2VwaWtfcHl0aG9uJywgJy1waCcsICc3LjAnLCAnLXRuJywgJzgnLCAnLW1hJywgJzIwMCcsICctbWV0YWxfYmluZGluZycsICctaW1hZScsICc8aW5maWxlLm1hZT4nLCAnLW9tYWUnLCAnPG91dGZpbGUubWFlPic=

> <r_lp_tautomer_probability>
1

> <r_epik_Ionization_Penalty>
0.233974

> <r_epik_Ionization_Penalty_Charging>
0

> <r_epik_Ionization_Penalty_Neutral>
0.233974

> <r_epik_State_Penalty>
0.224627

> <r_epik_Charging_Adjusted_Penalty>
0.224627

> <i_epik_Tot_Q>
0

> <i_epik_Tot_abs_Q>
0

> <r_epik_Metal_State_Penalty>
0.224624

> <b_epik_Metal_Only>
0

> <s_lp_Force_Field>
OPLS_2005

> <r_lp_Energy>
29.1269

> <b_lp_Chiralities_Consistent>
1

> <s_lp_Variant>
AV-unprocessed.smi:2003-2

> <Gold.Version>
5.8.1

> <Gold.Id.Protein>
6NUR|6NUR_protein|mol2

> <Gold.PLP.Fitness>
42.1060

> <Gold.PLP.PLP>
-37.2932

> <Gold.PLP.part.hbond>
-2.8093

> <Gold.PLP.part.metal>
0.0000

> <Gold.PLP.part.buried>
-2.8076

> <Gold.PLP.part.nonpolar>
-32.7967

> <Gold.PLP.part.repulsive>
0.5640

> <Gold.PLP.ligand.clash>
0.0000

> <Gold.PLP.ligand.torsion>
1.1728

> <Gold.PLP.Chemscore.Hbond>
2.3745

> <Gold.PLP.Chemscore.CHOScore>
0.0000

> <Gold.PLP.Chemscore.Metal>
0.0000

> <Gold.Chemscore.Hbonds>
donor molecule, donor type, donor heavy atom, donor atom, acceptor molecule, acceptor atom, score
      L1  H     5    25       P1  7948  1.00
      L1  H     8    26       P1  7948  0.64
      P1  H  7989  7998       L1    15  0.37

> <Gold.PLP.Chemscore.Internal.Correction>
0.0349

> <Gold.Rescore>
     Score         DG    S(hbond)    S(metal)    S(lipo)     H(rot)  DE(clash)    DE(int)     intcor
     15.36     -16.24       1.77        0.00      74.09       1.49       0.05       0.84       ----

> <Gold.Chemscore.Fitness>
15.3570

> <Gold.Chemscore.DG>
-16.2418

> <Gold.Chemscore.ZeroCoef>
-5.4800

> <Gold.Chemscore.Hbond>
1.7718

> <Gold.Chemscore.Metal>
0.0000

> <Gold.Chemscore.Lipo>
74.0863

> <Gold.Chemscore.Internal_Hbond>
0.0000

> <Gold.Chemscore.DEClash>
0.0452

> <Gold.Chemscore.DEInternal>
0.8396

> <Gold.Chemscore.Rot>
1.4938

> <Gold.Chemscore.Internal.Correction>
   9.000000E+99

> <Gold.Chemscore.Hbonds>
donor molecule, donor type, donor heavy atom, donor atom, acceptor molecule, acceptor atom, score
      L1  H     5    25       P1  7948  0.98
      L1  H     8    26       P1  7948  0.61
      P1  H  7989  7998       L1    15  0.02

> <Gold.Chemscore.Hbond.Weighted>
-5.9178

> <Gold.Chemscore.Metal.Weighted>
-0.0000

> <Gold.Chemscore.Lipo.Weighted>
-8.6681

> <Gold.Chemscore.Internal_Hbond.Weighted>
0.0000

> <Gold.Chemscore.DEClash.Weighted>
0.0452

> <Gold.Chemscore.DEInternal.Weighted>
0.8396

> <Gold.Chemscore.Rot.Weighted>
3.8242

> <Gold.Chemscore.Internal.Correction.Weighted>
   9.000000E+99

> <Gold.Protein.RotatedTorsions>
[ 6907 6896 6895 6894 ] final -131.77 input  -60.11 | X-H torsion
[ 7974 7965 7964 7962 ] final  146.14 input  175.53 | X-H torsion
[ 8008 7997 7996 7995 ] final  -90.58 input   59.86 | X-H torsion
[ 10167 10162 10161 10158 ] final  160.60 input  -65.29 | X-H torsion
[ 10718 10713 10712 10709 ] final -131.40 input   66.30 | X-H torsion
[ 10763 10752 10751 10750 ] final -123.81 input  -60.55 | X-H torsion
[ 11005 11000 10999 10996 ] final   52.10 input  -57.11 | X-H torsion

> <Gold.Protein.ActiveResidues>
 VAL166  LYS551  ARG553  GLY616  TRP617  ASP618  TYR619  PRO620  LYS621  CYS622 
 ASP623  PHE694  ASN695  SER759  ASP760  ASP761  ALA762  ILE779  LEU786  VAL792 
 PHE793  MET794  SER795  GLU796  ALA797  LYS798  CYS799  TRP800  GLU811  SER814 

> <Gold.Protein.RotatedAtoms>
  150.9547  133.6510  159.2765 H   0  0  0  0  0  0  0  0  0  0  0  0  # atno 6907 bound_to 6896
  151.3854  135.0946  159.9519 H   0  0  0  0  0  0  0  0  0  0  0  0  # atno 6908 bound_to 6896
  152.5124  133.9073  159.7525 H   0  0  0  0  0  0  0  0  0  0  0  0  # atno 6909 bound_to 6896
  144.8695  139.5868  143.5893 H   0  0  0  0  0  0  0  0  0  0  0  0  # atno 7974 bound_to 7965
  154.7002  140.0529  157.0451 H   0  0  0  0  0  0  0  0  0  0  0  0  # atno 8008 bound_to 7997
  155.0695  140.3198  155.4616 H   0  0  0  0  0  0  0  0  0  0  0  0  # atno 8009 bound_to 7997
  156.2757  140.2084  156.5822 H   0  0  0  0  0  0  0  0  0  0  0  0  # atno 8010 bound_to 7997
  139.4841  144.4618  151.8694 H   0  0  0  0  0  0  0  0  0  0  0  0  # atno 10167 bound_to 10162
  156.2240  130.6996  151.0787 H   0  0  0  0  0  0  0  0  0  0  0  0  # atno 10718 bound_to 10713
  154.8714  135.4085  154.3003 H   0  0  0  0  0  0  0  0  0  0  0  0  # atno 10763 bound_to 10752
  153.3864  135.7013  153.6533 H   0  0  0  0  0  0  0  0  0  0  0  0  # atno 10764 bound_to 10752
  153.5333  135.3663  155.2657 H   0  0  0  0  0  0  0  0  0  0  0  0  # atno 10765 bound_to 10752
  140.0877  134.5251  155.8882 H   0  0  0  0  0  0  0  0  0  0  0  0  # atno 11005 bound_to 11000
  146.2920  139.7167  142.9154 LP  0  0  0  0  0  0  0  0  0  0  0  0  # atno 17320 bound_to 7965
  145.4157  141.0401  143.2992 LP  0  0  0  0  0  0  0  0  0  0  0  0  # atno 17321 bound_to 7965
  140.4081  144.2405  150.5890 LP  0  0  0  0  0  0  0  0  0  0  0  0  # atno 17342 bound_to 10162
  140.4993  143.2323  151.8703 LP  0  0  0  0  0  0  0  0  0  0  0  0  # atno 17343 bound_to 10162
  157.7102  131.0738  150.6529 LP  0  0  0  0  0  0  0  0  0  0  0  0  # atno 17370 bound_to 10713
  156.6593  130.4507  149.5693 LP  0  0  0  0  0  0  0  0  0  0  0  0  # atno 17371 bound_to 10713
  141.2068  133.6658  156.6265 LP  0  0  0  0  0  0  0  0  0  0  0  0  # atno 17394 bound_to 11000
  140.3396  134.7860  157.4388 LP  0  0  0  0  0  0  0  0  0  0  0  0  # atno 17395 bound_to 11000

$$$$
