AV-unprocessed.smi:2623|AV-procd|sdf|10229|dock9
  -GOLD-   2272014233D 1   1.00000     0.00000
 Structure written by MMmdl.
 40 42  0  0  0  0  0  0  0  0  1 V2000
  149.3985  138.4228  153.4046 O   0  0  0  0  0  0  0  0  0  0  0  0
  150.6197  138.2655  154.0932 C   0  0  0  0  0  0  0  0  0  0  0  0
  150.8230  139.2945  155.1639 C   0  0  0  0  0  0  0  0  0  0  0  0
  150.7919  140.5997  154.8916 N   0  0  0  0  0  0  0  0  0  0  0  0
  150.9968  141.1751  156.1297 C   0  0  0  0  0  0  0  0  0  0  0  0
  151.0660  142.5343  156.5104 C   0  0  0  0  0  0  0  0  0  0  0  0
  151.2802  142.8882  157.8586 C   0  0  0  0  0  0  0  0  0  0  0  0
  151.4261  141.8902  158.8437 C   0  0  0  0  0  0  0  0  0  0  0  0
  151.3609  140.5299  158.4856 C   0  0  0  0  0  0  0  0  0  0  0  0
  151.1511  140.1818  157.1375 C   0  0  0  0  0  0  0  0  0  0  0  0
  151.0444  138.9683  156.4640 N   0  0  0  0  0  0  0  0  0  0  0  0
  151.1366  137.6466  157.0730 C   0  0  0  0  0  0  0  0  0  0  0  0
  149.7547  137.0265  157.3655 C   0  0  2  0  0  0  0  0  0  0  0  0
  148.7324  137.8781  156.8899 O   0  0  0  0  0  0  0  0  0  0  0  0
  149.5276  136.7852  158.8645 C   0  0  0  0  0  0  0  0  0  0  0  0
  148.5211  135.7936  159.0223 O   0  0  0  0  0  0  0  0  0  0  0  0
  148.0588  135.5279  160.2933 C   0  0  0  0  0  0  0  0  0  0  0  0
  147.6086  134.2159  160.5483 C   0  0  0  0  0  0  0  0  0  0  0  0
  147.1179  133.8559  161.8182 C   0  0  0  0  0  0  0  0  0  0  0  0
  147.0742  134.8098  162.8515 C   0  0  0  0  0  0  0  0  0  0  0  0
  147.5207  136.1225  162.6115 C   0  0  0  0  0  0  0  0  0  0  0  0
  148.0102  136.4829  161.3407 C   0  0  0  0  0  0  0  0  0  0  0  0
  149.3254  137.7340  152.7618 H   0  0  0  0  0  0  0  0  0  0  0  0
  150.6349  137.2717  154.5424 H   0  0  0  0  0  0  0  0  0  0  0  0
  151.4491  138.2960  153.3868 H   0  0  0  0  0  0  0  0  0  0  0  0
  150.9523  143.3062  155.7635 H   0  0  0  0  0  0  0  0  0  0  0  0
  151.3312  143.9303  158.1383 H   0  0  0  0  0  0  0  0  0  0  0  0
  151.5879  142.1695  159.8746 H   0  0  0  0  0  0  0  0  0  0  0  0
  151.4711  139.7639  159.2387 H   0  0  0  0  0  0  0  0  0  0  0  0
  151.6939  137.0061  156.3884 H   0  0  0  0  0  0  0  0  0  0  0  0
  151.7273  137.6949  157.9868 H   0  0  0  0  0  0  0  0  0  0  0  0
  149.6559  136.0770  156.8389 H   0  0  0  0  0  0  0  0  0  0  0  0
  148.9075  138.0803  155.9832 H   0  0  0  0  0  0  0  0  0  0  0  0
  150.4596  136.4725  159.3388 H   0  0  0  0  0  0  0  0  0  0  0  0
  149.1993  137.7113  159.3398 H   0  0  0  0  0  0  0  0  0  0  0  0
  147.6390  133.4772  159.7608 H   0  0  0  0  0  0  0  0  0  0  0  0
  146.7751  132.8478  161.9991 H   0  0  0  0  0  0  0  0  0  0  0  0
  146.6979  134.5352  163.8259 H   0  0  0  0  0  0  0  0  0  0  0  0
  147.4876  136.8562  163.4034 H   0  0  0  0  0  0  0  0  0  0  0  0
  148.3416  137.4996  161.1948 H   0  0  0  0  0  0  0  0  0  0  0  0
  1  2  1  0  0  0  0
  1 23  1  0  0  0  0
  2  3  1  0  0  0  0
  2 24  1  0  0  0  0
  2 25  1  0  0  0  0
  3 11  1  0  0  0  0
  3  4  2  0  0  0  0
  4  5  1  0  0  0  0
  5 10  2  0  0  0  0
  5  6  1  0  0  0  0
  6  7  2  0  0  0  0
  6 26  1  0  0  0  0
  7  8  1  0  0  0  0
  7 27  1  0  0  0  0
  8  9  2  0  0  0  0
  8 28  1  0  0  0  0
  9 10  1  0  0  0  0
  9 29  1  0  0  0  0
 10 11  1  0  0  0  0
 11 12  1  0  0  0  0
 12 13  1  0  0  0  0
 12 30  1  0  0  0  0
 12 31  1  0  0  0  0
 13 14  1  0  0  0  0
 13 15  1  0  0  0  0
 13 32  1  0  0  0  0
 14 33  1  0  0  0  0
 15 16  1  0  0  0  0
 15 34  1  0  0  0  0
 15 35  1  0  0  0  0
 16 17  1  0  0  0  0
 17 22  1  0  0  0  0
 17 18  2  0  0  0  0
 18 19  1  0  0  0  0
 18 36  1  0  0  0  0
 19 20  2  0  0  0  0
 19 37  1  0  0  0  0
 20 21  1  0  0  0  0
 20 38  1  0  0  0  0
 21 22  2  0  0  0  0
 21 39  1  0  0  0  0
 22 40  1  0  0  0  0
M  END
> <s_m_source_file>
AV-unprocessed.smi

> <i_m_source_file_index>
2623

> <i_lp_mmshare_version>
43012

> <i_f3d_flags>
0

> <s_epik_input>
W2NIXTFbY0hdW2NIXVtjSF1jKGMxMiluKGMobjIpW0NIMl1bT0hdKVtDSDJdW0NASF0oW09IXSlbQ0gyXU9jM1tjSF1bY0hdW2NIXVtjSF1bY0hdMw==

> <s_epik_cmdline>
J2VwaWtfcHl0aG9uJywgJy1waCcsICc3LjAnLCAnLXRuJywgJzgnLCAnLW1hJywgJzIwMCcsICctbWV0YWxfYmluZGluZycsICctaW1hZScsICc8aW5maWxlLm1hZT4nLCAnLW9tYWUnLCAnPG91dGZpbGUubWFlPic=

> <r_lp_tautomer_probability>
1

> <r_epik_Ionization_Penalty>
0.0583159

> <r_epik_Ionization_Penalty_Charging>
0

> <r_epik_Ionization_Penalty_Neutral>
0.0583159

> <r_epik_State_Penalty>
0.0503525

> <r_epik_Charging_Adjusted_Penalty>
0.0503525

> <i_epik_Tot_Q>
0

> <i_epik_Tot_abs_Q>
0

> <r_epik_Metal_State_Penalty>
5.25517e-05

> <b_epik_Metal_Only>
0

> <s_lp_Force_Field>
OPLS_2005

> <r_lp_Energy>
14.6276

> <b_lp_Chiralities_Consistent>
1

> <s_lp_Variant>
AV-unprocessed.smi:2623-1

> <Gold.Version>
5.8.1

> <Gold.Id.Protein>
6NUR|6NUR_protein|mol2

> <Gold.PLP.Fitness>
45.1577

> <Gold.PLP.PLP>
-42.3645

> <Gold.PLP.part.hbond>
-3.0000

> <Gold.PLP.part.metal>
0.0000

> <Gold.PLP.part.buried>
-4.2684

> <Gold.PLP.part.nonpolar>
-35.3224

> <Gold.PLP.part.repulsive>
0.0793

> <Gold.PLP.ligand.clash>
0.0000

> <Gold.PLP.ligand.torsion>
1.6520

> <Gold.PLP.Chemscore.Hbond>
2.0000

> <Gold.PLP.Chemscore.CHOScore>
0.0000

> <Gold.PLP.Chemscore.Metal>
0.0000

> <Gold.Chemscore.Hbonds>
donor molecule, donor type, donor heavy atom, donor atom, acceptor molecule, acceptor atom, score
      L1  H     1    23       P1  7948  1.00
      P1  H  7989  7998       L1     4  0.98

> <Gold.PLP.Chemscore.Internal.Correction>
0.0972

> <Gold.Rescore>
     Score         DG    S(hbond)    S(metal)    S(lipo)     H(rot)  DE(clash)    DE(int)     intcor
     15.24     -16.86       1.82        0.00     111.58       3.04       0.01       1.60       ----

> <Gold.Chemscore.Fitness>
15.2424

> <Gold.Chemscore.DG>
-16.8554

> <Gold.Chemscore.ZeroCoef>
-5.4800

> <Gold.Chemscore.Hbond>
1.8238

> <Gold.Chemscore.Metal>
0.0000

> <Gold.Chemscore.Lipo>
111.5849

> <Gold.Chemscore.Internal_Hbond>
0.0000

> <Gold.Chemscore.DEClash>
0.0134

> <Gold.Chemscore.DEInternal>
1.5996

> <Gold.Chemscore.Rot>
3.0358

> <Gold.Chemscore.Internal.Correction>
   9.000000E+99

> <Gold.Chemscore.Hbonds>
donor molecule, donor type, donor heavy atom, donor atom, acceptor molecule, acceptor atom, score
      L1  H     1    23       P1  7948  0.93
      P1  H  7989  7998       L1     4  0.69

> <Gold.Chemscore.Hbond.Weighted>
-6.0916

> <Gold.Chemscore.Metal.Weighted>
-0.0000

> <Gold.Chemscore.Lipo.Weighted>
-13.0554

> <Gold.Chemscore.Internal_Hbond.Weighted>
0.0000

> <Gold.Chemscore.DEClash.Weighted>
0.0134

> <Gold.Chemscore.DEInternal.Weighted>
1.5996

> <Gold.Chemscore.Rot.Weighted>
7.7716

> <Gold.Chemscore.Internal.Correction.Weighted>
   9.000000E+99

> <Gold.Protein.RotatedTorsions>
[ 6907 6896 6895 6894 ] final   -4.58 input  -60.11 | X-H torsion
[ 7974 7965 7964 7962 ] final  -14.61 input  175.53 | X-H torsion
[ 8008 7997 7996 7995 ] final   62.22 input   59.86 | X-H torsion
[ 10167 10162 10161 10158 ] final  151.55 input  -65.29 | X-H torsion
[ 10718 10713 10712 10709 ] final  -58.44 input   66.30 | X-H torsion
[ 10763 10752 10751 10750 ] final  170.12 input  -60.55 | X-H torsion
[ 11005 11000 10999 10996 ] final  167.79 input  -57.11 | X-H torsion

> <Gold.Protein.ActiveResidues>
 VAL166  LYS551  ARG553  GLY616  TRP617  ASP618  TYR619  PRO620  LYS621  CYS622 
 ASP623  PHE694  ASN695  SER759  ASP760  ASP761  ALA762  ILE779  LEU786  VAL792 
 PHE793  MET794  SER795  GLU796  ALA797  LYS798  CYS799  TRP800  GLU811  SER814 

> <Gold.Protein.RotatedAtoms>
  151.4954  135.1059  159.9814 H   0  0  0  0  0  0  0  0  0  0  0  0  # atno 6907 bound_to 6896
  152.4724  133.8055  159.6986 H   0  0  0  0  0  0  0  0  0  0  0  0  # atno 6908 bound_to 6896
  150.8741  133.7402  159.2978 H   0  0  0  0  0  0  0  0  0  0  0  0  # atno 6909 bound_to 6896
  146.2067  140.3373  142.8404 H   0  0  0  0  0  0  0  0  0  0  0  0  # atno 7974 bound_to 7965
  155.6109  140.3495  155.4622 H   0  0  0  0  0  0  0  0  0  0  0  0  # atno 8008 bound_to 7997
  156.0155  140.1242  157.0435 H   0  0  0  0  0  0  0  0  0  0  0  0  # atno 8009 bound_to 7997
  154.4296  140.1073  156.5875 H   0  0  0  0  0  0  0  0  0  0  0  0  # atno 8010 bound_to 7997
  139.4839  144.5431  151.7530 H   0  0  0  0  0  0  0  0  0  0  0  0  # atno 10167 bound_to 10162
  156.1135  130.4172  150.0577 H   0  0  0  0  0  0  0  0  0  0  0  0  # atno 10718 bound_to 10713
  154.3931  135.2754  155.2143 H   0  0  0  0  0  0  0  0  0  0  0  0  # atno 10763 bound_to 10752
  154.4201  135.6002  153.6008 H   0  0  0  0  0  0  0  0  0  0  0  0  # atno 10764 bound_to 10752
  152.9832  135.5970  154.4188 H   0  0  0  0  0  0  0  0  0  0  0  0  # atno 10765 bound_to 10752
  140.2805  134.7754  157.3754 H   0  0  0  0  0  0  0  0  0  0  0  0  # atno 11005 bound_to 11000
  144.8810  140.7400  143.5986 LP  0  0  0  0  0  0  0  0  0  0  0  0  # atno 17320 bound_to 7965
  145.3293  139.1764  143.4545 LP  0  0  0  0  0  0  0  0  0  0  0  0  # atno 17321 bound_to 7965
  140.4974  144.1221  150.5963 LP  0  0  0  0  0  0  0  0  0  0  0  0  # atno 17342 bound_to 10162
  140.4102  143.2660  151.9842 LP  0  0  0  0  0  0  0  0  0  0  0  0  # atno 17343 bound_to 10162
  156.8534  130.9467  151.3624 LP  0  0  0  0  0  0  0  0  0  0  0  0  # atno 17370 bound_to 10713
  157.6317  130.8735  149.9287 LP  0  0  0  0  0  0  0  0  0  0  0  0  # atno 17371 bound_to 10713
  140.1288  134.5123  155.8123 LP  0  0  0  0  0  0  0  0  0  0  0  0  # atno 17394 bound_to 11000
  141.2163  133.6782  156.7001 LP  0  0  0  0  0  0  0  0  0  0  0  0  # atno 17395 bound_to 11000

$$$$
