AV-unprocessed.smi:1100|AV-procd|sdf|4762|dock8
  -GOLD-   22720 3303D 1   1.00000     0.00000
 Structure written by MMmdl.
 44 45  0  0  0  0  0  0  0  0  2 V2000
  148.5360  140.7019  152.8574 C   0  0  0  0  0  0  0  0  0  0  0  0
  147.1110  140.3710  152.3485 C   0  0  1  0  0  0  0  0  0  0  0  0
  146.4952  139.2249  153.1988 C   0  0  0  0  0  0  0  0  0  0  0  0
  146.7260  137.8978  152.6339 N   0  0  0  0  0  0  0  0  0  0  0  0
  145.7676  136.9986  152.3686 C   0  0  0  0  0  0  0  0  0  0  0  0
  144.5758  137.2032  152.5976 O   0  0  0  0  0  0  0  0  0  0  0  0
  146.2917  135.8811  151.8310 N   0  0  0  0  0  0  0  0  0  0  0  0
  145.6402  134.7345  151.3514 C   0  0  0  0  0  0  0  0  0  0  0  0
  144.1975  134.6863  151.4604 C   0  0  0  0  0  0  0  0  0  0  0  0
  143.4999  133.6153  151.0345 C   0  0  0  0  0  0  0  0  0  0  0  0
  144.1663  132.4524  150.4438 C   0  0  0  0  0  0  0  0  0  0  0  0
  143.5415  131.4691  150.0449 O   0  0  0  0  0  0  0  0  0  0  0  0
  145.5262  132.5300  150.3656 N   0  0  0  0  0  0  0  0  0  0  0  0
  146.2857  131.4129  149.7979 C   0  0  0  0  0  0  0  0  0  0  0  0
  146.2477  133.6539  150.8130 C   0  0  0  0  0  0  0  0  0  0  0  0
  146.2030  141.5654  152.3228 N   0  3  0  0  0  0  0  0  0  0  0  0
  145.6793  141.9854  153.6531 C   0  0  0  0  0  0  0  0  0  0  0  0
  144.7485  143.2043  153.5308 C   0  0  0  0  0  0  0  0  0  0  0  0
  145.4320  144.2736  152.8957 O   0  0  0  0  0  0  0  0  0  0  0  0
  145.8318  143.9231  151.5800 C   0  0  0  0  0  0  0  0  0  0  0  0
  146.8122  142.7402  151.6390 C   0  0  0  0  0  0  0  0  0  0  0  0
  149.1653  139.8142  152.9153 H   0  0  0  0  0  0  0  0  0  0  0  0
  148.5094  141.1479  153.8521 H   0  0  0  0  0  0  0  0  0  0  0  0
  149.0614  141.3845  152.1896 H   0  0  0  0  0  0  0  0  0  0  0  0
  147.2169  140.0270  151.3182 H   0  0  0  0  0  0  0  0  0  0  0  0
  146.9250  139.2395  154.2008 H   0  0  0  0  0  0  0  0  0  0  0  0
  145.4200  139.3388  153.3281 H   0  0  0  0  0  0  0  0  0  0  0  0
  147.6817  137.6517  152.4210 H   0  0  0  0  0  0  0  0  0  0  0  0
  147.2975  135.8572  151.7472 H   0  0  0  0  0  0  0  0  0  0  0  0
  143.6651  135.5223  151.8902 H   0  0  0  0  0  0  0  0  0  0  0  0
  142.4241  133.6120  151.1306 H   0  0  0  0  0  0  0  0  0  0  0  0
  147.3640  131.5702  149.8365 H   0  0  0  0  0  0  0  0  0  0  0  0
  146.0161  131.2611  148.7518 H   0  0  0  0  0  0  0  0  0  0  0  0
  146.0761  130.4899  150.3407 H   0  0  0  0  0  0  0  0  0  0  0  0
  147.3141  133.5552  150.6897 H   0  0  0  0  0  0  0  0  0  0  0  0
  145.1026  141.1857  154.1160 H   0  0  0  0  0  0  0  0  0  0  0  0
  146.5136  142.2160  154.3174 H   0  0  0  0  0  0  0  0  0  0  0  0
  143.8453  142.9504  152.9735 H   0  0  0  0  0  0  0  0  0  0  0  0
  144.4285  143.5308  154.5207 H   0  0  0  0  0  0  0  0  0  0  0  0
  144.9601  143.6799  150.9700 H   0  0  0  0  0  0  0  0  0  0  0  0
  146.3123  144.7855  151.1174 H   0  0  0  0  0  0  0  0  0  0  0  0
  147.7190  143.0396  152.1672 H   0  0  0  0  0  0  0  0  0  0  0  0
  147.1069  142.4996  150.6200 H   0  0  0  0  0  0  0  0  0  0  0  0
  145.3950  141.2959  151.7799 H   0  0  0  0  0  0  0  0  0  0  0  0
  1  2  1  0  0  0  0
  1 22  1  0  0  0  0
  1 23  1  0  0  0  0
  1 24  1  0  0  0  0
  2  3  1  0  0  0  0
  2 16  1  0  0  0  0
  2 25  1  0  0  0  0
  3  4  1  0  0  0  0
  3 26  1  0  0  0  0
  3 27  1  0  0  0  0
  4  5  1  0  0  0  0
  4 28  1  0  0  0  0
  5  6  2  0  0  0  0
  5  7  1  0  0  0  0
  7  8  1  0  0  0  0
  7 29  1  0  0  0  0
  8 15  2  0  0  0  0
  8  9  1  0  0  0  0
  9 10  2  0  0  0  0
  9 30  1  0  0  0  0
 10 11  1  0  0  0  0
 10 31  1  0  0  0  0
 11 12  2  0  0  0  0
 11 13  1  0  0  0  0
 13 14  1  0  0  0  0
 13 15  1  0  0  0  0
 14 32  1  0  0  0  0
 14 33  1  0  0  0  0
 14 34  1  0  0  0  0
 15 35  1  0  0  0  0
 16 21  1  0  0  0  0
 16 17  1  0  0  0  0
 16 44  1  0  0  0  0
 17 18  1  0  0  0  0
 17 36  1  0  0  0  0
 17 37  1  0  0  0  0
 18 19  1  0  0  0  0
 18 38  1  0  0  0  0
 18 39  1  0  0  0  0
 19 20  1  0  0  0  0
 20 21  1  0  0  0  0
 20 40  1  0  0  0  0
 20 41  1  0  0  0  0
 21 42  1  0  0  0  0
 21 43  1  0  0  0  0
M  CHG  1  16   1
M  END
> <s_m_source_file>
AV-unprocessed.smi

> <i_m_source_file_index>
1100

> <i_lp_mmshare_version>
43012

> <i_f3d_flags>
0

> <s_epik_input>
W0NIMl0xW0NIMl1PW0NIMl1bQ0gyXU4xW0NASF0oW0NIM10pW0NIMl1bTkhdQyg9TylbTkhdYzJbY0hdW2NIXWMoPU8pbihbQ0gzXSlbY0hdMg==

> <s_epik_cmdline>
J2VwaWtfcHl0aG9uJywgJy1waCcsICc3LjAnLCAnLXRuJywgJzgnLCAnLW1hJywgJzIwMCcsICctbWV0YWxfYmluZGluZycsICctaW1hZScsICc8aW5maWxlLm1hZT4nLCAnLW9tYWUnLCAnPG91dGZpbGUubWFlPic=

> <r_lp_tautomer_probability>
1

> <r_epik_Ionization_Penalty>
0.602556

> <r_epik_Ionization_Penalty_Charging>
0.602536

> <r_epik_Ionization_Penalty_Neutral>
1.99507e-05

> <r_epik_State_Penalty>
0.617039

> <r_epik_Charging_Adjusted_Penalty>
1.21958

> <i_epik_Tot_Q>
1

> <i_epik_Tot_abs_Q>
1

> <r_epik_Metal_State_Penalty>
0.619464

> <b_epik_Metal_Only>
0

> <s_lp_Force_Field>
OPLS_2005

> <r_lp_Energy>
33.6123

> <b_lp_Chiralities_Consistent>
1

> <s_lp_Variant>
AV-unprocessed.smi:1100-4

> <Gold.Version>
5.8.1

> <Gold.Id.Protein>
6NUR|6NUR_protein|mol2

> <Gold.PLP.Fitness>
48.4667

> <Gold.PLP.PLP>
-34.8957

> <Gold.PLP.part.hbond>
-4.0000

> <Gold.PLP.part.metal>
0.0000

> <Gold.PLP.part.buried>
-5.3352

> <Gold.PLP.part.nonpolar>
-27.5072

> <Gold.PLP.part.repulsive>
1.5317

> <Gold.PLP.ligand.clash>
0.0000

> <Gold.PLP.ligand.torsion>
0.6388

> <Gold.PLP.Chemscore.Hbond>
4.9360

> <Gold.PLP.Chemscore.CHOScore>
0.0000

> <Gold.PLP.Chemscore.Metal>
0.0000

> <Gold.Chemscore.Hbonds>
donor molecule, donor type, donor heavy atom, donor atom, acceptor molecule, acceptor atom, score
      L1  H     4    28       P1  7948  0.96
      L1  H     7    29       P1  7948  1.00
      P1  H 10785 10796       L1    12  0.91

> <Gold.PLP.Chemscore.Internal.Correction>
0.0407

> <Gold.Rescore>
     Score         DG    S(hbond)    S(metal)    S(lipo)     H(rot)  DE(clash)    DE(int)     intcor
     18.11     -22.30       3.75        0.00      70.53       1.54       2.15       2.05       ----

> <Gold.Chemscore.Fitness>
18.1062

> <Gold.Chemscore.DG>
-22.3027

> <Gold.Chemscore.ZeroCoef>
-5.4800

> <Gold.Chemscore.Hbond>
3.7464

> <Gold.Chemscore.Metal>
0.0000

> <Gold.Chemscore.Lipo>
70.5284

> <Gold.Chemscore.Internal_Hbond>
0.0000

> <Gold.Chemscore.DEClash>
2.1503

> <Gold.Chemscore.DEInternal>
2.0463

> <Gold.Chemscore.Rot>
1.5398

> <Gold.Chemscore.Internal.Correction>
   9.000000E+99

> <Gold.Chemscore.Hbonds>
donor molecule, donor type, donor heavy atom, donor atom, acceptor molecule, acceptor atom, score
      L1  H     4    28       P1  7948  0.91
      L1  H     7    29       P1  7948  1.00
      P1  H 10785 10796       L1    12  0.89

> <Gold.Chemscore.Hbond.Weighted>
-12.5129

> <Gold.Chemscore.Metal.Weighted>
-0.0000

> <Gold.Chemscore.Lipo.Weighted>
-8.2518

> <Gold.Chemscore.Internal_Hbond.Weighted>
0.0000

> <Gold.Chemscore.DEClash.Weighted>
2.1503

> <Gold.Chemscore.DEInternal.Weighted>
2.0463

> <Gold.Chemscore.Rot.Weighted>
3.9420

> <Gold.Chemscore.Internal.Correction.Weighted>
   9.000000E+99

> <Gold.Protein.RotatedTorsions>
[ 6907 6896 6895 6894 ] final  -79.44 input  -60.11 | X-H torsion
[ 7974 7965 7964 7962 ] final   51.33 input  175.53 | X-H torsion
[ 8008 7997 7996 7995 ] final -154.06 input   59.86 | X-H torsion
[ 10167 10162 10161 10158 ] final  125.58 input  -65.29 | X-H torsion
[ 10718 10713 10712 10709 ] final -128.67 input   66.30 | X-H torsion
[ 10763 10752 10751 10750 ] final   23.39 input  -60.55 | X-H torsion
[ 11005 11000 10999 10996 ] final -113.01 input  -57.11 | X-H torsion

> <Gold.Protein.ActiveResidues>
 VAL166  LYS551  ARG553  GLY616  TRP617  ASP618  TYR619  PRO620  LYS621  CYS622 
 ASP623  PHE694  ASN695  SER759  ASP760  ASP761  ALA762  ILE779  LEU786  VAL792 
 PHE793  MET794  SER795  GLU796  ALA797  LYS798  CYS799  TRP800  GLU811  SER814 

> <Gold.Protein.RotatedAtoms>
  150.6950  134.4121  159.5166 H   0  0  0  0  0  0  0  0  0  0  0  0  # atno 6907 bound_to 6896
  152.1877  134.8696  160.0529 H   0  0  0  0  0  0  0  0  0  0  0  0  # atno 6908 bound_to 6896
  151.9663  133.3676  159.4091 H   0  0  0  0  0  0  0  0  0  0  0  0  # atno 6909 bound_to 6896
  145.9924  139.4352  143.0065 H   0  0  0  0  0  0  0  0  0  0  0  0  # atno 7974 bound_to 7965
  155.6805  140.0743  157.2486 H   0  0  0  0  0  0  0  0  0  0  0  0  # atno 8008 bound_to 7997
  154.4106  140.1683  156.2029 H   0  0  0  0  0  0  0  0  0  0  0  0  # atno 8009 bound_to 7997
  155.9539  140.3375  155.6434 H   0  0  0  0  0  0  0  0  0  0  0  0  # atno 8010 bound_to 7997
  139.5678  144.6921  151.3863 H   0  0  0  0  0  0  0  0  0  0  0  0  # atno 10167 bound_to 10162
  156.1973  130.6834  151.0497 H   0  0  0  0  0  0  0  0  0  0  0  0  # atno 10718 bound_to 10713
  153.0842  135.6628  153.9984 H   0  0  0  0  0  0  0  0  0  0  0  0  # atno 10763 bound_to 10752
  153.9598  135.2975  155.3435 H   0  0  0  0  0  0  0  0  0  0  0  0  # atno 10764 bound_to 10752
  154.7247  135.5149  153.8939 H   0  0  0  0  0  0  0  0  0  0  0  0  # atno 10765 bound_to 10752
  141.0641  133.9488  157.2612 H   0  0  0  0  0  0  0  0  0  0  0  0  # atno 11005 bound_to 11000
  145.7610  140.9935  143.1200 LP  0  0  0  0  0  0  0  0  0  0  0  0  # atno 17320 bound_to 7965
  144.6893  139.9331  143.7472 LP  0  0  0  0  0  0  0  0  0  0  0  0  # atno 17321 bound_to 7965
  140.6962  143.7744  150.7330 LP  0  0  0  0  0  0  0  0  0  0  0  0  # atno 17342 bound_to 10162
  140.1241  143.4585  152.2295 LP  0  0  0  0  0  0  0  0  0  0  0  0  # atno 17343 bound_to 10162
  157.6965  131.0792  150.6952 LP  0  0  0  0  0  0  0  0  0  0  0  0  # atno 17370 bound_to 10713
  156.7009  130.4623  149.5573 LP  0  0  0  0  0  0  0  0  0  0  0  0  # atno 17371 bound_to 10713
  139.9459  135.0184  156.8851 LP  0  0  0  0  0  0  0  0  0  0  0  0  # atno 17394 bound_to 11000
  140.5810  134.0352  155.7464 LP  0  0  0  0  0  0  0  0  0  0  0  0  # atno 17395 bound_to 11000

$$$$
