#       Name:                AV-unprocessed.smi:3274
#       Creating user name   scv26
#       Creation time:       Fri Mar 27 18:44:03 2020


#       File generated by GOLD software.
#

@<TRIPOS>MOLECULE
AV-unprocessed.smi:3274
    45    46     1
SMALL
NO_CHARGES


@<TRIPOS>ATOM
      1 ****         1.2006   2.9629   0.1224 C.3            1 S1                 0.0000
      2 ****        -0.0957   2.4031   0.6841 C.2            1 S1                 0.0000
      3 ****        -0.7037   2.9883   1.7350 C.2            1 S1                 0.0000
      4 ****        -2.0252   2.5370   2.3330 C.3            1 S1                 0.0000
      5 ****        -2.5374   1.2132   1.7404 C.3            1 S1                 0.0000
      6 ****        -2.2302   1.1150   0.2364 C.3            1 S1                 0.0000
      7 ****        -2.9377  -0.0807  -0.4263 C.3            1 S1                 0.0000
      8 ****        -0.6987   1.1822  -0.0220 C.3            1 S1                 0.0000
      9 ****         0.0375  -0.1294   0.3525 C.3            1 S1                 0.0000
     10 ****         1.4318  -0.1621  -0.1376 N.4            1 S1                 1.0000
     11 ****         2.1306  -1.4559   0.0368 C.3            1 S1                 0.0000
     12 ****         3.5514  -1.1983   0.5556 C.3            1 S1                 0.0000
     13 ****         2.1676  -2.2538  -1.2847 C.3            1 S1                 0.0000
     14 ****         0.8463  -2.6206  -1.7604 N.pl3          1 S1                 0.0000
     15 ****         0.0517  -3.6371  -1.4215 C.2            1 S1                 0.0000
     16 ****        -1.1138  -3.6373  -2.0530 N.2            1 S1                 0.0000
     17 ****        -0.9560  -2.5228  -2.8275 C.2            1 S1                 0.0000
     18 ****         0.2006  -1.8746  -2.6878 N.2            1 S1                 0.0000
     19 ****         1.1300   3.0805  -0.9593 H              1 S1                 0.0000
     20 ****         2.0465   2.3164   0.3495 H              1 S1                 0.0000
     21 ****         1.4203   3.9429   0.5477 H              1 S1                 0.0000
     22 ****        -0.2602   3.8621   2.1902 H              1 S1                 0.0000
     23 ****        -1.9250   2.4512   3.4152 H              1 S1                 0.0000
     24 ****        -2.7532   3.3271   2.1466 H              1 S1                 0.0000
     25 ****        -2.0794   0.3743   2.2652 H              1 S1                 0.0000
     26 ****        -3.6102   1.1301   1.9183 H              1 S1                 0.0000
     27 ****        -2.6620   2.0026  -0.2301 H              1 S1                 0.0000
     28 ****        -2.7005  -1.0237   0.0661 H              1 S1                 0.0000
     29 ****        -2.6636  -0.1683  -1.4780 H              1 S1                 0.0000
     30 ****        -4.0204   0.0388  -0.3798 H              1 S1                 0.0000
     31 ****        -0.5754   1.3371  -1.0951 H              1 S1                 0.0000
     32 ****         0.0406  -0.2708   1.4338 H              1 S1                 0.0000
     33 ****        -0.4802  -0.9864  -0.0706 H              1 S1                 0.0000
     34 ****         1.4414   0.0746  -1.1197 H              1 S1                 0.0000
     35 ****         1.6118  -2.0455   0.7947 H              1 S1                 0.0000
     36 ****         4.0863  -2.1347   0.7174 H              1 S1                 0.0000
     37 ****         3.5314  -0.6646   1.5065 H              1 S1                 0.0000
     38 ****         4.1315  -0.6015  -0.1491 H              1 S1                 0.0000
     39 ****         2.6791  -1.6848  -2.0629 H              1 S1                 0.0000
     40 ****         2.7383  -3.1735  -1.1492 H              1 S1                 0.0000
     41 ****         0.3256  -4.3846  -0.6912 H              1 S1                 0.0000
     42 ****        -1.7183  -2.1753  -3.5091 H              1 S1                 0.0000
     43 ****         1.9455   0.5463   0.3667 H              1 S1                 0.0000
     44 ****        -1.8851  -4.2699  -1.9828 LP             1 S1                 0.0000
     45 ****         0.5129  -1.0455  -3.1515 LP             1 S1                 0.0000
@<TRIPOS>BOND
    1    1    2 1     
    2    1   19 1     
    3    1   20 1     
    4    1   21 1     
    5    2    8 1     
    6    2    3 2     
    7    3    4 1     
    8    3   22 1     
    9    4    5 1     
   10    4   23 1     
   11    4   24 1     
   12    5    6 1     
   13    5   25 1     
   14    5   26 1     
   15    6    7 1     
   16    6    8 1     
   17    6   27 1     
   18    7   28 1     
   19    7   29 1     
   20    7   30 1     
   21    8    9 1     
   22    8   31 1     
   23    9   10 1     
   24    9   32 1     
   25    9   33 1     
   26   10   11 1     
   27   10   34 1     
   28   10   43 1     
   29   11   12 1     
   30   11   13 1     
   31   11   35 1     
   32   12   36 1     
   33   12   37 1     
   34   12   38 1     
   35   13   14 1     
   36   13   39 1     
   37   13   40 1     
   38   14   18 1     
   39   14   15 1     
   40   15   16 2     
   41   15   41 1     
   42   16   17 1     
   43   17   18 2     
   44   17   42 1     
   45   16   44 1     
   46   18   45 1     
@<TRIPOS>SUBSTRUCTURE
      1 S1             1
@<TRIPOS>SET
LONE_PAIRS      STATIC     ATOMS    <user>   **** ""
2 44 45
DONOR_HYDROGENS      STATIC     ATOMS    <user>   **** ""
2 34 43
ATOM$BLUE        STATIC     ATOMS    COLORGROUP SYSTEM
2 44 45
ATOM$RED        STATIC     ATOMS    COLORGROUP SYSTEM
2 34 43
