AV-unprocessed.smi:1666|AV-procd|sdf|6672|dock1
  -GOLD-   22720 7383D 1   1.00000     0.00000
 Structure written by MMmdl.
 40 41  0  0  0  0  0  0  0  0  2 V2000
  149.7856  144.9876  159.2554 C   0  0  0  0  0  0  0  0  0  0  0  0
  150.9366  144.0233  159.4924 C   0  0  0  0  0  0  0  0  0  0  0  0
  151.7044  144.1414  160.6704 C   0  0  0  0  0  0  0  0  0  0  0  0
  152.7678  143.2489  160.8884 C   0  0  0  0  0  0  0  0  0  0  0  0
  153.0205  142.2698  159.9125 C   0  0  0  0  0  0  0  0  0  0  0  0
  152.2920  142.1493  158.7842 N   0  0  0  0  0  0  0  0  0  0  0  0
  151.2612  143.0025  158.5589 C   0  0  0  0  0  0  0  0  0  0  0  0
  150.4506  142.9345  157.3909 N   0  0  0  0  0  0  0  0  0  0  0  0
  150.3764  141.9471  156.4811 C   0  0  0  0  0  0  0  0  0  0  0  0
  151.0164  140.8952  156.5124 O   0  0  0  0  0  0  0  0  0  0  0  0
  149.5047  142.2472  155.5074 N   0  0  0  0  0  0  0  0  0  0  0  0
  149.1987  141.3841  154.3729 C   0  0  0  0  0  0  0  0  0  0  0  0
  147.8312  141.7313  153.7537 C   0  0  0  0  0  0  0  0  0  0  0  0
  147.0033  142.5774  154.6482 N   0  3  0  0  0  0  0  0  0  0  0  0
  145.8617  143.2010  153.9368 C   0  0  0  0  0  0  0  0  0  0  0  0
  145.0594  144.1035  154.8894 C   0  0  0  0  0  0  0  0  0  0  0  0
  144.6151  143.3427  156.0054 O   0  0  0  0  0  0  0  0  0  0  0  0
  145.7021  142.8102  156.7517 C   0  0  0  0  0  0  0  0  0  0  0  0
  146.5284  141.8663  155.8617 C   0  0  0  0  0  0  0  0  0  0  0  0
  149.6995  145.7102  160.0675 H   0  0  0  0  0  0  0  0  0  0  0  0
  148.8418  144.4460  159.1876 H   0  0  0  0  0  0  0  0  0  0  0  0
  149.9353  145.5422  158.3286 H   0  0  0  0  0  0  0  0  0  0  0  0
  151.4834  144.9061  161.4006 H   0  0  0  0  0  0  0  0  0  0  0  0
  153.3737  143.3130  161.7800 H   0  0  0  0  0  0  0  0  0  0  0  0
  153.8281  141.5643  160.0401 H   0  0  0  0  0  0  0  0  0  0  0  0
  149.8586  143.7359  157.2312 H   0  0  0  0  0  0  0  0  0  0  0  0
  149.0189  143.1311  155.5562 H   0  0  0  0  0  0  0  0  0  0  0  0
  150.0023  141.4615  153.6401 H   0  0  0  0  0  0  0  0  0  0  0  0
  149.1966  140.3515  154.7229 H   0  0  0  0  0  0  0  0  0  0  0  0
  148.0104  142.2667  152.8199 H   0  0  0  0  0  0  0  0  0  0  0  0
  147.2764  140.8299  153.4889 H   0  0  0  0  0  0  0  0  0  0  0  0
  146.2261  143.7907  153.0948 H   0  0  0  0  0  0  0  0  0  0  0  0
  145.2161  142.4220  153.5280 H   0  0  0  0  0  0  0  0  0  0  0  0
  145.6616  144.9490  155.2261 H   0  0  0  0  0  0  0  0  0  0  0  0
  144.1912  144.5157  154.3748 H   0  0  0  0  0  0  0  0  0  0  0  0
  146.3217  143.6188  157.1433 H   0  0  0  0  0  0  0  0  0  0  0  0
  145.3074  142.2670  157.6105 H   0  0  0  0  0  0  0  0  0  0  0  0
  145.9215  141.0078  155.5691 H   0  0  0  0  0  0  0  0  0  0  0  0
  147.3709  141.4799  156.4341 H   0  0  0  0  0  0  0  0  0  0  0  0
  147.5933  143.3362  154.9590 H   0  0  0  0  0  0  0  0  0  0  0  0
  1  2  1  0  0  0  0
  1 20  1  0  0  0  0
  1 21  1  0  0  0  0
  1 22  1  0  0  0  0
  2  7  1  0  0  0  0
  2  3  2  0  0  0  0
  3  4  1  0  0  0  0
  3 23  1  0  0  0  0
  4  5  2  0  0  0  0
  4 24  1  0  0  0  0
  5  6  1  0  0  0  0
  5 25  1  0  0  0  0
  6  7  2  0  0  0  0
  7  8  1  0  0  0  0
  8  9  1  0  0  0  0
  8 26  1  0  0  0  0
  9 10  2  0  0  0  0
  9 11  1  0  0  0  0
 11 12  1  0  0  0  0
 11 27  1  0  0  0  0
 12 13  1  0  0  0  0
 12 28  1  0  0  0  0
 12 29  1  0  0  0  0
 13 14  1  0  0  0  0
 13 30  1  0  0  0  0
 13 31  1  0  0  0  0
 14 19  1  0  0  0  0
 14 15  1  0  0  0  0
 14 40  1  0  0  0  0
 15 16  1  0  0  0  0
 15 32  1  0  0  0  0
 15 33  1  0  0  0  0
 16 17  1  0  0  0  0
 16 34  1  0  0  0  0
 16 35  1  0  0  0  0
 17 18  1  0  0  0  0
 18 19  1  0  0  0  0
 18 36  1  0  0  0  0
 18 37  1  0  0  0  0
 19 38  1  0  0  0  0
 19 39  1  0  0  0  0
M  CHG  1  14   1
M  END
> <s_m_source_file>
AV-unprocessed.smi

> <i_m_source_file_index>
1666

> <i_lp_mmshare_version>
43012

> <i_f3d_flags>
0

> <s_epik_input>
W0NIM11jMVtjSF1bY0hdW2NIXW5jMVtOSF1DKD1PKVtOSF1bQ0gyXVtDSDJdTjJbQ0gyXVtDSDJdT1tDSDJdW0NIMl0y

> <s_epik_cmdline>
J2VwaWtfcHl0aG9uJywgJy1waCcsICc3LjAnLCAnLXRuJywgJzgnLCAnLW1hJywgJzIwMCcsICctbWV0YWxfYmluZGluZycsICctaW1hZScsICc8aW5maWxlLm1hZT4nLCAnLW9tYWUnLCAnPG91dGZpbGUubWFlPic=

> <r_epik_Ionization_Penalty>
0.602573

> <r_epik_Ionization_Penalty_Charging>
0.602531

> <r_epik_Ionization_Penalty_Neutral>
4.20806e-05

> <r_epik_State_Penalty>
0.617039

> <r_epik_Charging_Adjusted_Penalty>
1.21957

> <i_epik_Tot_Q>
1

> <i_epik_Tot_abs_Q>
1

> <r_epik_Metal_State_Penalty>
0.617042

> <b_epik_Metal_Only>
0

> <s_lp_Force_Field>
OPLS_2005

> <r_lp_Energy>
16.3818

> <b_lp_Chiralities_Consistent>
1

> <s_lp_Variant>
AV-unprocessed.smi:1666-2

> <Gold.Version>
5.8.1

> <Gold.Id.Protein>
6NUR|6NUR_protein|mol2

> <Gold.PLP.Fitness>
47.2707

> <Gold.PLP.PLP>
-37.2270

> <Gold.PLP.part.hbond>
-3.0000

> <Gold.PLP.part.metal>
0.0000

> <Gold.PLP.part.buried>
-4.3560

> <Gold.PLP.part.nonpolar>
-28.8845

> <Gold.PLP.part.repulsive>
0.4234

> <Gold.PLP.ligand.clash>
0.0000

> <Gold.PLP.ligand.torsion>
0.5840

> <Gold.PLP.Chemscore.Hbond>
3.7160

> <Gold.PLP.Chemscore.CHOScore>
0.0000

> <Gold.PLP.Chemscore.Metal>
0.0000

> <Gold.Chemscore.Hbonds>
donor molecule, donor type, donor heavy atom, donor atom, acceptor molecule, acceptor atom, score
      L1  H     8    26       P1  8028  0.72
      L1  H    11    27       P1  8028  1.00
      L1  H    14    40       P1  8028  2.00

> <Gold.PLP.Chemscore.Internal.Correction>
0.0637

> <Gold.Rescore>
     Score         DG    S(hbond)    S(metal)    S(lipo)     H(rot)  DE(clash)    DE(int)     intcor
     15.67     -18.80       2.23        0.00      83.93       1.54       1.22       1.91       ----

> <Gold.Chemscore.Fitness>
15.6655

> <Gold.Chemscore.DG>
-18.7977

> <Gold.Chemscore.ZeroCoef>
-5.4800

> <Gold.Chemscore.Hbond>
2.2263

> <Gold.Chemscore.Metal>
0.0000

> <Gold.Chemscore.Lipo>
83.9267

> <Gold.Chemscore.Internal_Hbond>
0.0000

> <Gold.Chemscore.DEClash>
1.2214

> <Gold.Chemscore.DEInternal>
1.9109

> <Gold.Chemscore.Rot>
1.5381

> <Gold.Chemscore.Internal.Correction>
   9.000000E+99

> <Gold.Chemscore.Hbonds>
donor molecule, donor type, donor heavy atom, donor atom, acceptor molecule, acceptor atom, score
      L1  H     8    26       P1  8028  0.61
      L1  H    11    27       P1  8028  0.97
      L1  H    14    40       P1  8028  0.34

> <Gold.Chemscore.Hbond.Weighted>
-7.4358

> <Gold.Chemscore.Metal.Weighted>
-0.0000

> <Gold.Chemscore.Lipo.Weighted>
-9.8194

> <Gold.Chemscore.Internal_Hbond.Weighted>
0.0000

> <Gold.Chemscore.DEClash.Weighted>
1.2214

> <Gold.Chemscore.DEInternal.Weighted>
1.9109

> <Gold.Chemscore.Rot.Weighted>
3.9375

> <Gold.Chemscore.Internal.Correction.Weighted>
   9.000000E+99

> <Gold.Protein.RotatedTorsions>
[ 6907 6896 6895 6894 ] final  152.78 input  -60.11 | X-H torsion
[ 7974 7965 7964 7962 ] final  127.63 input  175.53 | X-H torsion
[ 8008 7997 7996 7995 ] final  -57.96 input   59.86 | X-H torsion
[ 10167 10162 10161 10158 ] final -111.69 input  -65.29 | X-H torsion
[ 10718 10713 10712 10709 ] final  -87.80 input   66.30 | X-H torsion
[ 10763 10752 10751 10750 ] final  -16.32 input  -60.55 | X-H torsion
[ 11005 11000 10999 10996 ] final -132.81 input  -57.11 | X-H torsion

> <Gold.Protein.ActiveResidues>
 VAL166  LYS551  ARG553  GLY616  TRP617  ASP618  TYR619  PRO620  LYS621  CYS622 
 ASP623  PHE694  ASN695  SER759  ASP760  ASP761  ALA762  ILE779  LEU786  VAL792 
 PHE793  MET794  SER795  GLU796  ALA797  LYS798  CYS799  TRP800  GLU811  SER814 

> <Gold.Protein.RotatedAtoms>
  152.0819  133.4157  159.4504 H   0  0  0  0  0  0  0  0  0  0  0  0  # atno 6907 bound_to 6896
  150.6862  134.2972  159.4700 H   0  0  0  0  0  0  0  0  0  0  0  0  # atno 6908 bound_to 6896
  152.0815  134.9467  160.0624 H   0  0  0  0  0  0  0  0  0  0  0  0  # atno 6909 bound_to 6896
  145.0484  139.3904  143.5066 H   0  0  0  0  0  0  0  0  0  0  0  0  # atno 7974 bound_to 7965
  154.4289  140.1095  156.5881 H   0  0  0  0  0  0  0  0  0  0  0  0  # atno 8008 bound_to 7997
  155.6041  140.3493  155.4584 H   0  0  0  0  0  0  0  0  0  0  0  0  # atno 8009 bound_to 7997
  156.0150  140.1227  157.0405 H   0  0  0  0  0  0  0  0  0  0  0  0  # atno 8010 bound_to 7997
  140.1309  143.4361  152.1628 H   0  0  0  0  0  0  0  0  0  0  0  0  # atno 10167 bound_to 10162
  155.9984  130.4813  150.4921 H   0  0  0  0  0  0  0  0  0  0  0  0  # atno 10718 bound_to 10713
  153.5567  135.7010  153.5566 H   0  0  0  0  0  0  0  0  0  0  0  0  # atno 10763 bound_to 10752
  153.3466  135.4006  155.1613 H   0  0  0  0  0  0  0  0  0  0  0  0  # atno 10764 bound_to 10752
  154.8653  135.3755  154.5082 H   0  0  0  0  0  0  0  0  0  0  0  0  # atno 10765 bound_to 10752
  140.9137  134.1534  157.4369 H   0  0  0  0  0  0  0  0  0  0  0  0  # atno 11005 bound_to 11000
  146.3516  140.0121  142.8666 LP  0  0  0  0  0  0  0  0  0  0  0  0  # atno 17320 bound_to 7965
  145.1558  140.9647  143.4406 LP  0  0  0  0  0  0  0  0  0  0  0  0  # atno 17321 bound_to 7965
  139.5520  144.7345  151.4406 LP  0  0  0  0  0  0  0  0  0  0  0  0  # atno 17342 bound_to 10162
  140.6817  143.8066  150.7131 LP  0  0  0  0  0  0  0  0  0  0  0  0  # atno 17343 bound_to 10162
  157.2915  131.0627  151.2130 LP  0  0  0  0  0  0  0  0  0  0  0  0  # atno 17370 bound_to 10713
  157.3141  130.6904  149.6232 LP  0  0  0  0  0  0  0  0  0  0  0  0  # atno 17371 bound_to 10713
  139.8762  134.9945  156.5699 LP  0  0  0  0  0  0  0  0  0  0  0  0  # atno 17394 bound_to 11000
  140.8077  133.8454  155.8782 LP  0  0  0  0  0  0  0  0  0  0  0  0  # atno 17395 bound_to 11000

$$$$
