AV-unprocessed.smi:40|AV-procd|sdf|371|dock7
  -GOLD-   2262016213D 1   1.00000     0.00000
 Structure written by MMmdl.
 47 48  0  0  0  0  0  0  0  0  1 V2000
  151.7416  144.8921  160.2239 C   0  0  0  0  0  0  0  0  0  0  0  0
  152.1088  143.5173  160.7932 C   0  0  0  0  0  0  0  0  0  0  0  0
  152.8318  142.6292  159.7702 C   0  0  0  0  0  0  0  0  0  0  0  0
  153.1992  141.2529  160.3404 C   0  0  0  0  0  0  0  0  0  0  0  0
  153.4764  140.2209  159.2368 C   0  0  0  0  0  0  0  0  0  0  0  0
  152.8205  140.5883  158.0309 O   0  0  0  0  0  0  0  0  0  0  0  0
  151.6392  140.0337  157.6852 C   0  0  0  0  0  0  0  0  0  0  0  0
  151.0621  139.1739  158.3506 O   0  0  0  0  0  0  0  0  0  0  0  0
  151.1174  140.5961  156.4498 N   0  0  0  0  0  0  0  0  0  0  0  0
  149.9730  140.3069  155.7822 C   0  0  0  0  0  0  0  0  0  0  0  0
  148.8777  141.0434  155.8773 N   0  0  0  0  0  0  0  0  0  0  0  0
  147.7179  140.7840  155.1992 C   0  0  0  0  0  0  0  0  0  0  0  0
  146.7198  141.4789  155.3829 O   0  0  0  0  0  0  0  0  0  0  0  0
  147.7133  139.6902  154.2992 N   0  0  0  0  0  0  0  0  0  0  0  0
  146.4235  139.3610  153.5637 C   0  0  2  0  0  0  0  0  0  0  0  0
  145.5702  138.6391  154.4093 O   0  0  0  0  0  0  0  0  0  0  0  0
  145.5312  137.2612  154.0478 C   0  0  2  0  0  0  0  0  0  0  0  0
  146.6050  136.4642  154.8152 C   0  0  0  0  0  0  0  0  0  0  0  0
  145.7087  137.3086  152.5288 C   0  0  2  0  0  0  0  0  0  0  0  0
  146.2239  136.1012  152.0019 O   0  0  0  0  0  0  0  0  0  0  0  0
  146.6689  138.4727  152.3181 C   0  0  1  0  0  0  0  0  0  0  0  0
  146.3367  139.1429  151.1186 O   0  0  0  0  0  0  0  0  0  0  0  0
  148.8432  138.8858  154.2124 C   0  0  0  0  0  0  0  0  0  0  0  0
  149.9715  139.1585  154.9025 C   0  0  0  0  0  0  0  0  0  0  0  0
  151.0581  138.3768  154.7774 F   0  0  0  0  0  0  0  0  0  0  0  0
  145.9804  140.3333  153.3408 H   0  0  0  0  0  0  0  0  0  0  0  0
  144.5518  136.8550  154.3031 H   0  0  0  0  0  0  0  0  0  0  0  0
  144.7418  137.5232  152.0699 H   0  0  0  0  0  0  0  0  0  0  0  0
  147.7029  138.1239  152.2993 H   0  0  0  0  0  0  0  0  0  0  0  0
  151.2307  145.4988  160.9720 H   0  0  0  0  0  0  0  0  0  0  0  0
  151.0795  144.7976  159.3630 H   0  0  0  0  0  0  0  0  0  0  0  0
  152.6316  145.4359  159.9057 H   0  0  0  0  0  0  0  0  0  0  0  0
  152.7398  143.6506  161.6727 H   0  0  0  0  0  0  0  0  0  0  0  0
  151.2022  143.0174  161.1364 H   0  0  0  0  0  0  0  0  0  0  0  0
  152.1991  142.4985  158.8914 H   0  0  0  0  0  0  0  0  0  0  0  0
  153.7364  143.1331  159.4275 H   0  0  0  0  0  0  0  0  0  0  0  0
  154.0802  141.3446  160.9766 H   0  0  0  0  0  0  0  0  0  0  0  0
  152.3904  140.8989  160.9804 H   0  0  0  0  0  0  0  0  0  0  0  0
  154.5487  140.0979  159.0778 H   0  0  0  0  0  0  0  0  0  0  0  0
  153.0948  139.2470  159.5439 H   0  0  0  0  0  0  0  0  0  0  0  0
  151.7164  141.2950  156.0345 H   0  0  0  0  0  0  0  0  0  0  0  0
  146.5441  135.4000  154.5859 H   0  0  0  0  0  0  0  0  0  0  0  0
  146.4694  136.5685  155.8917 H   0  0  0  0  0  0  0  0  0  0  0  0
  147.6138  136.7957  154.5694 H   0  0  0  0  0  0  0  0  0  0  0  0
  145.8714  135.3829  152.5051 H   0  0  0  0  0  0  0  0  0  0  0  0
  145.4055  139.0547  150.9785 H   0  0  0  0  0  0  0  0  0  0  0  0
  148.8561  138.0107  153.5811 H   0  0  0  0  0  0  0  0  0  0  0  0
  1  2  1  0  0  0  0
  1 30  1  0  0  0  0
  1 31  1  0  0  0  0
  1 32  1  0  0  0  0
  2  3  1  0  0  0  0
  2 33  1  0  0  0  0
  2 34  1  0  0  0  0
  3  4  1  0  0  0  0
  3 35  1  0  0  0  0
  3 36  1  0  0  0  0
  4  5  1  0  0  0  0
  4 37  1  0  0  0  0
  4 38  1  0  0  0  0
  5  6  1  0  0  0  0
  5 39  1  0  0  0  0
  5 40  1  0  0  0  0
  6  7  1  0  0  0  0
  7  8  2  0  0  0  0
  7  9  1  0  0  0  0
  9 10  1  0  0  0  0
  9 41  1  0  0  0  0
 10 24  1  0  0  0  0
 10 11  2  0  0  0  0
 11 12  1  0  0  0  0
 12 13  2  0  0  0  0
 12 14  1  0  0  0  0
 14 15  1  0  0  0  0
 14 23  1  0  0  0  0
 15 26  1  0  0  0  0
 15 21  1  0  0  0  0
 15 16  1  0  0  0  0
 16 17  1  0  0  0  0
 17 27  1  0  0  0  0
 17 18  1  0  0  0  0
 17 19  1  0  0  0  0
 18 42  1  0  0  0  0
 18 43  1  0  0  0  0
 18 44  1  0  0  0  0
 19 28  1  0  0  0  0
 19 20  1  0  0  0  0
 19 21  1  0  0  0  0
 20 45  1  0  0  0  0
 21 29  1  0  0  0  0
 21 22  1  0  0  0  0
 22 46  1  0  0  0  0
 23 24  2  0  0  0  0
 23 47  1  0  0  0  0
 24 25  1  0  0  0  0
M  END
> <s_m_source_file>
AV-unprocessed.smi

> <i_m_source_file_index>
40

> <i_lp_mmshare_version>
43012

> <i_f3d_flags>
0

> <s_epik_input>
W0NIM11bQ0gyXVtDSDJdW0NIMl1bQ0gyXU9DKD1PKVtOSF1jMW5jKD1PKW4oW2NIXWMxRilbQ0BASF0yT1tDQEhdKFtDSDNdKVtDQEBIXShbT0hdKVtDQEhdMltPSF0=

> <s_epik_cmdline>
J2VwaWtfcHl0aG9uJywgJy1waCcsICc3LjAnLCAnLXRuJywgJzgnLCAnLW1hJywgJzIwMCcsICctbWV0YWxfYmluZGluZycsICctaW1hZScsICc8aW5maWxlLm1hZT4nLCAnLW9tYWUnLCAnPG91dGZpbGUubWFlPic=

> <r_lp_tautomer_probability>
1

> <r_epik_Ionization_Penalty>
2.29506e-06

> <r_epik_Ionization_Penalty_Charging>
8.26867e-09

> <r_epik_Ionization_Penalty_Neutral>
2.2868e-06

> <r_epik_State_Penalty>
-0

> <r_epik_Charging_Adjusted_Penalty>
8.26867e-09

> <i_epik_Tot_Q>
0

> <i_epik_Tot_abs_Q>
0

> <r_epik_Metal_State_Penalty>
-0

> <b_epik_Metal_Only>
0

> <s_epik_Chemistry_Notes>
This compound has an ester and may undergo hydrolysis at high or low pH. This compound contains an acetal/aminal-like group ( X-CH(R)-Y where X, Y are N, S, or O) that may be acid/base labile, releasing an aldehyde.

> <s_lp_Force_Field>
OPLS_2005

> <r_lp_Energy>
32.726

> <b_lp_Chiralities_Consistent>
1

> <s_lp_Variant>
AV-unprocessed.smi:40-5

> <Gold.Version>
5.8.1

> <Gold.Id.Protein>
6NUR|6NUR_protein|mol2

> <Gold.PLP.Fitness>
45.6743

> <Gold.PLP.PLP>
-41.0442

> <Gold.PLP.part.hbond>
-4.7150

> <Gold.PLP.part.metal>
0.0000

> <Gold.PLP.part.buried>
-2.3039

> <Gold.PLP.part.nonpolar>
-36.7611

> <Gold.PLP.part.repulsive>
1.5480

> <Gold.PLP.ligand.clash>
0.0000

> <Gold.PLP.ligand.torsion>
1.9566

> <Gold.PLP.Chemscore.Hbond>
1.8073

> <Gold.PLP.Chemscore.CHOScore>
1.0000

> <Gold.PLP.Chemscore.Metal>
0.0000

> <Gold.Chemscore.Hbonds>
donor molecule, donor type, donor heavy atom, donor atom, acceptor molecule, acceptor atom, score
      L1  H    22    46       P1 10171  1.00
      L1  C    23    47       P1  7948  1.00

> <Gold.PLP.Chemscore.Internal.Correction>
0.1215

> <Gold.Rescore>
     Score         DG    S(hbond)    S(metal)    S(lipo)     H(rot)  DE(clash)    DE(int)     intcor
      7.66     -10.64       1.61        0.00      78.95       3.70       1.33       1.65       ----

> <Gold.Chemscore.Fitness>
7.6595

> <Gold.Chemscore.DG>
-10.6362

> <Gold.Chemscore.ZeroCoef>
-5.4800

> <Gold.Chemscore.Hbond>
1.6108

> <Gold.Chemscore.Metal>
0.0000

> <Gold.Chemscore.Lipo>
78.9505

> <Gold.Chemscore.Internal_Hbond>
0.0000

> <Gold.Chemscore.DEClash>
1.3252

> <Gold.Chemscore.DEInternal>
1.6515

> <Gold.Chemscore.Rot>
3.6957

> <Gold.Chemscore.Internal.Correction>
   9.000000E+99

> <Gold.Chemscore.Hbonds>
donor molecule, donor type, donor heavy atom, donor atom, acceptor molecule, acceptor atom, score
      L1  H    22    46       P1 10171  0.93

> <Gold.Chemscore.Hbond.Weighted>
-5.3800

> <Gold.Chemscore.Metal.Weighted>
-0.0000

> <Gold.Chemscore.Lipo.Weighted>
-9.2372

> <Gold.Chemscore.Internal_Hbond.Weighted>
0.0000

> <Gold.Chemscore.DEClash.Weighted>
1.3252

> <Gold.Chemscore.DEInternal.Weighted>
1.6515

> <Gold.Chemscore.Rot.Weighted>
9.4610

> <Gold.Chemscore.Internal.Correction.Weighted>
   9.000000E+99

> <Gold.Protein.RotatedTorsions>
[ 6907 6896 6895 6894 ] final   59.90 input  -60.11 | X-H torsion
[ 7974 7965 7964 7962 ] final   82.10 input  175.53 | X-H torsion
[ 8008 7997 7996 7995 ] final -174.13 input   59.86 | X-H torsion
[ 10167 10162 10161 10158 ] final   94.48 input  -65.29 | X-H torsion
[ 10718 10713 10712 10709 ] final -118.13 input   66.30 | X-H torsion
[ 10763 10752 10751 10750 ] final   70.58 input  -60.55 | X-H torsion
[ 11005 11000 10999 10996 ] final  158.94 input  -57.11 | X-H torsion

> <Gold.Protein.ActiveResidues>
 VAL166  LYS551  ARG553  GLY616  TRP617  ASP618  TYR619  PRO620  LYS621  CYS622 
 ASP623  PHE694  ASN695  SER759  ASP760  ASP761  ALA762  ILE779  LEU786  VAL792 
 PHE793  MET794  SER795  GLU796  ALA797  LYS798  CYS799  TRP800  GLU811  SER814 

> <Gold.Protein.RotatedAtoms>
  152.3956  134.6371  160.0090 H   0  0  0  0  0  0  0  0  0  0  0  0  # atno 6907 bound_to 6896
  151.6592  133.3312  159.3178 H   0  0  0  0  0  0  0  0  0  0  0  0  # atno 6908 bound_to 6896
  150.7864  134.6895  159.6534 H   0  0  0  0  0  0  0  0  0  0  0  0  # atno 6909 bound_to 6896
  145.6295  139.2402  143.2093 H   0  0  0  0  0  0  0  0  0  0  0  0  # atno 7974 bound_to 7965
  155.9662  140.1154  157.0852 H   0  0  0  0  0  0  0  0  0  0  0  0  # atno 8008 bound_to 7997
  154.4144  140.1172  156.5313 H   0  0  0  0  0  0  0  0  0  0  0  0  # atno 8009 bound_to 7997
  155.6656  140.3473  155.4801 H   0  0  0  0  0  0  0  0  0  0  0  0  # atno 8010 bound_to 7997
  139.8080  144.6786  150.9678 H   0  0  0  0  0  0  0  0  0  0  0  0  # atno 10167 bound_to 10162
  156.1083  130.6228  150.9251 H   0  0  0  0  0  0  0  0  0  0  0  0  # atno 10718 bound_to 10713
  153.0349  135.5168  154.7462 H   0  0  0  0  0  0  0  0  0  0  0  0  # atno 10763 bound_to 10752
  154.6447  135.2917  155.0063 H   0  0  0  0  0  0  0  0  0  0  0  0  # atno 10764 bound_to 10752
  154.0969  135.6642  153.4914 H   0  0  0  0  0  0  0  0  0  0  0  0  # atno 10765 bound_to 10752
  140.1914  134.8405  157.2916 H   0  0  0  0  0  0  0  0  0  0  0  0  # atno 11005 bound_to 11000
  146.1368  140.7112  142.9386 LP  0  0  0  0  0  0  0  0  0  0  0  0  # atno 17320 bound_to 7965
  144.7199  140.4338  143.7016 LP  0  0  0  0  0  0  0  0  0  0  0  0  # atno 17321 bound_to 7965
  140.7818  143.4214  151.0835 LP  0  0  0  0  0  0  0  0  0  0  0  0  # atno 17342 bound_to 10162
  139.7882  143.8256  152.3148 LP  0  0  0  0  0  0  0  0  0  0  0  0  # atno 17343 bound_to 10162
  157.6262  131.0925  150.8528 LP  0  0  0  0  0  0  0  0  0  0  0  0  # atno 17370 bound_to 10713
  156.8643  130.5124  149.5301 LP  0  0  0  0  0  0  0  0  0  0  0  0  # atno 17371 bound_to 10713
  140.2156  134.4086  155.7591 LP  0  0  0  0  0  0  0  0  0  0  0  0  # atno 17394 bound_to 11000
  141.2226  133.7140  156.8408 LP  0  0  0  0  0  0  0  0  0  0  0  0  # atno 17395 bound_to 11000

$$$$
