#       Name:                AV-unprocessed.smi:652
#       Creating user name   scv26
#       Creation time:       Fri Mar 27 00:13:33 2020


#       File generated by GOLD software.
#

@<TRIPOS>MOLECULE
AV-unprocessed.smi:652
    54    55     1
SMALL
NO_CHARGES


@<TRIPOS>ATOM
      1 ****         8.1306  -4.8395   3.1546 C.3            1 S1                 0.0000
      2 ****         6.7766  -5.4370   3.5600 C.3            1 S1                 0.0000
      3 ****         6.6950  -6.9341   3.2217 C.3            1 S1                 0.0000
      4 ****         5.7035  -4.7009   2.8968 N.am           1 S1                 0.0000
      5 ****         4.4371  -4.6107   3.3323 C.2            1 S1                 0.0000
      6 ****         4.0355  -5.1575   4.3599 O.2            1 S1                 0.0000
      7 ****         3.4857  -3.7825   2.4621 C.3            1 S1                 0.0000
      8 ****         2.1601  -3.4306   3.1699 C.3            1 S1                 0.0000
      9 ****         1.3456  -2.4523   2.4060 N.4            1 S1                 1.0000
     10 ****         0.3011  -1.8184   3.2445 C.3            1 S1                 0.0000
     11 ****        -0.4904  -0.7833   2.4296 C.3            1 S1                 0.0000
     12 ****        -1.0524  -1.4114   1.2841 O.3            1 S1                 0.0000
     13 ****        -0.0595  -1.9382   0.4115 C.3            1 S1                 0.0000
     14 ****        -0.7840  -2.4962  -0.8244 C.3            1 S1                 0.0000
     15 ****         0.1427  -2.8744  -1.8815 N.pl3          1 S1                 0.0000
     16 ****        -0.3261  -3.4224  -3.0828 C.ar           1 S1                 0.0000
     17 ****         0.5081  -3.8153  -4.1553 C.ar           1 S1                 0.0000
     18 ****        -0.0943  -4.3524  -5.3056 C.ar           1 S1                 0.0000
     19 ****        -1.4957  -4.4656  -5.3150 C.ar           1 S1                 0.0000
     20 ****        -2.2759  -4.0839  -4.2792 N.ar           1 S1                 0.0000
     21 ****        -1.6699  -3.5736  -3.1927 N.pl3          1 S1                 1.0000
     22 ****         0.7449  -3.0157   1.1706 C.3            1 S1                 0.0000
     23 ****         8.9506  -5.3495   3.6609 H              1 S1                 0.0000
     24 ****         8.1895  -3.7828   3.4171 H              1 S1                 0.0000
     25 ****         8.2984  -4.9266   2.0806 H              1 S1                 0.0000
     26 ****         6.6717  -5.3181   4.6401 H              1 S1                 0.0000
     27 ****         7.4947  -7.4895   3.7125 H              1 S1                 0.0000
     28 ****         6.7827  -7.1048   2.1483 H              1 S1                 0.0000
     29 ****         5.7493  -7.3654   3.5514 H              1 S1                 0.0000
     30 ****         5.9467  -4.2230   2.0411 H              1 S1                 0.0000
     31 ****         3.9983  -2.8642   2.1717 H              1 S1                 0.0000
     32 ****         3.2978  -4.3439   1.5470 H              1 S1                 0.0000
     33 ****         1.5714  -4.3294   3.3620 H              1 S1                 0.0000
     34 ****         2.3915  -2.9968   4.1446 H              1 S1                 0.0000
     35 ****        -0.3735  -2.5845   3.6304 H              1 S1                 0.0000
     36 ****         0.7599  -1.3317   4.1060 H              1 S1                 0.0000
     37 ****        -1.2957  -0.3660   3.0342 H              1 S1                 0.0000
     38 ****         0.1474   0.0498   2.1297 H              1 S1                 0.0000
     39 ****         0.6014  -1.1266   0.1004 H              1 S1                 0.0000
     40 ****        -1.3943  -3.3552  -0.5425 H              1 S1                 0.0000
     41 ****        -1.4605  -1.7366  -1.2183 H              1 S1                 0.0000
     42 ****         1.1308  -2.7125  -1.7514 H              1 S1                 0.0000
     43 ****         1.5823  -3.7142  -4.1118 H              1 S1                 0.0000
     44 ****         0.4966  -4.6678  -6.1528 H              1 S1                 0.0000
     45 ****        -2.0065  -4.8730  -6.1752 H              1 S1                 0.0000
     46 ****         1.5269  -3.4074   0.5211 H              1 S1                 0.0000
     47 ****         0.0971  -3.8541   1.4321 H              1 S1                 0.0000
     48 ****         1.9711  -1.7109   2.1238 H              1 S1                 0.0000
     49 ****        -2.2535  -3.2846  -2.4075 H              1 S1                 0.0000
     50 ****         4.6644  -5.7015   4.9153 LP             1 S1                 0.0000
     51 ****         3.0805  -5.0575   4.6390 LP             1 S1                 0.0000
     52 ****        -1.5957  -0.7379   0.7829 LP             1 S1                 0.0000
     53 ****        -1.6440  -2.1591   1.5858 LP             1 S1                 0.0000
     54 ****        -3.2707  -4.1779  -4.3196 LP             1 S1                 0.0000
@<TRIPOS>BOND
    1    1    2 1     
    2    1   23 1     
    3    1   24 1     
    4    1   25 1     
    5    2    3 1     
    6    2    4 1     
    7    2   26 1     
    8    3   27 1     
    9    3   28 1     
   10    3   29 1     
   11    4    5 am    
   12    4   30 1     
   13    5    6 2     
   14    5    7 1     
   15    7    8 1     
   16    7   31 1     
   17    7   32 1     
   18    8    9 1     
   19    8   33 1     
   20    8   34 1     
   21    9   22 1     
   22    9   10 1     
   23    9   48 1     
   24   10   11 1     
   25   10   35 1     
   26   10   36 1     
   27   11   12 1     
   28   11   37 1     
   29   11   38 1     
   30   12   13 1     
   31   13   14 1     
   32   13   22 1     
   33   13   39 1     
   34   14   15 1     
   35   14   40 1     
   36   14   41 1     
   37   15   16 1     
   38   15   42 1     
   39   16   21 ar    
   40   16   17 ar    
   41   17   18 ar    
   42   17   43 1     
   43   18   19 ar    
   44   18   44 1     
   45   19   20 ar    
   46   19   45 1     
   47   20   21 ar    
   48   21   49 1     
   49   22   46 1     
   50   22   47 1     
   51    6   50 1     
   52    6   51 1     
   53   12   52 1     
   54   12   53 1     
   55   20   54 1     
@<TRIPOS>SUBSTRUCTURE
      1 S1             1
@<TRIPOS>SET
LONE_PAIRS      STATIC     ATOMS    <user>   **** ""
5 50 51 52 53 54
DONOR_HYDROGENS      STATIC     ATOMS    <user>   **** ""
4 30 48 42 49
ATOM$BLUE        STATIC     ATOMS    COLORGROUP SYSTEM
5 50 51 52 53 54
ATOM$RED        STATIC     ATOMS    COLORGROUP SYSTEM
4 30 48 42 49
