AV-unprocessed.smi:1990|AV-procd|sdf|8061|dock7
  -GOLD-   2272010263D 1   1.00000     0.00000
 Structure written by MMmdl.
 46 47  0  0  0  0  0  0  0  0  1 V2000
  152.3476  145.0310  157.6988 C   0  0  0  0  0  0  0  0  0  0  0  0
  151.2510  144.4125  158.5838 C   0  0  2  0  0  0  0  0  0  0  0  0
  151.7909  143.8006  159.8920 C   0  0  0  0  0  0  0  0  0  0  0  0
  152.4480  142.5210  159.6424 N   0  0  0  0  0  0  0  0  0  0  0  0
  153.2132  142.0171  160.7153 C   0  0  0  0  0  0  0  0  0  0  0  0
  153.9991  140.8542  160.5399 C   0  0  0  0  0  0  0  0  0  0  0  0
  154.7559  140.3631  161.6211 C   0  0  0  0  0  0  0  0  0  0  0  0
  154.7160  141.0543  162.8547 C   0  0  0  0  0  0  0  0  0  0  0  0
  155.4106  140.6562  164.0289 N   0  0  0  0  0  0  0  0  0  0  0  0
  155.5295  141.2987  165.2060 C   0  0  0  0  0  0  0  0  0  0  0  0
  154.9711  142.3601  165.4817 O   0  0  0  0  0  0  0  0  0  0  0  0
  156.4083  140.6015  166.2541 C   0  0  2  0  0  0  0  0  0  0  0  0
  155.9243  139.1726  166.5530 C   0  0  0  0  0  0  0  0  0  0  0  0
  156.4407  141.5970  167.8182 S   0  0  0  0  0  0  0  0  0  0  0  0
  154.6576  141.7503  168.2571 C   0  0  0  0  0  0  0  0  0  0  0  0
  157.1028  140.8119  168.8715 O   0  0  0  0  0  0  0  0  0  0  0  0
  156.9494  142.9382  167.4923 O   0  0  0  0  0  0  0  0  0  0  0  0
  153.8935  142.1955  162.9354 C   0  0  0  0  0  0  0  0  0  0  0  0
  153.1641  142.6673  161.9034 N   0  0  0  0  0  0  0  0  0  0  0  0
  151.6152  141.5840  158.8942 C   0  0  0  0  0  0  0  0  0  0  0  0
  151.1300  142.2280  157.5838 C   0  0  1  0  0  0  0  0  0  0  0  0
  150.1533  141.3201  156.8290 C   0  0  0  0  0  0  0  0  0  0  0  0
  150.4614  143.4545  157.8748 O   0  0  0  0  0  0  0  0  0  0  0  0
  152.8440  145.8515  158.2173 H   0  0  0  0  0  0  0  0  0  0  0  0
  151.9237  145.4313  156.7777 H   0  0  0  0  0  0  0  0  0  0  0  0
  153.1177  144.3090  157.4277 H   0  0  0  0  0  0  0  0  0  0  0  0
  150.5729  145.2223  158.8542 H   0  0  0  0  0  0  0  0  0  0  0  0
  152.4568  144.5128  160.3778 H   0  0  0  0  0  0  0  0  0  0  0  0
  150.9640  143.6274  160.5821 H   0  0  0  0  0  0  0  0  0  0  0  0
  154.0138  140.3258  159.5980 H   0  0  0  0  0  0  0  0  0  0  0  0
  155.3321  139.4620  161.4828 H   0  0  0  0  0  0  0  0  0  0  0  0
  155.8545  139.7510  163.9757 H   0  0  0  0  0  0  0  0  0  0  0  0
  157.4336  140.5486  165.8865 H   0  0  0  0  0  0  0  0  0  0  0  0
  155.8617  138.5759  165.6425 H   0  0  0  0  0  0  0  0  0  0  0  0
  154.9400  139.1729  167.0231 H   0  0  0  0  0  0  0  0  0  0  0  0
  156.6105  138.6646  167.2309 H   0  0  0  0  0  0  0  0  0  0  0  0
  154.5557  142.4115  169.1174 H   0  0  0  0  0  0  0  0  0  0  0  0
  154.2514  140.7722  168.5135 H   0  0  0  0  0  0  0  0  0  0  0  0
  154.1065  142.1679  167.4149 H   0  0  0  0  0  0  0  0  0  0  0  0
  153.8154  142.7503  163.8591 H   0  0  0  0  0  0  0  0  0  0  0  0
  152.1793  140.6790  158.6650 H   0  0  0  0  0  0  0  0  0  0  0  0
  150.7631  141.2911  159.5091 H   0  0  0  0  0  0  0  0  0  0  0  0
  151.9830  142.4199  156.9328 H   0  0  0  0  0  0  0  0  0  0  0  0
  150.6213  140.3700  156.5709 H   0  0  0  0  0  0  0  0  0  0  0  0
  149.8215  141.7895  155.9028 H   0  0  0  0  0  0  0  0  0  0  0  0
  149.2688  141.1053  157.4293 H   0  0  0  0  0  0  0  0  0  0  0  0
  1  2  1  0  0  0  0
  1 24  1  0  0  0  0
  1 25  1  0  0  0  0
  1 26  1  0  0  0  0
  2 23  1  0  0  0  0
  2  3  1  0  0  0  0
  2 27  1  0  0  0  0
  3  4  1  0  0  0  0
  3 28  1  0  0  0  0
  3 29  1  0  0  0  0
  4  5  1  0  0  0  0
  4 20  1  0  0  0  0
  5 19  1  0  0  0  0
  5  6  2  0  0  0  0
  6  7  1  0  0  0  0
  6 30  1  0  0  0  0
  7  8  2  0  0  0  0
  7 31  1  0  0  0  0
  8  9  1  0  0  0  0
  8 18  1  0  0  0  0
  9 10  1  0  0  0  0
  9 32  1  0  0  0  0
 10 11  2  0  0  0  0
 10 12  1  0  0  0  0
 12 13  1  0  0  0  0
 12 14  1  0  0  0  0
 12 33  1  0  0  0  0
 13 34  1  0  0  0  0
 13 35  1  0  0  0  0
 13 36  1  0  0  0  0
 14 15  1  0  0  0  0
 14 16  2  0  0  0  0
 14 17  2  0  0  0  0
 15 37  1  0  0  0  0
 15 38  1  0  0  0  0
 15 39  1  0  0  0  0
 18 19  2  0  0  0  0
 18 40  1  0  0  0  0
 20 21  1  0  0  0  0
 20 41  1  0  0  0  0
 20 42  1  0  0  0  0
 21 22  1  0  0  0  0
 21 23  1  0  0  0  0
 21 43  1  0  0  0  0
 22 44  1  0  0  0  0
 22 45  1  0  0  0  0
 22 46  1  0  0  0  0
M  END
> <s_m_source_file>
AV-unprocessed.smi

> <i_m_source_file_index>
1990

> <i_lp_mmshare_version>
43012

> <i_f3d_flags>
0

> <s_epik_input>
W0NIM11bQ0BASF0xW0NIMl1OKFtDSDJdW0NASF0oTzEpW0NIM10pYzJbY0hdW2NIXWMoW2NIXW4yKVtOSF1DKD1PKVtDQEhdKFtDSDNdKVMoPU8pKD1PKVtDSDNd

> <s_epik_cmdline>
J2VwaWtfcHl0aG9uJywgJy1waCcsICc3LjAnLCAnLXRuJywgJzgnLCAnLW1hJywgJzIwMCcsICctbWV0YWxfYmluZGluZycsICctaW1hZScsICc8aW5maWxlLm1hZT4nLCAnLW9tYWUnLCAnPG91dGZpbGUubWFlPic=

> <r_lp_tautomer_probability>
1

> <r_epik_Ionization_Penalty>
0.000334888

> <r_epik_Ionization_Penalty_Charging>
0

> <r_epik_Ionization_Penalty_Neutral>
0.000334888

> <r_epik_State_Penalty>
0.000200905

> <r_epik_Charging_Adjusted_Penalty>
0.000200905

> <i_epik_Tot_Q>
0

> <i_epik_Tot_abs_Q>
0

> <r_epik_Metal_State_Penalty>
-0

> <b_epik_Metal_Only>
0

> <s_lp_Force_Field>
OPLS_2005

> <r_lp_Energy>
21.5885

> <b_lp_Chiralities_Consistent>
1

> <s_lp_Variant>
AV-unprocessed.smi:1990-1

> <Gold.Version>
5.8.1

> <Gold.Id.Protein>
6NUR|6NUR_protein|mol2

> <Gold.PLP.Fitness>
38.8732

> <Gold.PLP.PLP>
-39.0793

> <Gold.PLP.part.hbond>
-0.3006

> <Gold.PLP.part.metal>
0.0000

> <Gold.PLP.part.buried>
-2.8757

> <Gold.PLP.part.nonpolar>
-36.0176

> <Gold.PLP.part.repulsive>
1.1482

> <Gold.PLP.ligand.clash>
0.0000

> <Gold.PLP.ligand.torsion>
0.3355

> <Gold.PLP.Chemscore.Hbond>
0.0000

> <Gold.PLP.Chemscore.CHOScore>
0.0000

> <Gold.PLP.Chemscore.Metal>
0.0000

> <Gold.PLP.Chemscore.Internal.Correction>
0.4649

> <Gold.Rescore>
     Score         DG    S(hbond)    S(metal)    S(lipo)     H(rot)  DE(clash)    DE(int)     intcor
      9.32     -13.83       0.00        0.00     104.57       1.52       0.24       4.27       ----

> <Gold.Chemscore.Fitness>
9.3195

> <Gold.Chemscore.DG>
-13.8293

> <Gold.Chemscore.ZeroCoef>
-5.4800

> <Gold.Chemscore.Hbond>
0.0000

> <Gold.Chemscore.Metal>
0.0000

> <Gold.Chemscore.Lipo>
104.5689

> <Gold.Chemscore.Internal_Hbond>
0.0000

> <Gold.Chemscore.DEClash>
0.2447

> <Gold.Chemscore.DEInternal>
4.2651

> <Gold.Chemscore.Rot>
1.5177

> <Gold.Chemscore.Internal.Correction>
   9.000000E+99

> <Gold.Chemscore.Hbond.Weighted>
-0.0000

> <Gold.Chemscore.Metal.Weighted>
-0.0000

> <Gold.Chemscore.Lipo.Weighted>
-12.2346

> <Gold.Chemscore.Internal_Hbond.Weighted>
0.0000

> <Gold.Chemscore.DEClash.Weighted>
0.2447

> <Gold.Chemscore.DEInternal.Weighted>
4.2651

> <Gold.Chemscore.Rot.Weighted>
3.8853

> <Gold.Chemscore.Internal.Correction.Weighted>
   9.000000E+99

> <Gold.Protein.RotatedTorsions>
[ 6907 6896 6895 6894 ] final   -4.68 input  -60.11 | X-H torsion
[ 7974 7965 7964 7962 ] final -170.99 input  175.53 | X-H torsion
[ 8008 7997 7996 7995 ] final   16.66 input   59.86 | X-H torsion
[ 10167 10162 10161 10158 ] final   39.77 input  -65.29 | X-H torsion
[ 10718 10713 10712 10709 ] final  -38.85 input   66.30 | X-H torsion
[ 10763 10752 10751 10750 ] final  -32.15 input  -60.55 | X-H torsion
[ 11005 11000 10999 10996 ] final  127.49 input  -57.11 | X-H torsion

> <Gold.Protein.ActiveResidues>
 VAL166  LYS551  ARG553  GLY616  TRP617  ASP618  TYR619  PRO620  LYS621  CYS622 
 ASP623  PHE694  ASN695  SER759  ASP760  ASP761  ALA762  ILE779  LEU786  VAL792 
 PHE793  MET794  SER795  GLU796  ALA797  LYS798  CYS799  TRP800  GLU811  SER814 

> <Gold.Protein.RotatedAtoms>
  151.4938  135.1059  159.9810 H   0  0  0  0  0  0  0  0  0  0  0  0  # atno 6907 bound_to 6896
  152.4730  133.8069  159.6993 H   0  0  0  0  0  0  0  0  0  0  0  0  # atno 6908 bound_to 6896
  150.8750  133.7389  159.2975 H   0  0  0  0  0  0  0  0  0  0  0  0  # atno 6909 bound_to 6896
  144.7162  140.1989  143.6340 H   0  0  0  0  0  0  0  0  0  0  0  0  # atno 7974 bound_to 7965
  154.8801  140.2971  155.5430 H   0  0  0  0  0  0  0  0  0  0  0  0  # atno 8008 bound_to 7997
  156.3022  140.2444  156.3736 H   0  0  0  0  0  0  0  0  0  0  0  0  # atno 8009 bound_to 7997
  154.8726  140.0401  157.1723 H   0  0  0  0  0  0  0  0  0  0  0  0  # atno 8010 bound_to 7997
  140.3807  144.1983  150.6131 H   0  0  0  0  0  0  0  0  0  0  0  0  # atno 10167 bound_to 10162
  156.2991  130.4238  149.8161 H   0  0  0  0  0  0  0  0  0  0  0  0  # atno 10718 bound_to 10713
  153.8090  135.6884  153.4844 H   0  0  0  0  0  0  0  0  0  0  0  0  # atno 10763 bound_to 10752
  153.1640  135.4568  154.9810 H   0  0  0  0  0  0  0  0  0  0  0  0  # atno 10764 bound_to 10752
  154.7975  135.3325  154.7572 H   0  0  0  0  0  0  0  0  0  0  0  0  # atno 10765 bound_to 10752
  139.9510  134.9622  156.8862 H   0  0  0  0  0  0  0  0  0  0  0  0  # atno 11005 bound_to 11000
  145.8698  139.2266  143.1667 LP  0  0  0  0  0  0  0  0  0  0  0  0  # atno 17320 bound_to 7965
  146.0095  140.8448  142.9978 LP  0  0  0  0  0  0  0  0  0  0  0  0  # atno 17321 bound_to 7965
  140.4940  143.2338  151.8777 LP  0  0  0  0  0  0  0  0  0  0  0  0  # atno 17342 bound_to 10162
  139.4795  144.5134  151.8901 LP  0  0  0  0  0  0  0  0  0  0  0  0  # atno 17343 bound_to 10162
  156.5546  130.8357  151.3310 LP  0  0  0  0  0  0  0  0  0  0  0  0  # atno 17370 bound_to 10713
  157.7363  130.9776  150.2129 LP  0  0  0  0  0  0  0  0  0  0  0  0  # atno 17371 bound_to 10713
  140.5719  134.0435  155.7433 LP  0  0  0  0  0  0  0  0  0  0  0  0  # atno 17394 bound_to 11000
  141.1173  133.9520  157.2798 LP  0  0  0  0  0  0  0  0  0  0  0  0  # atno 17395 bound_to 11000

$$$$
