AV-unprocessed.smi:160|AV-procd|sdf|1344|dock2
  -GOLD-   2262019 43D 1   1.00000     0.00000
 Structure written by MMmdl.
 29 30  0  0  0  0  0  0  0  0  1 V2000
  140.5715  139.2228  153.7627 N   0  0  0  0  0  0  0  0  0  0  0  0
  139.9349  138.0568  153.9144 C   0  0  0  0  0  0  0  0  0  0  0  0
  138.7594  137.9893  154.2699 O   0  0  0  0  0  0  0  0  0  0  0  0
  140.7378  136.8195  153.6226 C   0  0  0  0  0  0  0  0  0  0  0  0
  140.1725  135.5774  153.6885 N   0  0  0  0  0  0  0  0  0  0  0  0
  141.2314  134.8490  153.3587 C   0  0  0  0  0  0  0  0  0  0  0  0
  142.3358  135.5638  153.1200 N   0  0  0  0  0  0  0  0  0  0  0  0
  143.7080  135.1056  152.7234 C   0  0  1  0  0  0  0  0  0  0  0  0
  143.5793  133.9350  151.9718 O   0  0  0  0  0  0  0  0  0  0  0  0
  143.7583  134.2288  150.5898 C   0  0  2  0  0  0  0  0  0  0  0  0
  144.1455  132.9506  149.8311 C   0  0  0  0  0  0  0  0  0  0  0  0
  142.9858  132.2196  149.4942 O   0  0  0  0  0  0  0  0  0  0  0  0
  144.8724  135.2745  150.6492 C   0  0  1  0  0  0  0  0  0  0  0  0
  145.0039  136.0105  149.4470 O   0  0  0  0  0  0  0  0  0  0  0  0
  144.4748  136.1301  151.8517 C   0  0  1  0  0  0  0  0  0  0  0  0
  143.7141  137.2717  151.4851 O   0  0  0  0  0  0  0  0  0  0  0  0
  142.0279  136.8745  153.2887 N   0  0  0  0  0  0  0  0  0  0  0  0
  144.2044  134.8856  153.6693 H   0  0  0  0  0  0  0  0  0  0  0  0
  142.8528  134.6753  150.1742 H   0  0  0  0  0  0  0  0  0  0  0  0
  145.8209  134.7800  150.8643 H   0  0  0  0  0  0  0  0  0  0  0  0
  145.3581  136.4710  152.3927 H   0  0  0  0  0  0  0  0  0  0  0  0
  140.0867  140.0895  153.9431 H   0  0  0  0  0  0  0  0  0  0  0  0
  141.5374  139.2273  153.4670 H   0  0  0  0  0  0  0  0  0  0  0  0
  141.2019  133.7713  153.2918 H   0  0  0  0  0  0  0  0  0  0  0  0
  144.6531  133.2052  148.9003 H   0  0  0  0  0  0  0  0  0  0  0  0
  144.8288  132.3327  150.4146 H   0  0  0  0  0  0  0  0  0  0  0  0
  142.2413  132.8001  149.5364 H   0  0  0  0  0  0  0  0  0  0  0  0
  145.2062  135.4082  148.7476 H   0  0  0  0  0  0  0  0  0  0  0  0
  143.8570  137.4488  150.5680 H   0  0  0  0  0  0  0  0  0  0  0  0
  1  2  1  0  0  0  0
  1 22  1  0  0  0  0
  1 23  1  0  0  0  0
  2  3  2  0  0  0  0
  2  4  1  0  0  0  0
  4 17  2  0  0  0  0
  4  5  1  0  0  0  0
  5  6  2  0  0  0  0
  6  7  1  0  0  0  0
  6 24  1  0  0  0  0
  7  8  1  0  0  0  0
  7 17  1  0  0  0  0
  8 18  1  0  0  0  0
  8 15  1  0  0  0  0
  8  9  1  0  0  0  0
  9 10  1  0  0  0  0
 10 19  1  0  0  0  0
 10 11  1  0  0  0  0
 10 13  1  0  0  0  0
 11 12  1  0  0  0  0
 11 25  1  0  0  0  0
 11 26  1  0  0  0  0
 12 27  1  0  0  0  0
 13 20  1  0  0  0  0
 13 14  1  0  0  0  0
 13 15  1  0  0  0  0
 14 28  1  0  0  0  0
 15 21  1  0  0  0  0
 15 16  1  0  0  0  0
 16 29  1  0  0  0  0
M  END
> <s_m_source_file>
AV-unprocessed.smi

> <i_m_source_file_index>
160

> <i_lp_mmshare_version>
43012

> <i_f3d_flags>
0

> <s_epik_input>
W05IMl1DKD1PKWMxbltjSF1uKG4xKVtDQEBIXTJPW0NASF0oW0NIMl1bT0hdKVtDQEBIXShbT0hdKVtDQEhdMltPSF0=

> <s_epik_cmdline>
J2VwaWtfcHl0aG9uJywgJy1waCcsICc3LjAnLCAnLXRuJywgJzgnLCAnLW1hJywgJzIwMCcsICctbWV0YWxfYmluZGluZycsICctaW1hZScsICc8aW5maWxlLm1hZT4nLCAnLW9tYWUnLCAnPG91dGZpbGUubWFlPic=

> <r_lp_tautomer_probability>
1

> <r_epik_Ionization_Penalty>
1.06932e-05

> <r_epik_Ionization_Penalty_Charging>
0

> <r_epik_Ionization_Penalty_Neutral>
1.06932e-05

> <r_epik_State_Penalty>
-0

> <r_epik_Charging_Adjusted_Penalty>
0

> <i_epik_Tot_Q>
0

> <i_epik_Tot_abs_Q>
0

> <r_epik_Metal_State_Penalty>
0.0142097

> <b_epik_Metal_Only>
0

> <s_epik_Chemistry_Notes>
This compound contains an acetal/aminal-like group ( X-CH(R)-Y where X, Y are N, S, or O) that may be acid/base labile, releasing an aldehyde.

> <s_lp_Force_Field>
OPLS_2005

> <r_lp_Energy>
46.1789

> <b_lp_Chiralities_Consistent>
1

> <s_lp_Variant>
AV-unprocessed.smi:160-2

> <Gold.Version>
5.8.1

> <Gold.Id.Protein>
6NUR|6NUR_protein|mol2

> <Gold.PLP.Fitness>
44.4105

> <Gold.PLP.PLP>
-30.5651

> <Gold.PLP.part.hbond>
-7.1021

> <Gold.PLP.part.metal>
0.0000

> <Gold.PLP.part.buried>
-6.8518

> <Gold.PLP.part.nonpolar>
-18.3155

> <Gold.PLP.part.repulsive>
0.4568

> <Gold.PLP.ligand.clash>
0.0000

> <Gold.PLP.ligand.torsion>
0.9459

> <Gold.PLP.Chemscore.Hbond>
4.3910

> <Gold.PLP.Chemscore.CHOScore>
0.8493

> <Gold.PLP.Chemscore.Metal>
0.0000

> <Gold.Chemscore.Hbonds>
donor molecule, donor type, donor heavy atom, donor atom, acceptor molecule, acceptor atom, score
      L1  H    12    27       P1 10186  1.00
      L1  H    14    28       P1  7921  1.00
      L1  H    16    29       P1 10171  0.39
      P1  H 10785 10796       L1    12  0.52
      P1  H 11000 11005       L1     5  0.05
      L1  C     6    24       P1 10957  0.17

> <Gold.PLP.Chemscore.Internal.Correction>
0.0165

> <Gold.Rescore>
     Score         DG    S(hbond)    S(metal)    S(lipo)     H(rot)  DE(clash)    DE(int)     intcor
      7.53      -9.64       3.38        0.00      27.81       4.06       0.02       2.09       ----

> <Gold.Chemscore.Fitness>
7.5304

> <Gold.Chemscore.DG>
-9.6431

> <Gold.Chemscore.ZeroCoef>
-5.4800

> <Gold.Chemscore.Hbond>
3.3840

> <Gold.Chemscore.Metal>
0.0000

> <Gold.Chemscore.Lipo>
27.8137

> <Gold.Chemscore.Internal_Hbond>
0.0000

> <Gold.Chemscore.DEClash>
0.0247

> <Gold.Chemscore.DEInternal>
2.0879

> <Gold.Chemscore.Rot>
4.0600

> <Gold.Chemscore.Internal.Correction>
   9.000000E+99

> <Gold.Chemscore.Hbonds>
donor molecule, donor type, donor heavy atom, donor atom, acceptor molecule, acceptor atom, score
      L1  H    12    27       P1 10186  0.93
      L1  H    14    28       P1  7921  0.93
      L1  H    16    29       P1 10171  0.39
      P1  H 10785 10796       L1    12  0.50

> <Gold.Chemscore.Hbond.Weighted>
-11.3025

> <Gold.Chemscore.Metal.Weighted>
-0.0000

> <Gold.Chemscore.Lipo.Weighted>
-3.2542

> <Gold.Chemscore.Internal_Hbond.Weighted>
0.0000

> <Gold.Chemscore.DEClash.Weighted>
0.0247

> <Gold.Chemscore.DEInternal.Weighted>
2.0879

> <Gold.Chemscore.Rot.Weighted>
10.3936

> <Gold.Chemscore.Internal.Correction.Weighted>
   9.000000E+99

> <Gold.Protein.RotatedTorsions>
[ 6907 6896 6895 6894 ] final  171.36 input  -60.11 | X-H torsion
[ 7974 7965 7964 7962 ] final   45.38 input  175.53 | X-H torsion
[ 8008 7997 7996 7995 ] final   84.76 input   59.86 | X-H torsion
[ 10167 10162 10161 10158 ] final -129.84 input  -65.29 | X-H torsion
[ 10718 10713 10712 10709 ] final  -22.46 input   66.30 | X-H torsion
[ 10763 10752 10751 10750 ] final   96.69 input  -60.55 | X-H torsion
[ 11005 11000 10999 10996 ] final   39.54 input  -57.11 | X-H torsion

> <Gold.Protein.ActiveResidues>
 VAL166  LYS551  ARG553  GLY616  TRP617  ASP618  TYR619  PRO620  LYS621  CYS622 
 ASP623  PHE694  ASN695  SER759  ASP760  ASP761  ALA762  ILE779  LEU786  VAL792 
 PHE793  MET794  SER795  GLU796  ALA797  LYS798  CYS799  TRP800  GLU811  SER814 

> <Gold.Protein.RotatedAtoms>
  151.8015  133.3370  159.3527 H   0  0  0  0  0  0  0  0  0  0  0  0  # atno 6907 bound_to 6896
  150.7357  134.5749  159.5919 H   0  0  0  0  0  0  0  0  0  0  0  0  # atno 6908 bound_to 6896
  152.3140  134.7464  160.0381 H   0  0  0  0  0  0  0  0  0  0  0  0  # atno 6909 bound_to 6896
  146.0485  139.4971  142.9733 H   0  0  0  0  0  0  0  0  0  0  0  0  # atno 7974 bound_to 7965
  155.9413  140.3408  155.6330 H   0  0  0  0  0  0  0  0  0  0  0  0  # atno 8008 bound_to 7997
  155.7036  140.0763  157.2419 H   0  0  0  0  0  0  0  0  0  0  0  0  # atno 8009 bound_to 7997
  154.4103  140.1635  156.2205 H   0  0  0  0  0  0  0  0  0  0  0  0  # atno 8010 bound_to 7997
  139.9355  143.6222  152.2518 H   0  0  0  0  0  0  0  0  0  0  0  0  # atno 10167 bound_to 10162
  156.5042  130.4595  149.6684 H   0  0  0  0  0  0  0  0  0  0  0  0  # atno 10718 bound_to 10713
  153.2680  135.4209  155.0959 H   0  0  0  0  0  0  0  0  0  0  0  0  # atno 10763 bound_to 10752
  154.8445  135.3465  154.6284 H   0  0  0  0  0  0  0  0  0  0  0  0  # atno 10764 bound_to 10752
  153.6704  135.7044  153.5206 H   0  0  0  0  0  0  0  0  0  0  0  0  # atno 10765 bound_to 10752
  140.2018  134.3862  155.8092 H   0  0  0  0  0  0  0  0  0  0  0  0  # atno 11005 bound_to 11000
  145.6765  141.0203  143.1629 LP  0  0  0  0  0  0  0  0  0  0  0  0  # atno 17320 bound_to 7965
  144.7110  139.8371  143.7414 LP  0  0  0  0  0  0  0  0  0  0  0  0  # atno 17321 bound_to 7965
  139.6747  144.7659  151.1719 LP  0  0  0  0  0  0  0  0  0  0  0  0  # atno 17342 bound_to 10162
  140.7625  143.5813  150.8892 LP  0  0  0  0  0  0  0  0  0  0  0  0  # atno 17343 bound_to 10162
  156.3303  130.7328  151.2256 LP  0  0  0  0  0  0  0  0  0  0  0  0  # atno 17370 bound_to 10713
  157.7459  131.0431  150.4730 LP  0  0  0  0  0  0  0  0  0  0  0  0  # atno 17371 bound_to 10713
  141.2227  133.7098  156.8270 LP  0  0  0  0  0  0  0  0  0  0  0  0  # atno 17394 bound_to 11000
  140.2046  134.8872  157.3207 LP  0  0  0  0  0  0  0  0  0  0  0  0  # atno 17395 bound_to 11000

$$$$
