AV-unprocessed.smi:2276|AV-procd|sdf|9173|dock6
  -GOLD-   2272012383D 1   1.00000     0.00000
 Structure written by MMmdl.
 53 54  0  0  0  0  0  0  0  0  2 V2000
  152.1672  145.8803  160.2938 C   0  0  0  0  0  0  0  0  0  0  0  0
  152.0565  144.4908  159.7020 C   0  0  0  0  0  0  0  0  0  0  0  0
  152.7873  143.4219  160.2540 C   0  0  0  0  0  0  0  0  0  0  0  0
  152.6483  142.1484  159.6693 C   0  0  0  0  0  0  0  0  0  0  0  0
  153.4098  140.9556  160.2076 C   0  0  0  0  0  0  0  0  0  0  0  0
  151.8538  141.9108  158.6044 N   0  0  0  0  0  0  0  0  0  0  0  0
  151.1431  142.9322  158.0644 C   0  0  0  0  0  0  0  0  0  0  0  0
  150.3151  142.7902  156.9195 N   0  0  0  0  0  0  0  0  0  0  0  0
  150.0668  141.6640  156.2295 C   0  0  0  0  0  0  0  0  0  0  0  0
  150.5561  140.5616  156.4770 O   0  0  0  0  0  0  0  0  0  0  0  0
  149.2366  141.8981  155.2021 N   0  0  0  0  0  0  0  0  0  0  0  0
  148.9268  140.9677  154.1158 C   0  0  0  0  0  0  0  0  0  0  0  0
  147.4117  140.6909  153.9311 C   0  0  1  0  0  0  0  0  0  0  0  0
  147.1998  139.4427  153.0602 C   0  0  0  0  0  0  0  0  0  0  0  0
  146.6586  140.5699  155.2819 C   0  0  0  0  0  0  0  0  0  0  0  0
  146.6294  141.8050  156.0762 N   0  0  0  0  0  0  0  0  0  0  0  0
  146.1836  142.9491  155.2742 C   0  0  0  0  0  0  0  0  0  0  0  0
  144.6792  142.8703  154.9183 C   0  0  0  0  0  0  0  0  0  0  0  0
  143.8499  142.7547  156.1419 N   0  3  0  0  0  0  0  0  0  0  0  0
  142.4028  142.6830  155.8469 C   0  0  0  0  0  0  0  0  0  0  0  0
  144.3087  141.6291  156.9865 C   0  0  0  0  0  0  0  0  0  0  0  0
  145.8125  141.7660  157.2967 C   0  0  0  0  0  0  0  0  0  0  0  0
  151.2246  144.2406  158.5913 C   0  0  0  0  0  0  0  0  0  0  0  0
  151.6793  145.9141  161.2681 H   0  0  0  0  0  0  0  0  0  0  0  0
  151.6978  146.6243  159.6495 H   0  0  0  0  0  0  0  0  0  0  0  0
  153.2140  146.1560  160.4241 H   0  0  0  0  0  0  0  0  0  0  0  0
  153.4354  143.5758  161.1045 H   0  0  0  0  0  0  0  0  0  0  0  0
  153.8357  141.1703  161.1881 H   0  0  0  0  0  0  0  0  0  0  0  0
  154.2226  140.6910  159.5312 H   0  0  0  0  0  0  0  0  0  0  0  0
  152.7502  140.0929  160.3068 H   0  0  0  0  0  0  0  0  0  0  0  0
  150.0198  143.6550  156.4911 H   0  0  0  0  0  0  0  0  0  0  0  0
  148.8635  142.8314  155.1069 H   0  0  0  0  0  0  0  0  0  0  0  0
  149.3567  141.3496  153.1887 H   0  0  0  0  0  0  0  0  0  0  0  0
  149.4454  140.0336  154.3338 H   0  0  0  0  0  0  0  0  0  0  0  0
  147.0210  141.5350  153.3685 H   0  0  0  0  0  0  0  0  0  0  0  0
  147.5816  138.5468  153.5508 H   0  0  0  0  0  0  0  0  0  0  0  0
  147.7114  139.5408  152.1024 H   0  0  0  0  0  0  0  0  0  0  0  0
  146.1422  139.2818  152.8498 H   0  0  0  0  0  0  0  0  0  0  0  0
  145.6330  140.2580  155.0800 H   0  0  0  0  0  0  0  0  0  0  0  0
  147.0919  139.7749  155.8829 H   0  0  0  0  0  0  0  0  0  0  0  0
  146.3770  143.8643  155.8355 H   0  0  0  0  0  0  0  0  0  0  0  0
  146.7835  143.0173  154.3659 H   0  0  0  0  0  0  0  0  0  0  0  0
  144.3907  143.7729  154.3788 H   0  0  0  0  0  0  0  0  0  0  0  0
  144.4742  142.0358  154.2469 H   0  0  0  0  0  0  0  0  0  0  0  0
  142.1618  141.7809  155.2824 H   0  0  0  0  0  0  0  0  0  0  0  0
  142.0854  143.5481  155.2641 H   0  0  0  0  0  0  0  0  0  0  0  0
  141.8229  142.6714  156.7703 H   0  0  0  0  0  0  0  0  0  0  0  0
  143.7444  141.6276  157.9198 H   0  0  0  0  0  0  0  0  0  0  0  0
  144.0941  140.6820  156.4947 H   0  0  0  0  0  0  0  0  0  0  0  0
  146.1358  140.9703  157.9650 H   0  0  0  0  0  0  0  0  0  0  0  0
  145.9812  142.6904  157.8512 H   0  0  0  0  0  0  0  0  0  0  0  0
  150.6574  145.0457  158.1464 H   0  0  0  0  0  0  0  0  0  0  0  0
  144.0027  143.5981  156.6761 H   0  0  0  0  0  0  0  0  0  0  0  0
  1  2  1  0  0  0  0
  1 24  1  0  0  0  0
  1 25  1  0  0  0  0
  1 26  1  0  0  0  0
  2 23  1  0  0  0  0
  2  3  2  0  0  0  0
  3  4  1  0  0  0  0
  3 27  1  0  0  0  0
  4  5  1  0  0  0  0
  4  6  2  0  0  0  0
  5 28  1  0  0  0  0
  5 29  1  0  0  0  0
  5 30  1  0  0  0  0
  6  7  1  0  0  0  0
  7  8  1  0  0  0  0
  7 23  2  0  0  0  0
  8  9  1  0  0  0  0
  8 31  1  0  0  0  0
  9 10  2  0  0  0  0
  9 11  1  0  0  0  0
 11 12  1  0  0  0  0
 11 32  1  0  0  0  0
 12 13  1  0  0  0  0
 12 33  1  0  0  0  0
 12 34  1  0  0  0  0
 13 14  1  0  0  0  0
 13 15  1  0  0  0  0
 13 35  1  0  0  0  0
 14 36  1  0  0  0  0
 14 37  1  0  0  0  0
 14 38  1  0  0  0  0
 15 16  1  0  0  0  0
 15 39  1  0  0  0  0
 15 40  1  0  0  0  0
 16 22  1  0  0  0  0
 16 17  1  0  0  0  0
 17 18  1  0  0  0  0
 17 41  1  0  0  0  0
 17 42  1  0  0  0  0
 18 19  1  0  0  0  0
 18 43  1  0  0  0  0
 18 44  1  0  0  0  0
 19 20  1  0  0  0  0
 19 21  1  0  0  0  0
 19 53  1  0  0  0  0
 20 45  1  0  0  0  0
 20 46  1  0  0  0  0
 20 47  1  0  0  0  0
 21 22  1  0  0  0  0
 21 48  1  0  0  0  0
 21 49  1  0  0  0  0
 22 50  1  0  0  0  0
 22 51  1  0  0  0  0
 23 52  1  0  0  0  0
M  CHG  1  19   1
M  END
> <s_m_source_file>
AV-unprocessed.smi

> <i_m_source_file_index>
2276

> <i_lp_mmshare_version>
43012

> <i_f3d_flags>
0

> <s_epik_input>
W0NIM11jMVtjSF1jKFtDSDNdKW5jKFtjSF0xKVtOSF1DKD1PKVtOSF1bQ0gyXVtDQEhdKFtDSDNdKVtDSDJdTjJbQ0gyXVtDSDJdTihbQ0gzXSlbQ0gyXVtDSDJdMg==

> <s_epik_cmdline>
J2VwaWtfcHl0aG9uJywgJy1waCcsICc3LjAnLCAnLXRuJywgJzgnLCAnLW1hJywgJzIwMCcsICctbWV0YWxfYmluZGluZycsICctaW1hZScsICc8aW5maWxlLm1hZT4nLCAnLW9tYWUnLCAnPG91dGZpbGUubWFlPic=

> <r_epik_Ionization_Penalty>
0.0247364

> <r_epik_Ionization_Penalty_Charging>
0.0230248

> <r_epik_Ionization_Penalty_Neutral>
0.00171164

> <r_epik_State_Penalty>
0.239056

> <r_epik_Charging_Adjusted_Penalty>
0.262081

> <i_epik_Tot_Q>
1

> <i_epik_Tot_abs_Q>
1

> <r_epik_Metal_State_Penalty>
0.239048

> <b_epik_Metal_Only>
0

> <s_lp_Force_Field>
OPLS_2005

> <r_lp_Energy>
20.5392

> <b_lp_Chiralities_Consistent>
1

> <s_lp_Variant>
AV-unprocessed.smi:2276-2

> <Gold.Version>
5.8.1

> <Gold.Id.Protein>
6NUR|6NUR_protein|mol2

> <Gold.PLP.Fitness>
47.0012

> <Gold.PLP.PLP>
-41.4251

> <Gold.PLP.part.hbond>
-2.0000

> <Gold.PLP.part.metal>
0.0000

> <Gold.PLP.part.buried>
-5.0655

> <Gold.PLP.part.nonpolar>
-34.5945

> <Gold.PLP.part.repulsive>
0.3313

> <Gold.PLP.ligand.clash>
0.0000

> <Gold.PLP.ligand.torsion>
0.2334

> <Gold.PLP.Chemscore.Hbond>
1.9920

> <Gold.PLP.Chemscore.CHOScore>
0.0000

> <Gold.PLP.Chemscore.Metal>
0.0000

> <Gold.Chemscore.Hbonds>
donor molecule, donor type, donor heavy atom, donor atom, acceptor molecule, acceptor atom, score
      L1  H     8    31       P1  8028  1.00
      L1  H    11    32       P1  8028  1.00

> <Gold.PLP.Chemscore.Internal.Correction>
0.0669

> <Gold.Rescore>
     Score         DG    S(hbond)    S(metal)    S(lipo)     H(rot)  DE(clash)    DE(int)     intcor
     16.45     -19.69       1.91        0.00     102.53       1.63       0.29       2.94       ----

> <Gold.Chemscore.Fitness>
16.4540

> <Gold.Chemscore.DG>
-19.6875

> <Gold.Chemscore.ZeroCoef>
-5.4800

> <Gold.Chemscore.Hbond>
1.9099

> <Gold.Chemscore.Metal>
0.0000

> <Gold.Chemscore.Lipo>
102.5350

> <Gold.Chemscore.Internal_Hbond>
0.0000

> <Gold.Chemscore.DEClash>
0.2932

> <Gold.Chemscore.DEInternal>
2.9403

> <Gold.Chemscore.Rot>
1.6282

> <Gold.Chemscore.Internal.Correction>
   9.000000E+99

> <Gold.Chemscore.Hbonds>
donor molecule, donor type, donor heavy atom, donor atom, acceptor molecule, acceptor atom, score
      L1  H     8    31       P1  8028  0.99
      L1  H    11    32       P1  8028  0.93

> <Gold.Chemscore.Hbond.Weighted>
-6.3791

> <Gold.Chemscore.Metal.Weighted>
-0.0000

> <Gold.Chemscore.Lipo.Weighted>
-11.9966

> <Gold.Chemscore.Internal_Hbond.Weighted>
0.0000

> <Gold.Chemscore.DEClash.Weighted>
0.2932

> <Gold.Chemscore.DEInternal.Weighted>
2.9403

> <Gold.Chemscore.Rot.Weighted>
4.1682

> <Gold.Chemscore.Internal.Correction.Weighted>
   9.000000E+99

> <Gold.Protein.RotatedTorsions>
[ 6907 6896 6895 6894 ] final -159.29 input  -60.11 | X-H torsion
[ 7974 7965 7964 7962 ] final   72.52 input  175.53 | X-H torsion
[ 8008 7997 7996 7995 ] final  -53.22 input   59.86 | X-H torsion
[ 10167 10162 10161 10158 ] final -177.69 input  -65.29 | X-H torsion
[ 10718 10713 10712 10709 ] final -104.56 input   66.30 | X-H torsion
[ 10763 10752 10751 10750 ] final -120.62 input  -60.55 | X-H torsion
[ 11005 11000 10999 10996 ] final  154.15 input  -57.11 | X-H torsion

> <Gold.Protein.ActiveResidues>
 VAL166  LYS551  ARG553  GLY616  TRP617  ASP618  TYR619  PRO620  LYS621  CYS622 
 ASP623  PHE694  ASN695  SER759  ASP760  ASP761  ALA762  ILE779  LEU786  VAL792 
 PHE793  MET794  SER795  GLU796  ALA797  LYS798  CYS799  TRP800  GLU811  SER814 

> <Gold.Protein.RotatedAtoms>
  151.3313  133.3999  159.2662 H   0  0  0  0  0  0  0  0  0  0  0  0  # atno 6907 bound_to 6896
  150.9953  134.9279  159.7933 H   0  0  0  0  0  0  0  0  0  0  0  0  # atno 6908 bound_to 6896
  152.5259  134.3278  159.9224 H   0  0  0  0  0  0  0  0  0  0  0  0  # atno 6909 bound_to 6896
  145.7524  139.2765  143.1423 H   0  0  0  0  0  0  0  0  0  0  0  0  # atno 7974 bound_to 7965
  154.4127  140.1205  156.5118 H   0  0  0  0  0  0  0  0  0  0  0  0  # atno 8008 bound_to 7997
  155.6791  140.3496  155.4829 H   0  0  0  0  0  0  0  0  0  0  0  0  # atno 8009 bound_to 7997
  155.9567  140.1115  157.0921 H   0  0  0  0  0  0  0  0  0  0  0  0  # atno 8010 bound_to 7997
  139.5468  144.2214  152.1003 H   0  0  0  0  0  0  0  0  0  0  0  0  # atno 10167 bound_to 10162
  156.0309  130.5521  150.7414 H   0  0  0  0  0  0  0  0  0  0  0  0  # atno 10718 bound_to 10713
  154.8648  135.4196  154.2488 H   0  0  0  0  0  0  0  0  0  0  0  0  # atno 10763 bound_to 10752
  153.3439  135.6995  153.6850 H   0  0  0  0  0  0  0  0  0  0  0  0  # atno 10764 bound_to 10752
  153.5817  135.3571  155.2850 H   0  0  0  0  0  0  0  0  0  0  0  0  # atno 10765 bound_to 10752
  140.1463  134.8705  157.2396 H   0  0  0  0  0  0  0  0  0  0  0  0  # atno 11005 bound_to 11000
  146.0344  140.8227  142.9860 LP  0  0  0  0  0  0  0  0  0  0  0  0  # atno 17320 bound_to 7965
  144.6847  140.2816  143.7291 LP  0  0  0  0  0  0  0  0  0  0  0  0  # atno 17321 bound_to 7965
  140.1702  144.4943  150.6583 LP  0  0  0  0  0  0  0  0  0  0  0  0  # atno 17342 bound_to 10162
  140.6719  143.2289  151.5605 LP  0  0  0  0  0  0  0  0  0  0  0  0  # atno 17343 bound_to 10162
  157.4981  131.0916  151.0347 LP  0  0  0  0  0  0  0  0  0  0  0  0  # atno 17370 bound_to 10713
  157.0735  130.5874  149.5407 LP  0  0  0  0  0  0  0  0  0  0  0  0  # atno 17371 bound_to 10713
  140.2660  134.3516  155.7390 LP  0  0  0  0  0  0  0  0  0  0  0  0  # atno 17394 bound_to 11000
  141.2193  133.7396  156.9151 LP  0  0  0  0  0  0  0  0  0  0  0  0  # atno 17395 bound_to 11000

$$$$
