AV-unprocessed.smi:232|AV-procd|sdf|1781|dock1
  -GOLD-   2262020323D 1   1.00000     0.00000
 Structure written by MMmdl.
 52 55  0  0  0  0  0  0  0  0  1 V2000
  151.6813  144.3702  158.2817 C   0  0  0  0  0  0  0  0  0  0  0  0
  151.2733  142.9272  157.9621 C   0  0  0  0  0  0  0  0  0  0  0  0
  151.8416  141.9005  158.9636 C   0  0  2  0  0  0  0  0  0  0  0  0
  153.1562  142.3329  159.6279 C   0  0  0  0  0  0  0  0  0  0  0  0
  153.9160  141.0245  159.8785 C   0  0  0  0  0  0  0  0  0  0  0  0
  153.0059  139.9295  159.3076 C   0  0  2  0  0  0  0  0  0  0  0  0
  153.7783  138.7463  158.7003 C   0  0  0  0  0  0  0  0  0  0  0  0
  152.1564  140.6179  158.3442 N   0  0  0  0  0  0  0  0  0  0  0  0
  151.0995  139.9000  157.8971 C   0  0  0  0  0  0  0  0  0  0  0  0
  150.3958  139.1031  158.7450 N   0  0  0  0  0  0  0  0  0  0  0  0
  149.3497  138.4061  158.2908 C   0  0  0  0  0  0  0  0  0  0  0  0
  148.8484  138.3620  157.0539 N   0  0  0  0  0  0  0  0  0  0  0  0
  149.5579  139.1589  156.2040 C   0  0  0  0  0  0  0  0  0  0  0  0
  150.6884  139.9532  156.5404 C   0  0  0  0  0  0  0  0  0  0  0  0
  151.1487  140.6311  155.4188 N   0  0  0  0  0  0  0  0  0  0  0  0
  150.3324  140.2596  154.4698 C   0  0  0  0  0  0  0  0  0  0  0  0
  149.3466  139.3789  154.8554 N   0  0  0  0  0  0  0  0  0  0  0  0
  148.3065  138.8125  154.0163 C   0  0  0  0  0  0  0  0  0  0  0  0
  147.2743  139.8676  153.5747 C   0  0  1  0  0  0  0  0  0  0  0  0
  146.0448  139.2521  153.2374 O   0  0  0  0  0  0  0  0  0  0  0  0
  147.0603  140.9695  154.6317 C   0  0  1  0  0  0  0  0  0  0  0  0
  146.2891  142.2187  154.1759 C   0  0  0  0  0  0  0  0  0  0  0  0
  145.3810  142.5398  155.3557 C   0  0  0  0  0  0  0  0  0  0  0  0
  145.8791  141.6208  156.4680 C   0  0  0  0  0  0  0  0  0  0  0  0
  146.3562  140.4852  155.7667 O   0  0  0  0  0  0  0  0  0  0  0  0
  151.2309  145.0647  157.5724 H   0  0  0  0  0  0  0  0  0  0  0  0
  152.7624  144.5001  158.2298 H   0  0  0  0  0  0  0  0  0  0  0  0
  151.3554  144.6578  159.2815 H   0  0  0  0  0  0  0  0  0  0  0  0
  150.1841  142.8756  157.9611 H   0  0  0  0  0  0  0  0  0  0  0  0
  151.5889  142.6723  156.9495 H   0  0  0  0  0  0  0  0  0  0  0  0
  151.1055  141.7329  159.7521 H   0  0  0  0  0  0  0  0  0  0  0  0
  153.7396  142.9687  158.9605 H   0  0  0  0  0  0  0  0  0  0  0  0
  152.9781  142.8923  160.5467 H   0  0  0  0  0  0  0  0  0  0  0  0
  154.8733  141.0526  159.3559 H   0  0  0  0  0  0  0  0  0  0  0  0
  154.1211  140.8603  160.9366 H   0  0  0  0  0  0  0  0  0  0  0  0
  152.3748  139.5560  160.1163 H   0  0  0  0  0  0  0  0  0  0  0  0
  154.4299  138.2865  159.4433 H   0  0  0  0  0  0  0  0  0  0  0  0
  154.4000  139.0669  157.8638 H   0  0  0  0  0  0  0  0  0  0  0  0
  153.1022  137.9728  158.3353 H   0  0  0  0  0  0  0  0  0  0  0  0
  148.8412  137.7971  159.0237 H   0  0  0  0  0  0  0  0  0  0  0  0
  150.4224  140.6251  153.4570 H   0  0  0  0  0  0  0  0  0  0  0  0
  148.7748  138.3445  153.1493 H   0  0  0  0  0  0  0  0  0  0  0  0
  147.8154  138.0146  154.5748 H   0  0  0  0  0  0  0  0  0  0  0  0
  147.6398  140.3472  152.6657 H   0  0  0  0  0  0  0  0  0  0  0  0
  145.4085  139.9290  153.0645 H   0  0  0  0  0  0  0  0  0  0  0  0
  148.0393  141.2913  154.9919 H   0  0  0  0  0  0  0  0  0  0  0  0
  146.9767  143.0377  153.9622 H   0  0  0  0  0  0  0  0  0  0  0  0
  145.6939  142.0496  153.2785 H   0  0  0  0  0  0  0  0  0  0  0  0
  145.4095  143.5919  155.6406 H   0  0  0  0  0  0  0  0  0  0  0  0
  144.3501  142.2875  155.1040 H   0  0  0  0  0  0  0  0  0  0  0  0
  146.7016  142.0832  157.0162 H   0  0  0  0  0  0  0  0  0  0  0  0
  145.0965  141.3570  157.1798 H   0  0  0  0  0  0  0  0  0  0  0  0
  1  2  1  0  0  0  0
  1 26  1  0  0  0  0
  1 27  1  0  0  0  0
  1 28  1  0  0  0  0
  2  3  1  0  0  0  0
  2 29  1  0  0  0  0
  2 30  1  0  0  0  0
  3  8  1  0  0  0  0
  3  4  1  0  0  0  0
  3 31  1  0  0  0  0
  4  5  1  0  0  0  0
  4 32  1  0  0  0  0
  4 33  1  0  0  0  0
  5  6  1  0  0  0  0
  5 34  1  0  0  0  0
  5 35  1  0  0  0  0
  6  7  1  0  0  0  0
  6  8  1  0  0  0  0
  6 36  1  0  0  0  0
  7 37  1  0  0  0  0
  7 38  1  0  0  0  0
  7 39  1  0  0  0  0
  8  9  1  0  0  0  0
  9 14  1  0  0  0  0
  9 10  2  0  0  0  0
 10 11  1  0  0  0  0
 11 12  2  0  0  0  0
 11 40  1  0  0  0  0
 12 13  1  0  0  0  0
 13 17  1  0  0  0  0
 13 14  2  0  0  0  0
 14 15  1  0  0  0  0
 15 16  2  0  0  0  0
 16 17  1  0  0  0  0
 16 41  1  0  0  0  0
 17 18  1  0  0  0  0
 18 19  1  0  0  0  0
 18 42  1  0  0  0  0
 18 43  1  0  0  0  0
 19 20  1  0  0  0  0
 19 21  1  0  0  0  0
 19 44  1  0  0  0  0
 20 45  1  0  0  0  0
 21 25  1  0  0  0  0
 21 22  1  0  0  0  0
 21 46  1  0  0  0  0
 22 23  1  0  0  0  0
 22 47  1  0  0  0  0
 22 48  1  0  0  0  0
 23 24  1  0  0  0  0
 23 49  1  0  0  0  0
 23 50  1  0  0  0  0
 24 25  1  0  0  0  0
 24 51  1  0  0  0  0
 24 52  1  0  0  0  0
M  END
> <s_m_source_file>
AV-unprocessed.smi

> <i_m_source_file_index>
232

> <i_lp_mmshare_version>
43012

> <i_f3d_flags>
0

> <s_epik_input>
W0NIM11bQ0gyXVtDQEBIXTFbQ0gyXVtDSDJdW0NAQEhdKFtDSDNdKU4xYyhuW2NIXW4yKWMoYzIzKW5bY0hdbjNbQ0gyXVtDQEhdKFtPSF0pW0NAQEhdNFtDSDJdW0NIMl1bQ0gyXU80

> <s_epik_cmdline>
J2VwaWtfcHl0aG9uJywgJy1waCcsICc3LjAnLCAnLXRuJywgJzgnLCAnLW1hJywgJzIwMCcsICctbWV0YWxfYmluZGluZycsICctaW1hZScsICc8aW5maWxlLm1hZT4nLCAnLW9tYWUnLCAnPG91dGZpbGUubWFlPic=

> <r_lp_tautomer_probability>
1

> <r_epik_Ionization_Penalty>
0.00258048

> <r_epik_Ionization_Penalty_Charging>
0

> <r_epik_Ionization_Penalty_Neutral>
0.00258048

> <r_epik_State_Penalty>
0.00168551

> <r_epik_Charging_Adjusted_Penalty>
0.00168551

> <i_epik_Tot_Q>
0

> <i_epik_Tot_abs_Q>
0

> <r_epik_Metal_State_Penalty>
-0

> <b_epik_Metal_Only>
0

> <s_lp_Force_Field>
OPLS_2005

> <r_lp_Energy>
54.2714

> <b_lp_Chiralities_Consistent>
1

> <s_lp_Variant>
AV-unprocessed.smi:232-15

> <Gold.Version>
5.8.1

> <Gold.Id.Protein>
6NUR|6NUR_protein|mol2

> <Gold.PLP.Fitness>
43.5756

> <Gold.PLP.PLP>
-40.7168

> <Gold.PLP.part.hbond>
-2.1285

> <Gold.PLP.part.metal>
0.0000

> <Gold.PLP.part.buried>
-2.8338

> <Gold.PLP.part.nonpolar>
-36.3004

> <Gold.PLP.part.repulsive>
0.0922

> <Gold.PLP.ligand.clash>
0.0000

> <Gold.PLP.ligand.torsion>
1.5302

> <Gold.PLP.Chemscore.Hbond>
0.9120

> <Gold.PLP.Chemscore.CHOScore>
1.0000

> <Gold.PLP.Chemscore.Metal>
0.0000

> <Gold.Chemscore.Hbonds>
donor molecule, donor type, donor heavy atom, donor atom, acceptor molecule, acceptor atom, score
      L1  H    20    45       P1 10175  1.00
      L1  C    16    41       P1  7957  1.00

> <Gold.PLP.Chemscore.Internal.Correction>
0.1832

> <Gold.Rescore>
     Score         DG    S(hbond)    S(metal)    S(lipo)     H(rot)  DE(clash)    DE(int)     intcor
     11.91     -14.82       0.99        0.00     104.57       2.43       1.07       1.84       ----

> <Gold.Chemscore.Fitness>
11.9080

> <Gold.Chemscore.DG>
-14.8151

> <Gold.Chemscore.ZeroCoef>
-5.4800

> <Gold.Chemscore.Hbond>
0.9913

> <Gold.Chemscore.Metal>
0.0000

> <Gold.Chemscore.Lipo>
104.5721

> <Gold.Chemscore.Internal_Hbond>
0.0000

> <Gold.Chemscore.DEClash>
1.0720

> <Gold.Chemscore.DEInternal>
1.8351

> <Gold.Chemscore.Rot>
2.4260

> <Gold.Chemscore.Internal.Correction>
   9.000000E+99

> <Gold.Chemscore.Hbonds>
donor molecule, donor type, donor heavy atom, donor atom, acceptor molecule, acceptor atom, score
      L1  H    20    45       P1 10175  0.95

> <Gold.Chemscore.Hbond.Weighted>
-3.3108

> <Gold.Chemscore.Metal.Weighted>
-0.0000

> <Gold.Chemscore.Lipo.Weighted>
-12.2349

> <Gold.Chemscore.Internal_Hbond.Weighted>
0.0000

> <Gold.Chemscore.DEClash.Weighted>
1.0720

> <Gold.Chemscore.DEInternal.Weighted>
1.8351

> <Gold.Chemscore.Rot.Weighted>
6.2107

> <Gold.Chemscore.Internal.Correction.Weighted>
   9.000000E+99

> <Gold.Protein.RotatedTorsions>
[ 6907 6896 6895 6894 ] final -139.16 input  -60.11 | X-H torsion
[ 7974 7965 7964 7962 ] final  -82.27 input  175.53 | X-H torsion
[ 8008 7997 7996 7995 ] final  -71.91 input   59.86 | X-H torsion
[ 10167 10162 10161 10158 ] final  151.91 input  -65.29 | X-H torsion
[ 10718 10713 10712 10709 ] final  -96.93 input   66.30 | X-H torsion
[ 10763 10752 10751 10750 ] final -150.58 input  -60.55 | X-H torsion
[ 11005 11000 10999 10996 ] final  -91.40 input  -57.11 | X-H torsion

> <Gold.Protein.ActiveResidues>
 VAL166  LYS551  ARG553  GLY616  TRP617  ASP618  TYR619  PRO620  LYS621  CYS622 
 ASP623  PHE694  ASN695  SER759  ASP760  ASP761  ALA762  ILE779  LEU786  VAL792 
 PHE793  MET794  SER795  GLU796  ALA797  LYS798  CYS799  TRP800  GLU811  SER814 

> <Gold.Protein.RotatedAtoms>
  151.0442  133.5680  159.2647 H   0  0  0  0  0  0  0  0  0  0  0  0  # atno 6907 bound_to 6896
  151.2715  135.0685  159.9145 H   0  0  0  0  0  0  0  0  0  0  0  0  # atno 6908 bound_to 6896
  152.5370  134.0172  159.8019 H   0  0  0  0  0  0  0  0  0  0  0  0  # atno 6909 bound_to 6896
  145.5355  140.9516  143.1579 H   0  0  0  0  0  0  0  0  0  0  0  0  # atno 7974 bound_to 7965
  154.5125  140.0807  156.8017 H   0  0  0  0  0  0  0  0  0  0  0  0  # atno 8008 bound_to 7997
  155.3754  140.3425  155.4226 H   0  0  0  0  0  0  0  0  0  0  0  0  # atno 8009 bound_to 7997
  156.1589  140.1582  156.8632 H   0  0  0  0  0  0  0  0  0  0  0  0  # atno 8010 bound_to 7997
  139.4837  144.5402  151.7577 H   0  0  0  0  0  0  0  0  0  0  0  0  # atno 10167 bound_to 10162
  156.0072  130.5172  150.6299 H   0  0  0  0  0  0  0  0  0  0  0  0  # atno 10718 bound_to 10713
  154.8110  135.3281  154.7304 H   0  0  0  0  0  0  0  0  0  0  0  0  # atno 10763 bound_to 10752
  153.7953  135.6908  153.4869 H   0  0  0  0  0  0  0  0  0  0  0  0  # atno 10764 bound_to 10752
  153.1890  135.4558  155.0071 H   0  0  0  0  0  0  0  0  0  0  0  0  # atno 10765 bound_to 10752
  141.1545  133.7753  156.9874 H   0  0  0  0  0  0  0  0  0  0  0  0  # atno 11005 bound_to 11000
  144.7604  139.6972  143.7237 LP  0  0  0  0  0  0  0  0  0  0  0  0  # atno 17320 bound_to 7965
  146.2016  139.5314  142.9740 LP  0  0  0  0  0  0  0  0  0  0  0  0  # atno 17321 bound_to 7965
  140.4940  144.1268  150.5956 LP  0  0  0  0  0  0  0  0  0  0  0  0  # atno 17342 bound_to 10162
  140.4138  143.2644  151.9800 LP  0  0  0  0  0  0  0  0  0  0  0  0  # atno 17343 bound_to 10162
  157.4099  131.0822  151.1231 LP  0  0  0  0  0  0  0  0  0  0  0  0  # atno 17370 bound_to 10713
  157.1866  130.6333  149.5690 LP  0  0  0  0  0  0  0  0  0  0  0  0  # atno 17371 bound_to 10713
  140.1025  134.9526  157.1945 LP  0  0  0  0  0  0  0  0  0  0  0  0  # atno 17394 bound_to 11000
  140.3299  134.2821  155.7230 LP  0  0  0  0  0  0  0  0  0  0  0  0  # atno 17395 bound_to 11000

$$$$
