AV-unprocessed.smi:492|AV-procd|sdf|2711|dock6
  -GOLD-   2262023153D 1   1.00000     0.00000
 Structure written by MMmdl.
 47 49  0  0  0  0  0  0  0  0  2 V2000
  149.3593  130.2384  154.1968 C   0  0  0  0  0  0  0  0  0  0  0  0
  149.1192  131.5809  153.8008 O   0  0  0  0  0  0  0  0  0  0  0  0
  149.7181  132.5881  154.5267 C   0  0  0  0  0  0  0  0  0  0  0  0
  149.4652  133.9127  154.1150 C   0  0  0  0  0  0  0  0  0  0  0  0
  150.0362  135.0031  154.7990 C   0  0  0  0  0  0  0  0  0  0  0  0
  150.8781  134.7812  155.9071 C   0  0  0  0  0  0  0  0  0  0  0  0
  151.4824  135.9536  156.6555 C   0  0  0  0  0  0  0  0  0  0  0  0
  152.4767  136.6114  155.8879 O   0  0  0  0  0  0  0  0  0  0  0  0
  153.0663  137.7080  156.5680 C   0  0  0  0  0  0  0  0  0  0  0  0
  152.4061  139.0234  156.1240 C   0  0  1  0  0  0  0  0  0  0  0  0
  151.8784  138.8665  154.8222 O   0  0  0  0  0  0  0  0  0  0  0  0
  151.3359  139.5432  157.1067 C   0  0  0  0  0  0  0  0  0  0  0  0
  151.1200  140.9938  156.9984 N   0  0  0  0  0  0  0  0  0  0  0  0
  150.4073  141.7147  156.0861 C   0  0  0  0  0  0  0  0  0  0  0  0
  149.6375  141.1750  154.9275 C   0  0  0  0  0  0  0  0  0  0  0  0
  150.5273  143.0288  156.4279 N   0  3  0  0  0  0  0  0  0  0  0  0
  151.3192  143.1492  157.5712 C   0  0  0  0  0  0  0  0  0  0  0  0
  151.7213  144.2715  158.2891 C   0  0  0  0  0  0  0  0  0  0  0  0
  152.5332  144.0420  159.4193 C   0  0  0  0  0  0  0  0  0  0  0  0
  152.9143  142.7381  159.7979 C   0  0  0  0  0  0  0  0  0  0  0  0
  152.5013  141.6079  159.0619 C   0  0  0  0  0  0  0  0  0  0  0  0
  151.7002  141.8441  157.9452 C   0  0  0  0  0  0  0  0  0  0  0  0
  151.1299  133.4612  156.3327 C   0  0  0  0  0  0  0  0  0  0  0  0
  150.5582  132.3711  155.6479 C   0  0  0  0  0  0  0  0  0  0  0  0
  148.8210  129.5652  153.5300 H   0  0  0  0  0  0  0  0  0  0  0  0
  149.0028  130.0522  155.2109 H   0  0  0  0  0  0  0  0  0  0  0  0
  150.4189  129.9869  154.1340 H   0  0  0  0  0  0  0  0  0  0  0  0
  148.8240  134.0957  153.2653 H   0  0  0  0  0  0  0  0  0  0  0  0
  149.8255  136.0092  154.4676 H   0  0  0  0  0  0  0  0  0  0  0  0
  150.6963  136.6622  156.9217 H   0  0  0  0  0  0  0  0  0  0  0  0
  151.9150  135.5814  157.5854 H   0  0  0  0  0  0  0  0  0  0  0  0
  152.9163  137.5776  157.6409 H   0  0  0  0  0  0  0  0  0  0  0  0
  154.1436  137.7399  156.3959 H   0  0  0  0  0  0  0  0  0  0  0  0
  153.1944  139.7713  156.0360 H   0  0  0  0  0  0  0  0  0  0  0  0
  152.5866  138.9421  154.2014 H   0  0  0  0  0  0  0  0  0  0  0  0
  150.3775  139.0563  156.9231 H   0  0  0  0  0  0  0  0  0  0  0  0
  151.6056  139.3085  158.1372 H   0  0  0  0  0  0  0  0  0  0  0  0
  149.2853  141.9860  154.2897 H   0  0  0  0  0  0  0  0  0  0  0  0
  148.7746  140.6107  155.2812 H   0  0  0  0  0  0  0  0  0  0  0  0
  150.2653  140.5129  154.3307 H   0  0  0  0  0  0  0  0  0  0  0  0
  151.4303  145.2714  158.0019 H   0  0  0  0  0  0  0  0  0  0  0  0
  152.8702  144.8830  160.0080 H   0  0  0  0  0  0  0  0  0  0  0  0
  153.5366  142.6017  160.6705 H   0  0  0  0  0  0  0  0  0  0  0  0
  152.7984  140.6130  159.3594 H   0  0  0  0  0  0  0  0  0  0  0  0
  151.7637  133.2791  157.1884 H   0  0  0  0  0  0  0  0  0  0  0  0
  150.7791  131.3765  156.0046 H   0  0  0  0  0  0  0  0  0  0  0  0
  150.0957  143.7869  155.9149 H   0  0  0  0  0  0  0  0  0  0  0  0
  1  2  1  0  0  0  0
  1 25  1  0  0  0  0
  1 26  1  0  0  0  0
  1 27  1  0  0  0  0
  2  3  1  0  0  0  0
  3 24  1  0  0  0  0
  3  4  2  0  0  0  0
  4  5  1  0  0  0  0
  4 28  1  0  0  0  0
  5  6  2  0  0  0  0
  5 29  1  0  0  0  0
  6  7  1  0  0  0  0
  6 23  1  0  0  0  0
  7  8  1  0  0  0  0
  7 30  1  0  0  0  0
  7 31  1  0  0  0  0
  8  9  1  0  0  0  0
  9 10  1  0  0  0  0
  9 32  1  0  0  0  0
  9 33  1  0  0  0  0
 10 11  1  0  0  0  0
 10 12  1  0  0  0  0
 10 34  1  0  0  0  0
 11 35  1  0  0  0  0
 12 13  1  0  0  0  0
 12 36  1  0  0  0  0
 12 37  1  0  0  0  0
 13 22  1  0  0  0  0
 13 14  1  0  0  0  0
 14 15  1  0  0  0  0
 14 16  2  0  0  0  0
 15 38  1  0  0  0  0
 15 39  1  0  0  0  0
 15 40  1  0  0  0  0
 16 17  1  0  0  0  0
 16 47  1  0  0  0  0
 17 22  2  0  0  0  0
 17 18  1  0  0  0  0
 18 19  2  0  0  0  0
 18 41  1  0  0  0  0
 19 20  1  0  0  0  0
 19 42  1  0  0  0  0
 20 21  2  0  0  0  0
 20 43  1  0  0  0  0
 21 22  1  0  0  0  0
 21 44  1  0  0  0  0
 23 24  2  0  0  0  0
 23 45  1  0  0  0  0
 24 46  1  0  0  0  0
M  CHG  1  16   1
M  END
> <s_m_source_file>
AV-unprocessed.smi

> <i_m_source_file_index>
492

> <i_lp_mmshare_version>
43012

> <i_f3d_flags>
0

> <s_epik_input>
W0NIM11PYzFbY0hdW2NIXWMoW2NIXVtjSF0xKVtDSDJdT1tDSDJdW0NASF0oW09IXSlbQ0gyXW4oYyhuMilbQ0gzXSljKGMyMylbY0hdW2NIXVtjSF1bY0hdMw==

> <s_epik_cmdline>
J2VwaWtfcHl0aG9uJywgJy1waCcsICc3LjAnLCAnLXRuJywgJzgnLCAnLW1hJywgJzIwMCcsICctbWV0YWxfYmluZGluZycsICctaW1hZScsICc8aW5maWxlLm1hZT4nLCAnLW9tYWUnLCAnPG91dGZpbGUubWFlPic=

> <r_lp_tautomer_probability>
1

> <r_epik_Ionization_Penalty>
0.952

> <r_epik_Ionization_Penalty_Charging>
0.951999

> <r_epik_Ionization_Penalty_Neutral>
9.7482e-07

> <r_epik_State_Penalty>
0.996343

> <r_epik_Charging_Adjusted_Penalty>
1.94834

> <i_epik_Tot_Q>
1

> <i_epik_Tot_abs_Q>
1

> <r_epik_Metal_State_Penalty>
4.96724

> <b_epik_Metal_Only>
0

> <s_lp_Force_Field>
OPLS_2005

> <r_lp_Energy>
22.9053

> <b_lp_Chiralities_Consistent>
1

> <s_lp_Variant>
AV-unprocessed.smi:492-4

> <Gold.Version>
5.8.1

> <Gold.Id.Protein>
6NUR|6NUR_protein|mol2

> <Gold.PLP.Fitness>
57.0046

> <Gold.PLP.PLP>
-50.4863

> <Gold.PLP.part.hbond>
-1.6595

> <Gold.PLP.part.metal>
0.0000

> <Gold.PLP.part.buried>
-5.6549

> <Gold.PLP.part.nonpolar>
-43.3530

> <Gold.PLP.part.repulsive>
0.1810

> <Gold.PLP.ligand.clash>
0.0000

> <Gold.PLP.ligand.torsion>
1.3323

> <Gold.PLP.Chemscore.Hbond>
2.9920

> <Gold.PLP.Chemscore.CHOScore>
0.0000

> <Gold.PLP.Chemscore.Metal>
0.0000

> <Gold.Chemscore.Hbonds>
donor molecule, donor type, donor heavy atom, donor atom, acceptor molecule, acceptor atom, score
      L1  H    16    47       P1  8028  2.00
      P1  H 10752 10763       L1     8  0.99

> <Gold.PLP.Chemscore.Internal.Correction>
0.2069

> <Gold.Rescore>
     Score         DG    S(hbond)    S(metal)    S(lipo)     H(rot)  DE(clash)    DE(int)     intcor
     19.30     -20.53       1.92        0.00     128.58       2.50       0.04       1.19       ----

> <Gold.Chemscore.Fitness>
19.2994

> <Gold.Chemscore.DG>
-20.5333

> <Gold.Chemscore.ZeroCoef>
-5.4800

> <Gold.Chemscore.Hbond>
1.9218

> <Gold.Chemscore.Metal>
0.0000

> <Gold.Chemscore.Lipo>
128.5836

> <Gold.Chemscore.Internal_Hbond>
0.0000

> <Gold.Chemscore.DEClash>
0.0420

> <Gold.Chemscore.DEInternal>
1.1919

> <Gold.Chemscore.Rot>
2.5038

> <Gold.Chemscore.Internal.Correction>
   9.000000E+99

> <Gold.Chemscore.Hbonds>
donor molecule, donor type, donor heavy atom, donor atom, acceptor molecule, acceptor atom, score
      L1  H    16    47       P1  8028  0.90
      P1  H 10752 10763       L1     8  0.45

> <Gold.Chemscore.Hbond.Weighted>
-6.4188

> <Gold.Chemscore.Metal.Weighted>
-0.0000

> <Gold.Chemscore.Lipo.Weighted>
-15.0443

> <Gold.Chemscore.Internal_Hbond.Weighted>
0.0000

> <Gold.Chemscore.DEClash.Weighted>
0.0420

> <Gold.Chemscore.DEInternal.Weighted>
1.1919

> <Gold.Chemscore.Rot.Weighted>
6.4098

> <Gold.Chemscore.Internal.Correction.Weighted>
   9.000000E+99

> <Gold.Protein.RotatedTorsions>
[ 6907 6896 6895 6894 ] final  -47.19 input  -60.11 | X-H torsion
[ 7974 7965 7964 7962 ] final   57.44 input  175.53 | X-H torsion
[ 8008 7997 7996 7995 ] final   35.91 input   59.86 | X-H torsion
[ 10167 10162 10161 10158 ] final -168.81 input  -65.29 | X-H torsion
[ 10718 10713 10712 10709 ] final  -24.43 input   66.30 | X-H torsion
[ 10763 10752 10751 10750 ] final   89.97 input  -60.55 | X-H torsion
[ 11005 11000 10999 10996 ] final   26.98 input  -57.11 | X-H torsion

> <Gold.Protein.ActiveResidues>
 VAL166  LYS551  ARG553  GLY616  TRP617  ASP618  TYR619  PRO620  LYS621  CYS622 
 ASP623  PHE694  ASN695  SER759  ASP760  ASP761  ALA762  ILE779  LEU786  VAL792 
 PHE793  MET794  SER795  GLU796  ALA797  LYS798  CYS799  TRP800  GLU811  SER814 

> <Gold.Protein.RotatedAtoms>
  150.9034  134.8447  159.7375 H   0  0  0  0  0  0  0  0  0  0  0  0  # atno 6907 bound_to 6896
  152.4905  134.4469  159.9571 H   0  0  0  0  0  0  0  0  0  0  0  0  # atno 6908 bound_to 6896
  151.4518  133.3576  159.2831 H   0  0  0  0  0  0  0  0  0  0  0  0  # atno 6909 bound_to 6896
  145.9290  139.3791  143.0433 H   0  0  0  0  0  0  0  0  0  0  0  0  # atno 7974 bound_to 7965
  155.1788  140.3298  155.4379 H   0  0  0  0  0  0  0  0  0  0  0  0  # atno 8008 bound_to 7997
  156.2484  140.1930  156.6837 H   0  0  0  0  0  0  0  0  0  0  0  0  # atno 8009 bound_to 7997
  154.6286  140.0585  156.9690 H   0  0  0  0  0  0  0  0  0  0  0  0  # atno 8010 bound_to 7997
  139.5962  144.1108  152.1691 H   0  0  0  0  0  0  0  0  0  0  0  0  # atno 10167 bound_to 10162
  156.4778  130.4538  149.6830 H   0  0  0  0  0  0  0  0  0  0  0  0  # atno 10718 bound_to 10713
  153.1927  135.4451  155.0169 H   0  0  0  0  0  0  0  0  0  0  0  0  # atno 10763 bound_to 10752
  154.8100  135.3290  154.7333 H   0  0  0  0  0  0  0  0  0  0  0  0  # atno 10764 bound_to 10752
  153.7786  135.6979  153.4948 H   0  0  0  0  0  0  0  0  0  0  0  0  # atno 10765 bound_to 10752
  140.3312  134.2436  155.7702 H   0  0  0  0  0  0  0  0  0  0  0  0  # atno 11005 bound_to 11000
  145.8451  140.9559  143.0779 LP  0  0  0  0  0  0  0  0  0  0  0  0  # atno 17320 bound_to 7965
  144.6762  140.0335  143.7482 LP  0  0  0  0  0  0  0  0  0  0  0  0  # atno 17321 bound_to 7965
  140.0693  144.5792  150.7203 LP  0  0  0  0  0  0  0  0  0  0  0  0  # atno 17342 bound_to 10162
  140.7213  143.2592  151.4268 LP  0  0  0  0  0  0  0  0  0  0  0  0  # atno 17343 bound_to 10162
  156.3552  130.7453  151.2418 LP  0  0  0  0  0  0  0  0  0  0  0  0  # atno 17370 bound_to 10713
  157.7486  131.0366  150.4415 LP  0  0  0  0  0  0  0  0  0  0  0  0  # atno 17371 bound_to 10713
  141.2063  133.7837  157.0186 LP  0  0  0  0  0  0  0  0  0  0  0  0  # atno 17394 bound_to 11000
  140.0859  134.9621  157.1699 LP  0  0  0  0  0  0  0  0  0  0  0  0  # atno 17395 bound_to 11000

$$$$
