AV-unprocessed.smi:779|AV-procd|sdf|3705|dock8
  -GOLD-   22720 1123D 1   1.00000     0.00000
 Structure written by MMmdl.
 20 20  0  0  0  0  0  0  0  0  3 V2000
  153.6486  138.2452  157.8388 O   0  0  0  0  0  0  0  0  0  0  0  0
  152.9808  137.7181  156.9205 C   0  0  0  0  0  0  0  0  0  0  0  0
  152.9982  136.5041  156.6175 O   0  5  0  0  0  0  0  0  0  0  0  0
  152.0363  138.7162  156.1208 C   0  0  0  0  0  0  0  0  0  0  0  0
  151.7797  139.9808  156.5184 C   0  0  0  0  0  0  0  0  0  0  0  0
  150.9300  140.8397  155.8039 N   0  0  0  0  0  0  0  0  0  0  0  0
  150.7207  142.1904  156.3419 C   0  0  0  0  0  0  0  0  0  0  0  0
  150.0099  142.1418  157.7035 C   0  0  0  0  0  0  0  0  0  0  0  0
  148.8322  142.9184  157.6601 O   0  0  0  0  0  0  0  0  0  0  0  0
  150.3102  140.3997  154.6717 C   0  0  0  0  0  0  0  0  0  0  0  0
  149.5483  141.1618  154.0743 O   0  0  0  0  0  0  0  0  0  0  0  0
  150.5547  139.1253  154.2411 N   0  5  0  0  0  0  0  0  0  0  0  0
  151.3814  138.2447  154.8805 C   0  0  0  0  0  0  0  0  0  0  0  0
  151.5591  137.1162  154.4222 O   0  0  0  0  0  0  0  0  0  0  0  0
  152.2021  140.4110  157.4149 H   0  0  0  0  0  0  0  0  0  0  0  0
  151.6801  142.6997  156.4464 H   0  0  0  0  0  0  0  0  0  0  0  0
  150.1502  142.8001  155.6391 H   0  0  0  0  0  0  0  0  0  0  0  0
  149.7500  141.1168  157.9699 H   0  0  0  0  0  0  0  0  0  0  0  0
  150.6586  142.5294  158.4896 H   0  0  0  0  0  0  0  0  0  0  0  0
  148.9053  143.5300  156.9436 H   0  0  0  0  0  0  0  0  0  0  0  0
  1  2  2  0  0  0  0
  2  3  1  0  0  0  0
  2  4  1  0  0  0  0
  4 13  1  0  0  0  0
  4  5  2  0  0  0  0
  5  6  1  0  0  0  0
  5 15  1  0  0  0  0
  6  7  1  0  0  0  0
  6 10  1  0  0  0  0
  7  8  1  0  0  0  0
  7 16  1  0  0  0  0
  7 17  1  0  0  0  0
  8  9  1  0  0  0  0
  8 18  1  0  0  0  0
  8 19  1  0  0  0  0
  9 20  1  0  0  0  0
 10 11  2  0  0  0  0
 10 12  1  0  0  0  0
 12 13  1  0  0  0  0
 13 14  2  0  0  0  0
M  CHG  1   3  -1
M  CHG  1  12  -1
M  END
> <s_m_source_file>
AV-unprocessed.smi

> <i_m_source_file_index>
779

> <i_lp_mmshare_version>
43012

> <i_f3d_flags>
0

> <s_epik_input>
Tz1DKFtPSF0pYzFbY0hdbihbQ0gyXVtDSDJdW09IXSljKD1PKVtuSF1jMT1P

> <s_epik_cmdline>
J2VwaWtfcHl0aG9uJywgJy1waCcsICc3LjAnLCAnLXRuJywgJzgnLCAnLW1hJywgJzIwMCcsICctbWV0YWxfYmluZGluZycsICctaW1hZScsICc8aW5maWxlLm1hZT4nLCAnLW9tYWUnLCAnPG91dGZpbGUubWFlPic=

> <r_lp_tautomer_probability>
1

> <r_epik_Ionization_Penalty>
3.89082

> <r_epik_Ionization_Penalty_Charging>
0.00124607

> <r_epik_Ionization_Penalty_Neutral>
3.88958

> <r_epik_State_Penalty>
3.88874

> <r_epik_Charging_Adjusted_Penalty>
3.88999

> <i_epik_Tot_Q>
-2

> <i_epik_Tot_abs_Q>
2

> <r_epik_Metal_State_Penalty>
0.317414

> <b_epik_Metal_Only>
1

> <s_lp_Force_Field>
OPLS_2005

> <r_lp_Energy>
29.4188

> <b_lp_Chiralities_Consistent>
1

> <s_lp_Variant>
AV-unprocessed.smi:779-2

> <Gold.Version>
5.8.1

> <Gold.Id.Protein>
6NUR|6NUR_protein|mol2

> <Gold.PLP.Fitness>
39.5323

> <Gold.PLP.PLP>
-23.0832

> <Gold.PLP.part.hbond>
-6.5487

> <Gold.PLP.part.metal>
0.0000

> <Gold.PLP.part.buried>
0.2155

> <Gold.PLP.part.nonpolar>
-17.5170

> <Gold.PLP.part.repulsive>
0.6648

> <Gold.PLP.ligand.clash>
0.0000

> <Gold.PLP.ligand.torsion>
0.4526

> <Gold.PLP.Chemscore.Hbond>
5.7839

> <Gold.PLP.Chemscore.CHOScore>
0.0000

> <Gold.PLP.Chemscore.Metal>
0.0000

> <Gold.Chemscore.Hbonds>
donor molecule, donor type, donor heavy atom, donor atom, acceptor molecule, acceptor atom, score
      L1  H     9    20       P1  8028  1.00
      P1  H  7997  8010       L1     1  1.33
      P1  H  8011  8017       L1    11  0.55
      P1  H 10752 10764       L1    14  0.40
      P1  H 10752 10765       L1     3  1.76

> <Gold.PLP.Chemscore.Internal.Correction>
0.0027

> <Gold.Rescore>
     Score         DG    S(hbond)    S(metal)    S(lipo)     H(rot)  DE(clash)    DE(int)     intcor
     11.63     -17.24       4.25        0.00      26.50       2.17       3.55       2.06       ----

> <Gold.Chemscore.Fitness>
11.6323

> <Gold.Chemscore.DG>
-17.2422

> <Gold.Chemscore.ZeroCoef>
-5.4800

> <Gold.Chemscore.Hbond>
4.2541

> <Gold.Chemscore.Metal>
0.0000

> <Gold.Chemscore.Lipo>
26.4961

> <Gold.Chemscore.Internal_Hbond>
0.0000

> <Gold.Chemscore.DEClash>
3.5539

> <Gold.Chemscore.DEInternal>
2.0560

> <Gold.Chemscore.Rot>
2.1667

> <Gold.Chemscore.Internal.Correction>
   9.000000E+99

> <Gold.Chemscore.Hbonds>
donor molecule, donor type, donor heavy atom, donor atom, acceptor molecule, acceptor atom, score
      L1  H     9    20       P1  8028  0.55
      P1  H  7997  8010       L1     1  0.46
      P1  H  8011  8017       L1    11  0.55
      P1  H 10752 10764       L1    14  0.41
      P1  H 10752 10765       L1     3  0.87

> <Gold.Chemscore.Hbond.Weighted>
-14.2088

> <Gold.Chemscore.Metal.Weighted>
-0.0000

> <Gold.Chemscore.Lipo.Weighted>
-3.1000

> <Gold.Chemscore.Internal_Hbond.Weighted>
0.0000

> <Gold.Chemscore.DEClash.Weighted>
3.5539

> <Gold.Chemscore.DEInternal.Weighted>
2.0560

> <Gold.Chemscore.Rot.Weighted>
5.5467

> <Gold.Chemscore.Internal.Correction.Weighted>
   9.000000E+99

> <Gold.Protein.RotatedTorsions>
[ 6907 6896 6895 6894 ] final   22.70 input  -60.11 | X-H torsion
[ 7974 7965 7964 7962 ] final  116.29 input  175.53 | X-H torsion
[ 8008 7997 7996 7995 ] final   30.82 input   59.86 | X-H torsion
[ 10167 10162 10161 10158 ] final   96.48 input  -65.29 | X-H torsion
[ 10718 10713 10712 10709 ] final  -36.82 input   66.30 | X-H torsion
[ 10763 10752 10751 10750 ] final -108.50 input  -60.55 | X-H torsion
[ 11005 11000 10999 10996 ] final   47.43 input  -57.11 | X-H torsion

> <Gold.Protein.ActiveResidues>
 VAL166  LYS551  ARG553  GLY616  TRP617  ASP618  TYR619  PRO620  LYS621  CYS622 
 ASP623  PHE694  ASN695  SER759  ASP760  ASP761  ALA762  ILE779  LEU786  VAL792 
 PHE793  MET794  SER795  GLU796  ALA797  LYS798  CYS799  TRP800  GLU811  SER814 

> <Gold.Protein.RotatedAtoms>
  151.9311  135.0256  160.0528 H   0  0  0  0  0  0  0  0  0  0  0  0  # atno 6907 bound_to 6896
  152.2117  133.4912  159.5122 H   0  0  0  0  0  0  0  0  0  0  0  0  # atno 6908 bound_to 6896
  150.6978  134.1375  159.4135 H   0  0  0  0  0  0  0  0  0  0  0  0  # atno 6909 bound_to 6896
  145.1815  139.3048  143.4416 H   0  0  0  0  0  0  0  0  0  0  0  0  # atno 7974 bound_to 7965
  155.0965  140.3225  155.4559 H   0  0  0  0  0  0  0  0  0  0  0  0  # atno 8008 bound_to 7997
  156.2729  140.2068  156.6038 H   0  0  0  0  0  0  0  0  0  0  0  0  # atno 8009 bound_to 7997
  154.6863  140.0521  157.0305 H   0  0  0  0  0  0  0  0  0  0  0  0  # atno 8010 bound_to 7997
  139.7890  144.6859  150.9918 H   0  0  0  0  0  0  0  0  0  0  0  0  # atno 10167 bound_to 10162
  156.3224  130.4267  149.7948 H   0  0  0  0  0  0  0  0  0  0  0  0  # atno 10718 bound_to 10713
  154.8139  135.4636  154.0589 H   0  0  0  0  0  0  0  0  0  0  0  0  # atno 10763 bound_to 10752
  153.1998  135.6867  153.8252 H   0  0  0  0  0  0  0  0  0  0  0  0  # atno 10764 bound_to 10752
  153.7741  135.3266  155.3333 H   0  0  0  0  0  0  0  0  0  0  0  0  # atno 10765 bound_to 10752
  140.1280  134.4743  155.8544 H   0  0  0  0  0  0  0  0  0  0  0  0  # atno 11005 bound_to 11000
  146.3452  140.1995  142.8589 LP  0  0  0  0  0  0  0  0  0  0  0  0  # atno 17320 bound_to 7965
  145.0132  140.8731  143.5211 LP  0  0  0  0  0  0  0  0  0  0  0  0  # atno 17321 bound_to 7965
  140.7820  143.4401  151.0564 LP  0  0  0  0  0  0  0  0  0  0  0  0  # atno 17342 bound_to 10162
  139.8079  143.7992  152.3169 LP  0  0  0  0  0  0  0  0  0  0  0  0  # atno 17343 bound_to 10162
  156.5251  130.8232  151.3217 LP  0  0  0  0  0  0  0  0  0  0  0  0  # atno 17370 bound_to 10713
  157.7414  130.9870  150.2445 LP  0  0  0  0  0  0  0  0  0  0  0  0  # atno 17371 bound_to 10713
  141.2165  133.6785  156.7014 LP  0  0  0  0  0  0  0  0  0  0  0  0  # atno 17394 bound_to 11000
  140.2879  134.8264  157.3991 LP  0  0  0  0  0  0  0  0  0  0  0  0  # atno 17395 bound_to 11000

$$$$
