AV-unprocessed.smi:652|AV-procd|sdf|3197|dock6
  -GOLD-   22720 0123D 1   1.00000     0.00000
 Structure written by MMmdl.
 47 48  0  0  0  0  0  0  0  0  1 V2000
  145.6669  135.4974  161.8610 C   0  0  0  0  0  0  0  0  0  0  0  0
  146.4888  134.5266  160.9992 C   0  0  0  0  0  0  0  0  0  0  0  0
  147.7094  133.9865  161.7564 C   0  0  0  0  0  0  0  0  0  0  0  0
  146.9322  135.1823  159.7727 N   0  0  0  0  0  0  0  0  0  0  0  0
  147.6702  136.3017  159.7105 C   0  0  0  0  0  0  0  0  0  0  0  0
  148.0892  136.8951  160.7045 O   0  0  0  0  0  0  0  0  0  0  0  0
  147.9819  136.8370  158.3090 C   0  0  0  0  0  0  0  0  0  0  0  0
  148.9343  138.0517  158.3232 C   0  0  0  0  0  0  0  0  0  0  0  0
  149.0804  138.7615  157.0505 N   0  0  0  0  0  0  0  0  0  0  0  0
  149.5100  137.8855  155.9637 C   0  0  0  0  0  0  0  0  0  0  0  0
  149.6612  138.6516  154.6381 C   0  0  0  0  0  0  0  0  0  0  0  0
  150.5704  139.7347  154.8059 O   0  0  0  0  0  0  0  0  0  0  0  0
  150.1778  140.6348  155.8396 C   0  0  2  0  0  0  0  0  0  0  0  0
  151.1821  141.7960  155.9097 C   0  0  0  0  0  0  0  0  0  0  0  0
  150.7316  142.8698  156.7842 N   0  0  0  0  0  0  0  0  0  0  0  0
  151.3819  143.1299  157.9968 C   0  0  0  0  0  0  0  0  0  0  0  0
  151.5937  144.4383  158.4894 C   0  0  0  0  0  0  0  0  0  0  0  0
  152.2585  144.5697  159.7209 C   0  0  0  0  0  0  0  0  0  0  0  0
  152.6619  143.3875  160.3670 C   0  0  0  0  0  0  0  0  0  0  0  0
  152.4330  142.1604  159.8482 N   0  0  0  0  0  0  0  0  0  0  0  0
  151.7999  142.0362  158.6759 N   0  0  0  0  0  0  0  0  0  0  0  0
  150.0222  139.8679  157.1698 C   0  0  0  0  0  0  0  0  0  0  0  0
  145.3237  135.0129  162.7756 H   0  0  0  0  0  0  0  0  0  0  0  0
  144.7841  135.8506  161.3272 H   0  0  0  0  0  0  0  0  0  0  0  0
  146.2546  136.3702  162.1473 H   0  0  0  0  0  0  0  0  0  0  0  0
  145.8581  133.6743  160.7398 H   0  0  0  0  0  0  0  0  0  0  0  0
  147.4070  133.4623  162.6634 H   0  0  0  0  0  0  0  0  0  0  0  0
  148.3859  134.7910  162.0472 H   0  0  0  0  0  0  0  0  0  0  0  0
  148.2725  133.2825  161.1424 H   0  0  0  0  0  0  0  0  0  0  0  0
  146.6372  134.7636  158.9026 H   0  0  0  0  0  0  0  0  0  0  0  0
  148.4387  136.0304  157.7350 H   0  0  0  0  0  0  0  0  0  0  0  0
  147.0567  137.0849  157.7874 H   0  0  0  0  0  0  0  0  0  0  0  0
  148.5666  138.7507  159.0760 H   0  0  0  0  0  0  0  0  0  0  0  0
  149.9152  137.7317  158.6772 H   0  0  0  0  0  0  0  0  0  0  0  0
  150.4604  137.4152  156.2203 H   0  0  0  0  0  0  0  0  0  0  0  0
  148.7901  137.0806  155.8198 H   0  0  0  0  0  0  0  0  0  0  0  0
  150.0363  137.9891  153.8579 H   0  0  0  0  0  0  0  0  0  0  0  0
  148.6949  139.0288  154.3002 H   0  0  0  0  0  0  0  0  0  0  0  0
  149.2082  141.0557  155.5671 H   0  0  0  0  0  0  0  0  0  0  0  0
  152.1449  141.4262  156.2647 H   0  0  0  0  0  0  0  0  0  0  0  0
  151.3403  142.1947  154.9070 H   0  0  0  0  0  0  0  0  0  0  0  0
  149.8348  143.2976  156.6027 H   0  0  0  0  0  0  0  0  0  0  0  0
  151.2637  145.3178  157.9577 H   0  0  0  0  0  0  0  0  0  0  0  0
  152.4520  145.5398  160.1540 H   0  0  0  0  0  0  0  0  0  0  0  0
  153.1770  143.4248  161.3153 H   0  0  0  0  0  0  0  0  0  0  0  0
  149.6839  140.5571  157.9445 H   0  0  0  0  0  0  0  0  0  0  0  0
  150.9921  139.4874  157.4936 H   0  0  0  0  0  0  0  0  0  0  0  0
  1  2  1  0  0  0  0
  1 23  1  0  0  0  0
  1 24  1  0  0  0  0
  1 25  1  0  0  0  0
  2  3  1  0  0  0  0
  2  4  1  0  0  0  0
  2 26  1  0  0  0  0
  3 27  1  0  0  0  0
  3 28  1  0  0  0  0
  3 29  1  0  0  0  0
  4  5  1  0  0  0  0
  4 30  1  0  0  0  0
  5  6  2  0  0  0  0
  5  7  1  0  0  0  0
  7  8  1  0  0  0  0
  7 31  1  0  0  0  0
  7 32  1  0  0  0  0
  8  9  1  0  0  0  0
  8 33  1  0  0  0  0
  8 34  1  0  0  0  0
  9 22  1  0  0  0  0
  9 10  1  0  0  0  0
 10 11  1  0  0  0  0
 10 35  1  0  0  0  0
 10 36  1  0  0  0  0
 11 12  1  0  0  0  0
 11 37  1  0  0  0  0
 11 38  1  0  0  0  0
 12 13  1  0  0  0  0
 13 14  1  0  0  0  0
 13 22  1  0  0  0  0
 13 39  1  0  0  0  0
 14 15  1  0  0  0  0
 14 40  1  0  0  0  0
 14 41  1  0  0  0  0
 15 16  1  0  0  0  0
 15 42  1  0  0  0  0
 16 21  1  0  0  0  0
 16 17  2  0  0  0  0
 17 18  1  0  0  0  0
 17 43  1  0  0  0  0
 18 19  2  0  0  0  0
 18 44  1  0  0  0  0
 19 20  1  0  0  0  0
 19 45  1  0  0  0  0
 20 21  2  0  0  0  0
 22 46  1  0  0  0  0
 22 47  1  0  0  0  0
M  END
> <s_m_source_file>
AV-unprocessed.smi

> <i_m_source_file_index>
652

> <i_lp_mmshare_version>
43012

> <i_f3d_flags>
0

> <s_epik_input>
W0NIM11bQ0hdKFtDSDNdKVtOSF1DKD1PKVtDSDJdW0NIMl1OMVtDSDJdW0NIMl1PW0NASF0oW0NIMl0xKVtDSDJdW05IXWMyW2NIXVtjSF1bY0hdbm4y

> <s_epik_cmdline>
J2VwaWtfcHl0aG9uJywgJy1waCcsICc3LjAnLCAnLXRuJywgJzgnLCAnLW1hJywgJzIwMCcsICctbWV0YWxfYmluZGluZycsICctaW1hZScsICc8aW5maWxlLm1hZT4nLCAnLW9tYWUnLCAnPG91dGZpbGUubWFlPic=

> <r_lp_tautomer_probability>
0.999978

> <r_epik_Ionization_Penalty>
0.428793

> <r_epik_Ionization_Penalty_Charging>
0

> <r_epik_Ionization_Penalty_Neutral>
0.428793

> <r_epik_State_Penalty>
0.437051

> <r_epik_Charging_Adjusted_Penalty>
0.437051

> <i_epik_Tot_Q>
0

> <i_epik_Tot_abs_Q>
0

> <r_epik_Metal_State_Penalty>
0.432371

> <b_epik_Metal_Only>
0

> <s_lp_Force_Field>
OPLS_2005

> <r_lp_Energy>
25.2897

> <b_lp_Chiralities_Consistent>
1

> <s_lp_Variant>
AV-unprocessed.smi:652-6

> <Gold.Version>
5.8.1

> <Gold.Id.Protein>
6NUR|6NUR_protein|mol2

> <Gold.PLP.Fitness>
44.3898

> <Gold.PLP.PLP>
-34.2915

> <Gold.PLP.part.hbond>
-3.9264

> <Gold.PLP.part.metal>
0.0000

> <Gold.PLP.part.buried>
-6.2042

> <Gold.PLP.part.nonpolar>
-23.4726

> <Gold.PLP.part.repulsive>
0.1382

> <Gold.PLP.ligand.clash>
0.0000

> <Gold.PLP.ligand.torsion>
0.4406

> <Gold.PLP.Chemscore.Hbond>
3.6308

> <Gold.PLP.Chemscore.CHOScore>
0.0000

> <Gold.PLP.Chemscore.Metal>
0.0000

> <Gold.Chemscore.Hbonds>
donor molecule, donor type, donor heavy atom, donor atom, acceptor molecule, acceptor atom, score
      L1  H    15    42       P1  8028  0.91
      P1  H  6931  6943       L1     6  0.94
      P1  H  6934  6947       L1     6  0.21
      P1  H  7989  7998       L1    12  1.00

> <Gold.PLP.Chemscore.Internal.Correction>
0.0874

> <Gold.Rescore>
     Score         DG    S(hbond)    S(metal)    S(lipo)     H(rot)  DE(clash)    DE(int)     intcor
     17.78     -20.28       3.08        0.00      86.69       2.20       0.84       1.66       ----

> <Gold.Chemscore.Fitness>
17.7752

> <Gold.Chemscore.DG>
-20.2832

> <Gold.Chemscore.ZeroCoef>
-5.4800

> <Gold.Chemscore.Hbond>
3.0826

> <Gold.Chemscore.Metal>
0.0000

> <Gold.Chemscore.Lipo>
86.6891

> <Gold.Chemscore.Internal_Hbond>
0.0000

> <Gold.Chemscore.DEClash>
0.8434

> <Gold.Chemscore.DEInternal>
1.6646

> <Gold.Chemscore.Rot>
2.2013

> <Gold.Chemscore.Internal.Correction>
   9.000000E+99

> <Gold.Chemscore.Hbonds>
donor molecule, donor type, donor heavy atom, donor atom, acceptor molecule, acceptor atom, score
      L1  H    15    42       P1  8028  0.89
      P1  H  6931  6943       L1     6  0.85
      P1  H  6934  6947       L1     6  0.19
      P1  H  7989  7998       L1    12  0.47

> <Gold.Chemscore.Hbond.Weighted>
-10.2960

> <Gold.Chemscore.Metal.Weighted>
-0.0000

> <Gold.Chemscore.Lipo.Weighted>
-10.1426

> <Gold.Chemscore.Internal_Hbond.Weighted>
0.0000

> <Gold.Chemscore.DEClash.Weighted>
0.8434

> <Gold.Chemscore.DEInternal.Weighted>
1.6646

> <Gold.Chemscore.Rot.Weighted>
5.6354

> <Gold.Chemscore.Internal.Correction.Weighted>
   9.000000E+99

> <Gold.Protein.RotatedTorsions>
[ 6907 6896 6895 6894 ] final  106.64 input  -60.11 | X-H torsion
[ 7974 7965 7964 7962 ] final  -83.23 input  175.53 | X-H torsion
[ 8008 7997 7996 7995 ] final  174.54 input   59.86 | X-H torsion
[ 10167 10162 10161 10158 ] final  -70.09 input  -65.29 | X-H torsion
[ 10718 10713 10712 10709 ] final   92.59 input   66.30 | X-H torsion
[ 10763 10752 10751 10750 ] final  146.97 input  -60.55 | X-H torsion
[ 11005 11000 10999 10996 ] final  -37.84 input  -57.11 | X-H torsion

> <Gold.Protein.ActiveResidues>
 VAL166  LYS551  ARG553  GLY616  TRP617  ASP618  TYR619  PRO620  LYS621  CYS622 
 ASP623  PHE694  ASN695  SER759  ASP760  ASP761  ALA762  ILE779  LEU786  VAL792 
 PHE793  MET794  SER795  GLU796  ALA797  LYS798  CYS799  TRP800  GLU811  SER814 

> <Gold.Protein.RotatedAtoms>
  152.5186  133.9351  159.7598 H   0  0  0  0  0  0  0  0  0  0  0  0  # atno 6907 bound_to 6896
  150.9693  133.6353  159.2747 H   0  0  0  0  0  0  0  0  0  0  0  0  # atno 6908 bound_to 6896
  151.3570  135.0902  159.9475 H   0  0  0  0  0  0  0  0  0  0  0  0  # atno 6909 bound_to 6896
  145.5227  140.9529  143.1646 H   0  0  0  0  0  0  0  0  0  0  0  0  # atno 7974 bound_to 7965
  156.0964  140.1432  156.9525 H   0  0  0  0  0  0  0  0  0  0  0  0  # atno 8008 bound_to 7997
  154.4674  140.0921  156.7102 H   0  0  0  0  0  0  0  0  0  0  0  0  # atno 8009 bound_to 7997
  155.4834  140.3445  155.4345 H   0  0  0  0  0  0  0  0  0  0  0  0  # atno 8010 bound_to 7997
  140.5380  143.2316  151.7141 H   0  0  0  0  0  0  0  0  0  0  0  0  # atno 10167 bound_to 10162
  157.6958  131.0449  150.3905 H   0  0  0  0  0  0  0  0  0  0  0  0  # atno 10718 bound_to 10713
  154.0306  135.2898  155.3369 H   0  0  0  0  0  0  0  0  0  0  0  0  # atno 10763 bound_to 10752
  154.6990  135.5196  153.8503 H   0  0  0  0  0  0  0  0  0  0  0  0  # atno 10764 bound_to 10752
  153.0641  135.6624  154.0519 H   0  0  0  0  0  0  0  0  0  0  0  0  # atno 10765 bound_to 10752
  140.9982  133.6969  156.1974 H   0  0  0  0  0  0  0  0  0  0  0  0  # atno 11005 bound_to 11000
  144.7667  139.6828  143.7212 LP  0  0  0  0  0  0  0  0  0  0  0  0  # atno 17320 bound_to 7965
  146.2095  139.5442  142.9690 LP  0  0  0  0  0  0  0  0  0  0  0  0  # atno 17321 bound_to 7965
  139.4978  144.4013  152.0178 LP  0  0  0  0  0  0  0  0  0  0  0  0  # atno 17342 bound_to 10162
  140.3120  144.3527  150.6031 LP  0  0  0  0  0  0  0  0  0  0  0  0  # atno 17343 bound_to 10162
  156.4309  130.3972  149.6761 LP  0  0  0  0  0  0  0  0  0  0  0  0  # atno 17370 bound_to 10713
  156.3978  130.7660  151.2665 LP  0  0  0  0  0  0  0  0  0  0  0  0  # atno 17371 bound_to 10713
  140.6931  134.4644  157.5588 LP  0  0  0  0  0  0  0  0  0  0  0  0  # atno 17394 bound_to 11000
  139.9025  134.8522  156.1836 LP  0  0  0  0  0  0  0  0  0  0  0  0  # atno 17395 bound_to 11000

$$$$
