AV-unprocessed.smi:871|AV-procd|sdf|4011|dock8
  -GOLD-   22720 1503D 1   1.00000     0.00000
 Structure written by MMmdl.
 19 19  0  0  0  0  0  0  0  0  2 V2000
  149.4659  142.3342  155.0461 N   0  0  0  0  0  0  0  0  0  0  0  0
  150.2789  141.7037  155.9681 C   0  0  0  0  0  0  0  0  0  0  0  0
  150.5804  142.2705  157.1547 C   0  0  0  0  0  0  0  0  0  0  0  0
  151.4347  141.5942  158.0996 C   0  0  0  0  0  0  0  0  0  0  0  0
  151.9091  140.3841  157.7704 C   0  0  0  0  0  0  0  0  0  0  0  0
  151.5916  139.7638  156.5453 N   0  0  0  0  0  0  0  0  0  0  0  0
  152.2040  138.4480  156.2933 C   0  0  0  0  0  0  0  0  0  0  0  0
  152.8787  138.3825  154.9199 C   0  0  0  0  0  0  0  0  0  0  0  0
  152.4358  137.5413  154.1076 O   0  0  0  0  0  0  0  0  0  0  0  0
  153.8241  139.1732  154.7071 O   0  5  0  0  0  0  0  0  0  0  0  0
  150.8083  140.3760  155.6033 C   0  0  0  0  0  0  0  0  0  0  0  0
  150.5582  139.8445  154.5189 O   0  0  0  0  0  0  0  0  0  0  0  0
  149.2377  141.9130  154.1575 H   0  0  0  0  0  0  0  0  0  0  0  0
  149.1363  143.2773  155.1959 H   0  0  0  0  0  0  0  0  0  0  0  0
  150.1828  143.2432  157.4054 H   0  0  0  0  0  0  0  0  0  0  0  0
  151.6904  142.0519  159.0438 H   0  0  0  0  0  0  0  0  0  0  0  0
  152.5602  139.8126  158.4166 H   0  0  0  0  0  0  0  0  0  0  0  0
  152.9352  138.1601  157.0496 H   0  0  0  0  0  0  0  0  0  0  0  0
  151.4258  137.6848  156.3455 H   0  0  0  0  0  0  0  0  0  0  0  0
  1  2  1  0  0  0  0
  1 13  1  0  0  0  0
  1 14  1  0  0  0  0
  2 11  1  0  0  0  0
  2  3  2  0  0  0  0
  3  4  1  0  0  0  0
  3 15  1  0  0  0  0
  4  5  2  0  0  0  0
  4 16  1  0  0  0  0
  5  6  1  0  0  0  0
  5 17  1  0  0  0  0
  6  7  1  0  0  0  0
  6 11  1  0  0  0  0
  7  8  1  0  0  0  0
  7 18  1  0  0  0  0
  7 19  1  0  0  0  0
  8  9  2  0  0  0  0
  8 10  1  0  0  0  0
 11 12  2  0  0  0  0
M  CHG  1  10  -1
M  END
> <s_m_source_file>
AV-unprocessed.smi

> <i_m_source_file_index>
871

> <i_lp_mmshare_version>
43012

> <i_f3d_flags>
0

> <s_epik_input>
W05IMl1jMVtjSF1bY0hdW2NIXW4oYzE9TylbQ0gyXUMoPU8pW09IXQ==

> <s_epik_cmdline>
J2VwaWtfcHl0aG9uJywgJy1waCcsICc3LjAnLCAnLXRuJywgJzgnLCAnLW1hJywgJzIwMCcsICctbWV0YWxfYmluZGluZycsICctaW1hZScsICc8aW5maWxlLm1hZT4nLCAnLW9tYWUnLCAnPG91dGZpbGUubWFlPic=

> <r_lp_tautomer_probability>
1

> <r_epik_Ionization_Penalty>
0.00200637

> <r_epik_Ionization_Penalty_Charging>
0.0012605

> <r_epik_Ionization_Penalty_Neutral>
0.000745874

> <r_epik_State_Penalty>
-0

> <r_epik_Charging_Adjusted_Penalty>
0.0012605

> <i_epik_Tot_Q>
-1

> <i_epik_Tot_abs_Q>
1

> <r_epik_Metal_State_Penalty>
-0

> <b_epik_Metal_Only>
0

> <s_lp_Force_Field>
OPLS_2005

> <r_lp_Energy>
10.9711

> <b_lp_Chiralities_Consistent>
1

> <s_lp_Variant>
AV-unprocessed.smi:871-1

> <Gold.Version>
5.8.1

> <Gold.Id.Protein>
6NUR|6NUR_protein|mol2

> <Gold.PLP.Fitness>
39.6722

> <Gold.PLP.PLP>
-24.0142

> <Gold.PLP.part.hbond>
-3.9750

> <Gold.PLP.part.metal>
0.0000

> <Gold.PLP.part.buried>
-4.1860

> <Gold.PLP.part.nonpolar>
-17.0398

> <Gold.PLP.part.repulsive>
0.4797

> <Gold.PLP.ligand.clash>
0.0000

> <Gold.PLP.ligand.torsion>
0.1226

> <Gold.PLP.Chemscore.Hbond>
5.2993

> <Gold.PLP.Chemscore.CHOScore>
0.0000

> <Gold.PLP.Chemscore.Metal>
0.0000

> <Gold.Chemscore.Hbonds>
donor molecule, donor type, donor heavy atom, donor atom, acceptor molecule, acceptor atom, score
      L1  H     1    14       P1  8028  0.99
      P1  H  7989  7998       L1    12  0.90
      P1  H  7997  8010       L1    10  2.00
      P1  H 10752 10763       L1     9  1.41

> <Gold.PLP.Chemscore.Internal.Correction>
0.0055

> <Gold.Rescore>
     Score         DG    S(hbond)    S(metal)    S(lipo)     H(rot)  DE(clash)    DE(int)     intcor
     13.23     -14.73       2.78        0.00      34.43       1.58       0.00       1.50       ----

> <Gold.Chemscore.Fitness>
13.2300

> <Gold.Chemscore.DG>
-14.7286

> <Gold.Chemscore.ZeroCoef>
-5.4800

> <Gold.Chemscore.Hbond>
2.7770

> <Gold.Chemscore.Metal>
0.0000

> <Gold.Chemscore.Lipo>
34.4332

> <Gold.Chemscore.Internal_Hbond>
0.0000

> <Gold.Chemscore.DEClash>
0.0000

> <Gold.Chemscore.DEInternal>
1.4986

> <Gold.Chemscore.Rot>
1.5841

> <Gold.Chemscore.Internal.Correction>
   9.000000E+99

> <Gold.Chemscore.Hbonds>
donor molecule, donor type, donor heavy atom, donor atom, acceptor molecule, acceptor atom, score
      L1  H     1    14       P1  8028  0.92
      P1  H  7989  7998       L1    12  0.18
      P1  H  7997  8010       L1    10  0.94
      P1  H 10752 10763       L1     9  0.69

> <Gold.Chemscore.Hbond.Weighted>
-9.2753

> <Gold.Chemscore.Metal.Weighted>
-0.0000

> <Gold.Chemscore.Lipo.Weighted>
-4.0287

> <Gold.Chemscore.Internal_Hbond.Weighted>
0.0000

> <Gold.Chemscore.DEClash.Weighted>
0.0000

> <Gold.Chemscore.DEInternal.Weighted>
1.4986

> <Gold.Chemscore.Rot.Weighted>
4.0554

> <Gold.Chemscore.Internal.Correction.Weighted>
   9.000000E+99

> <Gold.Protein.RotatedTorsions>
[ 6907 6896 6895 6894 ] final   30.76 input  -60.11 | X-H torsion
[ 7974 7965 7964 7962 ] final  -93.06 input  175.53 | X-H torsion
[ 8008 7997 7996 7995 ] final  106.70 input   59.86 | X-H torsion
[ 10167 10162 10161 10158 ] final -139.87 input  -65.29 | X-H torsion
[ 10718 10713 10712 10709 ] final  124.06 input   66.30 | X-H torsion
[ 10763 10752 10751 10750 ] final   33.71 input  -60.55 | X-H torsion
[ 11005 11000 10999 10996 ] final -154.57 input  -57.11 | X-H torsion

> <Gold.Protein.ActiveResidues>
 VAL166  LYS551  ARG553  GLY616  TRP617  ASP618  TYR619  PRO620  LYS621  CYS622 
 ASP623  PHE694  ASN695  SER759  ASP760  ASP761  ALA762  ILE779  LEU786  VAL792 
 PHE793  MET794  SER795  GLU796  ALA797  LYS798  CYS799  TRP800  GLU811  SER814 

> <Gold.Protein.RotatedAtoms>
  152.0506  134.9656  160.0574 H   0  0  0  0  0  0  0  0  0  0  0  0  # atno 6907 bound_to 6896
  152.1058  133.4269  159.4616 H   0  0  0  0  0  0  0  0  0  0  0  0  # atno 6908 bound_to 6896
  150.6841  134.2625  159.4598 H   0  0  0  0  0  0  0  0  0  0  0  0  # atno 6909 bound_to 6896
  145.3915  140.9528  143.2338 H   0  0  0  0  0  0  0  0  0  0  0  0  # atno 7974 bound_to 7965
  156.1764  140.3108  155.9068 H   0  0  0  0  0  0  0  0  0  0  0  0  # atno 8008 bound_to 7997
  155.3477  140.0469  157.3063 H   0  0  0  0  0  0  0  0  0  0  0  0  # atno 8009 bound_to 7997
  154.5295  140.2226  155.8839 H   0  0  0  0  0  0  0  0  0  0  0  0  # atno 8010 bound_to 7997
  139.8337  143.7413  152.2665 H   0  0  0  0  0  0  0  0  0  0  0  0  # atno 10167 bound_to 10162
  157.5615  131.1089  150.8530 H   0  0  0  0  0  0  0  0  0  0  0  0  # atno 10718 bound_to 10713
  153.0199  135.6380  154.1554 H   0  0  0  0  0  0  0  0  0  0  0  0  # atno 10763 bound_to 10752
  154.1290  135.2842  155.3191 H   0  0  0  0  0  0  0  0  0  0  0  0  # atno 10764 bound_to 10752
  154.6208  135.5525  153.7635 H   0  0  0  0  0  0  0  0  0  0  0  0  # atno 10765 bound_to 10752
  140.6959  134.3991  157.5215 H   0  0  0  0  0  0  0  0  0  0  0  0  # atno 11005 bound_to 11000
  144.8437  139.5431  143.6888 LP  0  0  0  0  0  0  0  0  0  0  0  0  # atno 17320 bound_to 7965
  146.2795  139.6840  142.9239 LP  0  0  0  0  0  0  0  0  0  0  0  0  # atno 17321 bound_to 7965
  139.7628  144.7501  151.0338 LP  0  0  0  0  0  0  0  0  0  0  0  0  # atno 17342 bound_to 10162
  140.7804  143.4731  151.0119 LP  0  0  0  0  0  0  0  0  0  0  0  0  # atno 17343 bound_to 10162
  156.9026  130.5252  149.5282 LP  0  0  0  0  0  0  0  0  0  0  0  0  # atno 17370 bound_to 10713
  156.0667  130.5709  150.9303 LP  0  0  0  0  0  0  0  0  0  0  0  0  # atno 17371 bound_to 10713
  139.8910  134.8790  156.2340 LP  0  0  0  0  0  0  0  0  0  0  0  0  # atno 17394 bound_to 11000
  141.0204  133.7045  156.1258 LP  0  0  0  0  0  0  0  0  0  0  0  0  # atno 17395 bound_to 11000

$$$$
