AV-unprocessed.smi:17|AV-procd|sdf|100|dock1
  -GOLD-   2262015243D 1   1.00000     0.00000
 Structure written by MMmdl.
 57 59  0  0  0  0  0  0  0  0  1 V2000
  145.8181  131.3695  161.6577 C   0  0  0  0  0  0  0  0  0  0  0  0
  146.8131  131.3241  160.4895 C   0  0  0  0  0  0  0  0  0  0  0  0
  146.9162  132.6109  159.7950 N   0  0  0  0  0  0  0  0  0  0  0  0
  146.4370  132.7131  158.5251 C   0  0  0  0  0  0  0  0  0  0  0  0
  145.4182  133.5824  158.2912 N   0  0  0  0  0  0  0  0  0  0  0  0
  144.9257  133.7396  157.0600 C   0  0  0  0  0  0  0  0  0  0  0  0
  145.2924  133.1312  155.9320 N   0  0  0  0  0  0  0  0  0  0  0  0
  146.2998  132.2413  156.1586 C   0  0  0  0  0  0  0  0  0  0  0  0
  146.9210  131.9648  157.4105 C   0  0  0  0  0  0  0  0  0  0  0  0
  147.8837  130.9740  157.2417 N   0  0  0  0  0  0  0  0  0  0  0  0
  147.8526  130.7039  155.9659 C   0  0  0  0  0  0  0  0  0  0  0  0
  146.9360  131.4272  155.2392 N   0  0  0  0  0  0  0  0  0  0  0  0
  146.6862  131.3391  153.8121 C   0  0  0  0  0  0  0  0  0  0  0  0
  145.7971  132.4861  153.2610 C   0  0  1  0  0  0  0  0  0  0  0  0
  146.4730  133.8743  153.4030 C   0  0  0  0  0  0  0  0  0  0  0  0
  147.8462  133.8298  153.0719 O   0  0  0  0  0  0  0  0  0  0  0  0
  145.3977  132.2067  151.7883 C   0  0  2  0  0  0  0  0  0  0  0  0
  144.5379  133.2885  151.1436 C   0  0  0  0  0  0  0  0  0  0  0  0
  143.7311  132.5489  150.0734 C   0  0  0  0  0  0  0  0  0  0  0  0
  143.9665  131.1628  150.2857 O   0  0  0  0  0  0  0  0  0  0  0  0
  144.5005  130.9836  151.5864 C   0  0  0  0  0  0  0  0  0  0  0  0
  147.5369  133.7732  160.4411 C   0  0  2  0  0  0  0  0  0  0  0  0
  147.9815  133.4386  161.8744 C   0  0  0  0  0  0  0  0  0  0  0  0
  146.6425  135.0314  160.3981 C   0  0  0  0  0  0  0  0  0  0  0  0
  147.5965  136.6117  160.5542 S   0  0  0  0  0  0  0  0  0  0  0  0
  148.8945  136.4301  159.2622 C   0  0  0  0  0  0  0  0  0  0  0  0
  146.7160  137.7151  160.1421 O   0  0  0  0  0  0  0  0  0  0  0  0
  148.2576  136.6561  161.8677 O   0  0  0  0  0  0  0  0  0  0  0  0
  145.7372  130.3919  162.1327 H   0  0  0  0  0  0  0  0  0  0  0  0
  144.8229  131.6568  161.3175 H   0  0  0  0  0  0  0  0  0  0  0  0
  146.1307  132.0819  162.4213 H   0  0  0  0  0  0  0  0  0  0  0  0
  147.7927  131.0026  160.8440 H   0  0  0  0  0  0  0  0  0  0  0  0
  146.4886  130.5562  159.7881 H   0  0  0  0  0  0  0  0  0  0  0  0
  144.1243  134.4572  156.9648 H   0  0  0  0  0  0  0  0  0  0  0  0
  148.5059  129.9701  155.5169 H   0  0  0  0  0  0  0  0  0  0  0  0
  147.6447  131.3235  153.2920 H   0  0  0  0  0  0  0  0  0  0  0  0
  146.2230  130.3692  153.6331 H   0  0  0  0  0  0  0  0  0  0  0  0
  144.8727  132.5045  153.8406 H   0  0  0  0  0  0  0  0  0  0  0  0
  145.9699  134.6168  152.7828 H   0  0  0  0  0  0  0  0  0  0  0  0
  146.4209  134.2373  154.4283 H   0  0  0  0  0  0  0  0  0  0  0  0
  148.0617  134.6009  152.5698 H   0  0  0  0  0  0  0  0  0  0  0  0
  146.2976  132.0727  151.1857 H   0  0  0  0  0  0  0  0  0  0  0  0
  143.8564  133.7227  151.8765 H   0  0  0  0  0  0  0  0  0  0  0  0
  145.1319  134.0986  150.7195 H   0  0  0  0  0  0  0  0  0  0  0  0
  142.6669  132.7688  150.1648 H   0  0  0  0  0  0  0  0  0  0  0  0
  144.0487  132.8212  149.0667 H   0  0  0  0  0  0  0  0  0  0  0  0
  145.0434  130.0406  151.6512 H   0  0  0  0  0  0  0  0  0  0  0  0
  143.6875  130.9656  152.3142 H   0  0  0  0  0  0  0  0  0  0  0  0
  148.4397  134.0492  159.9010 H   0  0  0  0  0  0  0  0  0  0  0  0
  148.5183  134.2749  162.3223 H   0  0  0  0  0  0  0  0  0  0  0  0
  148.6503  132.5775  161.8854 H   0  0  0  0  0  0  0  0  0  0  0  0
  147.1323  133.2095  162.5181 H   0  0  0  0  0  0  0  0  0  0  0  0
  146.0183  135.0792  159.5069 H   0  0  0  0  0  0  0  0  0  0  0  0
  145.9623  135.0061  161.2498 H   0  0  0  0  0  0  0  0  0  0  0  0
  149.4756  137.3501  159.2060 H   0  0  0  0  0  0  0  0  0  0  0  0
  148.4274  136.2402  158.2964 H   0  0  0  0  0  0  0  0  0  0  0  0
  149.5604  135.6080  159.5126 H   0  0  0  0  0  0  0  0  0  0  0  0
  1  2  1  0  0  0  0
  1 29  1  0  0  0  0
  1 30  1  0  0  0  0
  1 31  1  0  0  0  0
  2  3  1  0  0  0  0
  2 32  1  0  0  0  0
  2 33  1  0  0  0  0
  3  4  1  0  0  0  0
  3 22  1  0  0  0  0
  4  9  1  0  0  0  0
  4  5  2  0  0  0  0
  5  6  1  0  0  0  0
  6  7  2  0  0  0  0
  6 34  1  0  0  0  0
  7  8  1  0  0  0  0
  8 12  1  0  0  0  0
  8  9  2  0  0  0  0
  9 10  1  0  0  0  0
 10 11  2  0  0  0  0
 11 12  1  0  0  0  0
 11 35  1  0  0  0  0
 12 13  1  0  0  0  0
 13 14  1  0  0  0  0
 13 36  1  0  0  0  0
 13 37  1  0  0  0  0
 14 15  1  0  0  0  0
 14 17  1  0  0  0  0
 14 38  1  0  0  0  0
 15 16  1  0  0  0  0
 15 39  1  0  0  0  0
 15 40  1  0  0  0  0
 16 41  1  0  0  0  0
 17 21  1  0  0  0  0
 17 18  1  0  0  0  0
 17 42  1  0  0  0  0
 18 19  1  0  0  0  0
 18 43  1  0  0  0  0
 18 44  1  0  0  0  0
 19 20  1  0  0  0  0
 19 45  1  0  0  0  0
 19 46  1  0  0  0  0
 20 21  1  0  0  0  0
 21 47  1  0  0  0  0
 21 48  1  0  0  0  0
 22 23  1  0  0  0  0
 22 24  1  0  0  0  0
 22 49  1  0  0  0  0
 23 50  1  0  0  0  0
 23 51  1  0  0  0  0
 23 52  1  0  0  0  0
 24 25  1  0  0  0  0
 24 53  1  0  0  0  0
 24 54  1  0  0  0  0
 25 26  1  0  0  0  0
 25 27  2  0  0  0  0
 25 28  2  0  0  0  0
 26 55  1  0  0  0  0
 26 56  1  0  0  0  0
 26 57  1  0  0  0  0
M  END
> <s_m_source_file>
AV-unprocessed.smi

> <i_m_source_file_index>
17

> <i_lp_mmshare_version>
43012

> <i_f3d_flags>
0

> <s_epik_input>
W0NIM11TKD1PKSg9TylbQ0gyXVtDQEBIXShbQ0gzXSlOKFtDSDJdW0NIM10pYyhuW2NIXW4xKWMoYzEyKW5bY0hdbjJbQ0gyXVtDQEhdKFtDSDJdW09IXSlbQ0BASF0zW0NIMl1bQ0gyXU9bQ0gyXTM=

> <s_epik_cmdline>
J2VwaWtfcHl0aG9uJywgJy1waCcsICc3LjAnLCAnLXRuJywgJzgnLCAnLW1hJywgJzIwMCcsICctbWV0YWxfYmluZGluZycsICctaW1hZScsICc8aW5maWxlLm1hZT4nLCAnLW9tYWUnLCAnPG91dGZpbGUubWFlPic=

> <r_lp_tautomer_probability>
1

> <r_epik_Ionization_Penalty>
0.00119955

> <r_epik_Ionization_Penalty_Charging>
0

> <r_epik_Ionization_Penalty_Neutral>
0.00119955

> <r_epik_State_Penalty>
0.000665399

> <r_epik_Charging_Adjusted_Penalty>
0.000665399

> <i_epik_Tot_Q>
0

> <i_epik_Tot_abs_Q>
0

> <r_epik_Metal_State_Penalty>
-0

> <b_epik_Metal_Only>
0

> <s_lp_Force_Field>
OPLS_2005

> <r_lp_Energy>
33.0306

> <b_lp_Chiralities_Consistent>
1

> <s_lp_Variant>
AV-unprocessed.smi:17-2

> <Gold.Version>
5.8.1

> <Gold.Id.Protein>
6NUR|6NUR_protein|mol2

> <Gold.PLP.Fitness>
38.2322

> <Gold.PLP.PLP>
-30.9976

> <Gold.PLP.part.hbond>
-3.9113

> <Gold.PLP.part.metal>
0.0000

> <Gold.PLP.part.buried>
-5.6768

> <Gold.PLP.part.nonpolar>
-21.8023

> <Gold.PLP.part.repulsive>
0.2703

> <Gold.PLP.ligand.clash>
0.0000

> <Gold.PLP.ligand.torsion>
2.0284

> <Gold.PLP.Chemscore.Hbond>
3.4118

> <Gold.PLP.Chemscore.CHOScore>
0.0000

> <Gold.PLP.Chemscore.Metal>
0.0000

> <Gold.Chemscore.Hbonds>
donor molecule, donor type, donor heavy atom, donor atom, acceptor molecule, acceptor atom, score
      L1  H    16    41       P1  7948  1.00
      P1  H  6931  6943       L1    28  1.00
      P1  H  6934  6947       L1    27  1.00
      P1  H 10785 10796       L1    20  0.61

> <Gold.PLP.Chemscore.Internal.Correction>
1.0560

> <Gold.Rescore>
     Score         DG    S(hbond)    S(metal)    S(lipo)     H(rot)  DE(clash)    DE(int)     intcor
      6.48     -12.62       2.33        0.00      71.05       3.51       0.10       6.04       ----

> <Gold.Chemscore.Fitness>
6.4765

> <Gold.Chemscore.DG>
-12.6153

> <Gold.Chemscore.ZeroCoef>
-5.4800

> <Gold.Chemscore.Hbond>
2.3346

> <Gold.Chemscore.Metal>
0.0000

> <Gold.Chemscore.Lipo>
71.0487

> <Gold.Chemscore.Internal_Hbond>
0.0000

> <Gold.Chemscore.DEClash>
0.0959

> <Gold.Chemscore.DEInternal>
6.0429

> <Gold.Chemscore.Rot>
3.5059

> <Gold.Chemscore.Internal.Correction>
   9.000000E+99

> <Gold.Chemscore.Hbonds>
donor molecule, donor type, donor heavy atom, donor atom, acceptor molecule, acceptor atom, score
      L1  H    16    41       P1  7948  0.50
      P1  H  6931  6943       L1    28  0.50
      P1  H  6934  6947       L1    27  0.68
      P1  H 10785 10796       L1    20  0.43

> <Gold.Chemscore.Hbond.Weighted>
-7.7976

> <Gold.Chemscore.Metal.Weighted>
-0.0000

> <Gold.Chemscore.Lipo.Weighted>
-8.3127

> <Gold.Chemscore.Internal_Hbond.Weighted>
0.0000

> <Gold.Chemscore.DEClash.Weighted>
0.0959

> <Gold.Chemscore.DEInternal.Weighted>
6.0429

> <Gold.Chemscore.Rot.Weighted>
8.9750

> <Gold.Chemscore.Internal.Correction.Weighted>
   9.000000E+99

> <Gold.Protein.RotatedTorsions>
[ 6907 6896 6895 6894 ] final  -35.60 input  -60.11 | X-H torsion
[ 7974 7965 7964 7962 ] final   82.37 input  175.53 | X-H torsion
[ 8008 7997 7996 7995 ] final  114.22 input   59.86 | X-H torsion
[ 10167 10162 10161 10158 ] final   25.58 input  -65.29 | X-H torsion
[ 10718 10713 10712 10709 ] final  177.76 input   66.30 | X-H torsion
[ 10763 10752 10751 10750 ] final -161.36 input  -60.55 | X-H torsion
[ 11005 11000 10999 10996 ] final   28.70 input  -57.11 | X-H torsion

> <Gold.Protein.ActiveResidues>
 VAL166  LYS551  ARG553  GLY616  TRP617  ASP618  TYR619  PRO620  LYS621  CYS622 
 ASP623  PHE694  ASN695  SER759  ASP760  ASP761  ALA762  ILE779  LEU786  VAL792 
 PHE793  MET794  SER795  GLU796  ALA797  LYS798  CYS799  TRP800  GLU811  SER814 

> <Gold.Protein.RotatedAtoms>
  151.0377  134.9585  159.8144 H   0  0  0  0  0  0  0  0  0  0  0  0  # atno 6907 bound_to 6896
  152.5358  134.2698  159.8977 H   0  0  0  0  0  0  0  0  0  0  0  0  # atno 6908 bound_to 6896
  151.2710  133.4213  159.2655 H   0  0  0  0  0  0  0  0  0  0  0  0  # atno 6909 bound_to 6896
  145.6259  139.2395  143.2112 H   0  0  0  0  0  0  0  0  0  0  0  0  # atno 7974 bound_to 7965
  156.2307  140.2963  156.0182 H   0  0  0  0  0  0  0  0  0  0  0  0  # atno 8008 bound_to 7997
  155.2231  140.0416  157.2968 H   0  0  0  0  0  0  0  0  0  0  0  0  # atno 8009 bound_to 7997
  154.5992  140.2422  155.7823 H   0  0  0  0  0  0  0  0  0  0  0  0  # atno 8010 bound_to 7997
  140.5094  144.0184  150.6366 H   0  0  0  0  0  0  0  0  0  0  0  0  # atno 10167 bound_to 10162
  156.9005  130.9877  151.3036 H   0  0  0  0  0  0  0  0  0  0  0  0  # atno 10718 bound_to 10713
  154.7310  135.3046  154.8891 H   0  0  0  0  0  0  0  0  0  0  0  0  # atno 10763 bound_to 10752
  153.9734  135.6739  153.4752 H   0  0  0  0  0  0  0  0  0  0  0  0  # atno 10764 bound_to 10752
  153.0918  135.4955  154.8625 H   0  0  0  0  0  0  0  0  0  0  0  0  # atno 10765 bound_to 10752
  140.3128  134.2631  155.7731 H   0  0  0  0  0  0  0  0  0  0  0  0  # atno 11005 bound_to 11000
  146.1394  140.7078  142.9374 LP  0  0  0  0  0  0  0  0  0  0  0  0  # atno 17320 bound_to 7965
  144.7212  140.4380  143.7006 LP  0  0  0  0  0  0  0  0  0  0  0  0  # atno 17321 bound_to 7965
  140.3503  143.2967  152.0494 LP  0  0  0  0  0  0  0  0  0  0  0  0  # atno 17342 bound_to 10162
  139.4892  144.6379  151.6938 LP  0  0  0  0  0  0  0  0  0  0  0  0  # atno 17343 bound_to 10162
  157.6029  130.8525  149.8829 LP  0  0  0  0  0  0  0  0  0  0  0  0  # atno 17370 bound_to 10713
  156.0584  130.3704  150.1038 LP  0  0  0  0  0  0  0  0  0  0  0  0  # atno 17371 bound_to 10713
  141.2104  133.7719  156.9932 LP  0  0  0  0  0  0  0  0  0  0  0  0  # atno 17394 bound_to 11000
  140.1010  134.9535  157.1923 LP  0  0  0  0  0  0  0  0  0  0  0  0  # atno 17395 bound_to 11000

$$$$
