AV-unprocessed.smi:3124|AV-procd|sdf|11902|dock7
  -GOLD-   2272017283D 1   1.00000     0.00000
 Structure written by MMmdl.
 24 24  0  0  0  0  0  0  0  0  2 V2000
  153.3376  142.7582  163.1044 C   0  0  0  0  0  0  0  0  0  0  0  0
  152.8043  143.3385  161.8387 C   0  0  0  0  0  0  0  0  0  0  0  0
  152.9057  142.9252  160.5401 C   0  0  0  0  0  0  0  0  0  0  0  0
  152.1793  143.9045  159.8004 C   0  0  0  0  0  0  0  0  0  0  0  0
  151.9501  143.9610  158.3139 C   0  0  0  0  0  0  0  0  0  0  0  0
  151.0468  142.8217  157.8028 C   0  0  2  0  0  0  0  0  0  0  0  0
  151.6910  141.4456  158.0196 C   0  0  0  0  0  0  0  0  0  0  0  0
  150.7135  143.0077  156.3783 N   0  3  0  0  0  0  0  0  0  0  0  0
  151.6702  144.8493  160.5775 N   0  0  0  0  0  0  0  0  0  0  0  0
  152.0582  144.4941  161.8166 N   0  0  0  0  0  0  0  0  0  0  0  0
  151.8061  145.0402  162.6287 H   0  0  0  0  0  0  0  0  0  0  0  0
  153.7695  141.7724  162.9298 H   0  0  0  0  0  0  0  0  0  0  0  0
  152.5464  142.6513  163.8469 H   0  0  0  0  0  0  0  0  0  0  0  0
  154.1142  143.3964  163.5260 H   0  0  0  0  0  0  0  0  0  0  0  0
  153.4202  142.0497  160.1724 H   0  0  0  0  0  0  0  0  0  0  0  0
  152.9110  143.9197  157.7988 H   0  0  0  0  0  0  0  0  0  0  0  0
  151.5129  144.9238  158.0458 H   0  0  0  0  0  0  0  0  0  0  0  0
  150.1084  142.8438  158.3581 H   0  0  0  0  0  0  0  0  0  0  0  0
  151.9031  141.2736  159.0754 H   0  0  0  0  0  0  0  0  0  0  0  0
  152.6311  141.3552  157.4740 H   0  0  0  0  0  0  0  0  0  0  0  0
  151.0316  140.6444  157.6839 H   0  0  0  0  0  0  0  0  0  0  0  0
  150.1655  143.8483  156.2655 H   0  0  0  0  0  0  0  0  0  0  0  0
  150.1813  142.2130  156.0526 H   0  0  0  0  0  0  0  0  0  0  0  0
  151.5645  143.0854  155.8399 H   0  0  0  0  0  0  0  0  0  0  0  0
  1 12  1  0  0  0  0
  1 13  1  0  0  0  0
  1 14  1  0  0  0  0
  1  2  1  0  0  0  0
  2 10  1  0  0  0  0
  2  3  2  0  0  0  0
  3  4  1  0  0  0  0
  3 15  1  0  0  0  0
  4  5  1  0  0  0  0
  4  9  2  0  0  0  0
  5  6  1  0  0  0  0
  5 16  1  0  0  0  0
  5 17  1  0  0  0  0
  6  7  1  0  0  0  0
  6  8  1  0  0  0  0
  6 18  1  0  0  0  0
  7 19  1  0  0  0  0
  7 20  1  0  0  0  0
  7 21  1  0  0  0  0
  8 22  1  0  0  0  0
  8 23  1  0  0  0  0
  8 24  1  0  0  0  0
  9 10  1  0  0  0  0
 10 11  1  0  0  0  0
M  CHG  1   8   1
M  END
> <s_m_source_file>
AV-unprocessed.smi

> <i_m_source_file_index>
3124

> <i_lp_mmshare_version>
43012

> <i_f3d_flags>
0

> <s_epik_input>
W0NIM11jMVtjSF1jKFtuSF1uMSlbQ0gyXVtDQEhdKFtDSDNdKVtOSDJd

> <s_epik_cmdline>
J2VwaWtfcHl0aG9uJywgJy1waCcsICc3LjAnLCAnLXRuJywgJzgnLCAnLW1hJywgJzIwMCcsICctbWV0YWxfYmluZGluZycsICctaW1hZScsICc8aW5maWxlLm1hZT4nLCAnLW9tYWUnLCAnPG91dGZpbGUubWFlPic=

> <r_lp_tautomer_probability>
0.5

> <r_epik_Ionization_Penalty>
0.00151643

> <r_epik_Ionization_Penalty_Charging>
0.00146569

> <r_epik_Ionization_Penalty_Neutral>
5.07401e-05

> <r_epik_State_Penalty>
0.379573

> <r_epik_Charging_Adjusted_Penalty>
0.381038

> <i_epik_Tot_Q>
1

> <i_epik_Tot_abs_Q>
1

> <r_epik_Metal_State_Penalty>
0.378341

> <b_epik_Metal_Only>
0

> <s_lp_Force_Field>
OPLS_2005

> <r_lp_Energy>
2.04404

> <b_lp_Chiralities_Consistent>
1

> <s_lp_Variant>
AV-unprocessed.smi:3124-1

> <Gold.Version>
5.8.1

> <Gold.Id.Protein>
6NUR|6NUR_protein|mol2

> <Gold.PLP.Fitness>
35.6945

> <Gold.PLP.PLP>
-29.8380

> <Gold.PLP.part.hbond>
-2.1699

> <Gold.PLP.part.metal>
0.0000

> <Gold.PLP.part.buried>
-5.4137

> <Gold.PLP.part.nonpolar>
-22.4178

> <Gold.PLP.part.repulsive>
0.3125

> <Gold.PLP.ligand.clash>
0.0000

> <Gold.PLP.ligand.torsion>
0.0733

> <Gold.PLP.Chemscore.Hbond>
2.0000

> <Gold.PLP.Chemscore.CHOScore>
0.0000

> <Gold.PLP.Chemscore.Metal>
0.0000

> <Gold.Chemscore.Hbonds>
donor molecule, donor type, donor heavy atom, donor atom, acceptor molecule, acceptor atom, score
      L1  H     8    22       P1  8028  2.00

> <Gold.PLP.Chemscore.Internal.Correction>
0.0030

> <Gold.Rescore>
     Score         DG    S(hbond)    S(metal)    S(lipo)     H(rot)  DE(clash)    DE(int)     intcor
     14.16     -14.26       1.00        0.00      74.89       1.30       0.02       0.08       ----

> <Gold.Chemscore.Fitness>
14.1569

> <Gold.Chemscore.DG>
-14.2575

> <Gold.Chemscore.ZeroCoef>
-5.4800

> <Gold.Chemscore.Hbond>
1.0000

> <Gold.Chemscore.Metal>
0.0000

> <Gold.Chemscore.Lipo>
74.8905

> <Gold.Chemscore.Internal_Hbond>
0.0000

> <Gold.Chemscore.DEClash>
0.0234

> <Gold.Chemscore.DEInternal>
0.0772

> <Gold.Chemscore.Rot>
1.2987

> <Gold.Chemscore.Internal.Correction>
   9.000000E+99

> <Gold.Chemscore.Hbonds>
donor molecule, donor type, donor heavy atom, donor atom, acceptor molecule, acceptor atom, score
      L1  H     8    22       P1  8028  0.98

> <Gold.Chemscore.Hbond.Weighted>
-3.3399

> <Gold.Chemscore.Metal.Weighted>
-0.0000

> <Gold.Chemscore.Lipo.Weighted>
-8.7622

> <Gold.Chemscore.Internal_Hbond.Weighted>
0.0000

> <Gold.Chemscore.DEClash.Weighted>
0.0234

> <Gold.Chemscore.DEInternal.Weighted>
0.0772

> <Gold.Chemscore.Rot.Weighted>
3.3246

> <Gold.Chemscore.Internal.Correction.Weighted>
   9.000000E+99

> <Gold.Protein.RotatedTorsions>
[ 6907 6896 6895 6894 ] final -130.77 input  -60.11 | X-H torsion
[ 7974 7965 7964 7962 ] final   26.18 input  175.53 | X-H torsion
[ 8008 7997 7996 7995 ] final   76.49 input   59.86 | X-H torsion
[ 10167 10162 10161 10158 ] final  166.67 input  -65.29 | X-H torsion
[ 10718 10713 10712 10709 ] final  -24.34 input   66.30 | X-H torsion
[ 10763 10752 10751 10750 ] final   83.24 input  -60.55 | X-H torsion
[ 11005 11000 10999 10996 ] final  -56.39 input  -57.11 | X-H torsion

> <Gold.Protein.ActiveResidues>
 VAL166  LYS551  ARG553  GLY616  TRP617  ASP618  TYR619  PRO620  LYS621  CYS622 
 ASP623  PHE694  ASN695  SER759  ASP760  ASP761  ALA762  ILE779  LEU786  VAL792 
 PHE793  MET794  SER795  GLU796  ALA797  LYS798  CYS799  TRP800  GLU811  SER814 

> <Gold.Protein.RotatedAtoms>
  150.9435  133.6629  159.2785 H   0  0  0  0  0  0  0  0  0  0  0  0  # atno 6907 bound_to 6896
  151.4010  135.0970  159.9565 H   0  0  0  0  0  0  0  0  0  0  0  0  # atno 6908 bound_to 6896
  152.5079  133.8929  159.7457 H   0  0  0  0  0  0  0  0  0  0  0  0  # atno 6909 bound_to 6896
  146.1851  139.7364  142.8872 H   0  0  0  0  0  0  0  0  0  0  0  0  # atno 7974 bound_to 7965
  155.8281  140.3467  155.5555 H   0  0  0  0  0  0  0  0  0  0  0  0  # atno 8008 bound_to 7997
  155.8272  140.0921  157.1834 H   0  0  0  0  0  0  0  0  0  0  0  0  # atno 8009 bound_to 7997
  154.4004  140.1419  156.3557 H   0  0  0  0  0  0  0  0  0  0  0  0  # atno 8010 bound_to 7997
  139.4929  144.4003  151.9417 H   0  0  0  0  0  0  0  0  0  0  0  0  # atno 10167 bound_to 10162
  156.4789  130.4541  149.6823 H   0  0  0  0  0  0  0  0  0  0  0  0  # atno 10718 bound_to 10713
  153.1273  135.4699  154.9293 H   0  0  0  0  0  0  0  0  0  0  0  0  # atno 10763 bound_to 10752
  154.7632  135.3137  154.8340 H   0  0  0  0  0  0  0  0  0  0  0  0  # atno 10764 bound_to 10752
  153.8891  135.6886  153.4815 H   0  0  0  0  0  0  0  0  0  0  0  0  # atno 10765 bound_to 10752
  141.1118  133.6610  156.4612 H   0  0  0  0  0  0  0  0  0  0  0  0  # atno 11005 bound_to 11000
  145.3963  141.0379  143.3096 LP  0  0  0  0  0  0  0  0  0  0  0  0  # atno 17320 bound_to 7965
  144.8382  139.5514  143.6912 LP  0  0  0  0  0  0  0  0  0  0  0  0  # atno 17321 bound_to 7965
  140.3442  144.3167  150.5961 LP  0  0  0  0  0  0  0  0  0  0  0  0  # atno 17342 bound_to 10162
  140.5540  143.2202  151.7879 LP  0  0  0  0  0  0  0  0  0  0  0  0  # atno 17343 bound_to 10162
  156.3541  130.7447  151.2411 LP  0  0  0  0  0  0  0  0  0  0  0  0  # atno 17370 bound_to 10713
  157.7485  131.0368  150.4429 LP  0  0  0  0  0  0  0  0  0  0  0  0  # atno 17371 bound_to 10713
  140.4755  134.6713  157.5148 LP  0  0  0  0  0  0  0  0  0  0  0  0  # atno 17394 bound_to 11000
  140.0016  134.6828  155.9522 LP  0  0  0  0  0  0  0  0  0  0  0  0  # atno 17395 bound_to 11000

$$$$
