#       Name:                AV-unprocessed.smi:2498
#       Creating user name   scv26
#       Creation time:       Fri Mar 27 13:46:09 2020


#       File generated by GOLD software.
#

@<TRIPOS>MOLECULE
AV-unprocessed.smi:2498
    43    43     1
SMALL
NO_CHARGES


@<TRIPOS>ATOM
      1 ****        -1.5624   0.8007   2.2054 C.3            1 S1                 0.0000
      2 ****        -1.6575   1.1266   0.7417 C.2            1 S1                 0.0000
      3 ****        -1.8179   2.3884   0.3812 N.2            1 S1                 0.0000
      4 ****        -1.8210   2.3671  -0.9677 N.pl3          1 S1                 0.0000
      5 ****        -2.0028   3.6054  -1.7054 C.3            1 S1                 0.0000
      6 ****        -3.3022   3.8272  -1.9022 F              1 S1                 0.0000
      7 ****        -1.4623   4.6321  -1.0467 F              1 S1                 0.0000
      8 ****        -1.7038   1.0809  -1.4582 C.2            1 S1                 0.0000
      9 ****        -1.7024   0.7860  -2.9232 C.3            1 S1                 0.0000
     10 ****        -1.5892   0.2455  -0.3790 C.2            1 S1                 0.0000
     11 ****        -1.4143  -1.2538  -0.3694 C.3            1 S1                 0.0000
     12 ****         0.0734  -1.5967  -0.4447 C.2            1 S1                 0.0000
     13 ****         0.5291  -2.0854  -1.4776 O.2            1 S1                 0.0000
     14 ****         0.7847  -1.3241   0.6651 N.am           1 S1                 0.0000
     15 ****         2.2254  -1.3829   0.9490 C.3            1 S1                 0.0000
     16 ****         2.4488  -2.4630   2.0300 C.3            1 S1                 0.0000
     17 ****         3.1177  -1.7071  -0.2785 C.3            1 S1                 0.0000
     18 ****         2.5954   0.0138   1.5010 C.2            1 S1                 0.0000
     19 ****         3.0203   0.8717   0.6948 O.co2          1 S1                 0.0000
     20 ****         2.4047   0.2272   2.7197 O.co2          1 S1                -1.0000
     21 ****        -1.5435  -0.2745   2.3799 H              1 S1                 0.0000
     22 ****        -2.4102   1.2089   2.7560 H              1 S1                 0.0000
     23 ****        -0.6521   1.2176   2.6374 H              1 S1                 0.0000
     24 ****        -1.5139   3.5442  -2.6777 H              1 S1                 0.0000
     25 ****        -1.7285  -0.2866  -3.1129 H              1 S1                 0.0000
     26 ****        -0.8042   1.1845  -3.3949 H              1 S1                 0.0000
     27 ****        -2.5693   1.2322  -3.4108 H              1 S1                 0.0000
     28 ****        -1.8377  -1.7041   0.5286 H              1 S1                 0.0000
     29 ****        -1.9336  -1.7212  -1.2064 H              1 S1                 0.0000
     30 ****         0.2466  -0.9326   1.4244 H              1 S1                 0.0000
     31 ****         3.4861  -2.4809   2.3670 H              1 S1                 0.0000
     32 ****         2.2153  -3.4552   1.6429 H              1 S1                 0.0000
     33 ****         1.8178  -2.3064   2.9063 H              1 S1                 0.0000
     34 ****         4.1761  -1.6459  -0.0216 H              1 S1                 0.0000
     35 ****         2.9468  -1.0216  -1.1099 H              1 S1                 0.0000
     36 ****         2.9420  -2.7195  -0.6430 H              1 S1                 0.0000
     37 ****        -1.9156   3.1848   0.9781 LP             1 S1                 0.0000
     38 ****        -0.0724  -2.2549  -2.2583 LP             1 S1                 0.0000
     39 ****         1.5010  -2.3131  -1.5366 LP             1 S1                 0.0000
     40 ****         3.2302   1.7962   1.0130 LP             1 S1                 0.0000
     41 ****         3.1498   0.6327  -0.2676 LP             1 S1                 0.0000
     42 ****         2.5943   1.1304   3.1048 LP             1 S1                 0.0000
     43 ****         2.0627  -0.5055   3.3081 LP             1 S1                 0.0000
@<TRIPOS>BOND
    1    1    2 1     
    2    1   21 1     
    3    1   22 1     
    4    1   23 1     
    5    2   10 1     
    6    2    3 2     
    7    3    4 1     
    8    4    5 1     
    9    4    8 1     
   10    5    6 1     
   11    5    7 1     
   12    5   24 1     
   13    8    9 1     
   14    8   10 2     
   15    9   25 1     
   16    9   26 1     
   17    9   27 1     
   18   10   11 1     
   19   11   12 1     
   20   11   28 1     
   21   11   29 1     
   22   12   13 2     
   23   12   14 am    
   24   14   15 1     
   25   14   30 1     
   26   15   16 1     
   27   15   17 1     
   28   15   18 1     
   29   16   31 1     
   30   16   32 1     
   31   16   33 1     
   32   17   34 1     
   33   17   35 1     
   34   17   36 1     
   35   18   19 ar    
   36   18   20 ar    
   37    3   37 1     
   38   13   38 1     
   39   13   39 1     
   40   19   40 1     
   41   19   41 1     
   42   20   42 1     
   43   20   43 1     
@<TRIPOS>SUBSTRUCTURE
      1 S1             1
@<TRIPOS>SET
LONE_PAIRS      STATIC     ATOMS    <user>   **** ""
7 37 38 39 40 41 42 43
DONOR_HYDROGENS      STATIC     ATOMS    <user>   **** ""
1 30
ATOM$BLUE        STATIC     ATOMS    COLORGROUP SYSTEM
7 37 38 39 40 41 42 43
ATOM$RED        STATIC     ATOMS    COLORGROUP SYSTEM
1 30
