AV-unprocessed.smi:2739|AV-procd|sdf|10552|dock1
  -GOLD-   2272015 03D 1   1.00000     0.00000
 Structure written by MMmdl.
 35 35  0  0  0  0  0  0  0  0  1 V2000
  152.9961  142.1951  161.4450 C   0  0  0  0  0  0  0  0  0  0  0  0
  152.6912  143.4242  160.5765 C   0  0  0  0  0  0  0  0  0  0  0  0
  152.7115  143.1411  159.0613 C   0  0  2  0  0  0  0  0  0  0  0  0
  152.4545  144.4151  158.2447 C   0  0  0  0  0  0  0  0  0  0  0  0
  151.7086  142.1383  158.7073 N   0  0  0  0  0  0  0  0  0  0  0  0
  151.9531  140.8660  158.3540 C   0  0  0  0  0  0  0  0  0  0  0  0
  153.0803  140.3750  158.3012 O   0  0  0  0  0  0  0  0  0  0  0  0
  150.7328  140.0121  158.0091 C   0  0  0  0  0  0  0  0  0  0  0  0
  150.1462  140.4264  156.7476 N   0  0  0  0  0  0  0  0  0  0  0  0
  150.4752  141.5128  155.9656 C   0  0  0  0  0  0  0  0  0  0  0  0
  149.6495  141.4950  154.8786 C   0  0  0  0  0  0  0  0  0  0  0  0
  148.8330  140.3458  155.0823 C   0  0  0  0  0  0  0  0  0  0  0  0
  147.7371  139.8254  154.1882 C   0  0  1  0  0  0  0  0  0  0  0  0
  146.7729  140.9428  153.7668 C   0  0  0  0  0  0  0  0  0  0  0  0
  148.2425  139.2047  153.0233 O   0  0  0  0  0  0  0  0  0  0  0  0
  149.1386  139.7091  156.2055 N   0  0  0  0  0  0  0  0  0  0  0  0
  153.0302  142.4665  162.5002 H   0  0  0  0  0  0  0  0  0  0  0  0
  153.9599  141.7579  161.1829 H   0  0  0  0  0  0  0  0  0  0  0  0
  152.2352  141.4232  161.3300 H   0  0  0  0  0  0  0  0  0  0  0  0
  151.7229  143.8367  160.8631 H   0  0  0  0  0  0  0  0  0  0  0  0
  153.4269  144.1966  160.8036 H   0  0  0  0  0  0  0  0  0  0  0  0
  153.7081  142.7838  158.7964 H   0  0  0  0  0  0  0  0  0  0  0  0
  153.2036  145.1772  158.4604 H   0  0  0  0  0  0  0  0  0  0  0  0
  151.4747  144.8395  158.4666 H   0  0  0  0  0  0  0  0  0  0  0  0
  152.4941  144.2096  157.1744 H   0  0  0  0  0  0  0  0  0  0  0  0
  150.7452  142.4415  158.7182 H   0  0  0  0  0  0  0  0  0  0  0  0
  151.0212  138.9629  157.9331 H   0  0  0  0  0  0  0  0  0  0  0  0
  149.9871  140.0836  158.8028 H   0  0  0  0  0  0  0  0  0  0  0  0
  151.2597  142.2004  156.2463 H   0  0  0  0  0  0  0  0  0  0  0  0
  149.6308  142.1982  154.0593 H   0  0  0  0  0  0  0  0  0  0  0  0
  147.1680  139.0672  154.7273 H   0  0  0  0  0  0  0  0  0  0  0  0
  146.3210  141.4175  154.6383 H   0  0  0  0  0  0  0  0  0  0  0  0
  145.9642  140.5529  153.1479 H   0  0  0  0  0  0  0  0  0  0  0  0
  147.2861  141.7170  153.1952 H   0  0  0  0  0  0  0  0  0  0  0  0
  148.7213  139.8498  152.5259 H   0  0  0  0  0  0  0  0  0  0  0  0
  1  2  1  0  0  0  0
  1 17  1  0  0  0  0
  1 18  1  0  0  0  0
  1 19  1  0  0  0  0
  2  3  1  0  0  0  0
  2 20  1  0  0  0  0
  2 21  1  0  0  0  0
  3  4  1  0  0  0  0
  3  5  1  0  0  0  0
  3 22  1  0  0  0  0
  4 23  1  0  0  0  0
  4 24  1  0  0  0  0
  4 25  1  0  0  0  0
  5  6  1  0  0  0  0
  5 26  1  0  0  0  0
  6  7  2  0  0  0  0
  6  8  1  0  0  0  0
  8  9  1  0  0  0  0
  8 27  1  0  0  0  0
  8 28  1  0  0  0  0
  9 16  1  0  0  0  0
  9 10  1  0  0  0  0
 10 11  2  0  0  0  0
 10 29  1  0  0  0  0
 11 12  1  0  0  0  0
 11 30  1  0  0  0  0
 12 13  1  0  0  0  0
 12 16  2  0  0  0  0
 13 14  1  0  0  0  0
 13 15  1  0  0  0  0
 13 31  1  0  0  0  0
 14 32  1  0  0  0  0
 14 33  1  0  0  0  0
 14 34  1  0  0  0  0
 15 35  1  0  0  0  0
M  END
> <s_m_source_file>
AV-unprocessed.smi

> <i_m_source_file_index>
2739

> <i_lp_mmshare_version>
43012

> <i_f3d_flags>
0

> <s_epik_input>
W0NIM11bQ0gyXVtDQEhdKFtDSDNdKVtOSF1DKD1PKVtDSDJdbjFbY0hdW2NIXWMobjEpW0NASF0oW0NIM10pW09IXQ==

> <s_epik_cmdline>
J2VwaWtfcHl0aG9uJywgJy1waCcsICc3LjAnLCAnLXRuJywgJzgnLCAnLW1hJywgJzIwMCcsICctbWV0YWxfYmluZGluZycsICctaW1hZScsICc8aW5maWxlLm1hZT4nLCAnLW9tYWUnLCAnPG91dGZpbGUubWFlPic=

> <r_lp_tautomer_probability>
1

> <r_epik_Ionization_Penalty>
5.22246e-06

> <r_epik_Ionization_Penalty_Charging>
0

> <r_epik_Ionization_Penalty_Neutral>
5.22246e-06

> <r_epik_State_Penalty>
-0

> <r_epik_Charging_Adjusted_Penalty>
0

> <i_epik_Tot_Q>
0

> <i_epik_Tot_abs_Q>
0

> <r_epik_Metal_State_Penalty>
-0

> <b_epik_Metal_Only>
0

> <s_lp_Force_Field>
OPLS_2005

> <r_lp_Energy>
1.64389

> <b_lp_Chiralities_Consistent>
1

> <s_lp_Variant>
AV-unprocessed.smi:2739-3

> <Gold.Version>
5.8.1

> <Gold.Id.Protein>
6NUR|6NUR_protein|mol2

> <Gold.PLP.Fitness>
38.7293

> <Gold.PLP.PLP>
-34.1531

> <Gold.PLP.part.hbond>
-2.5751

> <Gold.PLP.part.metal>
0.0000

> <Gold.PLP.part.buried>
-2.3277

> <Gold.PLP.part.nonpolar>
-28.5955

> <Gold.PLP.part.repulsive>
0.0741

> <Gold.PLP.ligand.clash>
0.0000

> <Gold.PLP.ligand.torsion>
0.5724

> <Gold.PLP.Chemscore.Hbond>
1.8960

> <Gold.PLP.Chemscore.CHOScore>
0.0000

> <Gold.PLP.Chemscore.Metal>
0.0000

> <Gold.Chemscore.Hbonds>
donor molecule, donor type, donor heavy atom, donor atom, acceptor molecule, acceptor atom, score
      L1  H    15    35       P1  7957  0.83
      P1  H  7997  8009       L1     7  0.86

> <Gold.PLP.Chemscore.Internal.Correction>
0.0331

> <Gold.Rescore>
     Score         DG    S(hbond)    S(metal)    S(lipo)     H(rot)  DE(clash)    DE(int)     intcor
     14.73     -15.94       1.87        0.00      87.42       2.34       0.84       0.36       ----

> <Gold.Chemscore.Fitness>
14.7350

> <Gold.Chemscore.DG>
-15.9393

> <Gold.Chemscore.ZeroCoef>
-5.4800

> <Gold.Chemscore.Hbond>
1.8665

> <Gold.Chemscore.Metal>
0.0000

> <Gold.Chemscore.Lipo>
87.4171

> <Gold.Chemscore.Internal_Hbond>
0.0000

> <Gold.Chemscore.DEClash>
0.8405

> <Gold.Chemscore.DEInternal>
0.3638

> <Gold.Chemscore.Rot>
2.3448

> <Gold.Chemscore.Internal.Correction>
   9.000000E+99

> <Gold.Chemscore.Hbonds>
donor molecule, donor type, donor heavy atom, donor atom, acceptor molecule, acceptor atom, score
      L1  H    15    35       P1  7957  0.83
      P1  H  7997  8009       L1     7  0.82

> <Gold.Chemscore.Hbond.Weighted>
-6.2343

> <Gold.Chemscore.Metal.Weighted>
-0.0000

> <Gold.Chemscore.Lipo.Weighted>
-10.2278

> <Gold.Chemscore.Internal_Hbond.Weighted>
0.0000

> <Gold.Chemscore.DEClash.Weighted>
0.8405

> <Gold.Chemscore.DEInternal.Weighted>
0.3638

> <Gold.Chemscore.Rot.Weighted>
6.0027

> <Gold.Chemscore.Internal.Correction.Weighted>
   9.000000E+99

> <Gold.Protein.RotatedTorsions>
[ 6907 6896 6895 6894 ] final   90.11 input  -60.11 | X-H torsion
[ 7974 7965 7964 7962 ] final  125.11 input  175.53 | X-H torsion
[ 8008 7997 7996 7995 ] final  153.62 input   59.86 | X-H torsion
[ 10167 10162 10161 10158 ] final    7.24 input  -65.29 | X-H torsion
[ 10718 10713 10712 10709 ] final  -12.06 input   66.30 | X-H torsion
[ 10763 10752 10751 10750 ] final  160.02 input  -60.55 | X-H torsion
[ 11005 11000 10999 10996 ] final -146.04 input  -57.11 | X-H torsion

> <Gold.Protein.ActiveResidues>
 VAL166  LYS551  ARG553  GLY616  TRP617  ASP618  TYR619  PRO620  LYS621  CYS622 
 ASP623  PHE694  ASN695  SER759  ASP760  ASP761  ALA762  ILE779  LEU786  VAL792 
 PHE793  MET794  SER795  GLU796  ALA797  LYS798  CYS799  TRP800  GLU811  SER814 

> <Gold.Protein.RotatedAtoms>
  152.5442  134.1862  159.8655 H   0  0  0  0  0  0  0  0  0  0  0  0  # atno 6907 bound_to 6896
  151.1861  133.4688  159.2602 H   0  0  0  0  0  0  0  0  0  0  0  0  # atno 6908 bound_to 6896
  151.1129  135.0049  159.8558 H   0  0  0  0  0  0  0  0  0  0  0  0  # atno 6909 bound_to 6896
  145.0767  139.3688  143.4930 H   0  0  0  0  0  0  0  0  0  0  0  0  # atno 7974 bound_to 7965
  156.2572  140.1988  156.6519 H   0  0  0  0  0  0  0  0  0  0  0  0  # atno 8008 bound_to 7997
  154.6530  140.0569  157.0002 H   0  0  0  0  0  0  0  0  0  0  0  0  # atno 8009 bound_to 7997
  155.1390  140.3241  155.4459 H   0  0  0  0  0  0  0  0  0  0  0  0  # atno 8010 bound_to 7997
  140.6383  143.7834  150.7391 H   0  0  0  0  0  0  0  0  0  0  0  0  # atno 10167 bound_to 10162
  156.6501  130.4952  149.6065 H   0  0  0  0  0  0  0  0  0  0  0  0  # atno 10718 bound_to 10713
  154.2409  135.2775  155.2854 H   0  0  0  0  0  0  0  0  0  0  0  0  # atno 10763 bound_to 10752
  154.5545  135.5665  153.6955 H   0  0  0  0  0  0  0  0  0  0  0  0  # atno 10764 bound_to 10752
  153.0000  135.6283  154.2553 H   0  0  0  0  0  0  0  0  0  0  0  0  # atno 10765 bound_to 10752
  140.7860  134.3023  157.5029 H   0  0  0  0  0  0  0  0  0  0  0  0  # atno 11005 bound_to 11000
  146.3530  140.0538  142.8634 LP  0  0  0  0  0  0  0  0  0  0  0  0  # atno 17320 bound_to 7965
  145.1227  140.9472  143.4591 LP  0  0  0  0  0  0  0  0  0  0  0  0  # atno 17321 bound_to 7965
  140.1460  143.4399  152.2162 LP  0  0  0  0  0  0  0  0  0  0  0  0  # atno 17342 bound_to 10162
  139.5593  144.7394  151.4203 LP  0  0  0  0  0  0  0  0  0  0  0  0  # atno 17343 bound_to 10162
  156.2091  130.6668  151.1250 LP  0  0  0  0  0  0  0  0  0  0  0  0  # atno 17370 bound_to 10713
  157.7144  131.0718  150.6384 LP  0  0  0  0  0  0  0  0  0  0  0  0  # atno 17371 bound_to 10713
  139.8736  134.9347  156.3613 LP  0  0  0  0  0  0  0  0  0  0  0  0  # atno 17394 bound_to 11000
  140.9436  133.7498  156.0178 LP  0  0  0  0  0  0  0  0  0  0  0  0  # atno 17395 bound_to 11000

$$$$
