AV-unprocessed.smi:2524|AV-procd|sdf|9922|dock4
  -GOLD-   2272013563D 1   1.00000     0.00000
 Structure written by MMmdl.
 36 37  0  0  0  0  0  0  0  0  1 V2000
  152.7121  143.5522  161.4946 C   0  0  0  0  0  0  0  0  0  0  0  0
  152.8439  143.0093  160.2750 C   0  0  0  0  0  0  0  0  0  0  0  0
  152.8462  141.5214  159.9940 C   0  0  0  0  0  0  0  0  0  0  0  0
  151.6828  141.1120  159.0836 C   0  0  0  0  0  0  0  0  0  0  0  0
  151.6748  139.2937  158.8004 S   0  0  0  0  0  0  0  0  0  0  0  0
  152.9128  138.9277  158.0953 O   0  0  0  0  0  0  0  0  0  0  0  0
  151.3132  138.6116  160.0522 O   0  0  0  0  0  0  0  0  0  0  0  0
  150.3629  139.1000  157.7017 N   0  0  0  0  0  0  0  0  0  0  0  0
  150.4632  139.7027  156.3715 C   0  0  0  0  0  0  0  0  0  0  0  0
  149.6352  138.9291  155.3553 C   0  0  0  0  0  0  0  0  0  0  0  0
  148.5791  139.7992  154.7299 C   0  0  0  0  0  0  0  0  0  0  0  0
  148.7578  141.1940  154.6033 C   0  0  0  0  0  0  0  0  0  0  0  0
  147.7417  141.9578  153.9958 C   0  0  0  0  0  0  0  0  0  0  0  0
  146.5950  141.4245  153.5240 N   0  0  0  0  0  0  0  0  0  0  0  0
  146.4260  140.0908  153.6451 C   0  0  0  0  0  0  0  0  0  0  0  0
  147.3811  139.2402  154.2365 C   0  0  0  0  0  0  0  0  0  0  0  0
  150.3237  137.8996  154.4835 C   0  0  0  0  0  0  0  0  0  0  0  0
  149.3704  137.4517  155.5615 C   0  0  0  0  0  0  0  0  0  0  0  0
  152.5961  142.9364  162.3746 H   0  0  0  0  0  0  0  0  0  0  0  0
  152.7188  144.6239  161.6278 H   0  0  0  0  0  0  0  0  0  0  0  0
  152.9574  143.6585  159.4188 H   0  0  0  0  0  0  0  0  0  0  0  0
  153.7947  141.2359  159.5375 H   0  0  0  0  0  0  0  0  0  0  0  0
  152.7812  140.9905  160.9441 H   0  0  0  0  0  0  0  0  0  0  0  0
  150.7247  141.3934  159.5210 H   0  0  0  0  0  0  0  0  0  0  0  0
  151.7636  141.6028  158.1133 H   0  0  0  0  0  0  0  0  0  0  0  0
  150.0676  138.1256  157.6442 H   0  0  0  0  0  0  0  0  0  0  0  0
  150.1119  140.7345  156.4007 H   0  0  0  0  0  0  0  0  0  0  0  0
  151.5107  139.7261  156.0695 H   0  0  0  0  0  0  0  0  0  0  0  0
  149.6592  141.6706  154.9588 H   0  0  0  0  0  0  0  0  0  0  0  0
  147.8549  143.0261  153.8845 H   0  0  0  0  0  0  0  0  0  0  0  0
  145.5019  139.6879  153.2579 H   0  0  0  0  0  0  0  0  0  0  0  0
  147.1983  138.1780  154.3051 H   0  0  0  0  0  0  0  0  0  0  0  0
  149.9915  137.7980  153.4522 H   0  0  0  0  0  0  0  0  0  0  0  0
  151.3806  137.7046  154.6540 H   0  0  0  0  0  0  0  0  0  0  0  0
  149.8097  136.9685  156.4318 H   0  0  0  0  0  0  0  0  0  0  0  0
  148.4089  137.0536  155.2434 H   0  0  0  0  0  0  0  0  0  0  0  0
  1  2  2  0  0  0  0
  1 19  1  0  0  0  0
  1 20  1  0  0  0  0
  2  3  1  0  0  0  0
  2 21  1  0  0  0  0
  3  4  1  0  0  0  0
  3 22  1  0  0  0  0
  3 23  1  0  0  0  0
  4  5  1  0  0  0  0
  4 24  1  0  0  0  0
  4 25  1  0  0  0  0
  5  6  2  0  0  0  0
  5  7  2  0  0  0  0
  5  8  1  0  0  0  0
  8  9  1  0  0  0  0
  8 26  1  0  0  0  0
  9 10  1  0  0  0  0
  9 27  1  0  0  0  0
  9 28  1  0  0  0  0
 10 18  1  0  0  0  0
 10 11  1  0  0  0  0
 10 17  1  0  0  0  0
 11 16  1  0  0  0  0
 11 12  2  0  0  0  0
 12 13  1  0  0  0  0
 12 29  1  0  0  0  0
 13 14  2  0  0  0  0
 13 30  1  0  0  0  0
 14 15  1  0  0  0  0
 15 16  2  0  0  0  0
 15 31  1  0  0  0  0
 16 32  1  0  0  0  0
 17 18  1  0  0  0  0
 17 33  1  0  0  0  0
 17 34  1  0  0  0  0
 18 35  1  0  0  0  0
 18 36  1  0  0  0  0
M  END
> <s_m_source_file>
AV-unprocessed.smi

> <i_m_source_file_index>
2524

> <i_lp_mmshare_version>
43012

> <i_f3d_flags>
0

> <s_epik_input>
W0NIMl09W0NIXVtDSDJdW0NIMl1TKD1PKSg9TylbTkhdW0NIMl1DMShbQ0gyXVtDSDJdMSljMltjSF1bY0hdbltjSF1bY0hdMg==

> <s_epik_cmdline>
J2VwaWtfcHl0aG9uJywgJy1waCcsICc3LjAnLCAnLXRuJywgJzgnLCAnLW1hJywgJzIwMCcsICctbWV0YWxfYmluZGluZycsICctaW1hZScsICc8aW5maWxlLm1hZT4nLCAnLW9tYWUnLCAnPG91dGZpbGUubWFlPic=

> <r_epik_Ionization_Penalty>
0.0344299

> <r_epik_Ionization_Penalty_Charging>
0

> <r_epik_Ionization_Penalty_Neutral>
0.0344299

> <r_epik_State_Penalty>
0.0286381

> <r_epik_Charging_Adjusted_Penalty>
0.0286381

> <i_epik_Tot_Q>
0

> <i_epik_Tot_abs_Q>
0

> <r_epik_Metal_State_Penalty>
0.0327794

> <b_epik_Metal_Only>
0

> <s_lp_Force_Field>
OPLS_2005

> <r_lp_Energy>
10.3721

> <b_lp_Chiralities_Consistent>
1

> <s_lp_Variant>
AV-unprocessed.smi:2524-1

> <Gold.Version>
5.8.1

> <Gold.Id.Protein>
6NUR|6NUR_protein|mol2

> <Gold.PLP.Fitness>
44.8013

> <Gold.PLP.PLP>
-37.4236

> <Gold.PLP.part.hbond>
-0.8488

> <Gold.PLP.part.metal>
0.0000

> <Gold.PLP.part.buried>
-3.8520

> <Gold.PLP.part.nonpolar>
-32.2972

> <Gold.PLP.part.repulsive>
0.1954

> <Gold.PLP.ligand.clash>
0.0000

> <Gold.PLP.ligand.torsion>
1.5338

> <Gold.PLP.Chemscore.Hbond>
1.0000

> <Gold.PLP.Chemscore.CHOScore>
1.9517

> <Gold.PLP.Chemscore.Metal>
0.0000

> <Gold.Chemscore.Hbonds>
donor molecule, donor type, donor heavy atom, donor atom, acceptor molecule, acceptor atom, score
      P1  H  7997  8009       L1     6  0.26
      L1  C    13    30       P1  8028  0.77
      L1  C    15    31       P1 10175  1.00

> <Gold.PLP.Chemscore.Internal.Correction>
1.5902

> <Gold.Rescore>
     Score         DG    S(hbond)    S(metal)    S(lipo)     H(rot)  DE(clash)    DE(int)     intcor
     14.45     -16.08       0.99        0.00     102.87       1.85       0.05       1.59       ----

> <Gold.Chemscore.Fitness>
14.4481

> <Gold.Chemscore.DG>
-16.0849

> <Gold.Chemscore.ZeroCoef>
-5.4800

> <Gold.Chemscore.Hbond>
0.9869

> <Gold.Chemscore.Metal>
0.0000

> <Gold.Chemscore.Lipo>
102.8705

> <Gold.Chemscore.Internal_Hbond>
0.0000

> <Gold.Chemscore.DEClash>
0.0477

> <Gold.Chemscore.DEInternal>
1.5891

> <Gold.Chemscore.Rot>
1.8465

> <Gold.Chemscore.Internal.Correction>
   9.000000E+99

> <Gold.Chemscore.Hbonds>
donor molecule, donor type, donor heavy atom, donor atom, acceptor molecule, acceptor atom, score
      P1  H  7997  8009       L1     6  0.27

> <Gold.Chemscore.Hbond.Weighted>
-3.2962

> <Gold.Chemscore.Metal.Weighted>
-0.0000

> <Gold.Chemscore.Lipo.Weighted>
-12.0358

> <Gold.Chemscore.Internal_Hbond.Weighted>
0.0000

> <Gold.Chemscore.DEClash.Weighted>
0.0477

> <Gold.Chemscore.DEInternal.Weighted>
1.5891

> <Gold.Chemscore.Rot.Weighted>
4.7272

> <Gold.Chemscore.Internal.Correction.Weighted>
   9.000000E+99

> <Gold.Protein.RotatedTorsions>
[ 6907 6896 6895 6894 ] final   68.79 input  -60.11 | X-H torsion
[ 7974 7965 7964 7962 ] final  -67.34 input  175.53 | X-H torsion
[ 8008 7997 7996 7995 ] final  141.93 input   59.86 | X-H torsion
[ 10167 10162 10161 10158 ] final   48.24 input  -65.29 | X-H torsion
[ 10718 10713 10712 10709 ] final   20.69 input   66.30 | X-H torsion
[ 10763 10752 10751 10750 ] final -157.71 input  -60.55 | X-H torsion
[ 11005 11000 10999 10996 ] final  169.57 input  -57.11 | X-H torsion

> <Gold.Protein.ActiveResidues>
 VAL166  LYS551  ARG553  GLY616  TRP617  ASP618  TYR619  PRO620  LYS621  CYS622 
 ASP623  PHE694  ASN695  SER759  ASP760  ASP761  ALA762  ILE779  LEU786  VAL792 
 PHE793  MET794  SER795  GLU796  ALA797  LYS798  CYS799  TRP800  GLU811  SER814 

> <Gold.Protein.RotatedAtoms>
  152.4644  134.5110  159.9753 H   0  0  0  0  0  0  0  0  0  0  0  0  # atno 6907 bound_to 6896
  151.5152  133.3471  159.2899 H   0  0  0  0  0  0  0  0  0  0  0  0  # atno 6908 bound_to 6896
  150.8621  134.8004  159.7153 H   0  0  0  0  0  0  0  0  0  0  0  0  # atno 6909 bound_to 6896
  145.7304  140.8999  143.0583 H   0  0  0  0  0  0  0  0  0  0  0  0  # atno 7974 bound_to 7965
  156.2958  140.2302  156.4646 H   0  0  0  0  0  0  0  0  0  0  0  0  # atno 8008 bound_to 7997
  154.7989  140.0449  157.1278 H   0  0  0  0  0  0  0  0  0  0  0  0  # atno 8009 bound_to 7997
  154.9557  140.3048  155.5057 H   0  0  0  0  0  0  0  0  0  0  0  0  # atno 8010 bound_to 7997
  140.2953  144.2998  150.6231 H   0  0  0  0  0  0  0  0  0  0  0  0  # atno 10167 bound_to 10162
  157.1280  130.6578  149.5943 H   0  0  0  0  0  0  0  0  0  0  0  0  # atno 10718 bound_to 10713
  154.7615  135.3119  154.8370 H   0  0  0  0  0  0  0  0  0  0  0  0  # atno 10763 bound_to 10752
  153.9129  135.6804  153.4754 H   0  0  0  0  0  0  0  0  0  0  0  0  # atno 10764 bound_to 10752
  153.1216  135.4820  154.9136 H   0  0  0  0  0  0  0  0  0  0  0  0  # atno 10765 bound_to 10752
  140.2992  134.7610  157.3902 H   0  0  0  0  0  0  0  0  0  0  0  0  # atno 11005 bound_to 11000
  144.6894  139.9323  143.7472 LP  0  0  0  0  0  0  0  0  0  0  0  0  # atno 17320 bound_to 7965
  146.0543  139.3541  143.0620 LP  0  0  0  0  0  0  0  0  0  0  0  0  # atno 17321 bound_to 7965
  140.5697  143.2182  151.7620 LP  0  0  0  0  0  0  0  0  0  0  0  0  # atno 17342 bound_to 10162
  139.4928  144.4233  151.9953 LP  0  0  0  0  0  0  0  0  0  0  0  0  # atno 17343 bound_to 10162
  155.9814  130.4821  150.6825 LP  0  0  0  0  0  0  0  0  0  0  0  0  # atno 17370 bound_to 10713
  157.4417  131.0862  151.0936 LP  0  0  0  0  0  0  0  0  0  0  0  0  # atno 17371 bound_to 10713
  140.1125  134.5326  155.8253 LP  0  0  0  0  0  0  0  0  0  0  0  0  # atno 17394 bound_to 11000
  141.2131  133.6729  156.6716 LP  0  0  0  0  0  0  0  0  0  0  0  0  # atno 17395 bound_to 11000

$$$$
