AV-unprocessed.smi:3303|AV-procd|sdf|12682|dock3
  -GOLD-   2272019 13D 1   1.00000     0.00000
 Structure written by MMmdl.
 44 45  0  0  0  0  0  0  0  0  2 V2000
  149.0690  127.5499  150.6040 C   0  0  0  0  0  0  0  0  0  0  0  0
  148.3174  127.2270  151.9125 C   0  0  1  0  0  0  0  0  0  0  0  0
  149.2070  126.4373  152.8910 C   0  0  0  0  0  0  0  0  0  0  0  0
  150.2949  127.2738  153.4654 N   0  3  2  0  0  0  0  0  0  0  0  0
  151.2193  126.4483  154.2799 C   0  0  0  0  0  0  0  0  0  0  0  0
  149.7680  128.4782  154.1771 C   0  0  1  0  0  0  0  0  0  0  0  0
  150.8896  129.3743  154.7373 C   0  0  0  0  0  0  0  0  0  0  0  0
  148.8649  129.3096  153.2415 C   0  0  0  0  0  0  0  0  0  0  0  0
  147.7332  128.4623  152.6397 C   0  0  1  0  0  0  0  0  0  0  0  0
  146.9151  129.3061  151.7748 N   0  0  0  0  0  0  0  0  0  0  0  0
  145.9045  130.0382  152.5248 C   0  0  0  0  0  0  0  0  0  0  0  0
  144.9010  130.6757  151.5544 C   0  0  0  0  0  0  0  0  0  0  0  0
  144.8575  132.1855  151.6949 C   0  0  0  0  0  0  0  0  0  0  0  0
  146.0049  132.9073  152.0875 C   0  0  0  0  0  0  0  0  0  0  0  0
  145.9123  134.3087  152.1928 C   0  0  0  0  0  0  0  0  0  0  0  0
  144.6833  134.9313  151.9018 C   0  0  0  0  0  0  0  0  0  0  0  0
  143.5966  134.1212  151.5170 C   0  0  0  0  0  0  0  0  0  0  0  0
  143.6746  132.7768  151.4128 N   0  0  0  0  0  0  0  0  0  0  0  0
  149.9325  128.1927  150.7736 H   0  0  0  0  0  0  0  0  0  0  0  0
  148.4210  128.0486  149.8829 H   0  0  0  0  0  0  0  0  0  0  0  0
  149.4305  126.6373  150.1297 H   0  0  0  0  0  0  0  0  0  0  0  0
  147.4932  126.5659  151.6440 H   0  0  0  0  0  0  0  0  0  0  0  0
  148.5975  126.0400  153.7045 H   0  0  0  0  0  0  0  0  0  0  0  0
  149.6343  125.5752  152.3765 H   0  0  0  0  0  0  0  0  0  0  0  0
  150.7449  126.1318  155.2098 H   0  0  0  0  0  0  0  0  0  0  0  0
  152.1338  126.9889  154.5218 H   0  0  0  0  0  0  0  0  0  0  0  0
  151.5226  125.5542  153.7341 H   0  0  0  0  0  0  0  0  0  0  0  0
  149.1621  128.1326  155.0167 H   0  0  0  0  0  0  0  0  0  0  0  0
  150.4783  130.2880  155.1677 H   0  0  0  0  0  0  0  0  0  0  0  0
  151.5932  129.6664  153.9569 H   0  0  0  0  0  0  0  0  0  0  0  0
  151.4495  128.8833  155.5330 H   0  0  0  0  0  0  0  0  0  0  0  0
  148.4354  130.1436  153.7989 H   0  0  0  0  0  0  0  0  0  0  0  0
  149.4661  129.7563  152.4481 H   0  0  0  0  0  0  0  0  0  0  0  0
  147.1078  128.1205  153.4663 H   0  0  0  0  0  0  0  0  0  0  0  0
  147.5100  129.9723  151.3024 H   0  0  0  0  0  0  0  0  0  0  0  0
  145.3786  129.3691  153.2056 H   0  0  0  0  0  0  0  0  0  0  0  0
  146.3818  130.8130  153.1260 H   0  0  0  0  0  0  0  0  0  0  0  0
  145.1607  130.4256  150.5246 H   0  0  0  0  0  0  0  0  0  0  0  0
  143.9028  130.2707  151.7273 H   0  0  0  0  0  0  0  0  0  0  0  0
  146.9354  132.4017  152.3011 H   0  0  0  0  0  0  0  0  0  0  0  0
  146.7687  134.8956  152.4897 H   0  0  0  0  0  0  0  0  0  0  0  0
  144.5756  136.0036  151.9705 H   0  0  0  0  0  0  0  0  0  0  0  0
  142.6395  134.5648  151.2856 H   0  0  0  0  0  0  0  0  0  0  0  0
  150.8325  127.6144  152.6811 H   0  0  0  0  0  0  0  0  0  0  0  0
  1  2  1  0  0  0  0
  1 19  1  0  0  0  0
  1 20  1  0  0  0  0
  1 21  1  0  0  0  0
  2  9  1  0  0  0  0
  2  3  1  0  0  0  0
  2 22  1  0  0  0  0
  3  4  1  0  0  0  0
  3 23  1  0  0  0  0
  3 24  1  0  0  0  0
  4  5  1  0  0  0  0
  4  6  1  0  0  0  0
  4 44  1  0  0  0  0
  5 25  1  0  0  0  0
  5 26  1  0  0  0  0
  5 27  1  0  0  0  0
  6  7  1  0  0  0  0
  6  8  1  0  0  0  0
  6 28  1  0  0  0  0
  7 29  1  0  0  0  0
  7 30  1  0  0  0  0
  7 31  1  0  0  0  0
  8  9  1  0  0  0  0
  8 32  1  0  0  0  0
  8 33  1  0  0  0  0
  9 10  1  0  0  0  0
  9 34  1  0  0  0  0
 10 11  1  0  0  0  0
 10 35  1  0  0  0  0
 11 12  1  0  0  0  0
 11 36  1  0  0  0  0
 11 37  1  0  0  0  0
 12 13  1  0  0  0  0
 12 38  1  0  0  0  0
 12 39  1  0  0  0  0
 13 18  1  0  0  0  0
 13 14  2  0  0  0  0
 14 15  1  0  0  0  0
 14 40  1  0  0  0  0
 15 16  2  0  0  0  0
 15 41  1  0  0  0  0
 16 17  1  0  0  0  0
 16 42  1  0  0  0  0
 17 18  2  0  0  0  0
 17 43  1  0  0  0  0
M  CHG  1   4   1
M  END
> <s_m_source_file>
AV-unprocessed.smi

> <i_m_source_file_index>
3303

> <i_lp_mmshare_version>
43012

> <i_f3d_flags>
0

> <s_epik_input>
W0NIM11bQ0BASF0xW0NIMl1OKFtDSDNdKVtDQEBIXShbQ0gzXSlbQ0gyXVtDQEhdMVtOSF1bQ0gyXVtDSDJdYzJbY0hdW2NIXVtjSF1bY0hdbjI=

> <s_epik_cmdline>
J2VwaWtfcHl0aG9uJywgJy1waCcsICc3LjAnLCAnLXRuJywgJzgnLCAnLW1hJywgJzIwMCcsICctbWV0YWxfYmluZGluZycsICctaW1hZScsICc8aW5maWxlLm1hZT4nLCAnLW9tYWUnLCAnPG91dGZpbGUubWFlPic=

> <r_epik_Ionization_Penalty>
2.31085

> <r_epik_Ionization_Penalty_Charging>
0.000313057

> <r_epik_Ionization_Penalty_Neutral>
2.31054

> <r_epik_State_Penalty>
2.4087

> <r_epik_Charging_Adjusted_Penalty>
2.40902

> <i_epik_Tot_Q>
1

> <i_epik_Tot_abs_Q>
1

> <r_epik_Metal_State_Penalty>
2.30979

> <b_epik_Metal_Only>
0

> <s_lp_Force_Field>
OPLS_2005

> <r_lp_Energy>
24.7509

> <b_lp_Chiralities_Consistent>
1

> <s_lp_Variant>
AV-unprocessed.smi:3303-26

> <Gold.Version>
5.8.1

> <Gold.Id.Protein>
6NUR|6NUR_protein|mol2

> <Gold.PLP.Fitness>
42.5718

> <Gold.PLP.PLP>
-35.7158

> <Gold.PLP.part.hbond>
-2.0000

> <Gold.PLP.part.metal>
0.0000

> <Gold.PLP.part.buried>
-4.3618

> <Gold.PLP.part.nonpolar>
-28.9065

> <Gold.PLP.part.repulsive>
0.1997

> <Gold.PLP.ligand.clash>
0.0000

> <Gold.PLP.ligand.torsion>
1.0755

> <Gold.PLP.Chemscore.Hbond>
2.0000

> <Gold.PLP.Chemscore.CHOScore>
1.0000

> <Gold.PLP.Chemscore.Metal>
0.0000

> <Gold.Chemscore.Hbonds>
donor molecule, donor type, donor heavy atom, donor atom, acceptor molecule, acceptor atom, score
      L1  H     4    44       P1 10737  1.00
      L1  H    10    35       P1 10747  1.00
      L1  C    17    43       P1 10186  0.56

> <Gold.PLP.Chemscore.Internal.Correction>
0.0068

> <Gold.Rescore>
     Score         DG    S(hbond)    S(metal)    S(lipo)     H(rot)  DE(clash)    DE(int)     intcor
     19.13     -20.60       1.99        0.00     101.46       1.33       0.57       0.91       ----

> <Gold.Chemscore.Fitness>
19.1250

> <Gold.Chemscore.DG>
-20.6012

> <Gold.Chemscore.ZeroCoef>
-5.4800

> <Gold.Chemscore.Hbond>
1.9905

> <Gold.Chemscore.Metal>
0.0000

> <Gold.Chemscore.Lipo>
101.4578

> <Gold.Chemscore.Internal_Hbond>
0.0000

> <Gold.Chemscore.DEClash>
0.5666

> <Gold.Chemscore.DEInternal>
0.9096

> <Gold.Chemscore.Rot>
1.3272

> <Gold.Chemscore.Internal.Correction>
   9.000000E+99

> <Gold.Chemscore.Hbonds>
donor molecule, donor type, donor heavy atom, donor atom, acceptor molecule, acceptor atom, score
      L1  H     4    44       P1 10737  0.94
      L1  H    10    35       P1 10747  0.98

> <Gold.Chemscore.Hbond.Weighted>
-6.6483

> <Gold.Chemscore.Metal.Weighted>
-0.0000

> <Gold.Chemscore.Lipo.Weighted>
-11.8706

> <Gold.Chemscore.Internal_Hbond.Weighted>
0.0000

> <Gold.Chemscore.DEClash.Weighted>
0.5666

> <Gold.Chemscore.DEInternal.Weighted>
0.9096

> <Gold.Chemscore.Rot.Weighted>
3.3976

> <Gold.Chemscore.Internal.Correction.Weighted>
   9.000000E+99

> <Gold.Protein.RotatedTorsions>
[ 6907 6896 6895 6894 ] final  -85.23 input  -60.11 | X-H torsion
[ 7974 7965 7964 7962 ] final  -48.47 input  175.53 | X-H torsion
[ 8008 7997 7996 7995 ] final   69.52 input   59.86 | X-H torsion
[ 10167 10162 10161 10158 ] final -175.91 input  -65.29 | X-H torsion
[ 10718 10713 10712 10709 ] final  154.41 input   66.30 | X-H torsion
[ 10763 10752 10751 10750 ] final -109.46 input  -60.55 | X-H torsion
[ 11005 11000 10999 10996 ] final  -99.14 input  -57.11 | X-H torsion

> <Gold.Protein.ActiveResidues>
 VAL166  LYS551  ARG553  GLY616  TRP617  ASP618  TYR619  PRO620  LYS621  CYS622 
 ASP623  PHE694  ASN695  SER759  ASP760  ASP761  ALA762  ILE779  LEU786  VAL792 
 PHE793  MET794  SER795  GLU796  ALA797  LYS798  CYS799  TRP800  GLU811  SER814 

> <Gold.Protein.RotatedAtoms>
  150.6871  134.3236  159.4796 H   0  0  0  0  0  0  0  0  0  0  0  0  # atno 6907 bound_to 6896
  152.1109  134.9272  160.0576 H   0  0  0  0  0  0  0  0  0  0  0  0  # atno 6908 bound_to 6896
  152.0515  133.3986  159.4416 H   0  0  0  0  0  0  0  0  0  0  0  0  # atno 6909 bound_to 6896
  145.9508  140.7574  142.9505 H   0  0  0  0  0  0  0  0  0  0  0  0  # atno 7974 bound_to 7965
  155.7249  140.3493  155.5033 H   0  0  0  0  0  0  0  0  0  0  0  0  # atno 8008 bound_to 7997
  155.9236  140.1071  157.1209 H   0  0  0  0  0  0  0  0  0  0  0  0  # atno 8009 bound_to 7997
  154.4073  140.1245  156.4698 H   0  0  0  0  0  0  0  0  0  0  0  0  # atno 8010 bound_to 7997
  139.5556  144.1997  152.1154 H   0  0  0  0  0  0  0  0  0  0  0  0  # atno 10167 bound_to 10162
  157.2320  131.0741  151.1847 H   0  0  0  0  0  0  0  0  0  0  0  0  # atno 10718 bound_to 10713
  154.8194  135.4600  154.0735 H   0  0  0  0  0  0  0  0  0  0  0  0  # atno 10763 bound_to 10752
  153.2101  135.6880  153.8130 H   0  0  0  0  0  0  0  0  0  0  0  0  # atno 10764 bound_to 10752
  153.7585  135.3287  155.3310 H   0  0  0  0  0  0  0  0  0  0  0  0  # atno 10765 bound_to 10752
  141.1319  133.8299  157.0932 H   0  0  0  0  0  0  0  0  0  0  0  0  # atno 11005 bound_to 11000
  144.6795  140.2432  143.7341 LP  0  0  0  0  0  0  0  0  0  0  0  0  # atno 17320 bound_to 7965
  145.8173  139.2028  143.1958 LP  0  0  0  0  0  0  0  0  0  0  0  0  # atno 17321 bound_to 7965
  140.1500  144.5123  150.6693 LP  0  0  0  0  0  0  0  0  0  0  0  0  # atno 17342 bound_to 10162
  140.6828  143.2335  151.5338 LP  0  0  0  0  0  0  0  0  0  0  0  0  # atno 17343 bound_to 10162
  157.3468  130.7062  149.6416 LP  0  0  0  0  0  0  0  0  0  0  0  0  # atno 17370 bound_to 10713
  155.9675  130.4264  150.4696 LP  0  0  0  0  0  0  0  0  0  0  0  0  # atno 17371 bound_to 10713
  140.0379  134.9869  157.0906 LP  0  0  0  0  0  0  0  0  0  0  0  0  # atno 17394 bound_to 11000
  140.4181  134.1909  155.7164 LP  0  0  0  0  0  0  0  0  0  0  0  0  # atno 17395 bound_to 11000

$$$$
