AV-unprocessed.smi:606|AV-procd|sdf|3041|dock8
  -GOLD-   2262023563D 1   1.00000     0.00000
 Structure written by MMmdl.
 36 37  0  0  0  0  0  0  0  0  1 V2000
  146.7953  138.9927  152.6484 C   0  0  0  0  0  0  0  0  0  0  0  0
  147.8401  139.6807  153.4583 C   0  0  0  0  0  0  0  0  0  0  0  0
  147.8372  140.8285  154.2001 C   0  0  0  0  0  0  0  0  0  0  0  0
  149.1645  140.8877  154.7027 C   0  0  0  0  0  0  0  0  0  0  0  0
  149.5804  141.9558  155.5383 N   0  0  0  0  0  0  0  0  0  0  0  0
  150.5644  141.9433  156.4537 C   0  0  0  0  0  0  0  0  0  0  0  0
  151.2683  140.9694  156.7237 O   0  0  0  0  0  0  0  0  0  0  0  0
  150.6890  143.1373  157.0530 N   0  0  0  0  0  0  0  0  0  0  0  0
  151.6639  143.4664  158.0911 C   0  0  0  0  0  0  0  0  0  0  0  0
  151.7777  142.2938  159.0911 C   0  0  0  0  0  0  0  0  0  0  0  0
  153.0070  142.3999  160.0094 C   0  0  0  0  0  0  0  0  0  0  0  0
  152.8080  143.2183  161.2973 C   0  0  0  0  0  0  0  0  0  0  0  0
  151.9809  144.5101  161.1731 C   0  0  0  0  0  0  0  0  0  0  0  0
  152.1736  145.2955  159.8659 C   0  0  0  0  0  0  0  0  0  0  0  0
  151.2535  144.8043  158.7347 C   0  0  0  0  0  0  0  0  0  0  0  0
  149.9103  139.8694  154.3018 N   0  0  0  0  0  0  0  0  0  0  0  0
  149.0654  139.0909  153.5022 O   0  0  0  0  0  0  0  0  0  0  0  0
  145.8158  139.4423  152.8125 H   0  0  0  0  0  0  0  0  0  0  0  0
  146.7312  137.9375  152.9148 H   0  0  0  0  0  0  0  0  0  0  0  0
  147.0246  139.0604  151.5850 H   0  0  0  0  0  0  0  0  0  0  0  0
  147.0161  141.5121  154.3564 H   0  0  0  0  0  0  0  0  0  0  0  0
  149.0761  142.8226  155.4249 H   0  0  0  0  0  0  0  0  0  0  0  0
  150.0634  143.8775  156.7703 H   0  0  0  0  0  0  0  0  0  0  0  0
  152.6347  143.6147  157.6141 H   0  0  0  0  0  0  0  0  0  0  0  0
  150.8635  142.1838  159.6757 H   0  0  0  0  0  0  0  0  0  0  0  0
  151.8791  141.3673  158.5241 H   0  0  0  0  0  0  0  0  0  0  0  0
  153.3165  141.3952  160.2996 H   0  0  0  0  0  0  0  0  0  0  0  0
  153.8482  142.8033  159.4445 H   0  0  0  0  0  0  0  0  0  0  0  0
  152.3391  142.5873  162.0531 H   0  0  0  0  0  0  0  0  0  0  0  0
  153.7933  143.4639  161.6950 H   0  0  0  0  0  0  0  0  0  0  0  0
  150.9231  144.2793  161.3035 H   0  0  0  0  0  0  0  0  0  0  0  0
  152.2381  145.1538  162.0150 H   0  0  0  0  0  0  0  0  0  0  0  0
  151.9233  146.3383  160.0634 H   0  0  0  0  0  0  0  0  0  0  0  0
  153.2190  145.2951  159.5551 H   0  0  0  0  0  0  0  0  0  0  0  0
  151.2398  145.5676  157.9555 H   0  0  0  0  0  0  0  0  0  0  0  0
  150.2279  144.7427  159.1019 H   0  0  0  0  0  0  0  0  0  0  0  0
  1  2  1  0  0  0  0
  1 18  1  0  0  0  0
  1 19  1  0  0  0  0
  1 20  1  0  0  0  0
  2 17  1  0  0  0  0
  2  3  2  0  0  0  0
  3  4  1  0  0  0  0
  3 21  1  0  0  0  0
  4  5  1  0  0  0  0
  4 16  2  0  0  0  0
  5  6  1  0  0  0  0
  5 22  1  0  0  0  0
  6  7  2  0  0  0  0
  6  8  1  0  0  0  0
  8  9  1  0  0  0  0
  8 23  1  0  0  0  0
  9 15  1  0  0  0  0
  9 10  1  0  0  0  0
  9 24  1  0  0  0  0
 10 11  1  0  0  0  0
 10 25  1  0  0  0  0
 10 26  1  0  0  0  0
 11 12  1  0  0  0  0
 11 27  1  0  0  0  0
 11 28  1  0  0  0  0
 12 13  1  0  0  0  0
 12 29  1  0  0  0  0
 12 30  1  0  0  0  0
 13 14  1  0  0  0  0
 13 31  1  0  0  0  0
 13 32  1  0  0  0  0
 14 15  1  0  0  0  0
 14 33  1  0  0  0  0
 14 34  1  0  0  0  0
 15 35  1  0  0  0  0
 15 36  1  0  0  0  0
 16 17  1  0  0  0  0
M  END
> <s_m_source_file>
AV-unprocessed.smi

> <i_m_source_file_index>
606

> <i_lp_mmshare_version>
43012

> <i_f3d_flags>
0

> <s_epik_input>
W0NIM11jMVtjSF1jKG5vMSlbTkhdQyg9TylbTkhdW0NIXTJbQ0gyXVtDSDJdW0NIMl1bQ0gyXVtDSDJdW0NIMl0y

> <s_epik_cmdline>
J2VwaWtfcHl0aG9uJywgJy1waCcsICc3LjAnLCAnLXRuJywgJzgnLCAnLW1hJywgJzIwMCcsICctbWV0YWxfYmluZGluZycsICctaW1hZScsICc8aW5maWxlLm1hZT4nLCAnLW9tYWUnLCAnPG91dGZpbGUubWFlPic=

> <r_lp_tautomer_probability>
1

> <r_epik_Ionization_Penalty>
2.39396e-05

> <r_epik_Ionization_Penalty_Charging>
0

> <r_epik_Ionization_Penalty_Neutral>
2.39396e-05

> <r_epik_State_Penalty>
-0

> <r_epik_Charging_Adjusted_Penalty>
0

> <i_epik_Tot_Q>
0

> <i_epik_Tot_abs_Q>
0

> <r_epik_Metal_State_Penalty>
-0

> <b_epik_Metal_Only>
0

> <s_lp_Force_Field>
OPLS_2005

> <r_lp_Energy>
12.5841

> <b_lp_Chiralities_Consistent>
1

> <s_lp_Variant>
AV-unprocessed.smi:606-1

> <Gold.Version>
5.8.1

> <Gold.Id.Protein>
6NUR|6NUR_protein|mol2

> <Gold.PLP.Fitness>
45.0927

> <Gold.PLP.PLP>
-36.8266

> <Gold.PLP.part.hbond>
-3.0000

> <Gold.PLP.part.metal>
0.0000

> <Gold.PLP.part.buried>
-4.4991

> <Gold.PLP.part.nonpolar>
-34.5822

> <Gold.PLP.part.repulsive>
5.2240

> <Gold.PLP.ligand.clash>
0.0000

> <Gold.PLP.ligand.torsion>
0.3488

> <Gold.PLP.Chemscore.Hbond>
2.9833

> <Gold.PLP.Chemscore.CHOScore>
0.0000

> <Gold.PLP.Chemscore.Metal>
0.0000

> <Gold.Chemscore.Hbonds>
donor molecule, donor type, donor heavy atom, donor atom, acceptor molecule, acceptor atom, score
      L1  H     5    22       P1  8028  1.00
      L1  H     8    23       P1  8028  1.00
      P1  H  7989  7998       L1    16  0.73

> <Gold.PLP.Chemscore.Internal.Correction>
0.0137

> <Gold.Rescore>
     Score         DG    S(hbond)    S(metal)    S(lipo)     H(rot)  DE(clash)    DE(int)     intcor
     19.53     -23.50       2.72        0.00      98.28       1.00       2.04       1.94       ----

> <Gold.Chemscore.Fitness>
19.5268

> <Gold.Chemscore.DG>
-23.4993

> <Gold.Chemscore.ZeroCoef>
-5.4800

> <Gold.Chemscore.Hbond>
2.7188

> <Gold.Chemscore.Metal>
0.0000

> <Gold.Chemscore.Lipo>
98.2777

> <Gold.Chemscore.Internal_Hbond>
0.0000

> <Gold.Chemscore.DEClash>
2.0362

> <Gold.Chemscore.DEInternal>
1.9363

> <Gold.Chemscore.Rot>
1.0000

> <Gold.Chemscore.Internal.Correction>
   9.000000E+99

> <Gold.Chemscore.Hbonds>
donor molecule, donor type, donor heavy atom, donor atom, acceptor molecule, acceptor atom, score
      L1  H     5    22       P1  8028  0.97
      L1  H     8    23       P1  8028  0.98
      P1  H  7989  7998       L1    16  0.24

> <Gold.Chemscore.Hbond.Weighted>
-9.0808

> <Gold.Chemscore.Metal.Weighted>
-0.0000

> <Gold.Chemscore.Lipo.Weighted>
-11.4985

> <Gold.Chemscore.Internal_Hbond.Weighted>
0.0000

> <Gold.Chemscore.DEClash.Weighted>
2.0362

> <Gold.Chemscore.DEInternal.Weighted>
1.9363

> <Gold.Chemscore.Rot.Weighted>
2.5600

> <Gold.Chemscore.Internal.Correction.Weighted>
   9.000000E+99

> <Gold.Protein.RotatedTorsions>
[ 6907 6896 6895 6894 ] final -106.57 input  -60.11 | X-H torsion
[ 7974 7965 7964 7962 ] final -138.02 input  175.53 | X-H torsion
[ 8008 7997 7996 7995 ] final -120.48 input   59.86 | X-H torsion
[ 10167 10162 10161 10158 ] final   89.54 input  -65.29 | X-H torsion
[ 10718 10713 10712 10709 ] final   -7.65 input   66.30 | X-H torsion
[ 10763 10752 10751 10750 ] final  -15.07 input  -60.55 | X-H torsion
[ 11005 11000 10999 10996 ] final   34.28 input  -57.11 | X-H torsion

> <Gold.Protein.ActiveResidues>
 VAL166  LYS551  ARG553  GLY616  TRP617  ASP618  TYR619  PRO620  LYS621  CYS622 
 ASP623  PHE694  ASN695  SER759  ASP760  ASP761  ALA762  ILE779  LEU786  VAL792 
 PHE793  MET794  SER795  GLU796  ALA797  LYS798  CYS799  TRP800  GLU811  SER814 

> <Gold.Protein.RotatedAtoms>
  150.7396  133.9957  159.3621 H   0  0  0  0  0  0  0  0  0  0  0  0  # atno 6907 bound_to 6896
  151.7908  135.0734  160.0396 H   0  0  0  0  0  0  0  0  0  0  0  0  # atno 6908 bound_to 6896
  152.3209  133.5816  159.5780 H   0  0  0  0  0  0  0  0  0  0  0  0  # atno 6909 bound_to 6896
  144.8793  140.6484  143.5216 H   0  0  0  0  0  0  0  0  0  0  0  0  # atno 7974 bound_to 7965
  155.1325  140.0400  157.2778 H   0  0  0  0  0  0  0  0  0  0  0  0  # atno 8008 bound_to 7997
  154.6532  140.2574  155.7164 H   0  0  0  0  0  0  0  0  0  0  0  0  # atno 8009 bound_to 7997
  156.2586  140.2832  156.0974 H   0  0  0  0  0  0  0  0  0  0  0  0  # atno 8010 bound_to 7997
  139.8562  144.6568  150.9111 H   0  0  0  0  0  0  0  0  0  0  0  0  # atno 10167 bound_to 10162
  156.7142  130.5131  149.5884 H   0  0  0  0  0  0  0  0  0  0  0  0  # atno 10718 bound_to 10713
  153.5378  135.7013  153.5651 H   0  0  0  0  0  0  0  0  0  0  0  0  # atno 10763 bound_to 10752
  153.3631  135.3964  155.1733 H   0  0  0  0  0  0  0  0  0  0  0  0  # atno 10764 bound_to 10752
  154.8677  135.3793  154.4880 H   0  0  0  0  0  0  0  0  0  0  0  0  # atno 10765 bound_to 10752
  140.2544  134.3265  155.7879 H   0  0  0  0  0  0  0  0  0  0  0  0  # atno 11005 bound_to 11000
  145.3983  139.1602  143.4191 LP  0  0  0  0  0  0  0  0  0  0  0  0  # atno 17320 bound_to 7965
  146.2984  140.4078  142.8713 LP  0  0  0  0  0  0  0  0  0  0  0  0  # atno 17321 bound_to 7965
  140.7781  143.3784  151.1521 LP  0  0  0  0  0  0  0  0  0  0  0  0  # atno 17342 bound_to 10162
  139.7417  143.8913  152.3052 LP  0  0  0  0  0  0  0  0  0  0  0  0  # atno 17343 bound_to 10162
  156.1640  130.6393  151.0754 LP  0  0  0  0  0  0  0  0  0  0  0  0  # atno 17370 bound_to 10713
  157.6924  131.0805  150.7069 LP  0  0  0  0  0  0  0  0  0  0  0  0  # atno 17371 bound_to 10713
  141.2198  133.7372  156.9089 LP  0  0  0  0  0  0  0  0  0  0  0  0  # atno 17394 bound_to 11000
  140.1526  134.9220  157.2612 LP  0  0  0  0  0  0  0  0  0  0  0  0  # atno 17395 bound_to 11000

$$$$
