AV-unprocessed.smi:1414|AV-procd|sdf|5760|dock3
  -GOLD-   22720 5393D 1   1.00000     0.00000
 Structure written by MMmdl.
 45 46  0  0  0  0  0  0  0  0  1 V2000
  153.1895  138.7339  154.5624 C   0  0  0  0  0  0  0  0  0  0  0  0
  152.4343  139.3871  155.7325 C   0  0  2  0  0  0  0  0  0  0  0  0
  152.1521  138.4419  156.9247 C   0  0  0  0  0  0  0  0  0  0  0  0
  150.8872  137.6950  156.7949 N   0  0  0  0  0  0  0  0  0  0  0  0
  150.8369  135.9652  156.9569 S   0  0  0  0  0  0  0  0  0  0  0  0
  152.2275  135.4921  157.0376 O   0  0  0  0  0  0  0  0  0  0  0  0
  149.8891  135.6450  158.0356 O   0  0  0  0  0  0  0  0  0  0  0  0
  150.1294  135.3947  155.3507 C   0  0  0  0  0  0  0  0  0  0  0  0
  148.6094  135.6143  155.2794 C   0  0  0  0  0  0  0  0  0  0  0  0
  148.0860  135.3071  153.9540 N   0  0  0  0  0  0  0  0  0  0  0  0
  146.9488  134.6405  153.7122 C   0  0  0  0  0  0  0  0  0  0  0  0
  146.2163  134.2032  154.5989 O   0  0  0  0  0  0  0  0  0  0  0  0
  146.7376  134.5008  152.3926 N   0  0  0  0  0  0  0  0  0  0  0  0
  145.6271  133.9036  151.7386 C   0  0  0  0  0  0  0  0  0  0  0  0
  145.8594  133.2149  150.5304 C   0  0  0  0  0  0  0  0  0  0  0  0
  144.7713  132.6346  149.8517 C   0  0  0  0  0  0  0  0  0  0  0  0
  143.4847  132.7745  150.4063 C   0  0  0  0  0  0  0  0  0  0  0  0
  143.2422  133.4430  151.5536 N   0  0  0  0  0  0  0  0  0  0  0  0
  144.2908  133.9957  152.2007 C   0  0  0  0  0  0  0  0  0  0  0  0
  149.7528  138.4382  156.2300 C   0  0  0  0  0  0  0  0  0  0  0  0
  150.1756  139.1980  154.9651 C   0  0  1  0  0  0  0  0  0  0  0  0
  149.0371  140.0548  154.4019 C   0  0  0  0  0  0  0  0  0  0  0  0
  151.2590  140.0600  155.2885 O   0  0  0  0  0  0  0  0  0  0  0  0
  154.1236  138.2863  154.9025 H   0  0  0  0  0  0  0  0  0  0  0  0
  153.4391  139.4769  153.8048 H   0  0  0  0  0  0  0  0  0  0  0  0
  152.6134  137.9544  154.0719 H   0  0  0  0  0  0  0  0  0  0  0  0
  153.0946  140.1708  156.1051 H   0  0  0  0  0  0  0  0  0  0  0  0
  152.9883  137.7595  157.0756 H   0  0  0  0  0  0  0  0  0  0  0  0
  152.0804  139.0383  157.8347 H   0  0  0  0  0  0  0  0  0  0  0  0
  150.6611  135.8881  154.5410 H   0  0  0  0  0  0  0  0  0  0  0  0
  150.3430  134.3291  155.2669 H   0  0  0  0  0  0  0  0  0  0  0  0
  148.1050  134.9666  155.9965 H   0  0  0  0  0  0  0  0  0  0  0  0
  148.3508  136.6371  155.5528 H   0  0  0  0  0  0  0  0  0  0  0  0
  148.6314  135.6214  153.1646 H   0  0  0  0  0  0  0  0  0  0  0  0
  147.4769  134.8236  151.7859 H   0  0  0  0  0  0  0  0  0  0  0  0
  146.8582  133.1271  150.1281 H   0  0  0  0  0  0  0  0  0  0  0  0
  144.9191  132.0965  148.9271 H   0  0  0  0  0  0  0  0  0  0  0  0
  142.6268  132.3428  149.9124 H   0  0  0  0  0  0  0  0  0  0  0  0
  144.0321  134.5405  153.0953 H   0  0  0  0  0  0  0  0  0  0  0  0
  148.9273  137.7623  156.0094 H   0  0  0  0  0  0  0  0  0  0  0  0
  149.3907  139.1381  156.9837 H   0  0  0  0  0  0  0  0  0  0  0  0
  150.4736  138.4915  154.1924 H   0  0  0  0  0  0  0  0  0  0  0  0
  148.1802  139.4378  154.1302 H   0  0  0  0  0  0  0  0  0  0  0  0
  149.3581  140.5888  153.5072 H   0  0  0  0  0  0  0  0  0  0  0  0
  148.7009  140.7943  155.1292 H   0  0  0  0  0  0  0  0  0  0  0  0
  1  2  1  0  0  0  0
  1 24  1  0  0  0  0
  1 25  1  0  0  0  0
  1 26  1  0  0  0  0
  2 23  1  0  0  0  0
  2  3  1  0  0  0  0
  2 27  1  0  0  0  0
  3  4  1  0  0  0  0
  3 28  1  0  0  0  0
  3 29  1  0  0  0  0
  4  5  1  0  0  0  0
  4 20  1  0  0  0  0
  5  6  2  0  0  0  0
  5  7  2  0  0  0  0
  5  8  1  0  0  0  0
  8  9  1  0  0  0  0
  8 30  1  0  0  0  0
  8 31  1  0  0  0  0
  9 10  1  0  0  0  0
  9 32  1  0  0  0  0
  9 33  1  0  0  0  0
 10 11  1  0  0  0  0
 10 34  1  0  0  0  0
 11 12  2  0  0  0  0
 11 13  1  0  0  0  0
 13 14  1  0  0  0  0
 13 35  1  0  0  0  0
 14 19  1  0  0  0  0
 14 15  2  0  0  0  0
 15 16  1  0  0  0  0
 15 36  1  0  0  0  0
 16 17  2  0  0  0  0
 16 37  1  0  0  0  0
 17 18  1  0  0  0  0
 17 38  1  0  0  0  0
 18 19  2  0  0  0  0
 19 39  1  0  0  0  0
 20 21  1  0  0  0  0
 20 40  1  0  0  0  0
 20 41  1  0  0  0  0
 21 22  1  0  0  0  0
 21 23  1  0  0  0  0
 21 42  1  0  0  0  0
 22 43  1  0  0  0  0
 22 44  1  0  0  0  0
 22 45  1  0  0  0  0
M  END
> <s_m_source_file>
AV-unprocessed.smi

> <i_m_source_file_index>
1414

> <i_lp_mmshare_version>
43012

> <i_f3d_flags>
0

> <s_epik_input>
W0NIM11bQ0BASF0xW0NIMl1OKFtDSDJdW0NASF0oTzEpW0NIM10pUyg9TykoPU8pW0NIMl1bQ0gyXVtOSF1DKD1PKVtOSF1jMltjSF1bY0hdW2NIXW5bY0hdMg==

> <s_epik_cmdline>
J2VwaWtfcHl0aG9uJywgJy1waCcsICc3LjAnLCAnLXRuJywgJzgnLCAnLW1hJywgJzIwMCcsICctbWV0YWxfYmluZGluZycsICctaW1hZScsICc8aW5maWxlLm1hZT4nLCAnLW9tYWUnLCAnPG91dGZpbGUubWFlPic=

> <r_epik_Ionization_Penalty>
0.00437531

> <r_epik_Ionization_Penalty_Charging>
0

> <r_epik_Ionization_Penalty_Neutral>
0.00437531

> <r_epik_State_Penalty>
0.00312896

> <r_epik_Charging_Adjusted_Penalty>
0.00312896

> <i_epik_Tot_Q>
0

> <i_epik_Tot_abs_Q>
0

> <r_epik_Metal_State_Penalty>
-0

> <b_epik_Metal_Only>
0

> <s_lp_Force_Field>
OPLS_2005

> <r_lp_Energy>
6.94025

> <b_lp_Chiralities_Consistent>
1

> <s_lp_Variant>
AV-unprocessed.smi:1414-1

> <Gold.Version>
5.8.1

> <Gold.Id.Protein>
6NUR|6NUR_protein|mol2

> <Gold.PLP.Fitness>
49.3322

> <Gold.PLP.PLP>
-34.7178

> <Gold.PLP.part.hbond>
-4.9387

> <Gold.PLP.part.metal>
0.0000

> <Gold.PLP.part.buried>
-4.5938

> <Gold.PLP.part.nonpolar>
-24.9178

> <Gold.PLP.part.repulsive>
0.3428

> <Gold.PLP.ligand.clash>
0.0000

> <Gold.PLP.ligand.torsion>
1.8107

> <Gold.PLP.Chemscore.Hbond>
4.3744

> <Gold.PLP.Chemscore.CHOScore>
1.0000

> <Gold.PLP.Chemscore.Metal>
0.0000

> <Gold.Chemscore.Hbonds>
donor molecule, donor type, donor heavy atom, donor atom, acceptor molecule, acceptor atom, score
      L1  H    10    34       P1  7948  0.81
      L1  H    13    35       P1  7948  0.77
      P1  H  6896  6908       L1     7  0.94
      P1  H  7989  7998       L1    23  1.00
      P1  H 10752 10764       L1     6  0.75
      L1  C    17    38       P1 10186  0.33
      L1  C    17    38       P1 10952  0.56

> <Gold.PLP.Chemscore.Internal.Correction>
2.1129

> <Gold.Rescore>
     Score         DG    S(hbond)    S(metal)    S(lipo)     H(rot)  DE(clash)    DE(int)     intcor
     21.46     -24.40       3.91        0.00      84.36       1.57       0.30       2.64       ----

> <Gold.Chemscore.Fitness>
21.4593

> <Gold.Chemscore.DG>
-24.3969

> <Gold.Chemscore.ZeroCoef>
-5.4800

> <Gold.Chemscore.Hbond>
3.9109

> <Gold.Chemscore.Metal>
0.0000

> <Gold.Chemscore.Lipo>
84.3612

> <Gold.Chemscore.Internal_Hbond>
0.0000

> <Gold.Chemscore.DEClash>
0.2997

> <Gold.Chemscore.DEInternal>
2.6379

> <Gold.Chemscore.Rot>
1.5687

> <Gold.Chemscore.Internal.Correction>
   9.000000E+99

> <Gold.Chemscore.Hbonds>
donor molecule, donor type, donor heavy atom, donor atom, acceptor molecule, acceptor atom, score
      L1  H    10    34       P1  7948  0.78
      L1  H    13    35       P1  7948  0.53
      P1  H  6896  6908       L1     7  0.74
      P1  H  7989  7998       L1    23  0.19
      P1  H 10752 10764       L1     6  0.72

> <Gold.Chemscore.Hbond.Weighted>
-13.0626

> <Gold.Chemscore.Metal.Weighted>
-0.0000

> <Gold.Chemscore.Lipo.Weighted>
-9.8703

> <Gold.Chemscore.Internal_Hbond.Weighted>
0.0000

> <Gold.Chemscore.DEClash.Weighted>
0.2997

> <Gold.Chemscore.DEInternal.Weighted>
2.6379

> <Gold.Chemscore.Rot.Weighted>
4.0160

> <Gold.Chemscore.Internal.Correction.Weighted>
   9.000000E+99

> <Gold.Protein.RotatedTorsions>
[ 6907 6896 6895 6894 ] final  177.66 input  -60.11 | X-H torsion
[ 7974 7965 7964 7962 ] final -157.84 input  175.53 | X-H torsion
[ 8008 7997 7996 7995 ] final -138.96 input   59.86 | X-H torsion
[ 10167 10162 10161 10158 ] final   -5.05 input  -65.29 | X-H torsion
[ 10718 10713 10712 10709 ] final -178.99 input   66.30 | X-H torsion
[ 10763 10752 10751 10750 ] final   -2.81 input  -60.55 | X-H torsion
[ 11005 11000 10999 10996 ] final -151.29 input  -57.11 | X-H torsion

> <Gold.Protein.ActiveResidues>
 VAL166  LYS551  ARG553  GLY616  TRP617  ASP618  TYR619  PRO620  LYS621  CYS622 
 ASP623  PHE694  ASN695  SER759  ASP760  ASP761  ALA762  ILE779  LEU786  VAL792 
 PHE793  MET794  SER795  GLU796  ALA797  LYS798  CYS799  TRP800  GLU811  SER814 

> <Gold.Protein.RotatedAtoms>
  151.7005  133.3311  159.3264 H   0  0  0  0  0  0  0  0  0  0  0  0  # atno 6907 bound_to 6896
  150.7738  134.6620  159.6354 H   0  0  0  0  0  0  0  0  0  0  0  0  # atno 6908 bound_to 6896
  152.3773  134.6647  160.0207 H   0  0  0  0  0  0  0  0  0  0  0  0  # atno 6909 bound_to 6896
  144.7531  140.3912  143.6033 H   0  0  0  0  0  0  0  0  0  0  0  0  # atno 7974 bound_to 7965
  155.4369  140.0529  157.3014 H   0  0  0  0  0  0  0  0  0  0  0  0  # atno 8008 bound_to 7997
  154.4835  140.2091  155.9666 H   0  0  0  0  0  0  0  0  0  0  0  0  # atno 8009 bound_to 7997
  156.1240  140.3183  155.8255 H   0  0  0  0  0  0  0  0  0  0  0  0  # atno 8010 bound_to 7997
  140.6949  143.6353  150.8485 H   0  0  0  0  0  0  0  0  0  0  0  0  # atno 10167 bound_to 10162
  156.8525  130.9724  151.3091 H   0  0  0  0  0  0  0  0  0  0  0  0  # atno 10718 bound_to 10713
  153.3629  135.6991  153.6698 H   0  0  0  0  0  0  0  0  0  0  0  0  # atno 10763 bound_to 10752
  153.5379  135.3579  155.2706 H   0  0  0  0  0  0  0  0  0  0  0  0  # atno 10764 bound_to 10752
  154.8671  135.4196  154.2890 H   0  0  0  0  0  0  0  0  0  0  0  0  # atno 10765 bound_to 10752
  140.7312  134.3619  157.5166 H   0  0  0  0  0  0  0  0  0  0  0  0  # atno 11005 bound_to 11000
  145.6874  139.1631  143.2666 LP  0  0  0  0  0  0  0  0  0  0  0  0  # atno 17320 bound_to 7965
  146.1507  140.6929  142.9323 LP  0  0  0  0  0  0  0  0  0  0  0  0  # atno 17321 bound_to 7965
  140.0070  143.5683  152.2853 LP  0  0  0  0  0  0  0  0  0  0  0  0  # atno 17342 bound_to 10162
  139.6393  144.7653  151.2372 LP  0  0  0  0  0  0  0  0  0  0  0  0  # atno 17343 bound_to 10162
  157.6295  130.8718  149.9249 LP  0  0  0  0  0  0  0  0  0  0  0  0  # atno 17370 bound_to 10713
  156.0820  130.3672  150.0561 LP  0  0  0  0  0  0  0  0  0  0  0  0  # atno 17371 bound_to 10713
  139.8826  134.9019  156.2821 LP  0  0  0  0  0  0  0  0  0  0  0  0  # atno 17394 bound_to 11000
  140.9919  133.7203  156.0827 LP  0  0  0  0  0  0  0  0  0  0  0  0  # atno 17395 bound_to 11000

$$$$
