AV-unprocessed.smi:2794|AV-procd|sdf|10777|dock2
  -GOLD-   2272015213D 1   1.00000     0.00000
 Structure written by MMmdl.
 34 35  0  0  0  0  0  0  0  0  1 V2000
  153.5085  141.3336  160.3702 C   0  0  0  0  0  0  0  0  0  0  0  0
  152.7075  142.4890  159.8080 C   0  0  0  0  0  0  0  0  0  0  0  0
  152.7805  143.7716  160.3858 C   0  0  0  0  0  0  0  0  0  0  0  0
  152.0086  144.7997  159.8158 C   0  0  0  0  0  0  0  0  0  0  0  0
  151.2012  144.5049  158.7004 C   0  0  0  0  0  0  0  0  0  0  0  0
  151.1861  143.1910  158.1812 C   0  0  0  0  0  0  0  0  0  0  0  0
  150.3417  142.9996  157.0562 N   0  0  0  0  0  0  0  0  0  0  0  0
  150.2759  141.9373  156.2287 C   0  0  0  0  0  0  0  0  0  0  0  0
  150.9633  140.9230  156.3344 O   0  0  0  0  0  0  0  0  0  0  0  0
  149.3795  142.0674  155.2324 N   0  0  0  0  0  0  0  0  0  0  0  0
  149.0517  141.1178  154.1664 C   0  0  1  0  0  0  0  0  0  0  0  0
  149.1587  139.6821  154.6665 C   0  0  0  0  0  0  0  0  0  0  0  0
  148.2488  138.7292  154.4023 C   0  0  0  0  0  0  0  0  0  0  0  0
  147.0079  138.9664  153.5623 C   0  0  0  0  0  0  0  0  0  0  0  0
  147.0922  140.2780  152.7622 C   0  0  0  0  0  0  0  0  0  0  0  0
  147.6428  141.4295  153.6174 C   0  0  0  0  0  0  0  0  0  0  0  0
  151.9339  142.2061  158.7379 N   0  0  0  0  0  0  0  0  0  0  0  0
  154.1562  141.6598  161.1841 H   0  0  0  0  0  0  0  0  0  0  0  0
  154.1341  140.8915  159.5942 H   0  0  0  0  0  0  0  0  0  0  0  0
  152.8402  140.5623  160.7542 H   0  0  0  0  0  0  0  0  0  0  0  0
  153.4092  143.9650  161.2424 H   0  0  0  0  0  0  0  0  0  0  0  0
  152.0347  145.7982  160.2265 H   0  0  0  0  0  0  0  0  0  0  0  0
  150.6023  145.2833  158.2503 H   0  0  0  0  0  0  0  0  0  0  0  0
  149.7193  143.7656  156.8455 H   0  0  0  0  0  0  0  0  0  0  0  0
  148.8769  142.9428  155.2016 H   0  0  0  0  0  0  0  0  0  0  0  0
  149.7631  141.2267  153.3462 H   0  0  0  0  0  0  0  0  0  0  0  0
  150.0226  139.4340  155.2662 H   0  0  0  0  0  0  0  0  0  0  0  0
  148.3794  137.7365  154.8076 H   0  0  0  0  0  0  0  0  0  0  0  0
  146.8660  138.1257  152.8828 H   0  0  0  0  0  0  0  0  0  0  0  0
  146.1464  138.9854  154.2304 H   0  0  0  0  0  0  0  0  0  0  0  0
  147.7430  140.1348  151.8987 H   0  0  0  0  0  0  0  0  0  0  0  0
  146.1092  140.5358  152.3670 H   0  0  0  0  0  0  0  0  0  0  0  0
  146.9531  141.6061  154.4445 H   0  0  0  0  0  0  0  0  0  0  0  0
  147.6653  142.3519  153.0359 H   0  0  0  0  0  0  0  0  0  0  0  0
  1  2  1  0  0  0  0
  1 18  1  0  0  0  0
  1 19  1  0  0  0  0
  1 20  1  0  0  0  0
  2 17  1  0  0  0  0
  2  3  2  0  0  0  0
  3  4  1  0  0  0  0
  3 21  1  0  0  0  0
  4  5  2  0  0  0  0
  4 22  1  0  0  0  0
  5  6  1  0  0  0  0
  5 23  1  0  0  0  0
  6  7  1  0  0  0  0
  6 17  2  0  0  0  0
  7  8  1  0  0  0  0
  7 24  1  0  0  0  0
  8  9  2  0  0  0  0
  8 10  1  0  0  0  0
 10 11  1  0  0  0  0
 10 25  1  0  0  0  0
 11 16  1  0  0  0  0
 11 12  1  0  0  0  0
 11 26  1  0  0  0  0
 12 13  2  0  0  0  0
 12 27  1  0  0  0  0
 13 14  1  0  0  0  0
 13 28  1  0  0  0  0
 14 15  1  0  0  0  0
 14 29  1  0  0  0  0
 14 30  1  0  0  0  0
 15 16  1  0  0  0  0
 15 31  1  0  0  0  0
 15 32  1  0  0  0  0
 16 33  1  0  0  0  0
 16 34  1  0  0  0  0
M  END
> <s_m_source_file>
AV-unprocessed.smi

> <i_m_source_file_index>
2794

> <i_lp_mmshare_version>
43012

> <i_f3d_flags>
0

> <s_epik_input>
W0NIM11jMVtjSF1bY0hdW2NIXWMobjEpW05IXUMoPU8pW05IXVtDQEBIXTJbQ0hdPVtDSF1bQ0gyXVtDSDJdW0NIMl0y

> <s_epik_cmdline>
J2VwaWtfcHl0aG9uJywgJy1waCcsICc3LjAnLCAnLXRuJywgJzgnLCAnLW1hJywgJzIwMCcsICctbWV0YWxfYmluZGluZycsICctaW1hZScsICc8aW5maWxlLm1hZT4nLCAnLW9tYWUnLCAnPG91dGZpbGUubWFlPic=

> <r_lp_tautomer_probability>
1

> <r_epik_Ionization_Penalty>
8.4544e-05

> <r_epik_Ionization_Penalty_Charging>
0

> <r_epik_Ionization_Penalty_Neutral>
8.4544e-05

> <r_epik_State_Penalty>
-0

> <r_epik_Charging_Adjusted_Penalty>
0

> <i_epik_Tot_Q>
0

> <i_epik_Tot_abs_Q>
0

> <r_epik_Metal_State_Penalty>
-0

> <b_epik_Metal_Only>
0

> <s_lp_Force_Field>
OPLS_2005

> <r_lp_Energy>
18.5134

> <b_lp_Chiralities_Consistent>
1

> <s_lp_Variant>
AV-unprocessed.smi:2794-2

> <Gold.Version>
5.8.1

> <Gold.Id.Protein>
6NUR|6NUR_protein|mol2

> <Gold.PLP.Fitness>
43.6065

> <Gold.PLP.PLP>
-38.4487

> <Gold.PLP.part.hbond>
-2.0000

> <Gold.PLP.part.metal>
0.0000

> <Gold.PLP.part.buried>
-2.8652

> <Gold.PLP.part.nonpolar>
-32.9882

> <Gold.PLP.part.repulsive>
0.2383

> <Gold.PLP.ligand.clash>
0.0000

> <Gold.PLP.ligand.torsion>
0.3647

> <Gold.PLP.Chemscore.Hbond>
1.9600

> <Gold.PLP.Chemscore.CHOScore>
0.0000

> <Gold.PLP.Chemscore.Metal>
0.0000

> <Gold.Chemscore.Hbonds>
donor molecule, donor type, donor heavy atom, donor atom, acceptor molecule, acceptor atom, score
      L1  H     7    24       P1  8028  0.99
      L1  H    10    25       P1  8028  0.94

> <Gold.PLP.Chemscore.Internal.Correction>
0.0072

> <Gold.Rescore>
     Score         DG    S(hbond)    S(metal)    S(lipo)     H(rot)  DE(clash)    DE(int)     intcor
     17.49     -20.71       1.89        0.00      98.08       1.00       0.30       2.92       ----

> <Gold.Chemscore.Fitness>
17.4947

> <Gold.Chemscore.DG>
-20.7085

> <Gold.Chemscore.ZeroCoef>
-5.4800

> <Gold.Chemscore.Hbond>
1.8900

> <Gold.Chemscore.Metal>
0.0000

> <Gold.Chemscore.Lipo>
98.0839

> <Gold.Chemscore.Internal_Hbond>
0.0000

> <Gold.Chemscore.DEClash>
0.2979

> <Gold.Chemscore.DEInternal>
2.9159

> <Gold.Chemscore.Rot>
1.0000

> <Gold.Chemscore.Internal.Correction>
   9.000000E+99

> <Gold.Chemscore.Hbonds>
donor molecule, donor type, donor heavy atom, donor atom, acceptor molecule, acceptor atom, score
      L1  H     7    24       P1  8028  0.92
      L1  H    10    25       P1  8028  0.91

> <Gold.Chemscore.Hbond.Weighted>
-6.3127

> <Gold.Chemscore.Metal.Weighted>
-0.0000

> <Gold.Chemscore.Lipo.Weighted>
-11.4758

> <Gold.Chemscore.Internal_Hbond.Weighted>
0.0000

> <Gold.Chemscore.DEClash.Weighted>
0.2979

> <Gold.Chemscore.DEInternal.Weighted>
2.9159

> <Gold.Chemscore.Rot.Weighted>
2.5600

> <Gold.Chemscore.Internal.Correction.Weighted>
   9.000000E+99

> <Gold.Protein.RotatedTorsions>
[ 6907 6896 6895 6894 ] final -114.89 input  -60.11 | X-H torsion
[ 7974 7965 7964 7962 ] final -142.89 input  175.53 | X-H torsion
[ 8008 7997 7996 7995 ] final  -81.94 input   59.86 | X-H torsion
[ 10167 10162 10161 10158 ] final   93.36 input  -65.29 | X-H torsion
[ 10718 10713 10712 10709 ] final -110.12 input   66.30 | X-H torsion
[ 10763 10752 10751 10750 ] final   -9.91 input  -60.55 | X-H torsion
[ 11005 11000 10999 10996 ] final -119.87 input  -57.11 | X-H torsion

> <Gold.Protein.ActiveResidues>
 VAL166  LYS551  ARG553  GLY616  TRP617  ASP618  TYR619  PRO620  LYS621  CYS622 
 ASP623  PHE694  ASN695  SER759  ASP760  ASP761  ALA762  ILE779  LEU786  VAL792 
 PHE793  MET794  SER795  GLU796  ALA797  LYS798  CYS799  TRP800  GLU811  SER814 

> <Gold.Protein.RotatedAtoms>
  150.7936  133.8737  159.3265 H   0  0  0  0  0  0  0  0  0  0  0  0  # atno 6907 bound_to 6896
  151.6568  135.0992  160.0181 H   0  0  0  0  0  0  0  0  0  0  0  0  # atno 6908 bound_to 6896
  152.4014  133.6784  159.6355 H   0  0  0  0  0  0  0  0  0  0  0  0  # atno 6909 bound_to 6896
  144.8410  140.5902  143.5452 H   0  0  0  0  0  0  0  0  0  0  0  0  # atno 7974 bound_to 7965
  154.6035  140.0640  156.9400 H   0  0  0  0  0  0  0  0  0  0  0  0  # atno 8008 bound_to 7997
  155.2092  140.3321  155.4313 H   0  0  0  0  0  0  0  0  0  0  0  0  # atno 8009 bound_to 7997
  156.2333  140.1851  156.7170 H   0  0  0  0  0  0  0  0  0  0  0  0  # atno 8010 bound_to 7997
  139.8187  144.6741  150.9546 H   0  0  0  0  0  0  0  0  0  0  0  0  # atno 10167 bound_to 10162
  156.0573  130.5799  150.8193 H   0  0  0  0  0  0  0  0  0  0  0  0  # atno 10718 bound_to 10713
  153.4616  135.7016  153.6047 H   0  0  0  0  0  0  0  0  0  0  0  0  # atno 10763 bound_to 10752
  153.4339  135.3796  155.2187 H   0  0  0  0  0  0  0  0  0  0  0  0  # atno 10764 bound_to 10752
  154.8727  135.3957  154.4042 H   0  0  0  0  0  0  0  0  0  0  0  0  # atno 10765 bound_to 10752
  141.0184  134.0160  157.3317 H   0  0  0  0  0  0  0  0  0  0  0  0  # atno 11005 bound_to 11000
  145.4695  139.1505  143.3822 LP  0  0  0  0  0  0  0  0  0  0  0  0  # atno 17320 bound_to 7965
  146.2702  140.4828  142.8817 LP  0  0  0  0  0  0  0  0  0  0  0  0  # atno 17321 bound_to 7965
  140.7814  143.4113  151.0989 LP  0  0  0  0  0  0  0  0  0  0  0  0  # atno 17342 bound_to 10162
  139.7774  143.8404  152.3132 LP  0  0  0  0  0  0  0  0  0  0  0  0  # atno 17343 bound_to 10162
  157.5554  131.0945  150.9636 LP  0  0  0  0  0  0  0  0  0  0  0  0  # atno 17370 bound_to 10713
  156.9886  130.5554  149.5301 LP  0  0  0  0  0  0  0  0  0  0  0  0  # atno 17371 bound_to 10713
  139.9131  135.0193  156.7773 LP  0  0  0  0  0  0  0  0  0  0  0  0  # atno 17394 bound_to 11000
  140.6615  133.9641  155.7807 LP  0  0  0  0  0  0  0  0  0  0  0  0  # atno 17395 bound_to 11000

$$$$
