AV-unprocessed.smi:1794|AV-procd|sdf|7233|dock7
  -GOLD-   22720 8473D 1   1.00000     0.00000
 Structure written by MMmdl.
 55 57  0  0  0  0  0  0  0  0  2 V2000
  146.4105  134.0540  152.8823 C   0  0  0  0  0  0  0  0  0  0  0  0
  145.2063  134.4728  152.0012 C   0  0  0  0  0  0  0  0  0  0  0  0
  143.9832  134.5342  152.9503 C   0  0  0  0  0  0  0  0  0  0  0  0
  145.4517  135.8778  151.3717 C   0  0  0  0  0  0  0  0  0  0  0  0
  146.5799  136.5910  151.9702 N   0  0  0  0  0  0  0  0  0  0  0  0
  146.5236  137.8008  152.5455 C   0  0  0  0  0  0  0  0  0  0  0  0
  145.4823  138.4460  152.6561 O   0  0  0  0  0  0  0  0  0  0  0  0
  147.7423  138.1899  152.9580 N   0  0  0  0  0  0  0  0  0  0  0  0
  148.1726  139.4108  153.5603 C   0  0  0  0  0  0  0  0  0  0  0  0
  147.4099  140.6065  153.5273 C   0  0  0  0  0  0  0  0  0  0  0  0
  147.9311  141.7761  154.1069 C   0  0  0  0  0  0  0  0  0  0  0  0
  149.2031  141.7173  154.6980 C   0  0  0  0  0  0  0  0  0  0  0  0
  149.9404  140.5908  154.7429 N   0  0  0  0  0  0  0  0  0  0  0  0
  149.4457  139.4514  154.2003 C   0  0  0  0  0  0  0  0  0  0  0  0
  150.2535  138.2954  154.2971 N   0  0  0  0  0  0  0  0  0  0  0  0
  151.6760  138.4104  154.6043 C   0  0  0  0  0  0  0  0  0  0  0  0
  152.0972  137.0171  155.0627 C   0  0  0  0  0  0  0  0  0  0  0  0
  150.8560  136.5304  155.8033 C   0  0  0  0  0  0  0  0  0  0  0  0
  149.6987  137.1507  155.0138 C   0  0  0  0  0  0  0  0  0  0  0  0
  144.9763  133.4270  150.9398 N   0  3  0  0  0  0  0  0  0  0  0  0
  143.9744  133.7718  149.8914 C   0  0  0  0  0  0  0  0  0  0  0  0
  143.6950  132.5570  148.9907 C   0  0  0  0  0  0  0  0  0  0  0  0
  144.9064  132.1106  148.3987 O   0  0  0  0  0  0  0  0  0  0  0  0
  145.8458  131.6928  149.3786 C   0  0  0  0  0  0  0  0  0  0  0  0
  146.2018  132.8764  150.2937 C   0  0  0  0  0  0  0  0  0  0  0  0
  146.4802  134.6575  153.7878 H   0  0  0  0  0  0  0  0  0  0  0  0
  147.3628  134.1732  152.3660 H   0  0  0  0  0  0  0  0  0  0  0  0
  146.3281  133.0143  153.2013 H   0  0  0  0  0  0  0  0  0  0  0  0
  144.1913  135.1322  153.8383 H   0  0  0  0  0  0  0  0  0  0  0  0
  143.6976  133.5399  153.2958 H   0  0  0  0  0  0  0  0  0  0  0  0
  143.1131  134.9898  152.4782 H   0  0  0  0  0  0  0  0  0  0  0  0
  145.5941  135.8055  150.2931 H   0  0  0  0  0  0  0  0  0  0  0  0
  144.5797  136.5152  151.5129 H   0  0  0  0  0  0  0  0  0  0  0  0
  147.4783  136.1323  151.9266 H   0  0  0  0  0  0  0  0  0  0  0  0
  148.4848  137.5260  152.7938 H   0  0  0  0  0  0  0  0  0  0  0  0
  146.4385  140.6684  153.0665 H   0  0  0  0  0  0  0  0  0  0  0  0
  147.3700  142.6987  154.0913 H   0  0  0  0  0  0  0  0  0  0  0  0
  149.6403  142.5965  155.1478 H   0  0  0  0  0  0  0  0  0  0  0  0
  152.2432  138.7384  153.7329 H   0  0  0  0  0  0  0  0  0  0  0  0
  151.8480  139.1219  155.4127 H   0  0  0  0  0  0  0  0  0  0  0  0
  152.2901  136.3804  154.1982 H   0  0  0  0  0  0  0  0  0  0  0  0
  152.9918  137.0266  155.6860 H   0  0  0  0  0  0  0  0  0  0  0  0
  150.7934  135.4437  155.8645 H   0  0  0  0  0  0  0  0  0  0  0  0
  150.8592  136.9253  156.8200 H   0  0  0  0  0  0  0  0  0  0  0  0
  148.8750  137.4338  155.6707 H   0  0  0  0  0  0  0  0  0  0  0  0
  149.3190  136.4329  154.2864 H   0  0  0  0  0  0  0  0  0  0  0  0
  143.0278  134.0842  150.3277 H   0  0  0  0  0  0  0  0  0  0  0  0
  144.3361  134.5979  149.2792 H   0  0  0  0  0  0  0  0  0  0  0  0
  143.2320  131.7484  149.5591 H   0  0  0  0  0  0  0  0  0  0  0  0
  142.9962  132.8294  148.1995 H   0  0  0  0  0  0  0  0  0  0  0  0
  145.4433  130.8594  149.9568 H   0  0  0  0  0  0  0  0  0  0  0  0
  146.7405  131.3265  148.8746 H   0  0  0  0  0  0  0  0  0  0  0  0
  146.6993  133.6474  149.7051 H   0  0  0  0  0  0  0  0  0  0  0  0
  146.9195  132.5206  151.0299 H   0  0  0  0  0  0  0  0  0  0  0  0
  144.5728  132.6475  151.4395 H   0  0  0  0  0  0  0  0  0  0  0  0
  1  2  1  0  0  0  0
  1 26  1  0  0  0  0
  1 27  1  0  0  0  0
  1 28  1  0  0  0  0
  2  3  1  0  0  0  0
  2  4  1  0  0  0  0
  2 20  1  0  0  0  0
  3 29  1  0  0  0  0
  3 30  1  0  0  0  0
  3 31  1  0  0  0  0
  4  5  1  0  0  0  0
  4 32  1  0  0  0  0
  4 33  1  0  0  0  0
  5  6  1  0  0  0  0
  5 34  1  0  0  0  0
  6  7  2  0  0  0  0
  6  8  1  0  0  0  0
  8  9  1  0  0  0  0
  8 35  1  0  0  0  0
  9 14  1  0  0  0  0
  9 10  2  0  0  0  0
 10 11  1  0  0  0  0
 10 36  1  0  0  0  0
 11 12  2  0  0  0  0
 11 37  1  0  0  0  0
 12 13  1  0  0  0  0
 12 38  1  0  0  0  0
 13 14  2  0  0  0  0
 14 15  1  0  0  0  0
 15 19  1  0  0  0  0
 15 16  1  0  0  0  0
 16 17  1  0  0  0  0
 16 39  1  0  0  0  0
 16 40  1  0  0  0  0
 17 18  1  0  0  0  0
 17 41  1  0  0  0  0
 17 42  1  0  0  0  0
 18 19  1  0  0  0  0
 18 43  1  0  0  0  0
 18 44  1  0  0  0  0
 19 45  1  0  0  0  0
 19 46  1  0  0  0  0
 20 25  1  0  0  0  0
 20 21  1  0  0  0  0
 20 55  1  0  0  0  0
 21 22  1  0  0  0  0
 21 47  1  0  0  0  0
 21 48  1  0  0  0  0
 22 23  1  0  0  0  0
 22 49  1  0  0  0  0
 22 50  1  0  0  0  0
 23 24  1  0  0  0  0
 24 25  1  0  0  0  0
 24 51  1  0  0  0  0
 24 52  1  0  0  0  0
 25 53  1  0  0  0  0
 25 54  1  0  0  0  0
M  CHG  1  20   1
M  END
> <s_m_source_file>
AV-unprocessed.smi

> <i_m_source_file_index>
1794

> <i_lp_mmshare_version>
43012

> <i_f3d_flags>
0

> <s_epik_input>
W0NIMl0xW0NIMl1PW0NIMl1bQ0gyXU4xQyhbQ0gzXSkoW0NIM10pW0NIMl1bTkhdQyg9TylbTkhdYzJbY0hdW2NIXVtjSF1uYzJOM1tDSDJdW0NIMl1bQ0gyXVtDSDJdMw==

> <s_epik_cmdline>
J2VwaWtfcHl0aG9uJywgJy1waCcsICc3LjAnLCAnLXRuJywgJzgnLCAnLW1hJywgJzIwMCcsICctbWV0YWxfYmluZGluZycsICctaW1hZScsICc8aW5maWxlLm1hZT4nLCAnLW9tYWUnLCAnPG91dGZpbGUubWFlPic=

> <r_lp_tautomer_probability>
1

> <r_epik_Ionization_Penalty>
0.687101

> <r_epik_Ionization_Penalty_Charging>
0.602531

> <r_epik_Ionization_Penalty_Neutral>
0.0845706

> <r_epik_State_Penalty>
0.681137

> <r_epik_Charging_Adjusted_Penalty>
1.28367

> <i_epik_Tot_Q>
1

> <i_epik_Tot_abs_Q>
1

> <r_epik_Metal_State_Penalty>
0.680055

> <b_epik_Metal_Only>
0

> <s_lp_Force_Field>
OPLS_2005

> <r_lp_Energy>
53.5269

> <b_lp_Chiralities_Consistent>
1

> <s_lp_Variant>
AV-unprocessed.smi:1794-2

> <Gold.Version>
5.8.1

> <Gold.Id.Protein>
6NUR|6NUR_protein|mol2

> <Gold.PLP.Fitness>
43.2969

> <Gold.PLP.PLP>
-37.8754

> <Gold.PLP.part.hbond>
-4.7280

> <Gold.PLP.part.metal>
0.0000

> <Gold.PLP.part.buried>
5.2031

> <Gold.PLP.part.nonpolar>
-42.0302

> <Gold.PLP.part.repulsive>
4.0894

> <Gold.PLP.ligand.clash>
1.7575

> <Gold.PLP.ligand.torsion>
1.6484

> <Gold.PLP.Chemscore.Hbond>
2.3554

> <Gold.PLP.Chemscore.CHOScore>
1.0000

> <Gold.PLP.Chemscore.Metal>
0.0000

> <Gold.Chemscore.Hbonds>
donor molecule, donor type, donor heavy atom, donor atom, acceptor molecule, acceptor atom, score
      L1  H     5    34       P1  7948  0.81
      L1  H     8    35       P1  7948  0.90
      P1  H  7989  7998       L1    13  0.68
      L1  C    12    38       P1  8028  1.00

> <Gold.PLP.Chemscore.Internal.Correction>
0.4097

> <Gold.Rescore>
     Score         DG    S(hbond)    S(metal)    S(lipo)     H(rot)  DE(clash)    DE(int)     intcor
     15.87     -20.92       1.91        0.00     112.48       1.60       2.56       2.49       ----

> <Gold.Chemscore.Fitness>
15.8716

> <Gold.Chemscore.DG>
-20.9229

> <Gold.Chemscore.ZeroCoef>
-5.4800

> <Gold.Chemscore.Hbond>
1.9133

> <Gold.Chemscore.Metal>
0.0000

> <Gold.Chemscore.Lipo>
112.4760

> <Gold.Chemscore.Internal_Hbond>
0.0000

> <Gold.Chemscore.DEClash>
2.5590

> <Gold.Chemscore.DEInternal>
2.4923

> <Gold.Chemscore.Rot>
1.6044

> <Gold.Chemscore.Internal.Correction>
   9.000000E+99

> <Gold.Chemscore.Hbonds>
donor molecule, donor type, donor heavy atom, donor atom, acceptor molecule, acceptor atom, score
      L1  H     5    34       P1  7948  0.76
      L1  H     8    35       P1  7948  0.88
      P1  H  7989  7998       L1    13  0.10

> <Gold.Chemscore.Hbond.Weighted>
-6.3905

> <Gold.Chemscore.Metal.Weighted>
-0.0000

> <Gold.Chemscore.Lipo.Weighted>
-13.1597

> <Gold.Chemscore.Internal_Hbond.Weighted>
0.0000

> <Gold.Chemscore.DEClash.Weighted>
2.5590

> <Gold.Chemscore.DEInternal.Weighted>
2.4923

> <Gold.Chemscore.Rot.Weighted>
4.1072

> <Gold.Chemscore.Internal.Correction.Weighted>
   9.000000E+99

> <Gold.Protein.RotatedTorsions>
[ 6907 6896 6895 6894 ] final -122.74 input  -60.11 | X-H torsion
[ 7974 7965 7964 7962 ] final  -73.97 input  175.53 | X-H torsion
[ 8008 7997 7996 7995 ] final   46.82 input   59.86 | X-H torsion
[ 10167 10162 10161 10158 ] final  110.71 input  -65.29 | X-H torsion
[ 10718 10713 10712 10709 ] final  134.97 input   66.30 | X-H torsion
[ 10763 10752 10751 10750 ] final   65.69 input  -60.55 | X-H torsion
[ 11005 11000 10999 10996 ] final   87.61 input  -57.11 | X-H torsion

> <Gold.Protein.ActiveResidues>
 VAL166  LYS551  ARG553  GLY616  TRP617  ASP618  TYR619  PRO620  LYS621  CYS622 
 ASP623  PHE694  ASN695  SER759  ASP760  ASP761  ALA762  ILE779  LEU786  VAL792 
 PHE793  MET794  SER795  GLU796  ALA797  LYS798  CYS799  TRP800  GLU811  SER814 

> <Gold.Protein.RotatedAtoms>
  150.8604  133.7652  159.2994 H   0  0  0  0  0  0  0  0  0  0  0  0  # atno 6907 bound_to 6896
  151.5296  135.1066  159.9909 H   0  0  0  0  0  0  0  0  0  0  0  0  # atno 6908 bound_to 6896
  152.4622  133.7802  159.6902 H   0  0  0  0  0  0  0  0  0  0  0  0  # atno 6909 bound_to 6896
  145.6453  140.9299  143.1014 H   0  0  0  0  0  0  0  0  0  0  0  0  # atno 7974 bound_to 7965
  155.3588  140.3417  155.4240 H   0  0  0  0  0  0  0  0  0  0  0  0  # atno 8008 bound_to 7997
  156.1724  140.1636  156.8457 H   0  0  0  0  0  0  0  0  0  0  0  0  # atno 8009 bound_to 7997
  154.5247  140.0759  156.8219 H   0  0  0  0  0  0  0  0  0  0  0  0  # atno 8010 bound_to 7997
  139.6667  144.7127  151.1764 H   0  0  0  0  0  0  0  0  0  0  0  0  # atno 10167 bound_to 10162
  157.4619  131.1074  150.9910 H   0  0  0  0  0  0  0  0  0  0  0  0  # atno 10718 bound_to 10713
  153.0107  135.5348  154.6706 H   0  0  0  0  0  0  0  0  0  0  0  0  # atno 10763 bound_to 10752
  154.5891  135.2857  155.0656 H   0  0  0  0  0  0  0  0  0  0  0  0  # atno 10764 bound_to 10752
  154.1755  135.6525  153.5073 H   0  0  0  0  0  0  0  0  0  0  0  0  # atno 10765 bound_to 10752
  139.8915  134.8433  156.2884 H   0  0  0  0  0  0  0  0  0  0  0  0  # atno 11005 bound_to 11000
  144.7142  139.8256  143.7404 LP  0  0  0  0  0  0  0  0  0  0  0  0  # atno 17320 bound_to 7965
  146.1248  139.4272  143.0205 LP  0  0  0  0  0  0  0  0  0  0  0  0  # atno 17321 bound_to 7965
  140.7602  143.5908  150.8798 LP  0  0  0  0  0  0  0  0  0  0  0  0  # atno 17342 bound_to 10162
  139.9570  143.6207  152.3013 LP  0  0  0  0  0  0  0  0  0  0  0  0  # atno 17343 bound_to 10162
  157.0704  130.5862  149.5401 LP  0  0  0  0  0  0  0  0  0  0  0  0  # atno 17370 bound_to 10713
  156.0032  130.5115  150.7739 LP  0  0  0  0  0  0  0  0  0  0  0  0  # atno 17371 bound_to 10713
  140.9993  133.7161  156.0934 LP  0  0  0  0  0  0  0  0  0  0  0  0  # atno 17394 bound_to 11000
  140.7520  134.4034  157.5540 LP  0  0  0  0  0  0  0  0  0  0  0  0  # atno 17395 bound_to 11000

$$$$
