#       Name:                AV-unprocessed.smi:2761
#       Creating user name   scv26
#       Creation time:       Fri Mar 27 15:08:34 2020


#       File generated by GOLD software.
#

@<TRIPOS>MOLECULE
AV-unprocessed.smi:2761
    36    37     1
SMALL
NO_CHARGES


@<TRIPOS>ATOM
      1 ****        -0.8041   1.8088  -0.9134 O.2            1 S1                 0.0000
      2 ****        -0.2285   0.7704  -0.5807 C.2            1 S1                 0.0000
      3 ****        -0.8382  -0.4053  -0.3163 N.am           1 S1                 0.0000
      4 ****        -2.2056  -0.6970  -0.3430 C.2            1 S1                 0.0000
      5 ****        -2.4784  -2.0760  -0.0284 C.2            1 S1                 0.0000
      6 ****        -3.7708  -2.4708  -0.0223 C.2            1 S1                 0.0000
      7 ****        -4.8546  -1.5318  -0.3235 C.2            1 S1                 0.0000
      8 ****        -6.0155  -1.9347  -0.3054 O.2            1 S1                 0.0000
      9 ****        -4.5201  -0.2344  -0.6145 N.pl3          1 S1                -1.0000
     10 ****        -3.1293   0.1735  -0.6170 N.2            1 S1                 0.0000
     11 ****         1.3028   0.7485  -0.4639 C.3            1 S1                 0.0000
     12 ****         1.9330   2.1609  -0.4370 C.3            1 S1                 0.0000
     13 ****         3.3421   2.0442  -0.2867 O.3            1 S1                 0.0000
     14 ****         3.6797   1.3708   0.9178 C.3            1 S1                 0.0000
     15 ****         3.0665  -0.0384   0.8895 C.3            1 S1                 0.0000
     16 ****         1.6575   0.0725   0.7403 O.3            1 S1                 0.0000
     17 ****        -0.2199  -1.1622  -0.0650 H              1 S1                 0.0000
     18 ****        -1.7063  -2.7966   0.1985 H              1 S1                 0.0000
     19 ****        -4.0109  -3.4981   0.2088 H              1 S1                 0.0000
     20 ****         1.6905   0.1900  -1.3178 H              1 S1                 0.0000
     21 ****         1.7311   2.6911  -1.3683 H              1 S1                 0.0000
     22 ****         1.5210   2.7645   0.3739 H              1 S1                 0.0000
     23 ****         4.7649   1.3106   1.0008 H              1 S1                 0.0000
     24 ****         3.3209   1.9350   1.7800 H              1 S1                 0.0000
     25 ****         3.4869  -0.6302   0.0752 H              1 S1                 0.0000
     26 ****         3.2859  -0.5660   1.8178 H              1 S1                 0.0000
     27 ****        -1.7998   1.8211  -1.0053 LP             1 S1                 0.0000
     28 ****        -0.2753   2.6387  -1.0912 LP             1 S1                 0.0000
     29 ****        -6.2095  -2.8911  -0.0873 LP             1 S1                 0.0000
     30 ****        -6.7662  -1.3061  -0.5087 LP             1 S1                 0.0000
     31 ****        -5.2363   0.4310  -0.8252 LP             1 S1                 0.0000
     32 ****        -2.8827   1.1193  -0.8284 LP             1 S1                 0.0000
     33 ****         3.7448   2.9594  -0.2719 LP             1 S1                 0.0000
     34 ****         3.7107   1.5303  -1.0613 LP             1 S1                 0.0000
     35 ****         1.2606  -0.8452   0.7250 LP             1 S1                 0.0000
     36 ****         1.2890   0.5821   1.5179 LP             1 S1                 0.0000
@<TRIPOS>BOND
    1    1    2 2     
    2    2    3 am    
    3    2   11 1     
    4    3   17 1     
    5    3    4 1     
    6    4    5 1     
    7    4   10 2     
    8    5    6 2     
    9    5   18 1     
   10    6    7 1     
   11    6   19 1     
   12    7    8 2     
   13    7    9 1     
   14    9   10 1     
   15   11   16 1     
   16   11   12 1     
   17   11   20 1     
   18   12   13 1     
   19   12   21 1     
   20   12   22 1     
   21   13   14 1     
   22   14   15 1     
   23   14   23 1     
   24   14   24 1     
   25   15   16 1     
   26   15   25 1     
   27   15   26 1     
   28    1   27 1     
   29    1   28 1     
   30    8   29 1     
   31    8   30 1     
   32    9   31 1     
   33   10   32 1     
   34   13   33 1     
   35   13   34 1     
   36   16   35 1     
   37   16   36 1     
@<TRIPOS>SUBSTRUCTURE
      1 S1             1
@<TRIPOS>SET
LONE_PAIRS      STATIC     ATOMS    <user>   **** ""
10 27 28 29 30 31 32 33 34 35 36
DONOR_HYDROGENS      STATIC     ATOMS    <user>   **** ""
1 17
ATOM$BLUE        STATIC     ATOMS    COLORGROUP SYSTEM
10 27 28 29 30 31 32 33 34 35 36
ATOM$RED        STATIC     ATOMS    COLORGROUP SYSTEM
1 17
