AV-unprocessed.smi:906|AV-procd|sdf|4100|dock6
  -GOLD-   22720 1593D 1   1.00000     0.00000
 Structure written by MMmdl.
 47 48  0  0  0  0  0  0  0  0  1 V2000
  150.1846  130.4679  154.8562 C   0  0  0  0  0  0  0  0  0  0  0  0
  150.1600  131.9805  154.9210 C   0  0  0  0  0  0  0  0  0  0  0  0
  150.9629  132.6789  155.8473 C   0  0  0  0  0  0  0  0  0  0  0  0
  150.8974  134.0853  155.8646 C   0  0  0  0  0  0  0  0  0  0  0  0
  150.0341  134.7374  154.9602 C   0  0  0  0  0  0  0  0  0  0  0  0
  149.9102  136.2515  154.9497 C   0  0  0  0  0  0  0  0  0  0  0  0
  151.1838  136.9641  155.4350 C   0  0  0  0  0  0  0  0  0  0  0  0
  150.8537  138.1429  156.2307 N   0  0  0  0  0  0  0  0  0  0  0  0
  150.7658  139.4039  155.7756 C   0  0  0  0  0  0  0  0  0  0  0  0
  151.0210  139.7024  154.6082 O   0  0  0  0  0  0  0  0  0  0  0  0
  150.3389  140.3050  156.6950 N   0  0  0  0  0  0  0  0  0  0  0  0
  150.1648  140.0806  158.1374 C   0  0  0  0  0  0  0  0  0  0  0  0
  151.2583  140.8585  158.8941 C   0  0  0  0  0  0  0  0  0  0  0  0
  151.1653  142.2918  158.5825 N   0  0  0  0  0  0  0  0  0  0  0  0
  152.0875  143.1567  159.3386 C   0  0  2  0  0  0  0  0  0  0  0  0
  152.6182  142.5161  160.6404 C   0  0  0  0  0  0  0  0  0  0  0  0
  151.4940  144.5659  159.5767 C   0  0  0  0  0  0  0  0  0  0  0  0
  150.2421  144.4696  160.0259 F   0  0  0  0  0  0  0  0  0  0  0  0
  152.2129  145.2767  160.4455 F   0  0  0  0  0  0  0  0  0  0  0  0
  151.4670  145.2284  158.4202 F   0  0  0  0  0  0  0  0  0  0  0  0
  151.2686  142.5225  157.1358 C   0  0  0  0  0  0  0  0  0  0  0  0
  150.1784  141.7292  156.3902 C   0  0  0  0  0  0  0  0  0  0  0  0
  149.2739  133.9453  154.0743 C   0  0  0  0  0  0  0  0  0  0  0  0
  149.3308  132.5963  154.0498 N   0  0  0  0  0  0  0  0  0  0  0  0
  150.9300  130.0549  155.5368 H   0  0  0  0  0  0  0  0  0  0  0  0
  150.4250  130.1335  153.8466 H   0  0  0  0  0  0  0  0  0  0  0  0
  149.2107  130.0616  155.1304 H   0  0  0  0  0  0  0  0  0  0  0  0
  151.6122  132.1523  156.5311 H   0  0  0  0  0  0  0  0  0  0  0  0
  151.4945  134.6499  156.5655 H   0  0  0  0  0  0  0  0  0  0  0  0
  149.6677  136.5823  153.9390 H   0  0  0  0  0  0  0  0  0  0  0  0
  149.0645  136.5406  155.5745 H   0  0  0  0  0  0  0  0  0  0  0  0
  151.7871  136.2859  156.0390 H   0  0  0  0  0  0  0  0  0  0  0  0
  151.7911  137.2349  154.5698 H   0  0  0  0  0  0  0  0  0  0  0  0
  150.6224  137.9813  157.1999 H   0  0  0  0  0  0  0  0  0  0  0  0
  149.1769  140.4318  158.4396 H   0  0  0  0  0  0  0  0  0  0  0  0
  150.1995  139.0313  158.4298 H   0  0  0  0  0  0  0  0  0  0  0  0
  151.1310  140.6902  159.9616 H   0  0  0  0  0  0  0  0  0  0  0  0
  152.2392  140.4698  158.6185 H   0  0  0  0  0  0  0  0  0  0  0  0
  152.9487  143.3149  158.6878 H   0  0  0  0  0  0  0  0  0  0  0  0
  153.3856  143.1459  161.0904 H   0  0  0  0  0  0  0  0  0  0  0  0
  153.0715  141.5411  160.4647 H   0  0  0  0  0  0  0  0  0  0  0  0
  151.8313  142.3922  161.3843 H   0  0  0  0  0  0  0  0  0  0  0  0
  151.1485  143.5851  156.9218 H   0  0  0  0  0  0  0  0  0  0  0  0
  152.2529  142.2294  156.7700 H   0  0  0  0  0  0  0  0  0  0  0  0
  150.2362  141.9400  155.3216 H   0  0  0  0  0  0  0  0  0  0  0  0
  149.1868  142.0599  156.7035 H   0  0  0  0  0  0  0  0  0  0  0  0
  148.5967  134.4058  153.3698 H   0  0  0  0  0  0  0  0  0  0  0  0
  1  2  1  0  0  0  0
  1 25  1  0  0  0  0
  1 26  1  0  0  0  0
  1 27  1  0  0  0  0
  2 24  1  0  0  0  0
  2  3  2  0  0  0  0
  3  4  1  0  0  0  0
  3 28  1  0  0  0  0
  4  5  2  0  0  0  0
  4 29  1  0  0  0  0
  5  6  1  0  0  0  0
  5 23  1  0  0  0  0
  6  7  1  0  0  0  0
  6 30  1  0  0  0  0
  6 31  1  0  0  0  0
  7  8  1  0  0  0  0
  7 32  1  0  0  0  0
  7 33  1  0  0  0  0
  8  9  1  0  0  0  0
  8 34  1  0  0  0  0
  9 10  2  0  0  0  0
  9 11  1  0  0  0  0
 11 22  1  0  0  0  0
 11 12  1  0  0  0  0
 12 13  1  0  0  0  0
 12 35  1  0  0  0  0
 12 36  1  0  0  0  0
 13 14  1  0  0  0  0
 13 37  1  0  0  0  0
 13 38  1  0  0  0  0
 14 15  1  0  0  0  0
 14 21  1  0  0  0  0
 15 16  1  0  0  0  0
 15 17  1  0  0  0  0
 15 39  1  0  0  0  0
 16 40  1  0  0  0  0
 16 41  1  0  0  0  0
 16 42  1  0  0  0  0
 17 18  1  0  0  0  0
 17 19  1  0  0  0  0
 17 20  1  0  0  0  0
 21 22  1  0  0  0  0
 21 43  1  0  0  0  0
 21 44  1  0  0  0  0
 22 45  1  0  0  0  0
 22 46  1  0  0  0  0
 23 24  2  0  0  0  0
 23 47  1  0  0  0  0
M  END
> <s_m_source_file>
AV-unprocessed.smi

> <i_m_source_file_index>
906

> <i_lp_mmshare_version>
43012

> <i_f3d_flags>
0

> <s_epik_input>
W0NIM11jMVtjSF1bY0hdYyhbY0hdbjEpW0NIMl1bQ0gyXVtOSF1DKD1PKU4yW0NIMl1bQ0gyXU4oW0NASF0oW0NIM10pQyhGKShGKUYpW0NIMl1bQ0gyXTI=

> <s_epik_cmdline>
J2VwaWtfcHl0aG9uJywgJy1waCcsICc3LjAnLCAnLXRuJywgJzgnLCAnLW1hJywgJzIwMCcsICctbWV0YWxfYmluZGluZycsICctaW1hZScsICc8aW5maWxlLm1hZT4nLCAnLW9tYWUnLCAnPG91dGZpbGUubWFlPic=

> <r_epik_Ionization_Penalty>
0.0782886

> <r_epik_Ionization_Penalty_Charging>
0

> <r_epik_Ionization_Penalty_Neutral>
0.0782886

> <r_epik_State_Penalty>
0.0661423

> <r_epik_Charging_Adjusted_Penalty>
0.0661423

> <i_epik_Tot_Q>
0

> <i_epik_Tot_abs_Q>
0

> <r_epik_Metal_State_Penalty>
0.060629

> <b_epik_Metal_Only>
0

> <s_lp_Force_Field>
OPLS_2005

> <r_lp_Energy>
48.1538

> <b_lp_Chiralities_Consistent>
1

> <s_lp_Variant>
AV-unprocessed.smi:906-1

> <Gold.Version>
5.8.1

> <Gold.Id.Protein>
6NUR|6NUR_protein|mol2

> <Gold.PLP.Fitness>
49.6639

> <Gold.PLP.PLP>
-47.0929

> <Gold.PLP.part.hbond>
-1.0000

> <Gold.PLP.part.metal>
0.0000

> <Gold.PLP.part.buried>
-7.4863

> <Gold.PLP.part.nonpolar>
-37.8764

> <Gold.PLP.part.repulsive>
0.2290

> <Gold.PLP.ligand.clash>
0.0000

> <Gold.PLP.ligand.torsion>
2.0256

> <Gold.PLP.Chemscore.Hbond>
1.0000

> <Gold.PLP.Chemscore.CHOScore>
1.0000

> <Gold.PLP.Chemscore.Metal>
0.0000

> <Gold.Chemscore.Hbonds>
donor molecule, donor type, donor heavy atom, donor atom, acceptor molecule, acceptor atom, score
      P1  H  7989  7998       L1    10  1.00
      L1  C    23    47       P1  7948  0.99

> <Gold.PLP.Chemscore.Internal.Correction>
0.6222

> <Gold.Rescore>
     Score         DG    S(hbond)    S(metal)    S(lipo)     H(rot)  DE(clash)    DE(int)     intcor
     14.25     -16.67       1.00        0.00     101.83       1.58       0.07       2.34       ----

> <Gold.Chemscore.Fitness>
14.2549

> <Gold.Chemscore.DG>
-16.6727

> <Gold.Chemscore.ZeroCoef>
-5.4800

> <Gold.Chemscore.Hbond>
0.9983

> <Gold.Chemscore.Metal>
0.0000

> <Gold.Chemscore.Lipo>
101.8276

> <Gold.Chemscore.Internal_Hbond>
0.0000

> <Gold.Chemscore.DEClash>
0.0729

> <Gold.Chemscore.DEInternal>
2.3449

> <Gold.Chemscore.Rot>
1.5841

> <Gold.Chemscore.Internal.Correction>
   9.000000E+99

> <Gold.Chemscore.Hbonds>
donor molecule, donor type, donor heavy atom, donor atom, acceptor molecule, acceptor atom, score
      P1  H  7989  7998       L1    10  1.00

> <Gold.Chemscore.Hbond.Weighted>
-3.3342

> <Gold.Chemscore.Metal.Weighted>
-0.0000

> <Gold.Chemscore.Lipo.Weighted>
-11.9138

> <Gold.Chemscore.Internal_Hbond.Weighted>
0.0000

> <Gold.Chemscore.DEClash.Weighted>
0.0729

> <Gold.Chemscore.DEInternal.Weighted>
2.3449

> <Gold.Chemscore.Rot.Weighted>
4.0554

> <Gold.Chemscore.Internal.Correction.Weighted>
   9.000000E+99

> <Gold.Protein.RotatedTorsions>
[ 6907 6896 6895 6894 ] final   53.49 input  -60.11 | X-H torsion
[ 7974 7965 7964 7962 ] final  -76.94 input  175.53 | X-H torsion
[ 8008 7997 7996 7995 ] final  141.90 input   59.86 | X-H torsion
[ 10167 10162 10161 10158 ] final   61.18 input  -65.29 | X-H torsion
[ 10718 10713 10712 10709 ] final   80.32 input   66.30 | X-H torsion
[ 10763 10752 10751 10750 ] final   40.21 input  -60.55 | X-H torsion
[ 11005 11000 10999 10996 ] final  -50.32 input  -57.11 | X-H torsion

> <Gold.Protein.ActiveResidues>
 VAL166  LYS551  ARG553  GLY616  TRP617  ASP618  TYR619  PRO620  LYS621  CYS622 
 ASP623  PHE694  ASN695  SER759  ASP760  ASP761  ALA762  ILE779  LEU786  VAL792 
 PHE793  MET794  SER795  GLU796  ALA797  LYS798  CYS799  TRP800  GLU811  SER814 

> <Gold.Protein.RotatedAtoms>
  152.3343  134.7219  160.0280 H   0  0  0  0  0  0  0  0  0  0  0  0  # atno 6907 bound_to 6896
  151.7625  133.3329  159.3430 H   0  0  0  0  0  0  0  0  0  0  0  0  # atno 6908 bound_to 6896
  150.7441  134.6024  159.6088 H   0  0  0  0  0  0  0  0  0  0  0  0  # atno 6909 bound_to 6896
  145.6062  140.9397  143.1214 H   0  0  0  0  0  0  0  0  0  0  0  0  # atno 7974 bound_to 7965
  156.2958  140.2303  156.4640 H   0  0  0  0  0  0  0  0  0  0  0  0  # atno 8008 bound_to 7997
  154.7993  140.0449  157.1282 H   0  0  0  0  0  0  0  0  0  0  0  0  # atno 8009 bound_to 7997
  154.9552  140.3047  155.5060 H   0  0  0  0  0  0  0  0  0  0  0  0  # atno 8010 bound_to 7997
  140.1575  144.4402  150.6726 H   0  0  0  0  0  0  0  0  0  0  0  0  # atno 10167 bound_to 10162
  157.6803  130.9954  150.2062 H   0  0  0  0  0  0  0  0  0  0  0  0  # atno 10718 bound_to 10713
  152.9943  135.6198  154.2590 H   0  0  0  0  0  0  0  0  0  0  0  0  # atno 10763 bound_to 10752
  154.2327  135.2791  155.2886 H   0  0  0  0  0  0  0  0  0  0  0  0  # atno 10764 bound_to 10752
  154.5436  135.5754  153.6919 H   0  0  0  0  0  0  0  0  0  0  0  0  # atno 10765 bound_to 10752
  141.0809  133.6653  156.3713 H   0  0  0  0  0  0  0  0  0  0  0  0  # atno 11005 bound_to 11000
  144.7289  139.7788  143.7354 LP  0  0  0  0  0  0  0  0  0  0  0  0  # atno 17320 bound_to 7965
  146.1539  139.4630  143.0031 LP  0  0  0  0  0  0  0  0  0  0  0  0  # atno 17321 bound_to 7965
  140.6664  143.2269  151.5733 LP  0  0  0  0  0  0  0  0  0  0  0  0  # atno 17342 bound_to 10162
  139.5396  144.2683  152.1324 LP  0  0  0  0  0  0  0  0  0  0  0  0  # atno 17343 bound_to 10162
  156.2742  130.3725  149.8000 LP  0  0  0  0  0  0  0  0  0  0  0  0  # atno 17370 bound_to 10713
  156.5708  130.8424  151.3356 LP  0  0  0  0  0  0  0  0  0  0  0  0  # atno 17371 bound_to 10713
  140.5470  134.6064  157.5397 LP  0  0  0  0  0  0  0  0  0  0  0  0  # atno 17394 bound_to 11000
  139.9623  134.7432  156.0211 LP  0  0  0  0  0  0  0  0  0  0  0  0  # atno 17395 bound_to 11000

$$$$
