AV-unprocessed.smi:674|AV-procd|sdf|3301|dock2
  -GOLD-   22720 0263D 1   1.00000     0.00000
 Structure written by MMmdl.
 47 48  0  0  0  0  0  0  0  0  1 V2000
  146.4920  129.8802  152.3009 C   0  0  0  0  0  0  0  0  0  0  0  0
  147.6985  129.5552  153.1891 C   0  0  0  0  0  0  0  0  0  0  0  0
  148.3944  130.7979  153.6681 C   0  0  0  0  0  0  0  0  0  0  0  0
  148.1266  132.1479  153.2990 C   0  0  0  0  0  0  0  0  0  0  0  0
  149.0568  132.8483  154.0173 C   0  0  0  0  0  0  0  0  0  0  0  0
  149.2777  134.1896  154.0442 N   0  0  0  0  0  0  0  0  0  0  0  0
  149.5340  134.9784  155.1025 C   0  0  0  0  0  0  0  0  0  0  0  0
  149.6552  134.5968  156.2669 O   0  0  0  0  0  0  0  0  0  0  0  0
  149.6528  136.2604  154.7322 N   0  0  0  0  0  0  0  0  0  0  0  0
  149.9337  137.3587  155.6504 C   0  0  2  0  0  0  0  0  0  0  0  0
  149.0621  138.5846  155.3885 C   0  0  0  0  0  0  0  0  0  0  0  0
  150.2960  139.4288  155.7569 C   0  0  2  0  0  0  0  0  0  0  0  0
  150.4313  139.9090  157.2105 C   0  0  0  0  0  0  0  0  0  0  0  0
  150.4847  140.5254  154.8612 O   0  0  0  0  0  0  0  0  0  0  0  0
  149.3906  141.4239  154.7265 C   0  0  0  0  0  0  0  0  0  0  0  0
  151.1652  138.2212  155.2750 C   0  0  0  0  0  0  0  0  0  0  0  0
  152.4468  137.9323  156.0631 C   0  0  0  0  0  0  0  0  0  0  0  0
  151.5788  138.2305  153.7894 C   0  0  0  0  0  0  0  0  0  0  0  0
  149.8122  131.9595  154.7524 N   0  0  0  0  0  0  0  0  0  0  0  0
  150.9173  132.1956  155.6612 C   0  0  0  0  0  0  0  0  0  0  0  0
  149.3969  130.6937  154.5337 N   0  0  0  0  0  0  0  0  0  0  0  0
  145.9999  128.9677  151.9645 H   0  0  0  0  0  0  0  0  0  0  0  0
  146.7935  130.4409  151.4154 H   0  0  0  0  0  0  0  0  0  0  0  0
  145.7557  130.4769  152.8404 H   0  0  0  0  0  0  0  0  0  0  0  0
  147.3680  128.9635  154.0433 H   0  0  0  0  0  0  0  0  0  0  0  0
  148.3965  128.9246  152.6373 H   0  0  0  0  0  0  0  0  0  0  0  0
  147.3778  132.5165  152.6143 H   0  0  0  0  0  0  0  0  0  0  0  0
  149.2377  134.6497  153.1468 H   0  0  0  0  0  0  0  0  0  0  0  0
  149.5459  136.4933  153.7559 H   0  0  0  0  0  0  0  0  0  0  0  0
  149.9183  137.0706  156.7043 H   0  0  0  0  0  0  0  0  0  0  0  0
  148.7526  138.6898  154.3469 H   0  0  0  0  0  0  0  0  0  0  0  0
  148.2163  138.6903  156.0683 H   0  0  0  0  0  0  0  0  0  0  0  0
  150.4331  139.0774  157.9150 H   0  0  0  0  0  0  0  0  0  0  0  0
  149.6047  140.5554  157.5042 H   0  0  0  0  0  0  0  0  0  0  0  0
  151.3568  140.4652  157.3601 H   0  0  0  0  0  0  0  0  0  0  0  0
  149.6208  142.1508  153.9480 H   0  0  0  0  0  0  0  0  0  0  0  0
  149.2059  141.9814  155.6444 H   0  0  0  0  0  0  0  0  0  0  0  0
  148.4734  140.9109  154.4366 H   0  0  0  0  0  0  0  0  0  0  0  0
  153.1625  138.7500  155.9733 H   0  0  0  0  0  0  0  0  0  0  0  0
  152.9373  137.0242  155.7108 H   0  0  0  0  0  0  0  0  0  0  0  0
  152.2502  137.7868  157.1250 H   0  0  0  0  0  0  0  0  0  0  0  0
  152.3252  138.9999  153.5889 H   0  0  0  0  0  0  0  0  0  0  0  0
  150.7363  138.4244  153.1254 H   0  0  0  0  0  0  0  0  0  0  0  0
  152.0106  137.2764  153.4855 H   0  0  0  0  0  0  0  0  0  0  0  0
  151.0793  133.2641  155.8036 H   0  0  0  0  0  0  0  0  0  0  0  0
  151.8264  131.7515  155.2548 H   0  0  0  0  0  0  0  0  0  0  0  0
  150.7009  131.7421  156.6288 H   0  0  0  0  0  0  0  0  0  0  0  0
  1  2  1  0  0  0  0
  1 22  1  0  0  0  0
  1 23  1  0  0  0  0
  1 24  1  0  0  0  0
  2  3  1  0  0  0  0
  2 25  1  0  0  0  0
  2 26  1  0  0  0  0
  3 21  2  0  0  0  0
  3  4  1  0  0  0  0
  4  5  2  0  0  0  0
  4 27  1  0  0  0  0
  5  6  1  0  0  0  0
  5 19  1  0  0  0  0
  6  7  1  0  0  0  0
  6 28  1  0  0  0  0
  7  8  2  0  0  0  0
  7  9  1  0  0  0  0
  9 10  1  0  0  0  0
  9 29  1  0  0  0  0
 10 16  1  0  0  0  0
 10 11  1  0  0  0  0
 10 30  1  0  0  0  0
 11 12  1  0  0  0  0
 11 31  1  0  0  0  0
 11 32  1  0  0  0  0
 12 13  1  0  0  0  0
 12 14  1  0  0  0  0
 12 16  1  0  0  0  0
 13 33  1  0  0  0  0
 13 34  1  0  0  0  0
 13 35  1  0  0  0  0
 14 15  1  0  0  0  0
 15 36  1  0  0  0  0
 15 37  1  0  0  0  0
 15 38  1  0  0  0  0
 16 17  1  0  0  0  0
 16 18  1  0  0  0  0
 17 39  1  0  0  0  0
 17 40  1  0  0  0  0
 17 41  1  0  0  0  0
 18 42  1  0  0  0  0
 18 43  1  0  0  0  0
 18 44  1  0  0  0  0
 19 20  1  0  0  0  0
 19 21  1  0  0  0  0
 20 45  1  0  0  0  0
 20 46  1  0  0  0  0
 20 47  1  0  0  0  0
M  END
> <s_m_source_file>
AV-unprocessed.smi

> <i_m_source_file_index>
674

> <i_lp_mmshare_version>
43012

> <i_f3d_flags>
0

> <s_epik_input>
W0NIM11bQ0gyXWMxW2NIXWMobihuMSlbQ0gzXSlbTkhdQyg9TylbTkhdW0NAQEhdKEMyKFtDSDNdKVtDSDNdKVtDSDJdW0NAQF0yKFtDSDNdKU9bQ0gzXQ==

> <s_epik_cmdline>
J2VwaWtfcHl0aG9uJywgJy1waCcsICc3LjAnLCAnLXRuJywgJzgnLCAnLW1hJywgJzIwMCcsICctbWV0YWxfYmluZGluZycsICctaW1hZScsICc8aW5maWxlLm1hZT4nLCAnLW9tYWUnLCAnPG91dGZpbGUubWFlPic=

> <r_lp_tautomer_probability>
1

> <r_epik_Ionization_Penalty>
0.000101626

> <r_epik_Ionization_Penalty_Charging>
0

> <r_epik_Ionization_Penalty_Neutral>
0.000101626

> <r_epik_State_Penalty>
-0

> <r_epik_Charging_Adjusted_Penalty>
0

> <i_epik_Tot_Q>
0

> <i_epik_Tot_abs_Q>
0

> <r_epik_Metal_State_Penalty>
-0

> <b_epik_Metal_Only>
0

> <s_lp_Force_Field>
OPLS_2005

> <r_lp_Energy>
22.7641

> <b_lp_Chiralities_Consistent>
1

> <s_lp_Variant>
AV-unprocessed.smi:674-3

> <Gold.Version>
5.8.1

> <Gold.Id.Protein>
6NUR|6NUR_protein|mol2

> <Gold.PLP.Fitness>
37.5902

> <Gold.PLP.PLP>
-31.3417

> <Gold.PLP.part.hbond>
-3.0000

> <Gold.PLP.part.metal>
0.0000

> <Gold.PLP.part.buried>
-4.8038

> <Gold.PLP.part.nonpolar>
-24.1838

> <Gold.PLP.part.repulsive>
0.1833

> <Gold.PLP.ligand.clash>
0.0000

> <Gold.PLP.ligand.torsion>
0.7387

> <Gold.PLP.Chemscore.Hbond>
2.4500

> <Gold.PLP.Chemscore.CHOScore>
0.0000

> <Gold.PLP.Chemscore.Metal>
0.0000

> <Gold.Chemscore.Hbonds>
donor molecule, donor type, donor heavy atom, donor atom, acceptor molecule, acceptor atom, score
      L1  H     6    28       P1  7948  0.40
      L1  H     9    29       P1  7948  1.00
      P1  H  7989  7998       L1    14  0.99

> <Gold.PLP.Chemscore.Internal.Correction>
0.3760

> <Gold.Rescore>
     Score         DG    S(hbond)    S(metal)    S(lipo)     H(rot)  DE(clash)    DE(int)     intcor
     14.36     -17.64       2.15        0.00      72.38       1.37       1.35       1.93       ----

> <Gold.Chemscore.Fitness>
14.3572

> <Gold.Chemscore.DG>
-17.6413

> <Gold.Chemscore.ZeroCoef>
-5.4800

> <Gold.Chemscore.Hbond>
2.1523

> <Gold.Chemscore.Metal>
0.0000

> <Gold.Chemscore.Lipo>
72.3824

> <Gold.Chemscore.Internal_Hbond>
0.0000

> <Gold.Chemscore.DEClash>
1.3518

> <Gold.Chemscore.DEInternal>
1.9322

> <Gold.Chemscore.Rot>
1.3658

> <Gold.Chemscore.Internal.Correction>
   9.000000E+99

> <Gold.Chemscore.Hbonds>
donor molecule, donor type, donor heavy atom, donor atom, acceptor molecule, acceptor atom, score
      L1  H     6    28       P1  7948  0.01
      L1  H     9    29       P1  7948  0.72
      P1  H  7989  7998       L1    14  0.57

> <Gold.Chemscore.Hbond.Weighted>
-7.1888

> <Gold.Chemscore.Metal.Weighted>
-0.0000

> <Gold.Chemscore.Lipo.Weighted>
-8.4687

> <Gold.Chemscore.Internal_Hbond.Weighted>
0.0000

> <Gold.Chemscore.DEClash.Weighted>
1.3518

> <Gold.Chemscore.DEInternal.Weighted>
1.9322

> <Gold.Chemscore.Rot.Weighted>
3.4963

> <Gold.Chemscore.Internal.Correction.Weighted>
   9.000000E+99

> <Gold.Protein.RotatedTorsions>
[ 6907 6896 6895 6894 ] final  -34.73 input  -60.11 | X-H torsion
[ 7974 7965 7964 7962 ] final   45.01 input  175.53 | X-H torsion
[ 8008 7997 7996 7995 ] final  168.38 input   59.86 | X-H torsion
[ 10167 10162 10161 10158 ] final   32.42 input  -65.29 | X-H torsion
[ 10718 10713 10712 10709 ] final   62.99 input   66.30 | X-H torsion
[ 10763 10752 10751 10750 ] final  121.43 input  -60.55 | X-H torsion
[ 11005 11000 10999 10996 ] final  -87.48 input  -57.11 | X-H torsion

> <Gold.Protein.ActiveResidues>
 VAL166  LYS551  ARG553  GLY616  TRP617  ASP618  TYR619  PRO620  LYS621  CYS622 
 ASP623  PHE694  ASN695  SER759  ASP760  ASP761  ALA762  ILE779  LEU786  VAL792 
 PHE793  MET794  SER795  GLU796  ALA797  LYS798  CYS799  TRP800  GLU811  SER814 

> <Gold.Protein.RotatedAtoms>
  151.0489  134.9659  159.8200 H   0  0  0  0  0  0  0  0  0  0  0  0  # atno 6907 bound_to 6896
  152.5377  134.2563  159.8928 H   0  0  0  0  0  0  0  0  0  0  0  0  # atno 6908 bound_to 6896
  151.2578  133.4274  159.2648 H   0  0  0  0  0  0  0  0  0  0  0  0  # atno 6909 bound_to 6896
  146.0518  139.5011  142.9714 H   0  0  0  0  0  0  0  0  0  0  0  0  # atno 7974 bound_to 7965
  156.1552  140.1592  156.8705 H   0  0  0  0  0  0  0  0  0  0  0  0  # atno 8008 bound_to 7997
  154.5108  140.0801  156.8022 H   0  0  0  0  0  0  0  0  0  0  0  0  # atno 8009 bound_to 7997
  155.3818  140.3405  155.4249 H   0  0  0  0  0  0  0  0  0  0  0  0  # atno 8010 bound_to 7997
  140.4500  144.1062  150.6190 H   0  0  0  0  0  0  0  0  0  0  0  0  # atno 10167 bound_to 10162
  157.5940  130.9080  149.9658 H   0  0  0  0  0  0  0  0  0  0  0  0  # atno 10718 bound_to 10713
  153.6140  135.3425  155.2988 H   0  0  0  0  0  0  0  0  0  0  0  0  # atno 10763 bound_to 10752
  154.8613  135.4257  154.2279 H   0  0  0  0  0  0  0  0  0  0  0  0  # atno 10764 bound_to 10752
  153.3136  135.7033  153.7165 H   0  0  0  0  0  0  0  0  0  0  0  0  # atno 10765 bound_to 10752
  141.1616  133.7514  156.9313 H   0  0  0  0  0  0  0  0  0  0  0  0  # atno 11005 bound_to 11000
  145.6712  141.0216  143.1657 LP  0  0  0  0  0  0  0  0  0  0  0  0  # atno 17320 bound_to 7965
  144.7126  139.8312  143.7409 LP  0  0  0  0  0  0  0  0  0  0  0  0  # atno 17321 bound_to 7965
  140.4218  143.2608  151.9705 LP  0  0  0  0  0  0  0  0  0  0  0  0  # atno 17342 bound_to 10162
  139.4796  144.5824  151.7911 LP  0  0  0  0  0  0  0  0  0  0  0  0  # atno 17343 bound_to 10162
  156.0999  130.3656  150.0237 LP  0  0  0  0  0  0  0  0  0  0  0  0  # atno 17370 bound_to 10713
  156.8355  130.9407  151.3635 LP  0  0  0  0  0  0  0  0  0  0  0  0  # atno 17371 bound_to 10713
  140.1384  134.9309  157.2434 LP  0  0  0  0  0  0  0  0  0  0  0  0  # atno 17394 bound_to 11000
  140.2866  134.3288  155.7327 LP  0  0  0  0  0  0  0  0  0  0  0  0  # atno 17395 bound_to 11000

$$$$
