AV-unprocessed.smi:2829|AV-procd|sdf|10900|dock1
  -GOLD-   2272015343D 1   1.00000     0.00000
 Structure written by MMmdl.
 50 53  0  0  0  0  0  0  0  0  1 V2000
  150.4855  129.7465  157.0522 C   0  0  0  0  0  0  0  0  0  0  0  0
  150.9411  129.9991  155.6000 C   0  0  0  0  0  0  0  0  0  0  0  0
  152.4719  129.8372  155.4947 C   0  0  0  0  0  0  0  0  0  0  0  0
  150.2965  128.9081  154.7150 C   0  0  0  0  0  0  0  0  0  0  0  0
  150.5379  131.4209  155.1694 C   0  0  0  0  0  0  0  0  0  0  0  0
  149.6862  131.6855  154.0733 C   0  0  0  0  0  0  0  0  0  0  0  0
  149.3895  133.0282  153.7846 C   0  0  0  0  0  0  0  0  0  0  0  0
  149.9537  134.0307  154.5985 C   0  0  0  0  0  0  0  0  0  0  0  0
  149.6012  135.3606  154.2543 N   0  0  0  0  0  0  0  0  0  0  0  0
  149.5579  136.4463  155.0514 C   0  0  0  0  0  0  0  0  0  0  0  0
  149.9215  136.4696  156.2257 O   0  0  0  0  0  0  0  0  0  0  0  0
  149.0748  137.5469  154.4485 N   0  0  0  0  0  0  0  0  0  0  0  0
  148.9004  138.8766  155.0349 C   0  0  2  0  0  0  0  0  0  0  0  0
  148.4280  139.9156  154.0002 C   0  0  1  0  0  0  0  0  0  0  0  0
  147.0831  140.5730  154.1566 C   0  0  0  0  0  0  0  0  0  0  0  0
  147.4289  141.9031  154.8321 C   0  0  0  0  0  0  0  0  0  0  0  0
  148.6891  141.6724  155.4575 O   0  0  0  0  0  0  0  0  0  0  0  0
  149.4670  140.8745  154.5703 C   0  0  1  0  0  0  0  0  0  0  0  0
  150.2015  139.6903  155.2105 C   0  0  0  0  0  0  0  0  0  0  0  0
  151.5612  139.2384  154.6437 C   0  0  0  0  0  0  0  0  0  0  0  0
  152.0209  138.9412  156.0733 C   0  0  0  0  0  0  0  0  0  0  0  0
  150.8791  139.8266  156.5816 C   0  0  0  0  0  0  0  0  0  0  0  0
  150.7656  133.7050  155.6351 N   0  0  0  0  0  0  0  0  0  0  0  0
  151.0514  132.4300  155.9149 N   0  0  0  0  0  0  0  0  0  0  0  0
  150.7414  128.7384  157.3797 H   0  0  0  0  0  0  0  0  0  0  0  0
  149.4056  129.8609  157.1533 H   0  0  0  0  0  0  0  0  0  0  0  0
  150.9560  130.4393  157.7510 H   0  0  0  0  0  0  0  0  0  0  0  0
  152.9989  130.5310  156.1506 H   0  0  0  0  0  0  0  0  0  0  0  0
  152.8196  130.0191  154.4770 H   0  0  0  0  0  0  0  0  0  0  0  0
  152.7858  128.8311  155.7745 H   0  0  0  0  0  0  0  0  0  0  0  0
  150.5962  127.9101  155.0375 H   0  0  0  0  0  0  0  0  0  0  0  0
  150.5945  129.0079  153.6706 H   0  0  0  0  0  0  0  0  0  0  0  0
  149.2074  128.9426  154.7608 H   0  0  0  0  0  0  0  0  0  0  0  0
  149.2606  130.9057  153.4610 H   0  0  0  0  0  0  0  0  0  0  0  0
  148.7400  133.2787  152.9583 H   0  0  0  0  0  0  0  0  0  0  0  0
  149.2936  135.4963  153.3027 H   0  0  0  0  0  0  0  0  0  0  0  0
  148.8066  137.4520  153.4794 H   0  0  0  0  0  0  0  0  0  0  0  0
  148.2777  138.8967  155.9319 H   0  0  0  0  0  0  0  0  0  0  0  0
  148.6772  139.6293  152.9765 H   0  0  0  0  0  0  0  0  0  0  0  0
  146.5772  140.7268  153.2031 H   0  0  0  0  0  0  0  0  0  0  0  0
  146.4278  139.9748  154.7905 H   0  0  0  0  0  0  0  0  0  0  0  0
  147.5425  142.6928  154.0878 H   0  0  0  0  0  0  0  0  0  0  0  0
  146.6745  142.2189  155.5528 H   0  0  0  0  0  0  0  0  0  0  0  0
  150.0161  141.4421  153.8176 H   0  0  0  0  0  0  0  0  0  0  0  0
  151.5432  138.3711  153.9840 H   0  0  0  0  0  0  0  0  0  0  0  0
  152.1206  140.0607  154.1953 H   0  0  0  0  0  0  0  0  0  0  0  0
  151.9016  137.8929  156.3476 H   0  0  0  0  0  0  0  0  0  0  0  0
  153.0193  139.3076  156.3130 H   0  0  0  0  0  0  0  0  0  0  0  0
  151.2006  140.8478  156.7917 H   0  0  0  0  0  0  0  0  0  0  0  0
  150.3154  139.4030  157.4133 H   0  0  0  0  0  0  0  0  0  0  0  0
  1  2  1  0  0  0  0
  1 25  1  0  0  0  0
  1 26  1  0  0  0  0
  1 27  1  0  0  0  0
  2  3  1  0  0  0  0
  2  4  1  0  0  0  0
  2  5  1  0  0  0  0
  3 28  1  0  0  0  0
  3 29  1  0  0  0  0
  3 30  1  0  0  0  0
  4 31  1  0  0  0  0
  4 32  1  0  0  0  0
  4 33  1  0  0  0  0
  5 24  1  0  0  0  0
  5  6  2  0  0  0  0
  6  7  1  0  0  0  0
  6 34  1  0  0  0  0
  7  8  2  0  0  0  0
  7 35  1  0  0  0  0
  8  9  1  0  0  0  0
  8 23  1  0  0  0  0
  9 10  1  0  0  0  0
  9 36  1  0  0  0  0
 10 11  2  0  0  0  0
 10 12  1  0  0  0  0
 12 13  1  0  0  0  0
 12 37  1  0  0  0  0
 13 19  1  0  0  0  0
 13 14  1  0  0  0  0
 13 38  1  0  0  0  0
 14 18  1  0  0  0  0
 14 15  1  0  0  0  0
 14 39  1  0  0  0  0
 15 16  1  0  0  0  0
 15 40  1  0  0  0  0
 15 41  1  0  0  0  0
 16 17  1  0  0  0  0
 16 42  1  0  0  0  0
 16 43  1  0  0  0  0
 17 18  1  0  0  0  0
 18 19  1  0  0  0  0
 18 44  1  0  0  0  0
 19 22  1  0  0  0  0
 19 20  1  0  0  0  0
 20 21  1  0  0  0  0
 20 45  1  0  0  0  0
 20 46  1  0  0  0  0
 21 22  1  0  0  0  0
 21 47  1  0  0  0  0
 21 48  1  0  0  0  0
 22 49  1  0  0  0  0
 22 50  1  0  0  0  0
 23 24  2  0  0  0  0
M  END
> <s_m_source_file>
AV-unprocessed.smi

> <i_m_source_file_index>
2829

> <i_lp_mmshare_version>
43012

> <i_f3d_flags>
0

> <s_epik_input>
W0NIM11DKFtDSDNdKShbQ0gzXSljMVtjSF1bY0hdYyhubjEpW05IXUMoPU8pW05IXVtDQEBIXTJbQ0BIXShbQ0gyXVtDSDJdTzMpW0NAQEhdM0MyNFtDSDJdW0NIMl1bQ0gyXTQ=

> <s_epik_cmdline>
J2VwaWtfcHl0aG9uJywgJy1waCcsICc3LjAnLCAnLXRuJywgJzgnLCAnLW1hJywgJzIwMCcsICctbWV0YWxfYmluZGluZycsICctaW1hZScsICc8aW5maWxlLm1hZT4nLCAnLW9tYWUnLCAnPG91dGZpbGUubWFlPic=

> <r_lp_tautomer_probability>
1

> <r_epik_Ionization_Penalty>
0.011915

> <r_epik_Ionization_Penalty_Charging>
0

> <r_epik_Ionization_Penalty_Neutral>
0.011915

> <r_epik_State_Penalty>
0.00486223

> <r_epik_Charging_Adjusted_Penalty>
0.00486223

> <i_epik_Tot_Q>
0

> <i_epik_Tot_abs_Q>
0

> <r_epik_Metal_State_Penalty>
-0

> <b_epik_Metal_Only>
0

> <s_lp_Force_Field>
OPLS_2005

> <r_lp_Energy>
59.5843

> <b_lp_Chiralities_Consistent>
1

> <s_lp_Variant>
AV-unprocessed.smi:2829-3

> <Gold.Version>
5.8.1

> <Gold.Id.Protein>
6NUR|6NUR_protein|mol2

> <Gold.PLP.Fitness>
40.3695

> <Gold.PLP.PLP>
-35.0415

> <Gold.PLP.part.hbond>
-2.1585

> <Gold.PLP.part.metal>
0.0000

> <Gold.PLP.part.buried>
-0.0653

> <Gold.PLP.part.nonpolar>
-32.9450

> <Gold.PLP.part.repulsive>
0.7396

> <Gold.PLP.ligand.clash>
0.0000

> <Gold.PLP.ligand.torsion>
0.2553

> <Gold.PLP.Chemscore.Hbond>
1.8800

> <Gold.PLP.Chemscore.CHOScore>
0.0000

> <Gold.PLP.Chemscore.Metal>
0.0000

> <Gold.Chemscore.Hbonds>
donor molecule, donor type, donor heavy atom, donor atom, acceptor molecule, acceptor atom, score
      L1  H     9    36       P1  7948  1.00
      L1  H    12    37       P1  7948  0.86

> <Gold.PLP.Chemscore.Internal.Correction>
0.1986

> <Gold.Rescore>
     Score         DG    S(hbond)    S(metal)    S(lipo)     H(rot)  DE(clash)    DE(int)     intcor
     14.64     -16.94       1.26        0.00      87.50       1.16       0.86       1.44       ----

> <Gold.Chemscore.Fitness>
14.6376

> <Gold.Chemscore.DG>
-16.9390

> <Gold.Chemscore.ZeroCoef>
-5.4800

> <Gold.Chemscore.Hbond>
1.2561

> <Gold.Chemscore.Metal>
0.0000

> <Gold.Chemscore.Lipo>
87.5009

> <Gold.Chemscore.Internal_Hbond>
0.0000

> <Gold.Chemscore.DEClash>
0.8603

> <Gold.Chemscore.DEInternal>
1.4411

> <Gold.Chemscore.Rot>
1.1618

> <Gold.Chemscore.Internal.Correction>
   9.000000E+99

> <Gold.Chemscore.Hbonds>
donor molecule, donor type, donor heavy atom, donor atom, acceptor molecule, acceptor atom, score
      L1  H     9    36       P1  7948  0.25
      L1  H    12    37       P1  7948  0.80

> <Gold.Chemscore.Hbond.Weighted>
-4.1955

> <Gold.Chemscore.Metal.Weighted>
-0.0000

> <Gold.Chemscore.Lipo.Weighted>
-10.2376

> <Gold.Chemscore.Internal_Hbond.Weighted>
0.0000

> <Gold.Chemscore.DEClash.Weighted>
0.8603

> <Gold.Chemscore.DEInternal.Weighted>
1.4411

> <Gold.Chemscore.Rot.Weighted>
2.9741

> <Gold.Chemscore.Internal.Correction.Weighted>
   9.000000E+99

> <Gold.Protein.RotatedTorsions>
[ 6907 6896 6895 6894 ] final  -55.54 input  -60.11 | X-H torsion
[ 7974 7965 7964 7962 ] final  -60.82 input  175.53 | X-H torsion
[ 8008 7997 7996 7995 ] final  -74.90 input   59.86 | X-H torsion
[ 10167 10162 10161 10158 ] final   43.15 input  -65.29 | X-H torsion
[ 10718 10713 10712 10709 ] final    8.42 input   66.30 | X-H torsion
[ 10763 10752 10751 10750 ] final  -18.18 input  -60.55 | X-H torsion
[ 11005 11000 10999 10996 ] final -158.32 input  -57.11 | X-H torsion

> <Gold.Protein.ActiveResidues>
 VAL166  LYS551  ARG553  GLY616  TRP617  ASP618  TYR619  PRO620  LYS621  CYS622 
 ASP623  PHE694  ASN695  SER759  ASP760  ASP761  ALA762  ILE779  LEU786  VAL792 
 PHE793  MET794  SER795  GLU796  ALA797  LYS798  CYS799  TRP800  GLU811  SER814 

> <Gold.Protein.RotatedAtoms>
  150.8243  134.7466  159.6799 H   0  0  0  0  0  0  0  0  0  0  0  0  # atno 6907 bound_to 6896
  152.4356  134.5690  159.9925 H   0  0  0  0  0  0  0  0  0  0  0  0  # atno 6908 bound_to 6896
  151.5867  133.3334  159.3055 H   0  0  0  0  0  0  0  0  0  0  0  0  # atno 6909 bound_to 6896
  145.8109  140.8599  143.0182 H   0  0  0  0  0  0  0  0  0  0  0  0  # atno 7974 bound_to 7965
  154.5370  140.0753  156.8444 H   0  0  0  0  0  0  0  0  0  0  0  0  # atno 8008 bound_to 7997
  155.3258  140.3399  155.4222 H   0  0  0  0  0  0  0  0  0  0  0  0  # atno 8009 bound_to 7997
  156.1838  140.1661  156.8211 H   0  0  0  0  0  0  0  0  0  0  0  0  # atno 8010 bound_to 7997
  140.3472  144.2395  150.6149 H   0  0  0  0  0  0  0  0  0  0  0  0  # atno 10167 bound_to 10162
  156.9513  130.5898  149.5657 H   0  0  0  0  0  0  0  0  0  0  0  0  # atno 10718 bound_to 10713
  153.5853  135.7004  153.5446 H   0  0  0  0  0  0  0  0  0  0  0  0  # atno 10763 bound_to 10752
  153.3225  135.4070  155.1428 H   0  0  0  0  0  0  0  0  0  0  0  0  # atno 10764 bound_to 10752
  154.8610  135.3699  154.5383 H   0  0  0  0  0  0  0  0  0  0  0  0  # atno 10765 bound_to 10752
  140.6549  134.4411  157.5235 H   0  0  0  0  0  0  0  0  0  0  0  0  # atno 11005 bound_to 11000
  144.6757  140.0395  143.7481 LP  0  0  0  0  0  0  0  0  0  0  0  0  # atno 17320 bound_to 7965
  145.9778  139.2918  143.1060 LP  0  0  0  0  0  0  0  0  0  0  0  0  # atno 17321 bound_to 7965
  140.5253  143.2256  151.8325 LP  0  0  0  0  0  0  0  0  0  0  0  0  # atno 17342 bound_to 10162
  139.4831  144.4787  151.9334 LP  0  0  0  0  0  0  0  0  0  0  0  0  # atno 17343 bound_to 10162
  156.0361  130.5448  150.8657 LP  0  0  0  0  0  0  0  0  0  0  0  0  # atno 17370 bound_to 10713
  157.5720  131.0946  150.9404 LP  0  0  0  0  0  0  0  0  0  0  0  0  # atno 17371 bound_to 10713
  139.9033  134.8507  156.1808 LP  0  0  0  0  0  0  0  0  0  0  0  0  # atno 17394 bound_to 11000
  141.0509  133.6889  156.1769 LP  0  0  0  0  0  0  0  0  0  0  0  0  # atno 17395 bound_to 11000

$$$$
