AV-unprocessed.smi:2553|AV-procd|sdf|10017|dock4
  -GOLD-   2272014 63D 1   1.00000     0.00000
 Structure written by MMmdl.
 29 30  0  0  0  0  0  0  0  0  1 V2000
  146.4827  139.5371  153.9398 O   0  0  0  0  0  0  0  0  0  0  0  0
  147.4331  140.1328  154.4433 C   0  0  0  0  0  0  0  0  0  0  0  0
  148.7378  139.6898  154.2045 N   0  0  0  0  0  0  0  0  0  0  0  0
  149.8993  140.2726  154.7124 C   0  0  0  0  0  0  0  0  0  0  0  0
  150.9978  139.7838  154.4481 O   0  0  0  0  0  0  0  0  0  0  0  0
  149.7338  141.4170  155.5255 N   0  0  0  0  0  0  0  0  0  0  0  0
  150.9136  142.0221  156.0937 C   0  0  0  0  0  0  0  0  0  0  0  0
  150.7508  142.3473  157.5865 C   0  0  0  0  0  0  0  0  0  0  0  0
  151.9048  141.8774  158.2698 O   0  0  0  0  0  0  0  0  0  0  0  0
  152.2046  142.4060  159.5065 C   0  0  0  0  0  0  0  0  0  0  0  0
  151.6327  143.5990  160.0166 C   0  0  0  0  0  0  0  0  0  0  0  0
  151.9895  144.0710  161.2946 C   0  0  0  0  0  0  0  0  0  0  0  0
  152.9179  143.3599  162.0770 C   0  0  0  0  0  0  0  0  0  0  0  0
  153.2579  143.8142  163.3063 F   0  0  0  0  0  0  0  0  0  0  0  0
  153.4919  142.1762  161.5789 C   0  0  0  0  0  0  0  0  0  0  0  0
  153.1378  141.7025  160.3004 C   0  0  0  0  0  0  0  0  0  0  0  0
  153.8586  140.2486  159.7072 Cl  0  0  0  0  0  0  0  0  0  0  0  0
  148.4577  141.8848  155.7989 C   0  0  0  0  0  0  0  0  0  0  0  0
  147.3344  141.3079  155.3083 C   0  0  0  0  0  0  0  0  0  0  0  0
  145.7778  141.9441  155.7031 Cl  0  0  0  0  0  0  0  0  0  0  0  0
  148.8485  138.8749  153.6187 H   0  0  0  0  0  0  0  0  0  0  0  0
  151.7578  141.3568  155.9012 H   0  0  0  0  0  0  0  0  0  0  0  0
  151.1031  142.9277  155.5155 H   0  0  0  0  0  0  0  0  0  0  0  0
  150.6231  143.4212  157.7309 H   0  0  0  0  0  0  0  0  0  0  0  0
  149.8615  141.8470  157.9724 H   0  0  0  0  0  0  0  0  0  0  0  0
  150.9158  144.1707  159.4473 H   0  0  0  0  0  0  0  0  0  0  0  0
  151.5486  144.9803  161.6757 H   0  0  0  0  0  0  0  0  0  0  0  0
  154.2055  141.6309  162.1791 H   0  0  0  0  0  0  0  0  0  0  0  0
  148.3491  142.7472  156.4416 H   0  0  0  0  0  0  0  0  0  0  0  0
  1  2  2  0  0  0  0
  2 19  1  0  0  0  0
  2  3  1  0  0  0  0
  3 21  1  0  0  0  0
  3  4  1  0  0  0  0
  4  5  2  0  0  0  0
  4  6  1  0  0  0  0
  6  7  1  0  0  0  0
  6 18  1  0  0  0  0
  7  8  1  0  0  0  0
  7 22  1  0  0  0  0
  7 23  1  0  0  0  0
  8  9  1  0  0  0  0
  8 24  1  0  0  0  0
  8 25  1  0  0  0  0
  9 10  1  0  0  0  0
 10 16  1  0  0  0  0
 10 11  2  0  0  0  0
 11 12  1  0  0  0  0
 11 26  1  0  0  0  0
 12 13  2  0  0  0  0
 12 27  1  0  0  0  0
 13 14  1  0  0  0  0
 13 15  1  0  0  0  0
 15 16  2  0  0  0  0
 15 28  1  0  0  0  0
 16 17  1  0  0  0  0
 18 19  2  0  0  0  0
 18 29  1  0  0  0  0
 19 20  1  0  0  0  0
M  END
> <s_m_source_file>
AV-unprocessed.smi

> <i_m_source_file_index>
2553

> <i_lp_mmshare_version>
43012

> <i_f3d_flags>
0

> <s_epik_input>
Tz1jMVtuSF1jKD1PKW4oW2NIXWMxQ2wpW0NIMl1bQ0gyXU9jMltjSF1bY0hdYyhGKVtjSF1jMkNs

> <s_epik_cmdline>
J2VwaWtfcHl0aG9uJywgJy1waCcsICc3LjAnLCAnLXRuJywgJzgnLCAnLW1hJywgJzIwMCcsICctbWV0YWxfYmluZGluZycsICctaW1hZScsICc8aW5maWxlLm1hZT4nLCAnLW9tYWUnLCAnPG91dGZpbGUubWFlPic=

> <r_lp_tautomer_probability>
0.999537

> <r_epik_Ionization_Penalty>
0.0476949

> <r_epik_Ionization_Penalty_Charging>
0.0476949

> <r_epik_Ionization_Penalty_Neutral>
0

> <r_epik_State_Penalty>
0.0406325

> <r_epik_Charging_Adjusted_Penalty>
0.0883274

> <i_epik_Tot_Q>
0

> <i_epik_Tot_abs_Q>
0

> <r_epik_Metal_State_Penalty>
2.53375

> <b_epik_Metal_Only>
0

> <s_lp_Force_Field>
OPLS_2005

> <r_lp_Energy>
13.2328

> <b_lp_Chiralities_Consistent>
1

> <s_lp_Variant>
AV-unprocessed.smi:2553-1

> <Gold.Version>
5.8.1

> <Gold.Id.Protein>
6NUR|6NUR_protein|mol2

> <Gold.PLP.Fitness>
46.1165

> <Gold.PLP.PLP>
-42.2447

> <Gold.PLP.part.hbond>
-1.4881

> <Gold.PLP.part.metal>
0.0000

> <Gold.PLP.part.buried>
-3.3246

> <Gold.PLP.part.nonpolar>
-37.5909

> <Gold.PLP.part.repulsive>
0.3365

> <Gold.PLP.ligand.clash>
0.0000

> <Gold.PLP.ligand.torsion>
0.8179

> <Gold.PLP.Chemscore.Hbond>
1.0000

> <Gold.PLP.Chemscore.CHOScore>
0.8281

> <Gold.PLP.Chemscore.Metal>
0.0000

> <Gold.Chemscore.Hbonds>
donor molecule, donor type, donor heavy atom, donor atom, acceptor molecule, acceptor atom, score
      P1  H  7989  7998       L1     5  1.00
      L1  C    18    29       P1  8028  0.79

> <Gold.PLP.Chemscore.Internal.Correction>
0.0233

> <Gold.Rescore>
     Score         DG    S(hbond)    S(metal)    S(lipo)     H(rot)  DE(clash)    DE(int)     intcor
     13.87     -15.03       0.98        0.00      95.91       1.94       0.26       0.91       ----

> <Gold.Chemscore.Fitness>
13.8730

> <Gold.Chemscore.DG>
-15.0337

> <Gold.Chemscore.ZeroCoef>
-5.4800

> <Gold.Chemscore.Hbond>
0.9840

> <Gold.Chemscore.Metal>
0.0000

> <Gold.Chemscore.Lipo>
95.9132

> <Gold.Chemscore.Internal_Hbond>
0.0000

> <Gold.Chemscore.DEClash>
0.2551

> <Gold.Chemscore.DEInternal>
0.9056

> <Gold.Chemscore.Rot>
1.9355

> <Gold.Chemscore.Internal.Correction>
   9.000000E+99

> <Gold.Chemscore.Hbonds>
donor molecule, donor type, donor heavy atom, donor atom, acceptor molecule, acceptor atom, score
      P1  H  7989  7998       L1     5  0.39

> <Gold.Chemscore.Hbond.Weighted>
-3.2867

> <Gold.Chemscore.Metal.Weighted>
-0.0000

> <Gold.Chemscore.Lipo.Weighted>
-11.2218

> <Gold.Chemscore.Internal_Hbond.Weighted>
0.0000

> <Gold.Chemscore.DEClash.Weighted>
0.2551

> <Gold.Chemscore.DEInternal.Weighted>
0.9056

> <Gold.Chemscore.Rot.Weighted>
4.9548

> <Gold.Chemscore.Internal.Correction.Weighted>
   9.000000E+99

> <Gold.Protein.RotatedTorsions>
[ 6907 6896 6895 6894 ] final   94.50 input  -60.11 | X-H torsion
[ 7974 7965 7964 7962 ] final -109.23 input  175.53 | X-H torsion
[ 8008 7997 7996 7995 ] final  158.23 input   59.86 | X-H torsion
[ 10167 10162 10161 10158 ] final  156.24 input  -65.29 | X-H torsion
[ 10718 10713 10712 10709 ] final  111.62 input   66.30 | X-H torsion
[ 10763 10752 10751 10750 ] final   43.00 input  -60.55 | X-H torsion
[ 11005 11000 10999 10996 ] final -154.13 input  -57.11 | X-H torsion

> <Gold.Protein.ActiveResidues>
 VAL166  LYS551  ARG553  GLY616  TRP617  ASP618  TYR619  PRO620  LYS621  CYS622 
 ASP623  PHE694  ASN695  SER759  ASP760  ASP761  ALA762  ILE779  LEU786  VAL792 
 PHE793  MET794  SER795  GLU796  ALA797  LYS798  CYS799  TRP800  GLU811  SER814 

> <Gold.Protein.RotatedAtoms>
  152.5449  134.1183  159.8387 H   0  0  0  0  0  0  0  0  0  0  0  0  # atno 6907 bound_to 6896
  151.1242  133.5075  159.2608 H   0  0  0  0  0  0  0  0  0  0  0  0  # atno 6908 bound_to 6896
  151.1746  135.0343  159.8821 H   0  0  0  0  0  0  0  0  0  0  0  0  # atno 6909 bound_to 6896
  145.1830  140.8980  143.3469 H   0  0  0  0  0  0  0  0  0  0  0  0  # atno 7974 bound_to 7965
  156.2316  140.1864  156.7229 H   0  0  0  0  0  0  0  0  0  0  0  0  # atno 8008 bound_to 7997
  154.6032  140.0633  156.9423 H   0  0  0  0  0  0  0  0  0  0  0  0  # atno 8009 bound_to 7997
  155.2140  140.3302  155.4327 H   0  0  0  0  0  0  0  0  0  0  0  0  # atno 8010 bound_to 7997
  139.4821  144.5026  151.8145 H   0  0  0  0  0  0  0  0  0  0  0  0  # atno 10167 bound_to 10162
  157.6435  131.0954  150.6776 H   0  0  0  0  0  0  0  0  0  0  0  0  # atno 10718 bound_to 10713
  152.9870  135.6114  154.3041 H   0  0  0  0  0  0  0  0  0  0  0  0  # atno 10763 bound_to 10752
  154.2760  135.2778  155.2720 H   0  0  0  0  0  0  0  0  0  0  0  0  # atno 10764 bound_to 10752
  154.5080  135.5848  153.6639 H   0  0  0  0  0  0  0  0  0  0  0  0  # atno 10765 bound_to 10752
  140.7007  134.3941  157.5210 H   0  0  0  0  0  0  0  0  0  0  0  0  # atno 11005 bound_to 11000
  145.0117  139.3504  143.6117 LP  0  0  0  0  0  0  0  0  0  0  0  0  # atno 17320 bound_to 7965
  146.3450  139.9382  142.8744 LP  0  0  0  0  0  0  0  0  0  0  0  0  # atno 17321 bound_to 7965
  140.4521  144.1840  150.5898 LP  0  0  0  0  0  0  0  0  0  0  0  0  # atno 17342 bound_to 10162
  140.4574  143.2462  151.9267 LP  0  0  0  0  0  0  0  0  0  0  0  0  # atno 17343 bound_to 10162
  156.7096  130.4648  149.5551 LP  0  0  0  0  0  0  0  0  0  0  0  0  # atno 17370 bound_to 10713
  156.1739  130.6455  151.0870 LP  0  0  0  0  0  0  0  0  0  0  0  0  # atno 17371 bound_to 10713
  139.8898  134.8822  156.2404 LP  0  0  0  0  0  0  0  0  0  0  0  0  # atno 17394 bound_to 11000
  141.0166  133.7065  156.1199 LP  0  0  0  0  0  0  0  0  0  0  0  0  # atno 17395 bound_to 11000

$$$$
