AV-unprocessed.smi:2739|AV-procd|sdf|10551|dock10
  -GOLD-   2272015 03D 1   1.00000     0.00000
 Structure written by MMmdl.
 35 35  0  0  0  0  0  0  0  0  1 V2000
  151.6747  144.9476  159.3220 C   0  0  0  0  0  0  0  0  0  0  0  0
  152.8080  144.0371  158.8273 C   0  0  0  0  0  0  0  0  0  0  0  0
  152.8659  142.6672  159.5388 C   0  0  1  0  0  0  0  0  0  0  0  0
  152.9509  142.8036  161.0694 C   0  0  0  0  0  0  0  0  0  0  0  0
  151.7798  141.7683  159.1398 N   0  0  0  0  0  0  0  0  0  0  0  0
  151.8850  140.5957  158.4903 C   0  0  0  0  0  0  0  0  0  0  0  0
  152.9546  140.0915  158.1502 O   0  0  0  0  0  0  0  0  0  0  0  0
  150.5722  139.8808  158.1703 C   0  0  0  0  0  0  0  0  0  0  0  0
  150.3110  139.8898  156.7423 N   0  0  0  0  0  0  0  0  0  0  0  0
  151.0325  139.2846  155.7359 C   0  0  0  0  0  0  0  0  0  0  0  0
  150.4097  139.5798  154.5575 C   0  0  0  0  0  0  0  0  0  0  0  0
  149.2994  140.3858  154.9443 C   0  0  0  0  0  0  0  0  0  0  0  0
  148.2412  141.0097  154.0719 C   0  0  2  0  0  0  0  0  0  0  0  0
  147.1838  141.7430  154.9083 C   0  0  0  0  0  0  0  0  0  0  0  0
  147.5837  140.0539  153.2657 O   0  0  0  0  0  0  0  0  0  0  0  0
  149.2469  140.5650  156.2565 N   0  0  0  0  0  0  0  0  0  0  0  0
  151.6494  145.8755  158.7502 H   0  0  0  0  0  0  0  0  0  0  0  0
  151.8022  145.2128  160.3717 H   0  0  0  0  0  0  0  0  0  0  0  0
  150.7042  144.4631  159.2127 H   0  0  0  0  0  0  0  0  0  0  0  0
  152.6756  143.8726  157.7574 H   0  0  0  0  0  0  0  0  0  0  0  0
  153.7601  144.5585  158.9295 H   0  0  0  0  0  0  0  0  0  0  0  0
  153.7821  142.1725  159.2143 H   0  0  0  0  0  0  0  0  0  0  0  0
  153.8391  143.3644  161.3610 H   0  0  0  0  0  0  0  0  0  0  0  0
  153.0091  141.8257  161.5482 H   0  0  0  0  0  0  0  0  0  0  0  0
  152.0860  143.3252  161.4798 H   0  0  0  0  0  0  0  0  0  0  0  0
  150.8461  142.0801  159.3654 H   0  0  0  0  0  0  0  0  0  0  0  0
  150.6176  138.8456  158.5111 H   0  0  0  0  0  0  0  0  0  0  0  0
  149.7447  140.3572  158.6988 H   0  0  0  0  0  0  0  0  0  0  0  0
  151.9195  138.7030  155.9404 H   0  0  0  0  0  0  0  0  0  0  0  0
  150.7032  139.2671  153.5664 H   0  0  0  0  0  0  0  0  0  0  0  0
  148.7066  141.7270  153.3946 H   0  0  0  0  0  0  0  0  0  0  0  0
  147.6371  142.5323  155.5089 H   0  0  0  0  0  0  0  0  0  0  0  0
  146.6726  141.0603  155.5883 H   0  0  0  0  0  0  0  0  0  0  0  0
  146.4299  142.2071  154.2717 H   0  0  0  0  0  0  0  0  0  0  0  0
  148.2086  139.7039  152.6491 H   0  0  0  0  0  0  0  0  0  0  0  0
  1  2  1  0  0  0  0
  1 17  1  0  0  0  0
  1 18  1  0  0  0  0
  1 19  1  0  0  0  0
  2  3  1  0  0  0  0
  2 20  1  0  0  0  0
  2 21  1  0  0  0  0
  3  4  1  0  0  0  0
  3  5  1  0  0  0  0
  3 22  1  0  0  0  0
  4 23  1  0  0  0  0
  4 24  1  0  0  0  0
  4 25  1  0  0  0  0
  5  6  1  0  0  0  0
  5 26  1  0  0  0  0
  6  7  2  0  0  0  0
  6  8  1  0  0  0  0
  8  9  1  0  0  0  0
  8 27  1  0  0  0  0
  8 28  1  0  0  0  0
  9 16  1  0  0  0  0
  9 10  1  0  0  0  0
 10 11  2  0  0  0  0
 10 29  1  0  0  0  0
 11 12  1  0  0  0  0
 11 30  1  0  0  0  0
 12 13  1  0  0  0  0
 12 16  2  0  0  0  0
 13 14  1  0  0  0  0
 13 15  1  0  0  0  0
 13 31  1  0  0  0  0
 14 32  1  0  0  0  0
 14 33  1  0  0  0  0
 14 34  1  0  0  0  0
 15 35  1  0  0  0  0
M  END
> <s_m_source_file>
AV-unprocessed.smi

> <i_m_source_file_index>
2739

> <i_lp_mmshare_version>
43012

> <i_f3d_flags>
0

> <s_epik_input>
W0NIM11bQ0gyXVtDQEhdKFtDSDNdKVtOSF1DKD1PKVtDSDJdbjFbY0hdW2NIXWMobjEpW0NASF0oW0NIM10pW09IXQ==

> <s_epik_cmdline>
J2VwaWtfcHl0aG9uJywgJy1waCcsICc3LjAnLCAnLXRuJywgJzgnLCAnLW1hJywgJzIwMCcsICctbWV0YWxfYmluZGluZycsICctaW1hZScsICc8aW5maWxlLm1hZT4nLCAnLW9tYWUnLCAnPG91dGZpbGUubWFlPic=

> <r_lp_tautomer_probability>
1

> <r_epik_Ionization_Penalty>
5.22246e-06

> <r_epik_Ionization_Penalty_Charging>
0

> <r_epik_Ionization_Penalty_Neutral>
5.22246e-06

> <r_epik_State_Penalty>
-0

> <r_epik_Charging_Adjusted_Penalty>
0

> <i_epik_Tot_Q>
0

> <i_epik_Tot_abs_Q>
0

> <r_epik_Metal_State_Penalty>
-0

> <b_epik_Metal_Only>
0

> <s_lp_Force_Field>
OPLS_2005

> <r_lp_Energy>
1.58762

> <b_lp_Chiralities_Consistent>
1

> <s_lp_Variant>
AV-unprocessed.smi:2739-2

> <Gold.Version>
5.8.1

> <Gold.Id.Protein>
6NUR|6NUR_protein|mol2

> <Gold.PLP.Fitness>
42.1606

> <Gold.PLP.PLP>
-36.4561

> <Gold.PLP.part.hbond>
-2.0000

> <Gold.PLP.part.metal>
0.0000

> <Gold.PLP.part.buried>
-1.5332

> <Gold.PLP.part.nonpolar>
-32.9111

> <Gold.PLP.part.repulsive>
0.1560

> <Gold.PLP.ligand.clash>
0.0000

> <Gold.PLP.ligand.torsion>
0.1905

> <Gold.PLP.Chemscore.Hbond>
2.0000

> <Gold.PLP.Chemscore.CHOScore>
0.0000

> <Gold.PLP.Chemscore.Metal>
0.0000

> <Gold.Chemscore.Hbonds>
donor molecule, donor type, donor heavy atom, donor atom, acceptor molecule, acceptor atom, score
      L1  H    15    35       P1  7957  0.90
      P1  H  7997  8009       L1     7  1.00

> <Gold.PLP.Chemscore.Internal.Correction>
0.0855

> <Gold.Rescore>
     Score         DG    S(hbond)    S(metal)    S(lipo)     H(rot)  DE(clash)    DE(int)     intcor
     15.53     -16.44       1.94        0.00      89.48       2.34       0.01       0.90       ----

> <Gold.Chemscore.Fitness>
15.5321

> <Gold.Chemscore.DG>
-16.4411

> <Gold.Chemscore.ZeroCoef>
-5.4800

> <Gold.Chemscore.Hbond>
1.9445

> <Gold.Chemscore.Metal>
0.0000

> <Gold.Chemscore.Lipo>
89.4812

> <Gold.Chemscore.Internal_Hbond>
0.0000

> <Gold.Chemscore.DEClash>
0.0077

> <Gold.Chemscore.DEInternal>
0.9013

> <Gold.Chemscore.Rot>
2.3448

> <Gold.Chemscore.Internal.Correction>
   9.000000E+99

> <Gold.Chemscore.Hbonds>
donor molecule, donor type, donor heavy atom, donor atom, acceptor molecule, acceptor atom, score
      L1  H    15    35       P1  7957  0.83
      P1  H  7997  8009       L1     7  0.93

> <Gold.Chemscore.Hbond.Weighted>
-6.4945

> <Gold.Chemscore.Metal.Weighted>
-0.0000

> <Gold.Chemscore.Lipo.Weighted>
-10.4693

> <Gold.Chemscore.Internal_Hbond.Weighted>
0.0000

> <Gold.Chemscore.DEClash.Weighted>
0.0077

> <Gold.Chemscore.DEInternal.Weighted>
0.9013

> <Gold.Chemscore.Rot.Weighted>
6.0027

> <Gold.Chemscore.Internal.Correction.Weighted>
   9.000000E+99

> <Gold.Protein.RotatedTorsions>
[ 6907 6896 6895 6894 ] final  159.18 input  -60.11 | X-H torsion
[ 7974 7965 7964 7962 ] final -170.66 input  175.53 | X-H torsion
[ 8008 7997 7996 7995 ] final  165.16 input   59.86 | X-H torsion
[ 10167 10162 10161 10158 ] final  159.42 input  -65.29 | X-H torsion
[ 10718 10713 10712 10709 ] final  -69.52 input   66.30 | X-H torsion
[ 10763 10752 10751 10750 ] final -152.46 input  -60.55 | X-H torsion
[ 11005 11000 10999 10996 ] final  -10.50 input  -57.11 | X-H torsion

> <Gold.Protein.ActiveResidues>
 VAL166  LYS551  ARG553  GLY616  TRP617  ASP618  TYR619  PRO620  LYS621  CYS622 
 ASP623  PHE694  ASN695  SER759  ASP760  ASP761  ALA762  ILE779  LEU786  VAL792 
 PHE793  MET794  SER795  GLU796  ALA797  LYS798  CYS799  TRP800  GLU811  SER814 

> <Gold.Protein.RotatedAtoms>
  151.9894  133.3786  159.4138 H   0  0  0  0  0  0  0  0  0  0  0  0  # atno 6907 bound_to 6896
  150.6924  134.3952  159.5103 H   0  0  0  0  0  0  0  0  0  0  0  0  # atno 6908 bound_to 6896
  152.1683  134.8855  160.0587 H   0  0  0  0  0  0  0  0  0  0  0  0  # atno 6909 bound_to 6896
  144.7167  140.2039  143.6335 H   0  0  0  0  0  0  0  0  0  0  0  0  # atno 7974 bound_to 7965
  156.1823  140.1677  156.8251 H   0  0  0  0  0  0  0  0  0  0  0  0  # atno 8008 bound_to 7997
  154.5374  140.0744  156.8483 H   0  0  0  0  0  0  0  0  0  0  0  0  # atno 8009 bound_to 7997
  155.3284  140.3377  155.4242 H   0  0  0  0  0  0  0  0  0  0  0  0  # atno 8010 bound_to 7997
  139.4832  144.4731  151.8548 H   0  0  0  0  0  0  0  0  0  0  0  0  # atno 10167 bound_to 10162
  156.0451  130.4314  150.2160 H   0  0  0  0  0  0  0  0  0  0  0  0  # atno 10718 bound_to 10713
  154.7992  135.3235  154.7591 H   0  0  0  0  0  0  0  0  0  0  0  0  # atno 10763 bound_to 10752
  153.8263  135.6883  153.4825 H   0  0  0  0  0  0  0  0  0  0  0  0  # atno 10764 bound_to 10752
  153.1700  135.4627  154.9832 H   0  0  0  0  0  0  0  0  0  0  0  0  # atno 10765 bound_to 10752
  140.7453  133.8636  155.9001 H   0  0  0  0  0  0  0  0  0  0  0  0  # atno 11005 bound_to 11000
  145.8654  139.2244  143.1692 LP  0  0  0  0  0  0  0  0  0  0  0  0  # atno 17320 bound_to 7965
  146.0134  140.8414  142.9959 LP  0  0  0  0  0  0  0  0  0  0  0  0  # atno 17321 bound_to 7965
  140.4202  144.2254  150.5887 LP  0  0  0  0  0  0  0  0  0  0  0  0  # atno 17342 bound_to 10162
  140.4881  143.2356  151.8858 LP  0  0  0  0  0  0  0  0  0  0  0  0  # atno 17343 bound_to 10162
  157.0251  130.9991  151.3328 LP  0  0  0  0  0  0  0  0  0  0  0  0  # atno 17370 bound_to 10713
  157.5317  130.8063  149.7925 LP  0  0  0  0  0  0  0  0  0  0  0  0  # atno 17371 bound_to 10713
  140.9799  134.1419  157.4503 LP  0  0  0  0  0  0  0  0  0  0  0  0  # atno 17394 bound_to 11000
  139.8798  135.0007  156.6026 LP  0  0  0  0  0  0  0  0  0  0  0  0  # atno 17395 bound_to 11000

$$$$
