AV-unprocessed.smi:1145|AV-procd|sdf|4884|dock5
  -GOLD-   22720 3453D 1   1.00000     0.00000
 Structure written by MMmdl.
 36 37  0  0  0  0  0  0  0  0  1 V2000
  151.3034  137.2858  157.6409 C   0  0  0  0  0  0  0  0  0  0  0  0
  151.5286  138.8036  157.6113 C   0  0  2  0  0  0  0  0  0  0  0  0
  151.3514  139.4256  159.0131 C   0  0  0  0  0  0  0  0  0  0  0  0
  151.8957  140.7698  159.1015 N   0  0  0  0  0  0  0  0  0  0  0  0
  151.5551  141.8816  158.3601 C   0  0  0  0  0  0  0  0  0  0  0  0
  152.3176  142.9202  158.8121 C   0  0  0  0  0  0  0  0  0  0  0  0
  153.1061  142.3371  159.8432 C   0  0  0  0  0  0  0  0  0  0  0  0
  152.8553  141.0489  160.0107 N   0  0  0  0  0  0  0  0  0  0  0  0
  150.5979  139.4049  156.6572 N   0  0  0  0  0  0  0  0  0  0  0  0
  150.8495  139.6439  155.3600 C   0  0  0  0  0  0  0  0  0  0  0  0
  151.8997  139.3217  154.8030 O   0  0  0  0  0  0  0  0  0  0  0  0
  149.7565  140.3868  154.5809 C   0  0  1  0  0  0  0  0  0  0  0  0
  148.4542  139.5700  154.5629 C   0  0  0  0  0  0  0  0  0  0  0  0
  147.3704  140.2745  153.7318 C   0  0  0  0  0  0  0  0  0  0  0  0
  147.2465  141.7756  154.0341 C   0  0  0  0  0  0  0  0  0  0  0  0
  146.2359  142.3810  153.6841 O   0  0  0  0  0  0  0  0  0  0  0  0
  148.2660  142.4049  154.6450 N   0  0  0  0  0  0  0  0  0  0  0  0
  149.4755  141.7805  155.1821 C   0  0  0  0  0  0  0  0  0  0  0  0
  151.9957  136.8007  158.3296 H   0  0  0  0  0  0  0  0  0  0  0  0
  151.4592  136.8461  156.6553 H   0  0  0  0  0  0  0  0  0  0  0  0
  150.2900  137.0399  157.9605 H   0  0  0  0  0  0  0  0  0  0  0  0
  152.5566  138.9698  157.2842 H   0  0  0  0  0  0  0  0  0  0  0  0
  150.2969  139.4456  159.2940 H   0  0  0  0  0  0  0  0  0  0  0  0
  151.8590  138.8137  159.7597 H   0  0  0  0  0  0  0  0  0  0  0  0
  150.8020  141.8426  157.5868 H   0  0  0  0  0  0  0  0  0  0  0  0
  152.3106  143.9416  158.4617 H   0  0  0  0  0  0  0  0  0  0  0  0
  153.8485  142.8083  160.4702 H   0  0  0  0  0  0  0  0  0  0  0  0
  149.7082  139.7087  157.0255 H   0  0  0  0  0  0  0  0  0  0  0  0
  150.0908  140.5180  153.5497 H   0  0  0  0  0  0  0  0  0  0  0  0
  148.6364  138.5756  154.1522 H   0  0  0  0  0  0  0  0  0  0  0  0
  148.0891  139.4189  155.5804 H   0  0  0  0  0  0  0  0  0  0  0  0
  147.6015  140.1705  152.6712 H   0  0  0  0  0  0  0  0  0  0  0  0
  146.4061  139.7902  153.8896 H   0  0  0  0  0  0  0  0  0  0  0  0
  148.1676  143.3978  154.8012 H   0  0  0  0  0  0  0  0  0  0  0  0
  149.3544  141.7195  156.2648 H   0  0  0  0  0  0  0  0  0  0  0  0
  150.3203  142.4455  154.9994 H   0  0  0  0  0  0  0  0  0  0  0  0
  1  2  1  0  0  0  0
  1 19  1  0  0  0  0
  1 20  1  0  0  0  0
  1 21  1  0  0  0  0
  2  3  1  0  0  0  0
  2  9  1  0  0  0  0
  2 22  1  0  0  0  0
  3  4  1  0  0  0  0
  3 23  1  0  0  0  0
  3 24  1  0  0  0  0
  4  8  1  0  0  0  0
  4  5  1  0  0  0  0
  5  6  2  0  0  0  0
  5 25  1  0  0  0  0
  6  7  1  0  0  0  0
  6 26  1  0  0  0  0
  7  8  2  0  0  0  0
  7 27  1  0  0  0  0
  9 10  1  0  0  0  0
  9 28  1  0  0  0  0
 10 11  2  0  0  0  0
 10 12  1  0  0  0  0
 12 18  1  0  0  0  0
 12 13  1  0  0  0  0
 12 29  1  0  0  0  0
 13 14  1  0  0  0  0
 13 30  1  0  0  0  0
 13 31  1  0  0  0  0
 14 15  1  0  0  0  0
 14 32  1  0  0  0  0
 14 33  1  0  0  0  0
 15 16  2  0  0  0  0
 15 17  1  0  0  0  0
 17 18  1  0  0  0  0
 17 34  1  0  0  0  0
 18 35  1  0  0  0  0
 18 36  1  0  0  0  0
M  END
> <s_m_source_file>
AV-unprocessed.smi

> <i_m_source_file_index>
1145

> <i_lp_mmshare_version>
43012

> <i_f3d_flags>
0

> <s_epik_input>
bjFbY0hdW2NIXVtjSF1uMVtDSDJdW0NAQEhdKFtDSDNdKVtOSF1DKD1PKVtDQEBIXTJbQ0gyXVtDSDJdQyg9TylbTkhdW0NIMl0y

> <s_epik_cmdline>
J2VwaWtfcHl0aG9uJywgJy1waCcsICc3LjAnLCAnLXRuJywgJzgnLCAnLW1hJywgJzIwMCcsICctbWV0YWxfYmluZGluZycsICctaW1hZScsICc8aW5maWxlLm1hZT4nLCAnLW9tYWUnLCAnPG91dGZpbGUubWFlPic=

> <r_lp_tautomer_probability>
1

> <r_epik_Ionization_Penalty>
0.000314064

> <r_epik_Ionization_Penalty_Charging>
0

> <r_epik_Ionization_Penalty_Neutral>
0.000314064

> <r_epik_State_Penalty>
-0

> <r_epik_Charging_Adjusted_Penalty>
0

> <i_epik_Tot_Q>
0

> <i_epik_Tot_abs_Q>
0

> <r_epik_Metal_State_Penalty>
-0

> <b_epik_Metal_Only>
0

> <s_lp_Force_Field>
OPLS_2005

> <r_lp_Energy>
12.228

> <b_lp_Chiralities_Consistent>
1

> <s_lp_Variant>
AV-unprocessed.smi:1145-3

> <Gold.Version>
5.8.1

> <Gold.Id.Protein>
6NUR|6NUR_protein|mol2

> <Gold.PLP.Fitness>
34.5271

> <Gold.PLP.PLP>
-31.3095

> <Gold.PLP.part.hbond>
-2.0000

> <Gold.PLP.part.metal>
0.0000

> <Gold.PLP.part.buried>
-3.6778

> <Gold.PLP.part.nonpolar>
-26.1936

> <Gold.PLP.part.repulsive>
0.5059

> <Gold.PLP.ligand.clash>
0.0000

> <Gold.PLP.ligand.torsion>
0.4705

> <Gold.PLP.Chemscore.Hbond>
1.3760

> <Gold.PLP.Chemscore.CHOScore>
0.0000

> <Gold.PLP.Chemscore.Metal>
0.0000

> <Gold.Chemscore.Hbonds>
donor molecule, donor type, donor heavy atom, donor atom, acceptor molecule, acceptor atom, score
      L1  H    17    34       P1  8028  0.88
      P1  H  7989  7998       L1    11  0.50

> <Gold.PLP.Chemscore.Internal.Correction>
0.0306

> <Gold.Rescore>
     Score         DG    S(hbond)    S(metal)    S(lipo)     H(rot)  DE(clash)    DE(int)     intcor
     14.32     -15.28       1.79        0.00      71.98       1.80       0.50       0.46       ----

> <Gold.Chemscore.Fitness>
14.3179

> <Gold.Chemscore.DG>
-15.2831

> <Gold.Chemscore.ZeroCoef>
-5.4800

> <Gold.Chemscore.Hbond>
1.7919

> <Gold.Chemscore.Metal>
0.0000

> <Gold.Chemscore.Lipo>
71.9789

> <Gold.Chemscore.Internal_Hbond>
0.0000

> <Gold.Chemscore.DEClash>
0.5034

> <Gold.Chemscore.DEInternal>
0.4619

> <Gold.Chemscore.Rot>
1.7982

> <Gold.Chemscore.Internal.Correction>
   9.000000E+99

> <Gold.Chemscore.Hbonds>
donor molecule, donor type, donor heavy atom, donor atom, acceptor molecule, acceptor atom, score
      L1  H    17    34       P1  8028  0.80
      P1  H  7989  7998       L1    11  0.02

> <Gold.Chemscore.Hbond.Weighted>
-5.9851

> <Gold.Chemscore.Metal.Weighted>
-0.0000

> <Gold.Chemscore.Lipo.Weighted>
-8.4215

> <Gold.Chemscore.Internal_Hbond.Weighted>
0.0000

> <Gold.Chemscore.DEClash.Weighted>
0.5034

> <Gold.Chemscore.DEInternal.Weighted>
0.4619

> <Gold.Chemscore.Rot.Weighted>
4.6035

> <Gold.Chemscore.Internal.Correction.Weighted>
   9.000000E+99

> <Gold.Protein.RotatedTorsions>
[ 6907 6896 6895 6894 ] final   17.36 input  -60.11 | X-H torsion
[ 7974 7965 7964 7962 ] final -101.15 input  175.53 | X-H torsion
[ 8008 7997 7996 7995 ] final  126.84 input   59.86 | X-H torsion
[ 10167 10162 10161 10158 ] final  -24.58 input  -65.29 | X-H torsion
[ 10718 10713 10712 10709 ] final -169.03 input   66.30 | X-H torsion
[ 10763 10752 10751 10750 ] final  -75.95 input  -60.55 | X-H torsion
[ 11005 11000 10999 10996 ] final  -46.31 input  -57.11 | X-H torsion

> <Gold.Protein.ActiveResidues>
 VAL166  LYS551  ARG553  GLY616  TRP617  ASP618  TYR619  PRO620  LYS621  CYS622 
 ASP623  PHE694  ASN695  SER759  ASP760  ASP761  ALA762  ILE779  LEU786  VAL792 
 PHE793  MET794  SER795  GLU796  ALA797  LYS798  CYS799  TRP800  GLU811  SER814 

> <Gold.Protein.RotatedAtoms>
  151.8483  135.0566  160.0455 H   0  0  0  0  0  0  0  0  0  0  0  0  # atno 6907 bound_to 6896
  152.2756  133.5418  159.5474 H   0  0  0  0  0  0  0  0  0  0  0  0  # atno 6908 bound_to 6896
  150.7169  134.0553  159.3854 H   0  0  0  0  0  0  0  0  0  0  0  0  # atno 6909 bound_to 6896
  145.2853  140.9338  143.2908 H   0  0  0  0  0  0  0  0  0  0  0  0  # atno 7974 bound_to 7965
  156.2875  140.2683  156.2176 H   0  0  0  0  0  0  0  0  0  0  0  0  # atno 8008 bound_to 7997
  155.0201  140.0386  157.2452 H   0  0  0  0  0  0  0  0  0  0  0  0  # atno 8009 bound_to 7997
  154.7443  140.2731  155.6351 H   0  0  0  0  0  0  0  0  0  0  0  0  # atno 8010 bound_to 7997
  140.7288  143.4340  151.0758 H   0  0  0  0  0  0  0  0  0  0  0  0  # atno 10167 bound_to 10162
  156.7056  130.9213  151.3084 H   0  0  0  0  0  0  0  0  0  0  0  0  # atno 10718 bound_to 10713
  154.4933  135.5814  153.6476 H   0  0  0  0  0  0  0  0  0  0  0  0  # atno 10763 bound_to 10752
  152.9866  135.6118  154.3096 H   0  0  0  0  0  0  0  0  0  0  0  0  # atno 10764 bound_to 10752
  154.2998  135.2847  155.2596 H   0  0  0  0  0  0  0  0  0  0  0  0  # atno 10765 bound_to 10752
  141.0570  133.6722  156.3136 H   0  0  0  0  0  0  0  0  0  0  0  0  # atno 11005 bound_to 11000
  144.9218  139.4402  143.6537 LP  0  0  0  0  0  0  0  0  0  0  0  0  # atno 17320 bound_to 7965
  146.3203  139.8083  142.8951 LP  0  0  0  0  0  0  0  0  0  0  0  0  # atno 17321 bound_to 7965
  139.8000  143.8097  152.3162 LP  0  0  0  0  0  0  0  0  0  0  0  0  # atno 17342 bound_to 10162
  139.8110  144.7336  150.9697 LP  0  0  0  0  0  0  0  0  0  0  0  0  # atno 17343 bound_to 10162
  157.6956  130.9278  150.0635 LP  0  0  0  0  0  0  0  0  0  0  0  0  # atno 17370 bound_to 10713
  156.1697  130.3646  149.9182 LP  0  0  0  0  0  0  0  0  0  0  0  0  # atno 17371 bound_to 10713
  140.5943  134.5619  157.5505 LP  0  0  0  0  0  0  0  0  0  0  0  0  # atno 17394 bound_to 11000
  139.9399  134.7806  156.0705 LP  0  0  0  0  0  0  0  0  0  0  0  0  # atno 17395 bound_to 11000

$$$$
