AV-unprocessed.smi:334|AV-procd|sdf|2365|dock4
  -GOLD-   2262022283D 1   1.00000     0.00000
 Structure written by MMmdl.
 44 46  0  0  0  0  0  0  0  0  3 V2000
  151.2416  141.2004  157.8419 C   0  0  0  0  0  0  0  0  0  0  0  0
  151.1687  142.4013  156.8837 C   0  0  1  0  0  0  0  0  0  0  0  0
  149.9541  142.3293  156.0801 N   0  0  0  0  0  0  0  0  0  0  0  0
  149.6607  141.3885  155.1666 C   0  0  0  0  0  0  0  0  0  0  0  0
  150.3589  140.3920  154.9852 O   0  0  0  0  0  0  0  0  0  0  0  0
  148.4164  141.6045  154.2875 C   0  0  0  0  0  0  0  0  0  0  0  0
  147.4646  140.4784  154.3011 N   0  0  0  0  0  0  0  0  0  0  0  0
  147.3410  139.7458  153.1037 C   0  0  0  0  0  0  0  0  0  0  0  0
  146.4673  138.7293  152.9722 C   0  0  0  0  0  0  0  0  0  0  0  0
  146.3221  138.0213  151.7199 N   0  3  0  0  0  0  0  0  0  0  0  0
  146.8489  138.4887  150.7156 O   0  0  0  0  0  0  0  0  0  0  0  0
  145.6832  136.9735  151.6997 O   0  5  0  0  0  0  0  0  0  0  0  0
  145.6548  138.3865  154.1230 C   0  0  0  0  0  0  0  0  0  0  0  0
  145.7648  139.0858  155.2698 C   0  0  0  0  0  0  0  0  0  0  0  0
  146.6982  140.2093  155.4020 C   0  0  0  0  0  0  0  0  0  0  0  0
  146.7775  140.8725  156.4356 O   0  0  0  0  0  0  0  0  0  0  0  0
  151.1989  143.7505  157.6409 C   0  0  1  0  0  0  0  0  0  0  0  0
  150.2596  143.8240  158.8654 C   0  0  0  0  0  0  0  0  0  0  0  0
  151.1865  144.3430  159.9813 C   0  0  1  0  0  0  0  0  0  0  0  0
  152.1427  143.2141  160.4103 C   0  0  0  0  0  0  0  0  0  0  0  0
  153.1129  143.1207  159.2187 C   0  0  0  0  0  0  0  0  0  0  0  0
  152.5600  144.1822  158.2467 C   0  0  2  0  0  0  0  0  0  0  0  0
  152.1217  145.2733  159.2174 C   0  0  0  0  0  0  0  0  0  0  0  0
  152.1491  141.2309  158.4452 H   0  0  0  0  0  0  0  0  0  0  0  0
  151.2474  140.2575  157.2945 H   0  0  0  0  0  0  0  0  0  0  0  0
  150.3904  141.1834  158.5234 H   0  0  0  0  0  0  0  0  0  0  0  0
  152.0310  142.3562  156.2163 H   0  0  0  0  0  0  0  0  0  0  0  0
  149.3152  143.1059  156.1689 H   0  0  0  0  0  0  0  0  0  0  0  0
  147.9083  142.5058  154.6334 H   0  0  0  0  0  0  0  0  0  0  0  0
  148.7462  141.8396  153.2745 H   0  0  0  0  0  0  0  0  0  0  0  0
  147.9814  140.0897  152.3036 H   0  0  0  0  0  0  0  0  0  0  0  0
  144.9531  137.5668  154.0736 H   0  0  0  0  0  0  0  0  0  0  0  0
  145.1493  138.8138  156.1147 H   0  0  0  0  0  0  0  0  0  0  0  0
  150.9023  144.5315  156.9380 H   0  0  0  0  0  0  0  0  0  0  0  0
  149.4430  144.5224  158.6780 H   0  0  0  0  0  0  0  0  0  0  0  0
  149.8170  142.8614  159.1245 H   0  0  0  0  0  0  0  0  0  0  0  0
  150.6534  144.8038  160.8133 H   0  0  0  0  0  0  0  0  0  0  0  0
  152.6799  143.4817  161.3211 H   0  0  0  0  0  0  0  0  0  0  0  0
  151.6183  142.2755  160.5939 H   0  0  0  0  0  0  0  0  0  0  0  0
  154.1239  143.3839  159.5322 H   0  0  0  0  0  0  0  0  0  0  0  0
  153.1588  142.1209  158.7880 H   0  0  0  0  0  0  0  0  0  0  0  0
  153.2860  144.5112  157.5029 H   0  0  0  0  0  0  0  0  0  0  0  0
  151.6064  146.1054  158.7340 H   0  0  0  0  0  0  0  0  0  0  0  0
  152.9375  145.6643  159.8283 H   0  0  0  0  0  0  0  0  0  0  0  0
  1  2  1  0  0  0  0
  1 24  1  0  0  0  0
  1 25  1  0  0  0  0
  1 26  1  0  0  0  0
  2  3  1  0  0  0  0
  2 17  1  0  0  0  0
  2 27  1  0  0  0  0
  3  4  1  0  0  0  0
  3 28  1  0  0  0  0
  4  5  2  0  0  0  0
  4  6  1  0  0  0  0
  6  7  1  0  0  0  0
  6 29  1  0  0  0  0
  6 30  1  0  0  0  0
  7 15  1  0  0  0  0
  7  8  1  0  0  0  0
  8  9  2  0  0  0  0
  8 31  1  0  0  0  0
  9 10  1  0  0  0  0
  9 13  1  0  0  0  0
 10 11  2  0  0  0  0
 10 12  1  0  0  0  0
 13 14  2  0  0  0  0
 13 32  1  0  0  0  0
 14 15  1  0  0  0  0
 14 33  1  0  0  0  0
 15 16  2  0  0  0  0
 17 22  1  0  0  0  0
 17 18  1  0  0  0  0
 17 34  1  0  0  0  0
 18 19  1  0  0  0  0
 18 35  1  0  0  0  0
 18 36  1  0  0  0  0
 19 23  1  0  0  0  0
 19 20  1  0  0  0  0
 19 37  1  0  0  0  0
 20 21  1  0  0  0  0
 20 38  1  0  0  0  0
 20 39  1  0  0  0  0
 21 22  1  0  0  0  0
 21 40  1  0  0  0  0
 21 41  1  0  0  0  0
 22 23  1  0  0  0  0
 22 42  1  0  0  0  0
 23 43  1  0  0  0  0
 23 44  1  0  0  0  0
M  CHG  1  10   1
M  CHG  1  12  -1
M  END
> <s_m_source_file>
AV-unprocessed.smi

> <i_m_source_file_index>
334

> <i_lp_mmshare_version>
43012

> <i_f3d_flags>
0

> <s_epik_input>
W0NIMl0xW0NIMl1bQ0BIXShbQ0gyXTIpW0NAQEhdKFtDSDJdW0NAQEhdMTIpW0NASF0oW0NIM10pW05IXUMoPU8pW0NIMl1uM1tjSF1jKFtOK10oPU8pW08tXSlbY0hdW2NIXWMzPU8=

> <s_epik_cmdline>
J2VwaWtfcHl0aG9uJywgJy1waCcsICc3LjAnLCAnLXRuJywgJzgnLCAnLW1hJywgJzIwMCcsICctbWV0YWxfYmluZGluZycsICctaW1hZScsICc8aW5maWxlLm1hZT4nLCAnLW9tYWUnLCAnPG91dGZpbGUubWFlPic=

> <r_lp_tautomer_probability>
1

> <r_epik_Ionization_Penalty>
2.17081e-08

> <r_epik_Ionization_Penalty_Charging>
8.1195e-11

> <r_epik_Ionization_Penalty_Neutral>
2.16269e-08

> <r_epik_State_Penalty>
-0

> <r_epik_Charging_Adjusted_Penalty>
8.1195e-11

> <i_epik_Tot_Q>
0

> <i_epik_Tot_abs_Q>
2

> <r_epik_Metal_State_Penalty>
-0

> <b_epik_Metal_Only>
0

> <s_lp_Force_Field>
OPLS_2005

> <r_lp_Energy>
61.6475

> <b_lp_Chiralities_Consistent>
1

> <s_lp_Variant>
AV-unprocessed.smi:334-4

> <Gold.Version>
5.8.1

> <Gold.Id.Protein>
6NUR|6NUR_protein|mol2

> <Gold.PLP.Fitness>
57.5262

> <Gold.PLP.PLP>
-46.5071

> <Gold.PLP.part.hbond>
-3.0000

> <Gold.PLP.part.metal>
0.0000

> <Gold.PLP.part.buried>
-4.4667

> <Gold.PLP.part.nonpolar>
-41.8422

> <Gold.PLP.part.repulsive>
1.0952

> <Gold.PLP.ligand.clash>
0.0000

> <Gold.PLP.ligand.torsion>
0.4552

> <Gold.PLP.Chemscore.Hbond>
2.9670

> <Gold.PLP.Chemscore.CHOScore>
0.9889

> <Gold.PLP.Chemscore.Metal>
0.0000

> <Gold.Chemscore.Hbonds>
donor molecule, donor type, donor heavy atom, donor atom, acceptor molecule, acceptor atom, score
      L1  H     3    28       P1  8028  0.94
      P1  H  7954  7966       L1    11  0.93
      P1  H  7989  7998       L1     5  1.00
      L1  C     8    31       P1  7957  0.85

> <Gold.PLP.Chemscore.Internal.Correction>
0.0617

> <Gold.Rescore>
     Score         DG    S(hbond)    S(metal)    S(lipo)     H(rot)  DE(clash)    DE(int)     intcor
     22.91     -23.92       2.53        0.00     123.46       1.75       0.38       0.63       ----

> <Gold.Chemscore.Fitness>
22.9087

> <Gold.Chemscore.DG>
-23.9179

> <Gold.Chemscore.ZeroCoef>
-5.4800

> <Gold.Chemscore.Hbond>
2.5348

> <Gold.Chemscore.Metal>
0.0000

> <Gold.Chemscore.Lipo>
123.4612

> <Gold.Chemscore.Internal_Hbond>
0.0000

> <Gold.Chemscore.DEClash>
0.3781

> <Gold.Chemscore.DEInternal>
0.6311

> <Gold.Chemscore.Rot>
1.7474

> <Gold.Chemscore.Internal.Correction>
   9.000000E+99

> <Gold.Chemscore.Hbonds>
donor molecule, donor type, donor heavy atom, donor atom, acceptor molecule, acceptor atom, score
      L1  H     3    28       P1  8028  0.91
      P1  H  7954  7966       L1    11  0.91
      P1  H  7989  7998       L1     5  0.46

> <Gold.Chemscore.Hbond.Weighted>
-8.4663

> <Gold.Chemscore.Metal.Weighted>
-0.0000

> <Gold.Chemscore.Lipo.Weighted>
-14.4450

> <Gold.Chemscore.Internal_Hbond.Weighted>
0.0000

> <Gold.Chemscore.DEClash.Weighted>
0.3781

> <Gold.Chemscore.DEInternal.Weighted>
0.6311

> <Gold.Chemscore.Rot.Weighted>
4.4733

> <Gold.Chemscore.Internal.Correction.Weighted>
   9.000000E+99

> <Gold.Protein.RotatedTorsions>
[ 6907 6896 6895 6894 ] final   28.36 input  -60.11 | X-H torsion
[ 7974 7965 7964 7962 ] final -134.53 input  175.53 | X-H torsion
[ 8008 7997 7996 7995 ] final   91.33 input   59.86 | X-H torsion
[ 10167 10162 10161 10158 ] final  -27.21 input  -65.29 | X-H torsion
[ 10718 10713 10712 10709 ] final -124.61 input   66.30 | X-H torsion
[ 10763 10752 10751 10750 ] final  124.89 input  -60.55 | X-H torsion
[ 11005 11000 10999 10996 ] final   44.81 input  -57.11 | X-H torsion

> <Gold.Protein.ActiveResidues>
 VAL166  LYS551  ARG553  GLY616  TRP617  ASP618  TYR619  PRO620  LYS621  CYS622 
 ASP623  PHE694  ASN695  SER759  ASP760  ASP761  ALA762  ILE779  LEU786  VAL792 
 PHE793  MET794  SER795  GLU796  ALA797  LYS798  CYS799  TRP800  GLU811  SER814 

> <Gold.Protein.RotatedAtoms>
  152.0158  134.9851  160.0569 H   0  0  0  0  0  0  0  0  0  0  0  0  # atno 6907 bound_to 6896
  152.1385  133.4445  159.4763 H   0  0  0  0  0  0  0  0  0  0  0  0  # atno 6908 bound_to 6896
  150.6863  134.2252  159.4456 H   0  0  0  0  0  0  0  0  0  0  0  0  # atno 6909 bound_to 6896
  144.9095  140.6876  143.5034 H   0  0  0  0  0  0  0  0  0  0  0  0  # atno 7974 bound_to 7965
  156.0225  140.3339  155.7054 H   0  0  0  0  0  0  0  0  0  0  0  0  # atno 8008 bound_to 7997
  155.6002  140.0655  157.2753 H   0  0  0  0  0  0  0  0  0  0  0  0  # atno 8009 bound_to 7997
  154.4321  140.1812  156.1153 H   0  0  0  0  0  0  0  0  0  0  0  0  # atno 8010 bound_to 7997
  140.7278  143.4113  151.1101 H   0  0  0  0  0  0  0  0  0  0  0  0  # atno 10167 bound_to 10162
  156.1602  130.6597  151.0039 H   0  0  0  0  0  0  0  0  0  0  0  0  # atno 10718 bound_to 10713
  153.6686  135.3334  155.3147 H   0  0  0  0  0  0  0  0  0  0  0  0  # atno 10763 bound_to 10752
  154.8497  135.4381  154.1729 H   0  0  0  0  0  0  0  0  0  0  0  0  # atno 10764 bound_to 10752
  153.2714  135.7000  153.7552 H   0  0  0  0  0  0  0  0  0  0  0  0  # atno 10765 bound_to 10752
  140.1517  134.4453  155.8377 H   0  0  0  0  0  0  0  0  0  0  0  0  # atno 11005 bound_to 11000
  145.3479  139.1714  143.4450 LP  0  0  0  0  0  0  0  0  0  0  0  0  # atno 17320 bound_to 7965
  146.3151  140.3527  142.8657 LP  0  0  0  0  0  0  0  0  0  0  0  0  # atno 17321 bound_to 7965
  139.7746  143.8444  152.3127 LP  0  0  0  0  0  0  0  0  0  0  0  0  # atno 17342 bound_to 10162
  139.8374  144.7226  150.9374 LP  0  0  0  0  0  0  0  0  0  0  0  0  # atno 17343 bound_to 10162
  157.6727  131.0858  150.7573 LP  0  0  0  0  0  0  0  0  0  0  0  0  # atno 17370 bound_to 10713
  156.7636  130.4806  149.5432 LP  0  0  0  0  0  0  0  0  0  0  0  0  # atno 17371 bound_to 10713
  141.2200  133.6875  156.7434 LP  0  0  0  0  0  0  0  0  0  0  0  0  # atno 17394 bound_to 11000
  140.2596  134.8477  157.3746 LP  0  0  0  0  0  0  0  0  0  0  0  0  # atno 17395 bound_to 11000

$$$$
