#       Name:                AV-unprocessed.smi:918
#       Creating user name   scv26
#       Creation time:       Fri Mar 27 02:07:01 2020


#       File generated by GOLD software.
#

@<TRIPOS>MOLECULE
AV-unprocessed.smi:918
    39    40     1
SMALL
NO_CHARGES


@<TRIPOS>ATOM
      1 ****        -5.4150   0.0360  -0.0000 O.co2          1 S1                 0.0000
      2 ****        -4.1726  -0.1148   0.0000 C.2            1 S1                 0.0000
      3 ****        -3.6061  -1.2274   0.0000 O.co2          1 S1                -1.0000
      4 ****        -3.3099   1.2444   0.0000 C.2            1 S1                 0.0000
      5 ****        -3.9945   2.4096   0.0000 C.2            1 S1                 0.0000
      6 ****        -3.3047   3.6655   0.0000 C.2            1 S1                 0.0000
      7 ****        -1.9678   3.6912   0.0000 C.2            1 S1                 0.0000
      8 ****        -1.1719   2.4657   0.0000 C.2            1 S1                 0.0000
      9 ****         0.0531   2.5679   0.0000 O.2            1 S1                 0.0000
     10 ****        -1.8595   1.2638   0.0000 N.am           1 S1                 0.0000
     11 ****        -1.1339  -0.0432   0.0000 C.3            1 S1                 0.0000
     12 ****         0.4081  -0.1244  -0.0000 C.3            1 S1                 0.0000
     13 ****         0.7802  -1.4960  -0.0000 O.3            1 S1                 0.0000
     14 ****         2.1231  -1.8124  -0.0000 C.ar           1 S1                 0.0000
     15 ****         3.1622  -0.8464  -0.0000 C.ar           1 S1                 0.0000
     16 ****         4.5121  -1.2474  -0.0000 C.ar           1 S1                 0.0000
     17 ****         4.8432  -2.6145  -0.0000 C.ar           1 S1                 0.0000
     18 ****         3.8211  -3.5810  -0.0000 C.ar           1 S1                 0.0000
     19 ****         2.4697  -3.1825  -0.0000 C.ar           1 S1                 0.0000
     20 ****         1.2363  -4.3919   0.0000 Cl             1 S1                 0.0000
     21 ****        -5.0745   2.4312   0.0000 H              1 S1                 0.0000
     22 ****        -3.8645   4.5890   0.0000 H              1 S1                 0.0000
     23 ****        -1.4615   4.6455   0.0000 H              1 S1                 0.0000
     24 ****        -1.4509  -0.5951   0.8852 H              1 S1                 0.0000
     25 ****        -1.4509  -0.5951  -0.8852 H              1 S1                 0.0000
     26 ****         0.8149   0.3536  -0.8927 H              1 S1                 0.0000
     27 ****         0.8149   0.3536   0.8927 H              1 S1                 0.0000
     28 ****         2.9498   0.2118  -0.0000 H              1 S1                 0.0000
     29 ****         5.2947  -0.5031  -0.0000 H              1 S1                 0.0000
     30 ****         5.8789  -2.9212  -0.0000 H              1 S1                 0.0000
     31 ****         4.0750  -4.6309   0.0000 H              1 S1                 0.0000
     32 ****        -6.0157  -0.7635   0.0000 LP             1 S1                 0.0000
     33 ****        -5.8070   0.9559  -0.0000 LP             1 S1                 0.0000
     34 ****        -4.1509  -2.0660  -0.0000 LP             1 S1                 0.0000
     35 ****        -2.6075  -1.2801   0.0000 LP             1 S1                 0.0000
     36 ****         0.4794   3.4724   0.0000 LP             1 S1                 0.0000
     37 ****         0.6234   1.7464  -0.0000 LP             1 S1                 0.0000
     38 ****         0.3789  -1.9111  -0.8165 LP             1 S1                 0.0000
     39 ****         0.3789  -1.9111   0.8165 LP             1 S1                 0.0000
@<TRIPOS>BOND
    1    1    2 ar    
    2    2    3 ar    
    3    2    4 1     
    4    4   10 1     
    5    4    5 2     
    6    5    6 1     
    7    5   21 1     
    8    6    7 2     
    9    6   22 1     
   10    7    8 1     
   11    7   23 1     
   12    8    9 2     
   13    8   10 am    
   14   10   11 1     
   15   11   12 1     
   16   11   24 1     
   17   11   25 1     
   18   12   13 1     
   19   12   26 1     
   20   12   27 1     
   21   13   14 1     
   22   14   19 ar    
   23   14   15 ar    
   24   15   16 ar    
   25   15   28 1     
   26   16   17 ar    
   27   16   29 1     
   28   17   18 ar    
   29   17   30 1     
   30   18   19 ar    
   31   18   31 1     
   32   19   20 1     
   33    1   32 1     
   34    1   33 1     
   35    3   34 1     
   36    3   35 1     
   37    9   36 1     
   38    9   37 1     
   39   13   38 1     
   40   13   39 1     
@<TRIPOS>SUBSTRUCTURE
      1 S1             1
@<TRIPOS>SET
LONE_PAIRS      STATIC     ATOMS    <user>   **** ""
8 32 33 34 35 36 37 38 39
ATOM$BLUE        STATIC     ATOMS    COLORGROUP SYSTEM
8 32 33 34 35 36 37 38 39
