AV-unprocessed.smi:2244|AV-procd|sdf|9072|dock7
  -GOLD-   2272012273D 1   1.00000     0.00000
 Structure written by MMmdl.
 49 51  0  0  0  0  0  0  0  0  1 V2000
  149.8106  129.1137  156.4398 C   0  0  0  0  0  0  0  0  0  0  0  0
  150.9897  130.0121  156.0031 C   0  0  0  0  0  0  0  0  0  0  0  0
  151.9349  130.1586  157.2135 C   0  0  0  0  0  0  0  0  0  0  0  0
  151.7198  129.2896  154.8516 C   0  0  0  0  0  0  0  0  0  0  0  0
  150.5261  131.4030  155.5341 C   0  0  0  0  0  0  0  0  0  0  0  0
  149.6342  131.5986  154.4557 C   0  0  0  0  0  0  0  0  0  0  0  0
  149.2896  132.9192  154.1228 C   0  0  0  0  0  0  0  0  0  0  0  0
  149.8450  133.9730  154.8766 C   0  0  0  0  0  0  0  0  0  0  0  0
  149.4502  135.2780  154.4607 N   0  0  0  0  0  0  0  0  0  0  0  0
  149.5227  136.4742  155.0825 C   0  0  0  0  0  0  0  0  0  0  0  0
  150.0026  136.5725  156.2109 O   0  0  0  0  0  0  0  0  0  0  0  0
  149.0528  137.5308  154.3991 N   0  0  0  0  0  0  0  0  0  0  0  0
  149.0215  138.9076  154.8816 C   0  0  2  0  0  0  0  0  0  0  0  0
  148.1843  139.7711  153.9284 C   0  0  0  0  0  0  0  0  0  0  0  0
  148.2299  141.2475  154.3504 C   0  0  0  0  0  0  0  0  0  0  0  0
  149.5787  141.7069  154.4122 O   0  0  0  0  0  0  0  0  0  0  0  0
  150.4234  140.9958  155.3187 C   0  0  1  0  0  0  0  0  0  0  0  0
  150.0622  141.2793  156.7708 C   0  0  0  0  0  0  0  0  0  0  0  0
  150.5857  142.5137  157.4656 C   0  0  0  0  0  0  0  0  0  0  0  0
  151.0959  141.1491  157.8648 C   0  0  0  0  0  0  0  0  0  0  0  0
  150.4422  139.4930  154.9762 C   0  0  0  0  0  0  0  0  0  0  0  0
  150.6960  133.7087  155.9008 N   0  0  0  0  0  0  0  0  0  0  0  0
  151.0281  132.4558  156.2242 N   0  0  0  0  0  0  0  0  0  0  0  0
  150.1601  128.1322  156.7627 H   0  0  0  0  0  0  0  0  0  0  0  0
  149.1063  128.9478  155.6237 H   0  0  0  0  0  0  0  0  0  0  0  0
  149.2619  129.5467  157.2770 H   0  0  0  0  0  0  0  0  0  0  0  0
  151.4403  130.6689  158.0408 H   0  0  0  0  0  0  0  0  0  0  0  0
  152.8297  130.7295  156.9636 H   0  0  0  0  0  0  0  0  0  0  0  0
  152.2664  129.1859  157.5787 H   0  0  0  0  0  0  0  0  0  0  0  0
  152.0443  128.2922  155.1506 H   0  0  0  0  0  0  0  0  0  0  0  0
  152.6096  129.8326  154.5309 H   0  0  0  0  0  0  0  0  0  0  0  0
  151.0717  129.1770  153.9816 H   0  0  0  0  0  0  0  0  0  0  0  0
  149.2157  130.7829  153.8865 H   0  0  0  0  0  0  0  0  0  0  0  0
  148.6128  133.1149  153.3037 H   0  0  0  0  0  0  0  0  0  0  0  0
  149.0836  135.3206  153.5211 H   0  0  0  0  0  0  0  0  0  0  0  0
  148.6766  137.3636  153.4764 H   0  0  0  0  0  0  0  0  0  0  0  0
  148.5522  138.9238  155.8666 H   0  0  0  0  0  0  0  0  0  0  0  0
  148.5657  139.6775  152.9103 H   0  0  0  0  0  0  0  0  0  0  0  0
  147.1515  139.4213  153.9081 H   0  0  0  0  0  0  0  0  0  0  0  0
  147.6909  141.8568  153.6245 H   0  0  0  0  0  0  0  0  0  0  0  0
  147.7287  141.3936  155.3073 H   0  0  0  0  0  0  0  0  0  0  0  0
  151.4301  141.3834  155.1576 H   0  0  0  0  0  0  0  0  0  0  0  0
  149.0538  140.9818  157.0491 H   0  0  0  0  0  0  0  0  0  0  0  0
  151.2613  143.1601  156.9090 H   0  0  0  0  0  0  0  0  0  0  0  0
  149.9150  143.0229  158.1546 H   0  0  0  0  0  0  0  0  0  0  0  0
  150.7658  140.7475  158.8206 H   0  0  0  0  0  0  0  0  0  0  0  0
  152.1117  140.8875  157.5755 H   0  0  0  0  0  0  0  0  0  0  0  0
  151.0359  138.9496  155.7123 H   0  0  0  0  0  0  0  0  0  0  0  0
  150.9481  139.3605  154.0185 H   0  0  0  0  0  0  0  0  0  0  0  0
  1  2  1  0  0  0  0
  1 24  1  0  0  0  0
  1 25  1  0  0  0  0
  1 26  1  0  0  0  0
  2  3  1  0  0  0  0
  2  4  1  0  0  0  0
  2  5  1  0  0  0  0
  3 27  1  0  0  0  0
  3 28  1  0  0  0  0
  3 29  1  0  0  0  0
  4 30  1  0  0  0  0
  4 31  1  0  0  0  0
  4 32  1  0  0  0  0
  5 23  1  0  0  0  0
  5  6  2  0  0  0  0
  6  7  1  0  0  0  0
  6 33  1  0  0  0  0
  7  8  2  0  0  0  0
  7 34  1  0  0  0  0
  8  9  1  0  0  0  0
  8 22  1  0  0  0  0
  9 10  1  0  0  0  0
  9 35  1  0  0  0  0
 10 11  2  0  0  0  0
 10 12  1  0  0  0  0
 12 13  1  0  0  0  0
 12 36  1  0  0  0  0
 13 21  1  0  0  0  0
 13 14  1  0  0  0  0
 13 37  1  0  0  0  0
 14 15  1  0  0  0  0
 14 38  1  0  0  0  0
 14 39  1  0  0  0  0
 15 16  1  0  0  0  0
 15 40  1  0  0  0  0
 15 41  1  0  0  0  0
 16 17  1  0  0  0  0
 17 18  1  0  0  0  0
 17 21  1  0  0  0  0
 17 42  1  0  0  0  0
 18 20  1  0  0  0  0
 18 19  1  0  0  0  0
 18 43  1  0  0  0  0
 19 20  1  0  0  0  0
 19 44  1  0  0  0  0
 19 45  1  0  0  0  0
 20 46  1  0  0  0  0
 20 47  1  0  0  0  0
 21 48  1  0  0  0  0
 21 49  1  0  0  0  0
 22 23  2  0  0  0  0
M  END
> <s_m_source_file>
AV-unprocessed.smi

> <i_m_source_file_index>
2244

> <i_lp_mmshare_version>
43012

> <i_f3d_flags>
0

> <s_epik_input>
W0NIM11DKFtDSDNdKShbQ0gzXSljMVtjSF1bY0hdYyhubjEpW05IXUMoPU8pW05IXVtDQEBIXTJbQ0gyXVtDSDJdT1tDQEhdKFtDSDJdMilbQ0hdM1tDSDJdW0NIMl0z

> <s_epik_cmdline>
J2VwaWtfcHl0aG9uJywgJy1waCcsICc3LjAnLCAnLXRuJywgJzgnLCAnLW1hJywgJzIwMCcsICctbWV0YWxfYmluZGluZycsICctaW1hZScsICc8aW5maWxlLm1hZT4nLCAnLW9tYWUnLCAnPG91dGZpbGUubWFlPic=

> <r_lp_tautomer_probability>
1

> <r_epik_Ionization_Penalty>
0.011369

> <r_epik_Ionization_Penalty_Charging>
0

> <r_epik_Ionization_Penalty_Neutral>
0.011369

> <r_epik_State_Penalty>
0.00456331

> <r_epik_Charging_Adjusted_Penalty>
0.00456331

> <i_epik_Tot_Q>
0

> <i_epik_Tot_abs_Q>
0

> <r_epik_Metal_State_Penalty>
-0

> <b_epik_Metal_Only>
0

> <s_lp_Force_Field>
OPLS_2005

> <r_lp_Energy>
29.5867

> <b_lp_Chiralities_Consistent>
1

> <s_lp_Variant>
AV-unprocessed.smi:2244-1

> <Gold.Version>
5.8.1

> <Gold.Id.Protein>
6NUR|6NUR_protein|mol2

> <Gold.PLP.Fitness>
40.8454

> <Gold.PLP.PLP>
-34.8701

> <Gold.PLP.part.hbond>
-4.0000

> <Gold.PLP.part.metal>
0.0000

> <Gold.PLP.part.buried>
0.2339

> <Gold.PLP.part.nonpolar>
-29.4908

> <Gold.PLP.part.repulsive>
0.2664

> <Gold.PLP.ligand.clash>
0.0000

> <Gold.PLP.ligand.torsion>
0.6967

> <Gold.PLP.Chemscore.Hbond>
2.0966

> <Gold.PLP.Chemscore.CHOScore>
0.0000

> <Gold.PLP.Chemscore.Metal>
0.0000

> <Gold.Chemscore.Hbonds>
donor molecule, donor type, donor heavy atom, donor atom, acceptor molecule, acceptor atom, score
      L1  H     9    35       P1  7948  0.99
      L1  H    12    36       P1  7948  0.82
      P1  H  8011  8017       L1    16  0.28

> <Gold.PLP.Chemscore.Internal.Correction>
1.0789

> <Gold.Rescore>
     Score         DG    S(hbond)    S(metal)    S(lipo)     H(rot)  DE(clash)    DE(int)     intcor
     14.28     -16.53       1.47        0.00      80.86       1.30       0.39       1.86       ----

> <Gold.Chemscore.Fitness>
14.2801

> <Gold.Chemscore.DG>
-16.5312

> <Gold.Chemscore.ZeroCoef>
-5.4800

> <Gold.Chemscore.Hbond>
1.4728

> <Gold.Chemscore.Metal>
0.0000

> <Gold.Chemscore.Lipo>
80.8584

> <Gold.Chemscore.Internal_Hbond>
0.0000

> <Gold.Chemscore.DEClash>
0.3948

> <Gold.Chemscore.DEInternal>
1.8563

> <Gold.Chemscore.Rot>
1.3002

> <Gold.Chemscore.Internal.Correction>
   9.000000E+99

> <Gold.Chemscore.Hbonds>
donor molecule, donor type, donor heavy atom, donor atom, acceptor molecule, acceptor atom, score
      L1  H     9    35       P1  7948  0.47
      L1  H    12    36       P1  7948  0.80
      P1  H  8011  8017       L1    16  0.07

> <Gold.Chemscore.Hbond.Weighted>
-4.9192

> <Gold.Chemscore.Metal.Weighted>
-0.0000

> <Gold.Chemscore.Lipo.Weighted>
-9.4604

> <Gold.Chemscore.Internal_Hbond.Weighted>
0.0000

> <Gold.Chemscore.DEClash.Weighted>
0.3948

> <Gold.Chemscore.DEInternal.Weighted>
1.8563

> <Gold.Chemscore.Rot.Weighted>
3.3284

> <Gold.Chemscore.Internal.Correction.Weighted>
   9.000000E+99

> <Gold.Protein.RotatedTorsions>
[ 6907 6896 6895 6894 ] final   26.09 input  -60.11 | X-H torsion
[ 7974 7965 7964 7962 ] final  147.21 input  175.53 | X-H torsion
[ 8008 7997 7996 7995 ] final  -55.65 input   59.86 | X-H torsion
[ 10167 10162 10161 10158 ] final  136.93 input  -65.29 | X-H torsion
[ 10718 10713 10712 10709 ] final -112.60 input   66.30 | X-H torsion
[ 10763 10752 10751 10750 ] final   -8.86 input  -60.55 | X-H torsion
[ 11005 11000 10999 10996 ] final -151.49 input  -57.11 | X-H torsion

> <Gold.Protein.ActiveResidues>
 VAL166  LYS551  ARG553  GLY616  TRP617  ASP618  TYR619  PRO620  LYS621  CYS622 
 ASP623  PHE694  ASN695  SER759  ASP760  ASP761  ALA762  ILE779  LEU786  VAL792 
 PHE793  MET794  SER795  GLU796  ALA797  LYS798  CYS799  TRP800  GLU811  SER814 

> <Gold.Protein.RotatedAtoms>
  151.9823  135.0022  160.0557 H   0  0  0  0  0  0  0  0  0  0  0  0  # atno 6907 bound_to 6896
  152.1684  133.4623  159.4905 H   0  0  0  0  0  0  0  0  0  0  0  0  # atno 6908 bound_to 6896
  150.6898  134.1901  159.4325 H   0  0  0  0  0  0  0  0  0  0  0  0  # atno 6909 bound_to 6896
  144.8610  139.6000  143.5930 H   0  0  0  0  0  0  0  0  0  0  0  0  # atno 7974 bound_to 7965
  154.4202  140.1148  156.5510 H   0  0  0  0  0  0  0  0  0  0  0  0  # atno 8008 bound_to 7997
  155.6410  140.3496  155.4696 H   0  0  0  0  0  0  0  0  0  0  0  0  # atno 8009 bound_to 7997
  155.9871  140.1172  157.0663 H   0  0  0  0  0  0  0  0  0  0  0  0  # atno 8010 bound_to 7997
  139.5162  144.6438  151.5497 H   0  0  0  0  0  0  0  0  0  0  0  0  # atno 10167 bound_to 10162
  156.0715  130.5928  150.8530 H   0  0  0  0  0  0  0  0  0  0  0  0  # atno 10718 bound_to 10713
  153.4465  135.7014  153.6136 H   0  0  0  0  0  0  0  0  0  0  0  0  # atno 10763 bound_to 10752
  153.4489  135.3763  155.2272 H   0  0  0  0  0  0  0  0  0  0  0  0  # atno 10764 bound_to 10752
  154.8728  135.3992  154.3871 H   0  0  0  0  0  0  0  0  0  0  0  0  # atno 10765 bound_to 10752
  140.7290  134.3643  157.5170 H   0  0  0  0  0  0  0  0  0  0  0  0  # atno 11005 bound_to 11000
  146.2860  139.7006  142.9195 LP  0  0  0  0  0  0  0  0  0  0  0  0  # atno 17320 bound_to 7965
  145.4313  141.0415  143.2909 LP  0  0  0  0  0  0  0  0  0  0  0  0  # atno 17321 bound_to 7965
  140.6214  143.9250  150.6529 LP  0  0  0  0  0  0  0  0  0  0  0  0  # atno 17342 bound_to 10162
  140.2525  143.3583  152.1393 LP  0  0  0  0  0  0  0  0  0  0  0  0  # atno 17343 bound_to 10162
  157.5788  131.0946  150.9303 LP  0  0  0  0  0  0  0  0  0  0  0  0  # atno 17370 bound_to 10713
  156.9503  130.5417  149.5282 LP  0  0  0  0  0  0  0  0  0  0  0  0  # atno 17371 bound_to 10713
  139.8830  134.9005  156.2791 LP  0  0  0  0  0  0  0  0  0  0  0  0  # atno 17394 bound_to 11000
  140.9938  133.7193  156.0854 LP  0  0  0  0  0  0  0  0  0  0  0  0  # atno 17395 bound_to 11000

$$$$
