#       Name:                AV-unprocessed.smi:2686
#       Creating user name   scv26
#       Creation time:       Fri Mar 27 14:41:37 2020


#       File generated by GOLD software.
#

@<TRIPOS>MOLECULE
AV-unprocessed.smi:2686
    38    38     1
SMALL
NO_CHARGES


@<TRIPOS>ATOM
      1 ****        -4.6132   1.5587   2.2630 C.3            1 S1                 0.0000
      2 ****        -4.0044   0.2655   1.9912 N.am           1 S1                 0.0000
      3 ****        -2.7245  -0.0358   2.2506 C.2            1 S1                 0.0000
      4 ****        -1.9379   0.7577   2.7694 O.2            1 S1                 0.0000
      5 ****        -2.2775  -1.4574   1.8860 C.3            1 S1                 0.0000
      6 ****        -0.8481  -1.5470   1.5975 N.am           1 S1                 0.0000
      7 ****        -0.2697  -1.1851   0.4416 C.2            1 S1                 0.0000
      8 ****        -0.9057  -0.7505  -0.5202 O.2            1 S1                 0.0000
      9 ****         1.2570  -1.3391   0.3820 C.3            1 S1                 0.0000
     10 ****         1.8525  -0.8275  -0.8638 N.am           1 S1                 0.0000
     11 ****         2.2876   0.5122  -0.8580 C.2            1 S1                 0.0000
     12 ****         2.8560   1.1035  -1.9263 C.2            1 S1                 0.0000
     13 ****         3.2588   2.5698  -1.9086 C.3            1 S1                 0.0000
     14 ****         3.1944   3.1003  -3.1301 F              1 S1                 0.0000
     15 ****         2.4672   3.2779  -1.1021 F              1 S1                 0.0000
     16 ****         4.5111   2.6899  -1.4698 F              1 S1                 0.0000
     17 ****         2.9759   0.2940  -3.1230 C.2            1 S1                 0.0000
     18 ****         2.5516  -0.9846  -3.1500 C.2            1 S1                 0.0000
     19 ****         1.9506  -1.6184  -1.9741 C.2            1 S1                 0.0000
     20 ****         1.5584  -2.7854  -1.9876 O.2            1 S1                 0.0000
     21 ****        -5.6792   1.5224   2.0388 H              1 S1                 0.0000
     22 ****        -4.1606   2.3348   1.6447 H              1 S1                 0.0000
     23 ****        -4.4942   1.8361   3.3114 H              1 S1                 0.0000
     24 ****        -4.5887  -0.4412   1.5683 H              1 S1                 0.0000
     25 ****        -2.4993  -2.1156   2.7262 H              1 S1                 0.0000
     26 ****        -2.8535  -1.8289   1.0363 H              1 S1                 0.0000
     27 ****        -0.2546  -1.8882   2.3397 H              1 S1                 0.0000
     28 ****         1.6902  -0.8236   1.2406 H              1 S1                 0.0000
     29 ****         1.5095  -2.3910   0.5266 H              1 S1                 0.0000
     30 ****         2.1183   1.0339   0.0730 H              1 S1                 0.0000
     31 ****         3.4159   0.7191  -4.0130 H              1 S1                 0.0000
     32 ****         2.6576  -1.5577  -4.0593 H              1 S1                 0.0000
     33 ****        -2.2454   1.6763   3.0178 LP             1 S1                 0.0000
     34 ****        -0.9920   0.4833   2.9421 LP             1 S1                 0.0000
     35 ****        -1.8993  -0.6541  -0.4603 LP             1 S1                 0.0000
     36 ****        -0.4283  -0.4941  -1.3607 LP             1 S1                 0.0000
     37 ****         1.1510  -3.1855  -1.1667 LP             1 S1                 0.0000
     38 ****         1.6471  -3.3331  -2.8196 LP             1 S1                 0.0000
@<TRIPOS>BOND
    1    1    2 1     
    2    1   21 1     
    3    1   22 1     
    4    1   23 1     
    5    2    3 am    
    6    2   24 1     
    7    3    4 2     
    8    3    5 1     
    9    5    6 1     
   10    5   25 1     
   11    5   26 1     
   12    6    7 am    
   13    6   27 1     
   14    7    8 2     
   15    7    9 1     
   16    9   10 1     
   17    9   28 1     
   18    9   29 1     
   19   10   19 am    
   20   10   11 1     
   21   11   12 2     
   22   11   30 1     
   23   12   13 1     
   24   12   17 1     
   25   13   14 1     
   26   13   15 1     
   27   13   16 1     
   28   17   18 2     
   29   17   31 1     
   30   18   19 1     
   31   18   32 1     
   32   19   20 2     
   33    4   33 1     
   34    4   34 1     
   35    8   35 1     
   36    8   36 1     
   37   20   37 1     
   38   20   38 1     
@<TRIPOS>SUBSTRUCTURE
      1 S1             1
@<TRIPOS>SET
LONE_PAIRS      STATIC     ATOMS    <user>   **** ""
6 33 34 35 36 37 38
DONOR_HYDROGENS      STATIC     ATOMS    <user>   **** ""
2 24 27
ATOM$BLUE        STATIC     ATOMS    COLORGROUP SYSTEM
6 33 34 35 36 37 38
ATOM$RED        STATIC     ATOMS    COLORGROUP SYSTEM
2 24 27
