#       Name:                AV-unprocessed.smi:199
#       Creating user name   scv26
#       Creation time:       Thu Mar 26 19:44:13 2020


#       File generated by GOLD software.
#

@<TRIPOS>MOLECULE
AV-unprocessed.smi:199
    61    65     1
SMALL
NO_CHARGES


@<TRIPOS>ATOM
      1 ****        -6.0107   1.8041  -1.0897 C.3            1 S1                 0.0000
      2 ****        -5.2470   1.9299   0.2388 C.3            1 S1                 0.0000
      3 ****        -5.5202   3.1851   0.8611 O.3            1 S1                 0.0000
      4 ****        -4.3103   3.8968   1.0781 C.3            1 S1                 0.0000
      5 ****        -3.2515   2.8095   1.2011 C.3            1 S1                 0.0000
      6 ****        -3.7081   1.7863   0.1700 C.3            1 S1                 0.0000
      7 ****        -3.2173   2.1860  -1.1001 O.3            1 S1                 0.0000
      8 ****        -3.2197   0.3457   0.4529 C.3            1 S1                 0.0000
      9 ****        -1.7716   0.2348   0.5379 N.pl3          1 S1                 0.0000
     10 ****        -0.9992   0.3882   1.6654 C.2            1 S1                 0.0000
     11 ****         0.2842   0.2513   1.4799 N.2            1 S1                 0.0000
     12 ****         0.4137  -0.0338   0.1246 C.ar           1 S1                 0.0000
     13 ****         1.5126  -0.2987  -0.7475 C.ar           1 S1                 0.0000
     14 ****         2.8239  -0.3181  -0.3780 N.3            1 S1                 0.0000
     15 ****         3.2429  -0.6016   0.9868 C.3            1 S1                 0.0000
     16 ****         4.7547  -0.3201   0.9313 C.3            1 S1                 0.0000
     17 ****         5.0955  -0.7796  -0.4933 C.3            1 S1                 0.0000
     18 ****         3.7270  -1.2897  -0.9813 C.3            1 S1                 0.0000
     19 ****         3.3256  -2.6184  -0.2857 C.3            1 S1                 0.0000
     20 ****         4.3246  -3.7883  -0.3617 C.3            1 S1                 0.0000
     21 ****         4.5413  -4.1616  -1.7055 O.3            1 S1                 0.0000
     22 ****         3.0257  -2.1211   1.1407 C.3            1 S1                 0.0000
     23 ****         1.2234  -0.5246  -2.0563 N.ar           1 S1                 0.0000
     24 ****        -0.0401  -0.5115  -2.4880 C.ar           1 S1                 0.0000
     25 ****        -1.1552  -0.2885  -1.7924 N.ar           1 S1                 0.0000
     26 ****        -0.8777  -0.0490  -0.4796 C.ar           1 S1                 0.0000
     27 ****        -5.7985   0.8509  -1.5748 H              1 S1                 0.0000
     28 ****        -5.7471   2.6032  -1.7833 H              1 S1                 0.0000
     29 ****        -7.0864   1.8589  -0.9226 H              1 S1                 0.0000
     30 ****        -5.6397   1.1781   0.9245 H              1 S1                 0.0000
     31 ****        -4.1109   4.5336   0.2152 H              1 S1                 0.0000
     32 ****        -4.3700   4.5298   1.9637 H              1 S1                 0.0000
     33 ****        -2.2379   3.1787   1.0380 H              1 S1                 0.0000
     34 ****        -3.2952   2.3804   2.2033 H              1 S1                 0.0000
     35 ****        -2.2760   2.1004  -1.0991 H              1 S1                 0.0000
     36 ****        -3.6373  -0.0163   1.3935 H              1 S1                 0.0000
     37 ****        -3.5777  -0.3346  -0.3212 H              1 S1                 0.0000
     38 ****        -1.4190   0.6147   2.6347 H              1 S1                 0.0000
     39 ****         2.7593  -0.0097   1.7618 H              1 S1                 0.0000
     40 ****         4.9599   0.7447   1.0493 H              1 S1                 0.0000
     41 ****         5.3128  -0.8599   1.6971 H              1 S1                 0.0000
     42 ****         5.4162   0.0717  -1.0953 H              1 S1                 0.0000
     43 ****         5.8898  -1.5232  -0.5338 H              1 S1                 0.0000
     44 ****         3.6754  -1.3452  -2.0692 H              1 S1                 0.0000
     45 ****         2.3875  -2.9612  -0.7264 H              1 S1                 0.0000
     46 ****         5.2761  -3.5481   0.1113 H              1 S1                 0.0000
     47 ****         3.9234  -4.6503   0.1720 H              1 S1                 0.0000
     48 ****         5.1311  -4.9000  -1.7206 H              1 S1                 0.0000
     49 ****         3.6774  -2.5575   1.8986 H              1 S1                 0.0000
     50 ****         1.9950  -2.3476   1.4165 H              1 S1                 0.0000
     51 ****        -0.1762  -0.7051  -3.5418 H              1 S1                 0.0000
     52 ****        -5.9729   3.0274   1.7387 LP             1 S1                 0.0000
     53 ****        -6.1192   3.7242   0.2690 LP             1 S1                 0.0000
     54 ****        -3.4691   3.1379  -1.2745 LP             1 S1                 0.0000
     55 ****        -3.6082   1.6021  -1.8116 LP             1 S1                 0.0000
     56 ****         1.0127   0.3330   2.1601 LP             1 S1                 0.0000
     57 ****         2.8858   0.6384  -0.6630 LP             1 S1                 0.0000
     58 ****         4.9457  -3.3967  -2.2070 LP             1 S1                 0.0000
     59 ****         3.6720  -4.4157  -2.1293 LP             1 S1                 0.0000
     60 ****         1.9651  -0.7026  -2.7030 LP             1 S1                 0.0000
     61 ****        -2.0757  -0.2959  -2.1830 LP             1 S1                 0.0000
@<TRIPOS>BOND
    1    1    2 1     
    2    1   27 1     
    3    1   28 1     
    4    1   29 1     
    5    2    6 1     
    6    2    3 1     
    7    2   30 1     
    8    3    4 1     
    9    4    5 1     
   10    4   31 1     
   11    4   32 1     
   12    5    6 1     
   13    5   33 1     
   14    5   34 1     
   15    6    7 1     
   16    6    8 1     
   17    7   35 1     
   18    8    9 1     
   19    8   36 1     
   20    8   37 1     
   21    9   26 1     
   22    9   10 1     
   23   10   11 2     
   24   10   38 1     
   25   11   12 1     
   26   12   26 ar    
   27   12   13 ar    
   28   13   14 1     
   29   13   23 ar    
   30   14   18 1     
   31   14   15 1     
   32   15   22 1     
   33   15   16 1     
   34   15   39 1     
   35   16   17 1     
   36   16   40 1     
   37   16   41 1     
   38   17   18 1     
   39   17   42 1     
   40   17   43 1     
   41   18   19 1     
   42   18   44 1     
   43   19   20 1     
   44   19   22 1     
   45   19   45 1     
   46   20   21 1     
   47   20   46 1     
   48   20   47 1     
   49   21   48 1     
   50   22   49 1     
   51   22   50 1     
   52   23   24 ar    
   53   24   25 ar    
   54   24   51 1     
   55   25   26 ar    
   56    3   52 1     
   57    3   53 1     
   58    7   54 1     
   59    7   55 1     
   60   11   56 1     
   61   14   57 1     
   62   21   58 1     
   63   21   59 1     
   64   23   60 1     
   65   25   61 1     
@<TRIPOS>SUBSTRUCTURE
      1 S1             1
@<TRIPOS>SET
LONE_PAIRS      STATIC     ATOMS    <user>   **** ""
10 52 53 54 55 56 57 58 59 60 61
DONOR_HYDROGENS      STATIC     ATOMS    <user>   **** ""
2 35 48
ATOM$BLUE        STATIC     ATOMS    COLORGROUP SYSTEM
10 52 53 54 55 56 57 58 59 60 61
ATOM$RED        STATIC     ATOMS    COLORGROUP SYSTEM
2 35 48
