#       Name:                AV-unprocessed.smi:672
#       Creating user name   scv26
#       Creation time:       Fri Mar 27 00:25:15 2020


#       File generated by GOLD software.
#

@<TRIPOS>MOLECULE
AV-unprocessed.smi:672
    40    41     1
SMALL
NO_CHARGES


@<TRIPOS>ATOM
      1 ****        -7.0788   2.1965  -0.7048 C.3            1 S1                 0.0000
      2 ****        -6.3020   1.9714   0.5967 C.3            1 S1                 0.0000
      3 ****        -4.9833   1.3095   0.3723 C.2            1 S1                 0.0000
      4 ****        -4.8371  -0.0211   0.3454 N.2            1 S1                 0.0000
      5 ****        -3.5254  -0.4016   0.0995 N.2            1 S1                 0.0000
      6 ****        -2.7207   0.6570  -0.0678 C.2            1 S1                 0.0000
      7 ****        -1.3294   0.5563  -0.3342 N.am           1 S1                 0.0000
      8 ****        -0.5783  -0.5546  -0.4326 C.2            1 S1                 0.0000
      9 ****        -0.9913  -1.7077  -0.3062 O.2            1 S1                 0.0000
     10 ****         0.7035  -0.2529  -0.6857 N.am           1 S1                 0.0000
     11 ****         1.7790  -1.2290  -0.8465 C.3            1 S1                 0.0000
     12 ****         2.9808  -0.6057  -1.5821 C.3            1 S1                 0.0000
     13 ****         4.2154  -0.9499  -0.7467 C.3            1 S1                 0.0000
     14 ****         3.6876  -1.0528   0.6831 C.3            1 S1                 0.0000
     15 ****         4.7812  -1.9938   1.7861 S.3            1 S1                 0.0000
     16 ****         6.1640  -0.8326   1.9385 C.3            1 S1                 0.0000
     17 ****         2.3159  -1.7105   0.5163 C.3            1 S1                 0.0000
     18 ****        -3.5099   2.2197   0.0590 S.3            1 S1                 0.0000
     19 ****        -8.0354   2.6800  -0.5063 H              1 S1                 0.0000
     20 ****        -7.2811   1.2519  -1.2107 H              1 S1                 0.0000
     21 ****        -6.5198   2.8324  -1.3918 H              1 S1                 0.0000
     22 ****        -6.1329   2.9247   1.0978 H              1 S1                 0.0000
     23 ****        -6.8918   1.3602   1.2807 H              1 S1                 0.0000
     24 ****        -0.8482   1.4347  -0.4577 H              1 S1                 0.0000
     25 ****         0.9557   0.7204  -0.7742 H              1 S1                 0.0000
     26 ****         1.4108  -2.0850  -1.4155 H              1 S1                 0.0000
     27 ****         3.0703  -0.9709  -2.6056 H              1 S1                 0.0000
     28 ****         2.8804   0.4795  -1.6363 H              1 S1                 0.0000
     29 ****         4.6155  -1.9130  -1.0667 H              1 S1                 0.0000
     30 ****         5.0075  -0.2083  -0.8527 H              1 S1                 0.0000
     31 ****         3.5497  -0.0503   1.0910 H              1 S1                 0.0000
     32 ****         6.9153  -1.2336   2.6188 H              1 S1                 0.0000
     33 ****         5.8179   0.1237   2.3308 H              1 S1                 0.0000
     34 ****         6.6333  -0.6639   0.9694 H              1 S1                 0.0000
     35 ****         1.6511  -1.4852   1.3515 H              1 S1                 0.0000
     36 ****         2.4295  -2.7952   0.4856 H              1 S1                 0.0000
     37 ****        -5.5874  -0.6670   0.4864 LP             1 S1                 0.0000
     38 ****        -3.2175  -1.3519   0.0528 LP             1 S1                 0.0000
     39 ****        -1.9584  -1.8742  -0.1140 LP             1 S1                 0.0000
     40 ****        -0.3595  -2.4777  -0.3957 LP             1 S1                 0.0000
@<TRIPOS>BOND
    1    1    2 1     
    2    1   19 1     
    3    1   20 1     
    4    1   21 1     
    5    2    3 1     
    6    2   22 1     
    7    2   23 1     
    8    3   18 1     
    9    3    4 2     
   10    4    5 1     
   11    5    6 2     
   12    6    7 1     
   13    6   18 1     
   14    7    8 am    
   15    7   24 1     
   16    8    9 2     
   17    8   10 am    
   18   10   11 1     
   19   10   25 1     
   20   11   17 1     
   21   11   12 1     
   22   11   26 1     
   23   12   13 1     
   24   12   27 1     
   25   12   28 1     
   26   13   14 1     
   27   13   29 1     
   28   13   30 1     
   29   14   15 1     
   30   14   17 1     
   31   14   31 1     
   32   15   16 1     
   33   16   32 1     
   34   16   33 1     
   35   16   34 1     
   36   17   35 1     
   37   17   36 1     
   38    4   37 1     
   39    5   38 1     
   40    9   39 1     
   41    9   40 1     
@<TRIPOS>SUBSTRUCTURE
      1 S1             1
@<TRIPOS>SET
LONE_PAIRS      STATIC     ATOMS    <user>   **** ""
4 37 38 39 40
DONOR_HYDROGENS      STATIC     ATOMS    <user>   **** ""
2 24 25
ATOM$BLUE        STATIC     ATOMS    COLORGROUP SYSTEM
4 37 38 39 40
ATOM$RED        STATIC     ATOMS    COLORGROUP SYSTEM
2 24 25
