AV-unprocessed.smi:221|AV-procd|sdf|1692|dock7
  -GOLD-   2262020133D 1   1.00000     0.00000
 Structure written by MMmdl.
 50 53  0  0  0  0  0  0  0  0  1 V2000
  150.4386  144.1721  157.7937 N   0  0  0  0  0  0  0  0  0  0  0  0
  151.7096  143.9650  158.1516 C   0  0  0  0  0  0  0  0  0  0  0  0
  152.6240  144.6642  157.7194 O   0  0  0  0  0  0  0  0  0  0  0  0
  151.9974  142.8152  159.1399 C   0  0  2  0  0  0  0  0  0  0  0  0
  153.4807  142.4771  159.3400 C   0  0  0  0  0  0  0  0  0  0  0  0
  153.4329  141.1144  160.0346 C   0  0  2  0  0  0  0  0  0  0  0  0
  154.3893  140.3089  159.5729 F   0  0  0  0  0  0  0  0  0  0  0  0
  152.0276  140.5580  159.7470 C   0  0  0  0  0  0  0  0  0  0  0  0
  151.3500  141.5214  158.8812 N   0  0  0  0  0  0  0  0  0  0  0  0
  151.2380  141.0811  157.6015 C   0  0  0  0  0  0  0  0  0  0  0  0
  152.2662  140.4322  156.9923 N   0  0  0  0  0  0  0  0  0  0  0  0
  152.1353  140.0042  155.7330 C   0  0  0  0  0  0  0  0  0  0  0  0
  151.0824  140.1132  154.9192 N   0  0  0  0  0  0  0  0  0  0  0  0
  150.0493  140.7592  155.5320 C   0  0  0  0  0  0  0  0  0  0  0  0
  150.0436  141.2702  156.8592 C   0  0  0  0  0  0  0  0  0  0  0  0
  148.8207  141.8670  157.1375 N   0  0  0  0  0  0  0  0  0  0  0  0
  148.1380  141.7141  156.0352 C   0  0  0  0  0  0  0  0  0  0  0  0
  148.7983  141.0549  155.0224 N   0  0  0  0  0  0  0  0  0  0  0  0
  148.2812  140.7471  153.7009 C   0  0  0  0  0  0  0  0  0  0  0  0
  147.0741  139.7763  153.7240 C   0  0  1  0  0  0  0  0  0  0  0  0
  146.4683  139.5379  152.3197 C   0  0  0  0  0  0  0  0  0  0  0  0
  147.4405  139.0630  151.4113 O   0  0  0  0  0  0  0  0  0  0  0  0
  147.4299  138.4536  154.4486 C   0  0  2  0  0  0  0  0  0  0  0  0
  146.2794  137.4756  154.6078 C   0  0  0  0  0  0  0  0  0  0  0  0
  146.7893  136.5589  155.7138 C   0  0  0  0  0  0  0  0  0  0  0  0
  147.5850  137.3835  156.5570 O   0  0  0  0  0  0  0  0  0  0  0  0
  147.8532  138.6246  155.9117 C   0  0  0  0  0  0  0  0  0  0  0  0
  151.6027  143.1560  160.0986 H   0  0  0  0  0  0  0  0  0  0  0  0
  153.5890  141.2164  161.1089 H   0  0  0  0  0  0  0  0  0  0  0  0
  150.2146  144.9149  157.1476 H   0  0  0  0  0  0  0  0  0  0  0  0
  149.7076  143.5849  158.1688 H   0  0  0  0  0  0  0  0  0  0  0  0
  153.9961  142.3989  158.3816 H   0  0  0  0  0  0  0  0  0  0  0  0
  154.0042  143.2255  159.9357 H   0  0  0  0  0  0  0  0  0  0  0  0
  152.0737  139.5552  159.3161 H   0  0  0  0  0  0  0  0  0  0  0  0
  151.4592  140.4731  160.6739 H   0  0  0  0  0  0  0  0  0  0  0  0
  152.9971  139.5020  155.3188 H   0  0  0  0  0  0  0  0  0  0  0  0
  147.1242  142.0734  155.9317 H   0  0  0  0  0  0  0  0  0  0  0  0
  148.0016  141.6828  153.2149 H   0  0  0  0  0  0  0  0  0  0  0  0
  149.0995  140.3289  153.1144 H   0  0  0  0  0  0  0  0  0  0  0  0
  146.2917  140.2603  154.3105 H   0  0  0  0  0  0  0  0  0  0  0  0
  145.6511  138.8186  152.3657 H   0  0  0  0  0  0  0  0  0  0  0  0
  146.0333  140.4543  151.9204 H   0  0  0  0  0  0  0  0  0  0  0  0
  148.2467  139.5326  151.5623 H   0  0  0  0  0  0  0  0  0  0  0  0
  148.2366  137.9495  153.9135 H   0  0  0  0  0  0  0  0  0  0  0  0
  145.3781  137.9946  154.9374 H   0  0  0  0  0  0  0  0  0  0  0  0
  146.0464  136.9307  153.6926 H   0  0  0  0  0  0  0  0  0  0  0  0
  145.9806  136.0819  156.2678 H   0  0  0  0  0  0  0  0  0  0  0  0
  147.4229  135.7756  155.2960 H   0  0  0  0  0  0  0  0  0  0  0  0
  148.9038  138.8979  156.0121 H   0  0  0  0  0  0  0  0  0  0  0  0
  147.2567  139.3965  156.4003 H   0  0  0  0  0  0  0  0  0  0  0  0
  1  2  1  0  0  0  0
  1 30  1  0  0  0  0
  1 31  1  0  0  0  0
  2  3  2  0  0  0  0
  2  4  1  0  0  0  0
  4 28  1  0  0  0  0
  4  9  1  0  0  0  0
  4  5  1  0  0  0  0
  5  6  1  0  0  0  0
  5 32  1  0  0  0  0
  5 33  1  0  0  0  0
  6 29  1  0  0  0  0
  6  7  1  0  0  0  0
  6  8  1  0  0  0  0
  8  9  1  0  0  0  0
  8 34  1  0  0  0  0
  8 35  1  0  0  0  0
  9 10  1  0  0  0  0
 10 15  1  0  0  0  0
 10 11  2  0  0  0  0
 11 12  1  0  0  0  0
 12 13  2  0  0  0  0
 12 36  1  0  0  0  0
 13 14  1  0  0  0  0
 14 18  1  0  0  0  0
 14 15  2  0  0  0  0
 15 16  1  0  0  0  0
 16 17  2  0  0  0  0
 17 18  1  0  0  0  0
 17 37  1  0  0  0  0
 18 19  1  0  0  0  0
 19 20  1  0  0  0  0
 19 38  1  0  0  0  0
 19 39  1  0  0  0  0
 20 21  1  0  0  0  0
 20 23  1  0  0  0  0
 20 40  1  0  0  0  0
 21 22  1  0  0  0  0
 21 41  1  0  0  0  0
 21 42  1  0  0  0  0
 22 43  1  0  0  0  0
 23 27  1  0  0  0  0
 23 24  1  0  0  0  0
 23 44  1  0  0  0  0
 24 25  1  0  0  0  0
 24 45  1  0  0  0  0
 24 46  1  0  0  0  0
 25 26  1  0  0  0  0
 25 47  1  0  0  0  0
 25 48  1  0  0  0  0
 26 27  1  0  0  0  0
 27 49  1  0  0  0  0
 27 50  1  0  0  0  0
M  END
> <s_m_source_file>
AV-unprocessed.smi

> <i_m_source_file_index>
221

> <i_lp_mmshare_version>
43012

> <i_f3d_flags>
0

> <s_epik_input>
W05IMl1DKD1PKVtDQEBIXTFbQ0gyXVtDQEBIXShGKVtDSDJdTjFjKG5bY0hdbjIpYyhjMjMpbltjSF1uM1tDSDJdW0NASF0oW0NIMl1bT0hdKVtDQEBIXTRbQ0gyXVtDSDJdT1tDSDJdNA==

> <s_epik_cmdline>
J2VwaWtfcHl0aG9uJywgJy1waCcsICc3LjAnLCAnLXRuJywgJzgnLCAnLW1hJywgJzIwMCcsICctbWV0YWxfYmluZGluZycsICctaW1hZScsICc8aW5maWxlLm1hZT4nLCAnLW9tYWUnLCAnPG91dGZpbGUubWFlPic=

> <r_lp_tautomer_probability>
1

> <r_epik_Ionization_Penalty>
0.000818822

> <r_epik_Ionization_Penalty_Charging>
0

> <r_epik_Ionization_Penalty_Neutral>
0.000818822

> <r_epik_State_Penalty>
0.000440551

> <r_epik_Charging_Adjusted_Penalty>
0.000440551

> <i_epik_Tot_Q>
0

> <i_epik_Tot_abs_Q>
0

> <r_epik_Metal_State_Penalty>
-0

> <b_epik_Metal_Only>
0

> <s_lp_Force_Field>
OPLS_2005

> <r_lp_Energy>
53.4739

> <b_lp_Chiralities_Consistent>
1

> <s_lp_Variant>
AV-unprocessed.smi:221-7

> <Gold.Version>
5.8.1

> <Gold.Id.Protein>
6NUR|6NUR_protein|mol2

> <Gold.PLP.Fitness>
47.3157

> <Gold.PLP.PLP>
-38.3513

> <Gold.PLP.part.hbond>
-6.1129

> <Gold.PLP.part.metal>
0.0000

> <Gold.PLP.part.buried>
0.5694

> <Gold.PLP.part.nonpolar>
-32.7709

> <Gold.PLP.part.repulsive>
0.2287

> <Gold.PLP.ligand.clash>
0.0000

> <Gold.PLP.ligand.torsion>
0.9174

> <Gold.PLP.Chemscore.Hbond>
3.5432

> <Gold.PLP.Chemscore.CHOScore>
0.0000

> <Gold.PLP.Chemscore.Metal>
0.0000

> <Gold.Chemscore.Hbonds>
donor molecule, donor type, donor heavy atom, donor atom, acceptor molecule, acceptor atom, score
      L1  H     1    30       P1  8028  0.47
      L1  H    22    43       P1  7957  0.84
      P1  H  7954  7966       L1    22  0.56
      P1  H  7989  7998       L1    13  1.00
      P1  H  7997  8010       L1    11  0.16

> <Gold.PLP.Chemscore.Internal.Correction>
0.1696

> <Gold.Rescore>
     Score         DG    S(hbond)    S(metal)    S(lipo)     H(rot)  DE(clash)    DE(int)     intcor
      5.98      -9.23       1.66        0.00      66.02       3.72       1.26       1.99       ----

> <Gold.Chemscore.Fitness>
5.9839

> <Gold.Chemscore.DG>
-9.2287

> <Gold.Chemscore.ZeroCoef>
-5.4800

> <Gold.Chemscore.Hbond>
1.6611

> <Gold.Chemscore.Metal>
0.0000

> <Gold.Chemscore.Lipo>
66.0211

> <Gold.Chemscore.Internal_Hbond>
0.0000

> <Gold.Chemscore.DEClash>
1.2593

> <Gold.Chemscore.DEInternal>
1.9856

> <Gold.Chemscore.Rot>
3.7202

> <Gold.Chemscore.Internal.Correction>
   9.000000E+99

> <Gold.Chemscore.Hbonds>
donor molecule, donor type, donor heavy atom, donor atom, acceptor molecule, acceptor atom, score
      L1  H     1    30       P1  8028  0.11
      L1  H    22    43       P1  7957  0.79
      P1  H  7954  7966       L1    22  0.07
      P1  H  7989  7998       L1    13  0.53
      P1  H  7997  8010       L1    11  0.01

> <Gold.Chemscore.Hbond.Weighted>
-5.5480

> <Gold.Chemscore.Metal.Weighted>
-0.0000

> <Gold.Chemscore.Lipo.Weighted>
-7.7245

> <Gold.Chemscore.Internal_Hbond.Weighted>
0.0000

> <Gold.Chemscore.DEClash.Weighted>
1.2593

> <Gold.Chemscore.DEInternal.Weighted>
1.9856

> <Gold.Chemscore.Rot.Weighted>
9.5237

> <Gold.Chemscore.Internal.Correction.Weighted>
   9.000000E+99

> <Gold.Protein.RotatedTorsions>
[ 6907 6896 6895 6894 ] final  -44.80 input  -60.11 | X-H torsion
[ 7974 7965 7964 7962 ] final  -21.48 input  175.53 | X-H torsion
[ 8008 7997 7996 7995 ] final   44.66 input   59.86 | X-H torsion
[ 10167 10162 10161 10158 ] final  -52.12 input  -65.29 | X-H torsion
[ 10718 10713 10712 10709 ] final  -67.03 input   66.30 | X-H torsion
[ 10763 10752 10751 10750 ] final   34.06 input  -60.55 | X-H torsion
[ 11005 11000 10999 10996 ] final -123.11 input  -57.11 | X-H torsion

> <Gold.Protein.ActiveResidues>
 VAL166  LYS551  ARG553  GLY616  TRP617  ASP618  TYR619  PRO620  LYS621  CYS622 
 ASP623  PHE694  ASN695  SER759  ASP760  ASP761  ALA762  ILE779  LEU786  VAL792 
 PHE793  MET794  SER795  GLU796  ALA797  LYS798  CYS799  TRP800  GLU811  SER814 

> <Gold.Protein.RotatedAtoms>
  150.9288  134.8704  159.7537 H   0  0  0  0  0  0  0  0  0  0  0  0  # atno 6907 bound_to 6896
  152.5028  134.4109  159.9458 H   0  0  0  0  0  0  0  0  0  0  0  0  # atno 6908 bound_to 6896
  151.4137  133.3679  159.2782 H   0  0  0  0  0  0  0  0  0  0  0  0  # atno 6909 bound_to 6896
  146.1730  140.4347  142.8525 H   0  0  0  0  0  0  0  0  0  0  0  0  # atno 7974 bound_to 7965
  155.3229  140.3398  155.4241 H   0  0  0  0  0  0  0  0  0  0  0  0  # atno 8008 bound_to 7997
  156.1900  140.1694  156.8148 H   0  0  0  0  0  0  0  0  0  0  0  0  # atno 8009 bound_to 7997
  154.5431  140.0721  156.8526 H   0  0  0  0  0  0  0  0  0  0  0  0  # atno 8010 bound_to 7997
  140.6553  143.2595  151.4603 H   0  0  0  0  0  0  0  0  0  0  0  0  # atno 10167 bound_to 10162
  156.0579  130.4271  150.1796 H   0  0  0  0  0  0  0  0  0  0  0  0  # atno 10718 bound_to 10713
  153.0182  135.6370  154.1609 H   0  0  0  0  0  0  0  0  0  0  0  0  # atno 10763 bound_to 10752
  154.1346  135.2838  155.3178 H   0  0  0  0  0  0  0  0  0  0  0  0  # atno 10764 bound_to 10752
  154.6169  135.5538  153.7595 H   0  0  0  0  0  0  0  0  0  0  0  0  # atno 10765 bound_to 10752
  140.9944  134.0493  157.3615 H   0  0  0  0  0  0  0  0  0  0  0  0  # atno 11005 bound_to 11000
  144.8192  140.6521  143.6364 LP  0  0  0  0  0  0  0  0  0  0  0  0  # atno 17320 bound_to 7965
  145.4288  139.1552  143.4034 LP  0  0  0  0  0  0  0  0  0  0  0  0  # atno 17321 bound_to 7965
  139.5775  144.1785  152.1923 LP  0  0  0  0  0  0  0  0  0  0  0  0  # atno 17342 bound_to 10162
  140.1100  144.5465  150.6931 LP  0  0  0  0  0  0  0  0  0  0  0  0  # atno 17343 bound_to 10162
  156.9869  130.9881  151.3424 LP  0  0  0  0  0  0  0  0  0  0  0  0  # atno 17370 bound_to 10713
  157.5565  130.8217  149.8211 LP  0  0  0  0  0  0  0  0  0  0  0  0  # atno 17371 bound_to 10713
  139.9007  135.0163  156.7256 LP  0  0  0  0  0  0  0  0  0  0  0  0  # atno 17394 bound_to 11000
  140.6989  133.9324  155.8012 LP  0  0  0  0  0  0  0  0  0  0  0  0  # atno 17395 bound_to 11000

$$$$
