AV-unprocessed.smi:811|AV-procd|sdf|3811|dock2
  -GOLD-   22720 1253D 1   1.00000     0.00000
 Structure written by MMmdl.
 46 48  0  0  0  0  0  0  0  0  2 V2000
  144.4254  134.9727  150.4266 C   0  0  0  0  0  0  0  0  0  0  0  0
  144.6608  136.3274  150.9666 N   0  3  1  0  0  0  0  0  0  0  0  0
  144.0832  136.5670  152.3103 C   0  0  0  0  0  0  0  0  0  0  0  0
  145.0739  137.4708  153.0641 C   0  0  0  0  0  0  0  0  0  0  0  0
  146.0845  137.9026  151.9986 C   0  0  1  0  0  0  0  0  0  0  0  0
  147.4206  138.1819  152.5140 N   0  0  0  0  0  0  0  0  0  0  0  0
  147.6817  139.0178  153.5286 C   0  0  0  0  0  0  0  0  0  0  0  0
  146.8065  139.6251  154.1450 O   0  0  0  0  0  0  0  0  0  0  0  0
  148.9997  139.0804  153.7852 N   0  0  0  0  0  0  0  0  0  0  0  0
  149.6718  139.8927  154.7381 C   0  0  0  0  0  0  0  0  0  0  0  0
  151.0170  139.5987  155.0335 C   0  0  0  0  0  0  0  0  0  0  0  0
  151.7110  140.4022  155.9579 C   0  0  0  0  0  0  0  0  0  0  0  0
  151.0430  141.4933  156.5623 C   0  0  0  0  0  0  0  0  0  0  0  0
  151.7174  142.3156  157.4916 N   0  0  0  0  0  0  0  0  0  0  0  0
  152.1893  141.6490  158.7030 C   0  0  0  0  0  0  0  0  0  0  0  0
  153.1556  142.5623  159.4773 C   0  0  0  0  0  0  0  0  0  0  0  0
  152.5312  143.8143  159.7412 O   0  0  0  0  0  0  0  0  0  0  0  0
  152.1863  144.4958  158.5399 C   0  0  0  0  0  0  0  0  0  0  0  0
  151.1809  143.6533  157.7374 C   0  0  0  0  0  0  0  0  0  0  0  0
  149.7545  141.7878  156.2612 N   0  0  0  0  0  0  0  0  0  0  0  0
  149.0911  141.0130  155.3779 C   0  0  0  0  0  0  0  0  0  0  0  0
  146.0796  136.7195  151.0356 C   0  0  0  0  0  0  0  0  0  0  0  0
  144.8918  134.2111  151.0531 H   0  0  0  0  0  0  0  0  0  0  0  0
  144.8368  134.8879  149.4204 H   0  0  0  0  0  0  0  0  0  0  0  0
  143.3561  134.7655  150.3729 H   0  0  0  0  0  0  0  0  0  0  0  0
  143.1089  137.0443  152.2019 H   0  0  0  0  0  0  0  0  0  0  0  0
  143.9368  135.6333  152.8554 H   0  0  0  0  0  0  0  0  0  0  0  0
  144.5852  138.3221  153.5395 H   0  0  0  0  0  0  0  0  0  0  0  0
  145.5699  136.8945  153.8469 H   0  0  0  0  0  0  0  0  0  0  0  0
  145.7012  138.7800  151.4727 H   0  0  0  0  0  0  0  0  0  0  0  0
  148.1961  137.7157  152.0660 H   0  0  0  0  0  0  0  0  0  0  0  0
  149.5890  138.4496  153.2618 H   0  0  0  0  0  0  0  0  0  0  0  0
  151.5160  138.7664  154.5588 H   0  0  0  0  0  0  0  0  0  0  0  0
  152.7454  140.1837  156.1770 H   0  0  0  0  0  0  0  0  0  0  0  0
  151.3283  141.4040  159.3264 H   0  0  0  0  0  0  0  0  0  0  0  0
  152.6944  140.7112  158.4774 H   0  0  0  0  0  0  0  0  0  0  0  0
  153.4320  142.0986  160.4242 H   0  0  0  0  0  0  0  0  0  0  0  0
  154.0791  142.7156  158.9167 H   0  0  0  0  0  0  0  0  0  0  0  0
  151.7490  145.4620  158.7919 H   0  0  0  0  0  0  0  0  0  0  0  0
  153.0835  144.6962  157.9519 H   0  0  0  0  0  0  0  0  0  0  0  0
  150.9650  144.1533  156.7922 H   0  0  0  0  0  0  0  0  0  0  0  0
  150.2413  143.5709  158.2856 H   0  0  0  0  0  0  0  0  0  0  0  0
  148.0797  141.3281  155.1736 H   0  0  0  0  0  0  0  0  0  0  0  0
  146.6721  135.8952  151.4378 H   0  0  0  0  0  0  0  0  0  0  0  0
  146.4733  136.9766  150.0516 H   0  0  0  0  0  0  0  0  0  0  0  0
  144.2139  136.9862  150.3447 H   0  0  0  0  0  0  0  0  0  0  0  0
  1  2  1  0  0  0  0
  1 23  1  0  0  0  0
  1 24  1  0  0  0  0
  1 25  1  0  0  0  0
  2 22  1  0  0  0  0
  2  3  1  0  0  0  0
  2 46  1  0  0  0  0
  3  4  1  0  0  0  0
  3 26  1  0  0  0  0
  3 27  1  0  0  0  0
  4  5  1  0  0  0  0
  4 28  1  0  0  0  0
  4 29  1  0  0  0  0
  5  6  1  0  0  0  0
  5 22  1  0  0  0  0
  5 30  1  0  0  0  0
  6  7  1  0  0  0  0
  6 31  1  0  0  0  0
  7  8  2  0  0  0  0
  7  9  1  0  0  0  0
  9 10  1  0  0  0  0
  9 32  1  0  0  0  0
 10 21  1  0  0  0  0
 10 11  2  0  0  0  0
 11 12  1  0  0  0  0
 11 33  1  0  0  0  0
 12 13  2  0  0  0  0
 12 34  1  0  0  0  0
 13 14  1  0  0  0  0
 13 20  1  0  0  0  0
 14 19  1  0  0  0  0
 14 15  1  0  0  0  0
 15 16  1  0  0  0  0
 15 35  1  0  0  0  0
 15 36  1  0  0  0  0
 16 17  1  0  0  0  0
 16 37  1  0  0  0  0
 16 38  1  0  0  0  0
 17 18  1  0  0  0  0
 18 19  1  0  0  0  0
 18 39  1  0  0  0  0
 18 40  1  0  0  0  0
 19 41  1  0  0  0  0
 19 42  1  0  0  0  0
 20 21  2  0  0  0  0
 21 43  1  0  0  0  0
 22 44  1  0  0  0  0
 22 45  1  0  0  0  0
M  CHG  1   2   1
M  END
> <s_m_source_file>
AV-unprocessed.smi

> <i_m_source_file_index>
811

> <i_lp_mmshare_version>
43012

> <i_f3d_flags>
0

> <s_epik_input>
W0NIM11OMVtDSDJdW0NIMl1bQ0BIXShbQ0gyXTEpW05IXUMoPU8pW05IXWMyW2NIXVtjSF1jKG5bY0hdMilOM1tDSDJdW0NIMl1PW0NIMl1bQ0gyXTM=

> <s_epik_cmdline>
J2VwaWtfcHl0aG9uJywgJy1waCcsICc3LjAnLCAnLXRuJywgJzgnLCAnLW1hJywgJzIwMCcsICctbWV0YWxfYmluZGluZycsICctaW1hZScsICc8aW5maWxlLm1hZT4nLCAnLW9tYWUnLCAnPG91dGZpbGUubWFlPic=

> <r_lp_tautomer_probability>
1

> <r_epik_Ionization_Penalty>
0.00503422

> <r_epik_Ionization_Penalty_Charging>
0.00366104

> <r_epik_Ionization_Penalty_Neutral>
0.00137318

> <r_epik_State_Penalty>
-0

> <r_epik_Charging_Adjusted_Penalty>
0.00366104

> <i_epik_Tot_Q>
1

> <i_epik_Tot_abs_Q>
1

> <r_epik_Metal_State_Penalty>
-0

> <b_epik_Metal_Only>
0

> <s_lp_Force_Field>
OPLS_2005

> <r_lp_Energy>
42.4701

> <b_lp_Chiralities_Consistent>
1

> <s_lp_Variant>
AV-unprocessed.smi:811-1

> <Gold.Version>
5.8.1

> <Gold.Id.Protein>
6NUR|6NUR_protein|mol2

> <Gold.PLP.Fitness>
46.5201

> <Gold.PLP.PLP>
-41.0277

> <Gold.PLP.part.hbond>
-3.5300

> <Gold.PLP.part.metal>
0.0000

> <Gold.PLP.part.buried>
0.3466

> <Gold.PLP.part.nonpolar>
-38.6558

> <Gold.PLP.part.repulsive>
0.6052

> <Gold.PLP.ligand.clash>
0.0000

> <Gold.PLP.ligand.torsion>
0.4160

> <Gold.PLP.Chemscore.Hbond>
1.9920

> <Gold.PLP.Chemscore.CHOScore>
0.0000

> <Gold.PLP.Chemscore.Metal>
0.0000

> <Gold.Chemscore.Hbonds>
donor molecule, donor type, donor heavy atom, donor atom, acceptor molecule, acceptor atom, score
      L1  H     2    46       P1 10171  1.00
      L1  H     6    31       P1  7948  0.91

> <Gold.PLP.Chemscore.Internal.Correction>
0.3484

> <Gold.Rescore>
     Score         DG    S(hbond)    S(metal)    S(lipo)     H(rot)  DE(clash)    DE(int)     intcor
     18.58     -20.76       1.95        0.00     101.78       1.23       0.70       1.49       ----

> <Gold.Chemscore.Fitness>
18.5796

> <Gold.Chemscore.DG>
-20.7630

> <Gold.Chemscore.ZeroCoef>
-5.4800

> <Gold.Chemscore.Hbond>
1.9528

> <Gold.Chemscore.Metal>
0.0000

> <Gold.Chemscore.Lipo>
101.7784

> <Gold.Chemscore.Internal_Hbond>
0.0000

> <Gold.Chemscore.DEClash>
0.6969

> <Gold.Chemscore.DEInternal>
1.4866

> <Gold.Chemscore.Rot>
1.2295

> <Gold.Chemscore.Internal.Correction>
   9.000000E+99

> <Gold.Chemscore.Hbonds>
donor molecule, donor type, donor heavy atom, donor atom, acceptor molecule, acceptor atom, score
      L1  H     2    46       P1 10171  0.98
      L1  H     6    31       P1  7948  0.89

> <Gold.Chemscore.Hbond.Weighted>
-6.5224

> <Gold.Chemscore.Metal.Weighted>
-0.0000

> <Gold.Chemscore.Lipo.Weighted>
-11.9081

> <Gold.Chemscore.Internal_Hbond.Weighted>
0.0000

> <Gold.Chemscore.DEClash.Weighted>
0.6969

> <Gold.Chemscore.DEInternal.Weighted>
1.4866

> <Gold.Chemscore.Rot.Weighted>
3.1474

> <Gold.Chemscore.Internal.Correction.Weighted>
   9.000000E+99

> <Gold.Protein.RotatedTorsions>
[ 6907 6896 6895 6894 ] final -134.74 input  -60.11 | X-H torsion
[ 7974 7965 7964 7962 ] final  106.67 input  175.53 | X-H torsion
[ 8008 7997 7996 7995 ] final  138.63 input   59.86 | X-H torsion
[ 10167 10162 10161 10158 ] final   23.33 input  -65.29 | X-H torsion
[ 10718 10713 10712 10709 ] final   26.37 input   66.30 | X-H torsion
[ 10763 10752 10751 10750 ] final  -83.96 input  -60.55 | X-H torsion
[ 11005 11000 10999 10996 ] final   36.78 input  -57.11 | X-H torsion

> <Gold.Protein.ActiveResidues>
 VAL166  LYS551  ARG553  GLY616  TRP617  ASP618  TYR619  PRO620  LYS621  CYS622 
 ASP623  PHE694  ASN695  SER759  ASP760  ASP761  ALA762  ILE779  LEU786  VAL792 
 PHE793  MET794  SER795  GLU796  ALA797  LYS798  CYS799  TRP800  GLU811  SER814 

> <Gold.Protein.RotatedAtoms>
  150.9895  133.6164  159.2710 H   0  0  0  0  0  0  0  0  0  0  0  0  # atno 6907 bound_to 6896
  151.3390  135.0858  159.9374 H   0  0  0  0  0  0  0  0  0  0  0  0  # atno 6908 bound_to 6896
  152.5241  133.9510  159.7726 H   0  0  0  0  0  0  0  0  0  0  0  0  # atno 6909 bound_to 6896
  145.3036  139.2562  143.3800 H   0  0  0  0  0  0  0  0  0  0  0  0  # atno 7974 bound_to 7965
  156.2996  140.2388  156.4105 H   0  0  0  0  0  0  0  0  0  0  0  0  # atno 8008 bound_to 7997
  154.8445  140.0427  157.1584 H   0  0  0  0  0  0  0  0  0  0  0  0  # atno 8009 bound_to 7997
  154.9066  140.2984  155.5292 H   0  0  0  0  0  0  0  0  0  0  0  0  # atno 8010 bound_to 7997
  140.5277  143.9895  150.6449 H   0  0  0  0  0  0  0  0  0  0  0  0  # atno 10167 bound_to 10162
  157.2059  130.6911  149.6208 H   0  0  0  0  0  0  0  0  0  0  0  0  # atno 10718 bound_to 10713
  154.5939  135.5537  153.7306 H   0  0  0  0  0  0  0  0  0  0  0  0  # atno 10763 bound_to 10752
  153.0127  135.6350  154.1810 H   0  0  0  0  0  0  0  0  0  0  0  0  # atno 10764 bound_to 10752
  154.1750  135.2890  155.3049 H   0  0  0  0  0  0  0  0  0  0  0  0  # atno 10765 bound_to 10752
  140.2292  134.3548  155.7971 H   0  0  0  0  0  0  0  0  0  0  0  0  # atno 11005 bound_to 11000
  146.3143  140.3556  142.8660 LP  0  0  0  0  0  0  0  0  0  0  0  0  # atno 17320 bound_to 7965
  144.9073  140.7715  143.5829 LP  0  0  0  0  0  0  0  0  0  0  0  0  # atno 17321 bound_to 7965
  140.3261  143.3107  152.0735 LP  0  0  0  0  0  0  0  0  0  0  0  0  # atno 17342 bound_to 10162
  139.4944  144.6541  151.6611 LP  0  0  0  0  0  0  0  0  0  0  0  0  # atno 17343 bound_to 10162
  155.9695  130.4567  150.5936 LP  0  0  0  0  0  0  0  0  0  0  0  0  # atno 17370 bound_to 10713
  157.3721  131.0767  151.1549 LP  0  0  0  0  0  0  0  0  0  0  0  0  # atno 17371 bound_to 10713
  141.2219  133.7236  156.8703 LP  0  0  0  0  0  0  0  0  0  0  0  0  # atno 17394 bound_to 11000
  140.1769  134.9061  157.2901 LP  0  0  0  0  0  0  0  0  0  0  0  0  # atno 17395 bound_to 11000

$$$$
