AV-unprocessed.smi:1396|AV-procd|sdf|5678|dock1
  -GOLD-   22720 5303D 1   1.00000     0.00000
 Structure written by MMmdl.
 46 47  0  0  0  0  0  0  0  0  3 V2000
  144.1581  146.1410  156.8801 C   0  0  0  0  0  0  0  0  0  0  0  0
  143.8926  144.9413  156.0954 N   0  5  0  0  0  0  0  0  0  0  0  0
  144.4234  143.7226  156.3831 C   0  0  0  0  0  0  0  0  0  0  0  0
  145.2318  143.3799  157.2524 O   0  0  0  0  0  0  0  0  0  0  0  0
  143.9065  142.6530  155.4140 C   0  0  0  0  0  0  0  0  0  0  0  0
  145.0400  142.0112  154.7017 N   0  3  2  0  0  0  0  0  0  0  0  0
  145.8503  141.1167  155.5729 C   0  0  0  0  0  0  0  0  0  0  0  0
  146.9362  140.3847  154.7653 C   0  0  0  0  0  0  0  0  0  0  0  0
  147.8460  141.3651  153.9989 C   0  0  2  0  0  0  0  0  0  0  0  0
  148.7102  142.1259  154.9012 N   0  0  0  0  0  0  0  0  0  0  0  0
  149.6013  141.5973  155.7522 C   0  0  0  0  0  0  0  0  0  0  0  0
  149.7963  140.3875  155.8653 O   0  0  0  0  0  0  0  0  0  0  0  0
  150.2505  142.5567  156.4335 N   0  0  0  0  0  0  0  0  0  0  0  0
  151.2177  142.4050  157.4634 C   0  0  0  0  0  0  0  0  0  0  0  0
  151.7771  143.5697  158.0266 C   0  0  0  0  0  0  0  0  0  0  0  0
  152.7171  143.4466  159.0672 C   0  0  0  0  0  0  0  0  0  0  0  0
  153.0621  142.1582  159.5212 C   0  0  0  0  0  0  0  0  0  0  0  0
  153.9804  142.0424  160.5445 O   0  0  0  0  0  0  0  0  0  0  0  0
  154.3166  140.7385  161.0060 C   0  0  0  0  0  0  0  0  0  0  0  0
  152.5210  141.0319  158.9948 N   0  0  0  0  0  0  0  0  0  0  0  0
  151.6225  141.1562  157.9950 C   0  0  0  0  0  0  0  0  0  0  0  0
  146.9803  142.3156  153.1550 C   0  0  0  0  0  0  0  0  0  0  0  0
  145.8896  143.0041  153.9959 C   0  0  0  0  0  0  0  0  0  0  0  0
  143.7039  147.0254  156.4336 H   0  0  0  0  0  0  0  0  0  0  0  0
  145.2238  146.3537  156.9683 H   0  0  0  0  0  0  0  0  0  0  0  0
  143.7650  146.0696  157.8945 H   0  0  0  0  0  0  0  0  0  0  0  0
  143.3779  141.9118  156.0154 H   0  0  0  0  0  0  0  0  0  0  0  0
  143.1784  143.0441  154.6996 H   0  0  0  0  0  0  0  0  0  0  0  0
  146.3044  141.7003  156.3752 H   0  0  0  0  0  0  0  0  0  0  0  0
  145.2115  140.3741  156.0512 H   0  0  0  0  0  0  0  0  0  0  0  0
  147.5254  139.7464  155.4246 H   0  0  0  0  0  0  0  0  0  0  0  0
  146.4548  139.7138  154.0525 H   0  0  0  0  0  0  0  0  0  0  0  0
  148.4853  140.7967  153.3209 H   0  0  0  0  0  0  0  0  0  0  0  0
  148.6256  143.1315  154.8720 H   0  0  0  0  0  0  0  0  0  0  0  0
  150.0542  143.5086  156.1607 H   0  0  0  0  0  0  0  0  0  0  0  0
  151.4941  144.5480  157.6665 H   0  0  0  0  0  0  0  0  0  0  0  0
  153.1630  144.3242  159.5118 H   0  0  0  0  0  0  0  0  0  0  0  0
  155.0473  140.8182  161.8108 H   0  0  0  0  0  0  0  0  0  0  0  0
  154.7625  140.1365  160.2128 H   0  0  0  0  0  0  0  0  0  0  0  0
  153.4434  140.2185  161.4028 H   0  0  0  0  0  0  0  0  0  0  0  0
  151.2100  140.2241  157.6419 H   0  0  0  0  0  0  0  0  0  0  0  0
  147.6055  143.0639  152.6663 H   0  0  0  0  0  0  0  0  0  0  0  0
  146.5049  141.7488  152.3531 H   0  0  0  0  0  0  0  0  0  0  0  0
  145.2700  143.6163  153.3396 H   0  0  0  0  0  0  0  0  0  0  0  0
  146.3402  143.6796  154.7246 H   0  0  0  0  0  0  0  0  0  0  0  0
  144.6235  141.4303  153.9879 H   0  0  0  0  0  0  0  0  0  0  0  0
  1  2  1  0  0  0  0
  1 24  1  0  0  0  0
  1 25  1  0  0  0  0
  1 26  1  0  0  0  0
  2  3  1  0  0  0  0
  3  4  2  0  0  0  0
  3  5  1  0  0  0  0
  5  6  1  0  0  0  0
  5 27  1  0  0  0  0
  5 28  1  0  0  0  0
  6 23  1  0  0  0  0
  6  7  1  0  0  0  0
  6 46  1  0  0  0  0
  7  8  1  0  0  0  0
  7 29  1  0  0  0  0
  7 30  1  0  0  0  0
  8  9  1  0  0  0  0
  8 31  1  0  0  0  0
  8 32  1  0  0  0  0
  9 10  1  0  0  0  0
  9 22  1  0  0  0  0
  9 33  1  0  0  0  0
 10 11  1  0  0  0  0
 10 34  1  0  0  0  0
 11 12  2  0  0  0  0
 11 13  1  0  0  0  0
 13 14  1  0  0  0  0
 13 35  1  0  0  0  0
 14 21  1  0  0  0  0
 14 15  2  0  0  0  0
 15 16  1  0  0  0  0
 15 36  1  0  0  0  0
 16 17  2  0  0  0  0
 16 37  1  0  0  0  0
 17 18  1  0  0  0  0
 17 20  1  0  0  0  0
 18 19  1  0  0  0  0
 19 38  1  0  0  0  0
 19 39  1  0  0  0  0
 19 40  1  0  0  0  0
 20 21  2  0  0  0  0
 21 41  1  0  0  0  0
 22 23  1  0  0  0  0
 22 42  1  0  0  0  0
 22 43  1  0  0  0  0
 23 44  1  0  0  0  0
 23 45  1  0  0  0  0
M  CHG  1   2  -1
M  CHG  1   6   1
M  END
> <s_m_source_file>
AV-unprocessed.smi

> <i_m_source_file_index>
1396

> <i_lp_mmshare_version>
43012

> <i_f3d_flags>
0

> <s_epik_input>
W0NIM11bTkhdQyg9TylbQ0gyXU4xW0NIMl1bQ0gyXVtDSF0oW0NIMl1bQ0gyXTEpW05IXUMoPU8pW05IXWMyW2NIXVtjSF1jKE9bQ0gzXSluW2NIXTI=

> <s_epik_cmdline>
J2VwaWtfcHl0aG9uJywgJy1waCcsICc3LjAnLCAnLXRuJywgJzgnLCAnLW1hJywgJzIwMCcsICctbWV0YWxfYmluZGluZycsICctaW1hZScsICc8aW5maWxlLm1hZT4nLCAnLW9tYWUnLCAnPG91dGZpbGUubWFlPic=

> <r_lp_tautomer_probability>
1

> <r_epik_Ionization_Penalty>
6.13954

> <r_epik_Ionization_Penalty_Charging>
6.13946

> <r_epik_Ionization_Penalty_Neutral>
7.8452e-05

> <r_epik_State_Penalty>
6.9595

> <r_epik_Charging_Adjusted_Penalty>
13.099

> <i_epik_Tot_Q>
0

> <i_epik_Tot_abs_Q>
2

> <r_epik_Metal_State_Penalty>
2.89145

> <b_epik_Metal_Only>
1

> <s_lp_Force_Field>
OPLS_2005

> <r_lp_Energy>
12.8202

> <b_lp_Chiralities_Consistent>
1

> <s_lp_Variant>
AV-unprocessed.smi:1396-5

> <Gold.Version>
5.8.1

> <Gold.Id.Protein>
6NUR|6NUR_protein|mol2

> <Gold.PLP.Fitness>
49.9814

> <Gold.PLP.PLP>
-38.0603

> <Gold.PLP.part.hbond>
-3.0000

> <Gold.PLP.part.metal>
0.0000

> <Gold.PLP.part.buried>
-7.3492

> <Gold.PLP.part.nonpolar>
-28.4674

> <Gold.PLP.part.repulsive>
0.4891

> <Gold.PLP.ligand.clash>
0.0000

> <Gold.PLP.ligand.torsion>
0.0489

> <Gold.PLP.Chemscore.Hbond>
3.9920

> <Gold.PLP.Chemscore.CHOScore>
0.0000

> <Gold.PLP.Chemscore.Metal>
0.0000

> <Gold.Chemscore.Hbonds>
donor molecule, donor type, donor heavy atom, donor atom, acceptor molecule, acceptor atom, score
      L1  H     6    46       P1 10175  2.00
      L1  H    10    34       P1  8028  1.00
      L1  H    13    35       P1  8028  0.99

> <Gold.PLP.Chemscore.Internal.Correction>
0.0429

> <Gold.Rescore>
     Score         DG    S(hbond)    S(metal)    S(lipo)     H(rot)  DE(clash)    DE(int)     intcor
     15.48     -19.60       2.79        0.00      83.11       1.93       1.63       2.49       ----

> <Gold.Chemscore.Fitness>
15.4846

> <Gold.Chemscore.DG>
-19.6019

> <Gold.Chemscore.ZeroCoef>
-5.4800

> <Gold.Chemscore.Hbond>
2.7949

> <Gold.Chemscore.Metal>
0.0000

> <Gold.Chemscore.Lipo>
83.1074

> <Gold.Chemscore.Internal_Hbond>
0.0000

> <Gold.Chemscore.DEClash>
1.6251

> <Gold.Chemscore.DEInternal>
2.4921

> <Gold.Chemscore.Rot>
1.9283

> <Gold.Chemscore.Internal.Correction>
   9.000000E+99

> <Gold.Chemscore.Hbonds>
donor molecule, donor type, donor heavy atom, donor atom, acceptor molecule, acceptor atom, score
      L1  H     6    46       P1 10175  0.29
      L1  H    10    34       P1  8028  0.95
      L1  H    13    35       P1  8028  0.94

> <Gold.Chemscore.Hbond.Weighted>
-9.3348

> <Gold.Chemscore.Metal.Weighted>
-0.0000

> <Gold.Chemscore.Lipo.Weighted>
-9.7236

> <Gold.Chemscore.Internal_Hbond.Weighted>
0.0000

> <Gold.Chemscore.DEClash.Weighted>
1.6251

> <Gold.Chemscore.DEInternal.Weighted>
2.4921

> <Gold.Chemscore.Rot.Weighted>
4.9365

> <Gold.Chemscore.Internal.Correction.Weighted>
   9.000000E+99

> <Gold.Protein.RotatedTorsions>
[ 6907 6896 6895 6894 ] final -146.73 input  -60.11 | X-H torsion
[ 7974 7965 7964 7962 ] final  160.18 input  175.53 | X-H torsion
[ 8008 7997 7996 7995 ] final   43.44 input   59.86 | X-H torsion
[ 10167 10162 10161 10158 ] final  -21.38 input  -65.29 | X-H torsion
[ 10718 10713 10712 10709 ] final -127.47 input   66.30 | X-H torsion
[ 10763 10752 10751 10750 ] final  110.04 input  -60.55 | X-H torsion
[ 11005 11000 10999 10996 ] final   34.98 input  -57.11 | X-H torsion

> <Gold.Protein.ActiveResidues>
 VAL166  LYS551  ARG553  GLY616  TRP617  ASP618  TYR619  PRO620  LYS621  CYS622 
 ASP623  PHE694  ASN695  SER759  ASP760  ASP761  ALA762  ILE779  LEU786  VAL792 
 PHE793  MET794  SER795  GLU796  ALA797  LYS798  CYS799  TRP800  GLU811  SER814 

> <Gold.Protein.RotatedAtoms>
  151.1457  133.4941  159.2595 H   0  0  0  0  0  0  0  0  0  0  0  0  # atno 6907 bound_to 6896
  151.1607  135.0272  159.8719 H   0  0  0  0  0  0  0  0  0  0  0  0  # atno 6908 bound_to 6896
  152.5463  134.1331  159.8500 H   0  0  0  0  0  0  0  0  0  0  0  0  # atno 6909 bound_to 6896
  144.7750  139.7722  143.6282 H   0  0  0  0  0  0  0  0  0  0  0  0  # atno 7974 bound_to 7965
  155.3027  140.3386  155.4247 H   0  0  0  0  0  0  0  0  0  0  0  0  # atno 8008 bound_to 7997
  156.1993  140.1727  156.7971 H   0  0  0  0  0  0  0  0  0  0  0  0  # atno 8009 bound_to 7997
  154.5539  140.0700  156.8696 H   0  0  0  0  0  0  0  0  0  0  0  0  # atno 8010 bound_to 7997
  140.7281  143.4633  151.0349 H   0  0  0  0  0  0  0  0  0  0  0  0  # atno 10167 bound_to 10162
  156.1860  130.6763  151.0365 H   0  0  0  0  0  0  0  0  0  0  0  0  # atno 10718 bound_to 10713
  153.4432  135.3761  155.2240 H   0  0  0  0  0  0  0  0  0  0  0  0  # atno 10763 bound_to 10752
  154.8754  135.3868  154.4127 H   0  0  0  0  0  0  0  0  0  0  0  0  # atno 10764 bound_to 10752
  153.4676  135.7087  153.6076 H   0  0  0  0  0  0  0  0  0  0  0  0  # atno 10765 bound_to 10752
  140.2473  134.3344  155.7903 H   0  0  0  0  0  0  0  0  0  0  0  0  # atno 11005 bound_to 11000
  146.1924  139.5171  142.9797 LP  0  0  0  0  0  0  0  0  0  0  0  0  # atno 17320 bound_to 7965
  145.6212  141.0322  143.1914 LP  0  0  0  0  0  0  0  0  0  0  0  0  # atno 17321 bound_to 7965
  139.8319  143.7679  152.3180 LP  0  0  0  0  0  0  0  0  0  0  0  0  # atno 17342 bound_to 10162
  139.7798  144.7448  151.0105 LP  0  0  0  0  0  0  0  0  0  0  0  0  # atno 17343 bound_to 10162
  157.6899  131.0813  150.7138 LP  0  0  0  0  0  0  0  0  0  0  0  0  # atno 17370 bound_to 10713
  156.7194  130.4676  149.5526 LP  0  0  0  0  0  0  0  0  0  0  0  0  # atno 17371 bound_to 10713
  141.2205  133.7333  156.8981 LP  0  0  0  0  0  0  0  0  0  0  0  0  # atno 17394 bound_to 11000
  140.1593  134.9176  157.2694 LP  0  0  0  0  0  0  0  0  0  0  0  0  # atno 17395 bound_to 11000

$$$$
