AV-unprocessed.smi:2021|AV-procd|sdf|8180|dock6
  -GOLD-   2272010433D 1   1.00000     0.00000
 Structure written by MMmdl.
 41 42  0  0  0  0  0  0  0  0  1 V2000
  152.9744  142.9950  159.9807 C   0  0  0  0  0  0  0  0  0  0  0  0
  152.3126  142.7288  158.6194 C   0  0  0  0  0  0  0  0  0  0  0  0
  152.0005  144.0630  157.9200 C   0  0  0  0  0  0  0  0  0  0  0  0
  151.0469  141.8539  158.7783 C   0  0  0  0  0  0  0  0  0  0  0  0
  150.7171  141.0055  157.6321 N   0  0  0  0  0  0  0  0  0  0  0  0
  151.8987  140.4512  156.9765 C   0  0  0  0  0  0  0  0  0  0  0  0
  151.5287  139.5939  155.7545 C   0  0  0  0  0  0  0  0  0  0  0  0
  150.7496  140.3659  154.8475 O   0  0  0  0  0  0  0  0  0  0  0  0
  149.5522  140.8701  155.4348 C   0  0  2  0  0  0  0  0  0  0  0  0
  148.7824  141.6683  154.3685 C   0  0  0  0  0  0  0  0  0  0  0  0
  148.2838  140.8042  153.3041 N   0  0  0  0  0  0  0  0  0  0  0  0
  147.3355  139.8687  153.4531 C   0  0  0  0  0  0  0  0  0  0  0  0
  146.7539  139.6566  154.5170 O   0  0  0  0  0  0  0  0  0  0  0  0
  147.1189  139.2093  152.3038 N   0  0  0  0  0  0  0  0  0  0  0  0
  146.2227  138.1364  152.0699 C   0  0  0  0  0  0  0  0  0  0  0  0
  146.3804  137.4186  150.9514 N   0  0  0  0  0  0  0  0  0  0  0  0
  145.4415  136.3991  150.8506 N   0  0  0  0  0  0  0  0  0  0  0  0
  144.6114  136.3885  151.8979 C   0  0  0  0  0  0  0  0  0  0  0  0
  144.8926  137.6229  153.1127 S   0  0  0  0  0  0  0  0  0  0  0  0
  149.9299  141.7419  156.6483 C   0  0  0  0  0  0  0  0  0  0  0  0
  152.3021  143.5305  160.6518 H   0  0  0  0  0  0  0  0  0  0  0  0
  153.8794  143.5929  159.8688 H   0  0  0  0  0  0  0  0  0  0  0  0
  153.2588  142.0620  160.4682 H   0  0  0  0  0  0  0  0  0  0  0  0
  153.0430  142.1876  158.0163 H   0  0  0  0  0  0  0  0  0  0  0  0
  151.3055  144.6634  158.5077 H   0  0  0  0  0  0  0  0  0  0  0  0
  151.5542  143.9114  156.9381 H   0  0  0  0  0  0  0  0  0  0  0  0
  152.9068  144.6519  157.7773 H   0  0  0  0  0  0  0  0  0  0  0  0
  151.1968  141.2014  159.6396 H   0  0  0  0  0  0  0  0  0  0  0  0
  150.1905  142.4767  159.0417 H   0  0  0  0  0  0  0  0  0  0  0  0
  152.5629  141.2587  156.6648 H   0  0  0  0  0  0  0  0  0  0  0  0
  152.4601  139.8314  157.6745 H   0  0  0  0  0  0  0  0  0  0  0  0
  152.4291  139.2482  155.2467 H   0  0  0  0  0  0  0  0  0  0  0  0
  150.9717  138.7065  156.0593 H   0  0  0  0  0  0  0  0  0  0  0  0
  148.9396  140.0327  155.7741 H   0  0  0  0  0  0  0  0  0  0  0  0
  147.9508  142.2084  154.8245 H   0  0  0  0  0  0  0  0  0  0  0  0
  149.4326  142.4218  153.9233 H   0  0  0  0  0  0  0  0  0  0  0  0
  148.7117  140.9103  152.3960 H   0  0  0  0  0  0  0  0  0  0  0  0
  147.6677  139.4973  151.5072 H   0  0  0  0  0  0  0  0  0  0  0  0
  143.8280  135.6473  151.9557 H   0  0  0  0  0  0  0  0  0  0  0  0
  149.0192  142.1193  157.1149 H   0  0  0  0  0  0  0  0  0  0  0  0
  150.4894  142.6150  156.3077 H   0  0  0  0  0  0  0  0  0  0  0  0
  1  2  1  0  0  0  0
  1 21  1  0  0  0  0
  1 22  1  0  0  0  0
  1 23  1  0  0  0  0
  2  3  1  0  0  0  0
  2  4  1  0  0  0  0
  2 24  1  0  0  0  0
  3 25  1  0  0  0  0
  3 26  1  0  0  0  0
  3 27  1  0  0  0  0
  4  5  1  0  0  0  0
  4 28  1  0  0  0  0
  4 29  1  0  0  0  0
  5 20  1  0  0  0  0
  5  6  1  0  0  0  0
  6  7  1  0  0  0  0
  6 30  1  0  0  0  0
  6 31  1  0  0  0  0
  7  8  1  0  0  0  0
  7 32  1  0  0  0  0
  7 33  1  0  0  0  0
  8  9  1  0  0  0  0
  9 10  1  0  0  0  0
  9 20  1  0  0  0  0
  9 34  1  0  0  0  0
 10 11  1  0  0  0  0
 10 35  1  0  0  0  0
 10 36  1  0  0  0  0
 11 12  1  0  0  0  0
 11 37  1  0  0  0  0
 12 13  2  0  0  0  0
 12 14  1  0  0  0  0
 14 15  1  0  0  0  0
 14 38  1  0  0  0  0
 15 19  1  0  0  0  0
 15 16  2  0  0  0  0
 16 17  1  0  0  0  0
 17 18  2  0  0  0  0
 18 19  1  0  0  0  0
 18 39  1  0  0  0  0
 20 40  1  0  0  0  0
 20 41  1  0  0  0  0
M  END
> <s_m_source_file>
AV-unprocessed.smi

> <i_m_source_file_index>
2021

> <i_lp_mmshare_version>
43012

> <i_f3d_flags>
0

> <s_epik_input>
W0NIM11bQ0hdKFtDSDNdKVtDSDJdTjFbQ0gyXVtDSDJdT1tDQEhdKFtDSDJdMSlbQ0gyXVtOSF1DKD1PKVtOSF1jMm5uW2NIXXMy

> <s_epik_cmdline>
J2VwaWtfcHl0aG9uJywgJy1waCcsICc3LjAnLCAnLXRuJywgJzgnLCAnLW1hJywgJzIwMCcsICctbWV0YWxfYmluZGluZycsICctaW1hZScsICc8aW5maWxlLm1hZT4nLCAnLW9tYWUnLCAnPG91dGZpbGUubWFlPic=

> <r_lp_tautomer_probability>
1

> <r_epik_Ionization_Penalty>
1.11451

> <r_epik_Ionization_Penalty_Charging>
0

> <r_epik_Ionization_Penalty_Neutral>
1.11451

> <r_epik_State_Penalty>
1.17021

> <r_epik_Charging_Adjusted_Penalty>
1.17021

> <i_epik_Tot_Q>
0

> <i_epik_Tot_abs_Q>
0

> <r_epik_Metal_State_Penalty>
1.53642

> <b_epik_Metal_Only>
0

> <s_lp_Force_Field>
OPLS_2005

> <r_lp_Energy>
23.4775

> <b_lp_Chiralities_Consistent>
1

> <s_lp_Variant>
AV-unprocessed.smi:2021-6

> <Gold.Version>
5.8.1

> <Gold.Id.Protein>
6NUR|6NUR_protein|mol2

> <Gold.PLP.Fitness>
45.9260

> <Gold.PLP.PLP>
-36.2912

> <Gold.PLP.part.hbond>
-4.0000

> <Gold.PLP.part.metal>
0.0000

> <Gold.PLP.part.buried>
-4.5285

> <Gold.PLP.part.nonpolar>
-31.7909

> <Gold.PLP.part.repulsive>
3.8444

> <Gold.PLP.ligand.clash>
0.0000

> <Gold.PLP.ligand.torsion>
0.6872

> <Gold.PLP.Chemscore.Hbond>
3.6480

> <Gold.PLP.Chemscore.CHOScore>
0.0000

> <Gold.PLP.Chemscore.Metal>
0.0000

> <Gold.Chemscore.Hbonds>
donor molecule, donor type, donor heavy atom, donor atom, acceptor molecule, acceptor atom, score
      L1  H    11    37       P1  7957  0.88
      L1  H    14    38       P1  7957  0.77
      P1  H  7954  7966       L1    16  0.78
      P1  H  7989  7998       L1     8  1.00

> <Gold.PLP.Chemscore.Internal.Correction>
0.0654

> <Gold.Rescore>
     Score         DG    S(hbond)    S(metal)    S(lipo)     H(rot)  DE(clash)    DE(int)     intcor
     20.85     -22.84       3.68        0.00      83.65       1.84       1.50       0.48       ----

> <Gold.Chemscore.Fitness>
20.8547

> <Gold.Chemscore.DG>
-22.8366

> <Gold.Chemscore.ZeroCoef>
-5.4800

> <Gold.Chemscore.Hbond>
3.6777

> <Gold.Chemscore.Metal>
0.0000

> <Gold.Chemscore.Lipo>
83.6481

> <Gold.Chemscore.Internal_Hbond>
0.0000

> <Gold.Chemscore.DEClash>
1.4970

> <Gold.Chemscore.DEInternal>
0.4849

> <Gold.Chemscore.Rot>
1.8413

> <Gold.Chemscore.Internal.Correction>
   9.000000E+99

> <Gold.Chemscore.Hbonds>
donor molecule, donor type, donor heavy atom, donor atom, acceptor molecule, acceptor atom, score
      L1  H    11    37       P1  7957  0.87
      L1  H    14    38       P1  7957  0.72
      P1  H  7954  7966       L1    16  0.67
      P1  H  7989  7998       L1     8  0.84

> <Gold.Chemscore.Hbond.Weighted>
-12.2836

> <Gold.Chemscore.Metal.Weighted>
-0.0000

> <Gold.Chemscore.Lipo.Weighted>
-9.7868

> <Gold.Chemscore.Internal_Hbond.Weighted>
0.0000

> <Gold.Chemscore.DEClash.Weighted>
1.4970

> <Gold.Chemscore.DEInternal.Weighted>
0.4849

> <Gold.Chemscore.Rot.Weighted>
4.7138

> <Gold.Chemscore.Internal.Correction.Weighted>
   9.000000E+99

> <Gold.Protein.RotatedTorsions>
[ 6907 6896 6895 6894 ] final   12.14 input  -60.11 | X-H torsion
[ 7974 7965 7964 7962 ] final  146.74 input  175.53 | X-H torsion
[ 8008 7997 7996 7995 ] final  146.51 input   59.86 | X-H torsion
[ 10167 10162 10161 10158 ] final  -60.07 input  -65.29 | X-H torsion
[ 10718 10713 10712 10709 ] final  -49.05 input   66.30 | X-H torsion
[ 10763 10752 10751 10750 ] final  -42.76 input  -60.55 | X-H torsion
[ 11005 11000 10999 10996 ] final  164.00 input  -57.11 | X-H torsion

> <Gold.Protein.ActiveResidues>
 VAL166  LYS551  ARG553  GLY616  TRP617  ASP618  TYR619  PRO620  LYS621  CYS622 
 ASP623  PHE694  ASN695  SER759  ASP760  ASP761  ALA762  ILE779  LEU786  VAL792 
 PHE793  MET794  SER795  GLU796  ALA797  LYS798  CYS799  TRP800  GLU811  SER814 

> <Gold.Protein.RotatedAtoms>
  151.7655  135.0799  160.0351 H   0  0  0  0  0  0  0  0  0  0  0  0  # atno 6907 bound_to 6896
  152.3324  133.5969  159.5827 H   0  0  0  0  0  0  0  0  0  0  0  0  # atno 6908 bound_to 6896
  150.7430  133.9763  159.3604 H   0  0  0  0  0  0  0  0  0  0  0  0  # atno 6909 bound_to 6896
  144.8647  139.5942  143.5914 H   0  0  0  0  0  0  0  0  0  0  0  0  # atno 7974 bound_to 7965
  156.2853  140.2180  156.5388 H   0  0  0  0  0  0  0  0  0  0  0  0  # atno 8008 bound_to 7997
  154.7387  140.0489  157.0814 H   0  0  0  0  0  0  0  0  0  0  0  0  # atno 8009 bound_to 7997
  155.0259  140.3129  155.4779 H   0  0  0  0  0  0  0  0  0  0  0  0  # atno 8010 bound_to 7997
  140.6095  143.2383  151.5743 H   0  0  0  0  0  0  0  0  0  0  0  0  # atno 10167 bound_to 10162
  156.1930  130.4153  149.9346 H   0  0  0  0  0  0  0  0  0  0  0  0  # atno 10718 bound_to 10713
  153.9844  135.6713  153.4751 H   0  0  0  0  0  0  0  0  0  0  0  0  # atno 10763 bound_to 10752
  153.0733  135.4962  154.8348 H   0  0  0  0  0  0  0  0  0  0  0  0  # atno 10764 bound_to 10752
  154.7145  135.3104  154.9106 H   0  0  0  0  0  0  0  0  0  0  0  0  # atno 10765 bound_to 10752
  140.2414  134.8047  157.3415 H   0  0  0  0  0  0  0  0  0  0  0  0  # atno 11005 bound_to 11000
  146.2887  139.7076  142.9177 LP  0  0  0  0  0  0  0  0  0  0  0  0  # atno 17320 bound_to 7965
  145.4245  141.0409  143.2945 LP  0  0  0  0  0  0  0  0  0  0  0  0  # atno 17321 bound_to 7965
  139.5350  144.2807  152.1231 LP  0  0  0  0  0  0  0  0  0  0  0  0  # atno 17342 bound_to 10162
  140.2003  144.4664  150.6435 LP  0  0  0  0  0  0  0  0  0  0  0  0  # atno 17343 bound_to 10162
  156.7080  130.8959  151.3606 LP  0  0  0  0  0  0  0  0  0  0  0  0  # atno 17370 bound_to 10713
  157.6940  130.9263  150.0593 LP  0  0  0  0  0  0  0  0  0  0  0  0  # atno 17371 bound_to 10713
  140.1649  134.4682  155.7870 LP  0  0  0  0  0  0  0  0  0  0  0  0  # atno 17394 bound_to 11000
  141.2210  133.6917  156.7608 LP  0  0  0  0  0  0  0  0  0  0  0  0  # atno 17395 bound_to 11000

$$$$
