AV-unprocessed.smi:1543|AV-procd|sdf|6205|dock1
  -GOLD-   22720 6373D 1   1.00000     0.00000
 Structure written by MMmdl.
 48 49  0  0  0  0  0  0  0  0  1 V2000
  147.1209  137.7054  158.4910 C   0  0  0  0  0  0  0  0  0  0  0  0
  146.5276  138.8805  157.7062 C   0  0  2  0  0  0  0  0  0  0  0  0
  147.4124  139.2829  156.5123 C   0  0  0  0  0  0  0  0  0  0  0  0
  146.8957  140.4652  155.8170 N   0  0  0  0  0  0  0  0  0  0  0  0
  147.6049  140.8144  154.5537 C   0  0  0  0  0  0  0  0  0  0  0  0
  147.3719  139.7817  153.4251 C   0  0  0  0  0  0  0  0  0  0  0  0
  147.1427  142.1933  154.0175 C   0  0  0  0  0  0  0  0  0  0  0  0
  149.1425  140.9264  154.7695 C   0  0  0  0  0  0  0  0  0  0  0  0
  149.5027  142.0610  155.6201 N   0  0  0  0  0  0  0  0  0  0  0  0
  150.2353  142.0054  156.7407 C   0  0  0  0  0  0  0  0  0  0  0  0
  150.6826  140.9601  157.2114 O   0  0  0  0  0  0  0  0  0  0  0  0
  150.3968  143.2309  157.2686 N   0  0  0  0  0  0  0  0  0  0  0  0
  151.0812  143.6110  158.4556 C   0  0  0  0  0  0  0  0  0  0  0  0
  152.0103  142.7942  159.1454 C   0  0  0  0  0  0  0  0  0  0  0  0
  152.6275  143.2983  160.3067 C   0  0  0  0  0  0  0  0  0  0  0  0
  152.3010  144.6004  160.7315 C   0  0  0  0  0  0  0  0  0  0  0  0
  151.4278  145.3947  160.0778 N   0  0  0  0  0  0  0  0  0  0  0  0
  150.8397  144.9045  158.9658 C   0  0  0  0  0  0  0  0  0  0  0  0
  146.7837  141.5618  156.7854 C   0  0  0  0  0  0  0  0  0  0  0  0
  145.9190  141.1911  158.0053 C   0  0  1  0  0  0  0  0  0  0  0  0
  144.4165  141.1226  157.6819 C   0  0  0  0  0  0  0  0  0  0  0  0
  146.3937  139.9832  158.5994 O   0  0  0  0  0  0  0  0  0  0  0  0
  147.2396  136.8280  157.8549 H   0  0  0  0  0  0  0  0  0  0  0  0
  146.4744  137.4269  159.3237 H   0  0  0  0  0  0  0  0  0  0  0  0
  148.0998  137.9580  158.8993 H   0  0  0  0  0  0  0  0  0  0  0  0
  145.5418  138.5870  157.3440 H   0  0  0  0  0  0  0  0  0  0  0  0
  148.4266  139.4702  156.8661 H   0  0  0  0  0  0  0  0  0  0  0  0
  147.4651  138.4285  155.8403 H   0  0  0  0  0  0  0  0  0  0  0  0
  147.8957  140.0735  152.5139 H   0  0  0  0  0  0  0  0  0  0  0  0
  146.3178  139.6883  153.1642 H   0  0  0  0  0  0  0  0  0  0  0  0
  147.7366  138.7904  153.6930 H   0  0  0  0  0  0  0  0  0  0  0  0
  147.7779  142.5386  153.2009 H   0  0  0  0  0  0  0  0  0  0  0  0
  147.1715  142.9578  154.7949 H   0  0  0  0  0  0  0  0  0  0  0  0
  146.1286  142.1654  153.6195 H   0  0  0  0  0  0  0  0  0  0  0  0
  149.5425  140.0228  155.2290 H   0  0  0  0  0  0  0  0  0  0  0  0
  149.6503  140.9860  153.8053 H   0  0  0  0  0  0  0  0  0  0  0  0
  149.1847  142.9676  155.3102 H   0  0  0  0  0  0  0  0  0  0  0  0
  149.9211  143.9814  156.7894 H   0  0  0  0  0  0  0  0  0  0  0  0
  152.2722  141.8040  158.8079 H   0  0  0  0  0  0  0  0  0  0  0  0
  153.3389  142.7008  160.8578 H   0  0  0  0  0  0  0  0  0  0  0  0
  152.7573  145.0167  161.6175 H   0  0  0  0  0  0  0  0  0  0  0  0
  150.1480  145.5689  158.4683 H   0  0  0  0  0  0  0  0  0  0  0  0
  147.7757  141.8437  157.1391 H   0  0  0  0  0  0  0  0  0  0  0  0
  146.3533  142.4509  156.3287 H   0  0  0  0  0  0  0  0  0  0  0  0
  146.0475  141.9710  158.7561 H   0  0  0  0  0  0  0  0  0  0  0  0
  144.0523  142.0891  157.3325 H   0  0  0  0  0  0  0  0  0  0  0  0
  143.8398  140.8524  158.5665 H   0  0  0  0  0  0  0  0  0  0  0  0
  144.1969  140.3931  156.9026 H   0  0  0  0  0  0  0  0  0  0  0  0
  1  2  1  0  0  0  0
  1 23  1  0  0  0  0
  1 24  1  0  0  0  0
  1 25  1  0  0  0  0
  2 22  1  0  0  0  0
  2  3  1  0  0  0  0
  2 26  1  0  0  0  0
  3  4  1  0  0  0  0
  3 27  1  0  0  0  0
  3 28  1  0  0  0  0
  4  5  1  0  0  0  0
  4 19  1  0  0  0  0
  5  6  1  0  0  0  0
  5  7  1  0  0  0  0
  5  8  1  0  0  0  0
  6 29  1  0  0  0  0
  6 30  1  0  0  0  0
  6 31  1  0  0  0  0
  7 32  1  0  0  0  0
  7 33  1  0  0  0  0
  7 34  1  0  0  0  0
  8  9  1  0  0  0  0
  8 35  1  0  0  0  0
  8 36  1  0  0  0  0
  9 10  1  0  0  0  0
  9 37  1  0  0  0  0
 10 11  2  0  0  0  0
 10 12  1  0  0  0  0
 12 13  1  0  0  0  0
 12 38  1  0  0  0  0
 13 18  1  0  0  0  0
 13 14  2  0  0  0  0
 14 15  1  0  0  0  0
 14 39  1  0  0  0  0
 15 16  2  0  0  0  0
 15 40  1  0  0  0  0
 16 17  1  0  0  0  0
 16 41  1  0  0  0  0
 17 18  2  0  0  0  0
 18 42  1  0  0  0  0
 19 20  1  0  0  0  0
 19 43  1  0  0  0  0
 19 44  1  0  0  0  0
 20 21  1  0  0  0  0
 20 22  1  0  0  0  0
 20 45  1  0  0  0  0
 21 46  1  0  0  0  0
 21 47  1  0  0  0  0
 21 48  1  0  0  0  0
M  END
> <s_m_source_file>
AV-unprocessed.smi

> <i_m_source_file_index>
1543

> <i_lp_mmshare_version>
43012

> <i_f3d_flags>
0

> <s_epik_input>
W0NIM11bQ0BASF0xW0NIMl1OKFtDSDJdW0NASF0oTzEpW0NIM10pQyhbQ0gzXSkoW0NIM10pW0NIMl1bTkhdQyg9TylbTkhdYzJbY0hdW2NIXVtjSF1uW2NIXTI=

> <s_epik_cmdline>
J2VwaWtfcHl0aG9uJywgJy1waCcsICc3LjAnLCAnLXRuJywgJzgnLCAnLW1hJywgJzIwMCcsICctbWV0YWxfYmluZGluZycsICctaW1hZScsICc8aW5maWxlLm1hZT4nLCAnLW9tYWUnLCAnPG91dGZpbGUubWFlPic=

> <r_epik_Ionization_Penalty>
0.270794

> <r_epik_Ionization_Penalty_Charging>
0

> <r_epik_Ionization_Penalty_Neutral>
0.270794

> <r_epik_State_Penalty>
0.268291

> <r_epik_Charging_Adjusted_Penalty>
0.268291

> <i_epik_Tot_Q>
0

> <i_epik_Tot_abs_Q>
0

> <r_epik_Metal_State_Penalty>
0.264827

> <b_epik_Metal_Only>
0

> <s_lp_Force_Field>
OPLS_2005

> <r_lp_Energy>
46.6988

> <b_lp_Chiralities_Consistent>
1

> <s_lp_Variant>
AV-unprocessed.smi:1543-1

> <Gold.Version>
5.8.1

> <Gold.Id.Protein>
6NUR|6NUR_protein|mol2

> <Gold.PLP.Fitness>
42.4896

> <Gold.PLP.PLP>
-34.1101

> <Gold.PLP.part.hbond>
-3.0000

> <Gold.PLP.part.metal>
0.0000

> <Gold.PLP.part.buried>
-6.4729

> <Gold.PLP.part.nonpolar>
-25.1516

> <Gold.PLP.part.repulsive>
0.3968

> <Gold.PLP.ligand.clash>
0.0000

> <Gold.PLP.ligand.torsion>
0.3529

> <Gold.PLP.Chemscore.Hbond>
2.0066

> <Gold.PLP.Chemscore.CHOScore>
1.0000

> <Gold.PLP.Chemscore.Metal>
0.0000

> <Gold.Chemscore.Hbonds>
donor molecule, donor type, donor heavy atom, donor atom, acceptor molecule, acceptor atom, score
      L1  H     9    37       P1  8028  1.00
      L1  H    12    38       P1  8028  1.00
      L1  C    18    42       P1  8029  0.93

> <Gold.PLP.Chemscore.Internal.Correction>
0.0656

> <Gold.Rescore>
     Score         DG    S(hbond)    S(metal)    S(lipo)     H(rot)  DE(clash)    DE(int)     intcor
     15.98     -18.59       2.03        0.00      85.48       1.43       0.04       2.57       ----

> <Gold.Chemscore.Fitness>
15.9799

> <Gold.Chemscore.DG>
-18.5898

> <Gold.Chemscore.ZeroCoef>
-5.4800

> <Gold.Chemscore.Hbond>
2.0262

> <Gold.Chemscore.Metal>
0.0000

> <Gold.Chemscore.Lipo>
85.4780

> <Gold.Chemscore.Internal_Hbond>
0.0000

> <Gold.Chemscore.DEClash>
0.0360

> <Gold.Chemscore.DEInternal>
2.5738

> <Gold.Chemscore.Rot>
1.4291

> <Gold.Chemscore.Internal.Correction>
   9.000000E+99

> <Gold.Chemscore.Hbonds>
donor molecule, donor type, donor heavy atom, donor atom, acceptor molecule, acceptor atom, score
      L1  H     9    37       P1  8028  0.94
      L1  H    12    38       P1  8028  0.97

> <Gold.Chemscore.Hbond.Weighted>
-6.7674

> <Gold.Chemscore.Metal.Weighted>
-0.0000

> <Gold.Chemscore.Lipo.Weighted>
-10.0009

> <Gold.Chemscore.Internal_Hbond.Weighted>
0.0000

> <Gold.Chemscore.DEClash.Weighted>
0.0360

> <Gold.Chemscore.DEInternal.Weighted>
2.5738

> <Gold.Chemscore.Rot.Weighted>
3.6586

> <Gold.Chemscore.Internal.Correction.Weighted>
   9.000000E+99

> <Gold.Protein.RotatedTorsions>
[ 6907 6896 6895 6894 ] final    4.93 input  -60.11 | X-H torsion
[ 7974 7965 7964 7962 ] final  -99.81 input  175.53 | X-H torsion
[ 8008 7997 7996 7995 ] final  142.02 input   59.86 | X-H torsion
[ 10167 10162 10161 10158 ] final   82.18 input  -65.29 | X-H torsion
[ 10718 10713 10712 10709 ] final   50.07 input   66.30 | X-H torsion
[ 10763 10752 10751 10750 ] final -125.91 input  -60.55 | X-H torsion
[ 11005 11000 10999 10996 ] final  -75.21 input  -57.11 | X-H torsion

> <Gold.Protein.ActiveResidues>
 VAL166  LYS551  ARG553  GLY616  TRP617  ASP618  TYR619  PRO620  LYS621  CYS622 
 ASP623  PHE694  ASN695  SER759  ASP760  ASP761  ALA762  ILE779  LEU786  VAL792 
 PHE793  MET794  SER795  GLU796  ALA797  LYS798  CYS799  TRP800  GLU811  SER814 

> <Gold.Protein.RotatedAtoms>
  151.6493  135.1003  160.0157 H   0  0  0  0  0  0  0  0  0  0  0  0  # atno 6907 bound_to 6896
  152.4010  133.6813  159.6325 H   0  0  0  0  0  0  0  0  0  0  0  0  # atno 6908 bound_to 6896
  150.7910  133.8708  159.3299 H   0  0  0  0  0  0  0  0  0  0  0  0  # atno 6909 bound_to 6896
  145.3027  140.9381  143.2814 H   0  0  0  0  0  0  0  0  0  0  0  0  # atno 7974 bound_to 7965
  156.2956  140.2300  156.4660 H   0  0  0  0  0  0  0  0  0  0  0  0  # atno 8008 bound_to 7997
  154.7976  140.0450  157.1270 H   0  0  0  0  0  0  0  0  0  0  0  0  # atno 8009 bound_to 7997
  154.9571  140.3049  155.5051 H   0  0  0  0  0  0  0  0  0  0  0  0  # atno 8010 bound_to 7997
  139.9315  144.6148  150.8340 H   0  0  0  0  0  0  0  0  0  0  0  0  # atno 10167 bound_to 10162
  157.4848  130.8338  149.8135 H   0  0  0  0  0  0  0  0  0  0  0  0  # atno 10718 bound_to 10713
  154.8741  135.4013  154.3345 H   0  0  0  0  0  0  0  0  0  0  0  0  # atno 10763 bound_to 10752
  153.4154  135.7022  153.6336 H   0  0  0  0  0  0  0  0  0  0  0  0  # atno 10764 bound_to 10752
  153.5021  135.3725  155.2515 H   0  0  0  0  0  0  0  0  0  0  0  0  # atno 10765 bound_to 10752
  141.1643  133.6938  156.7483 H   0  0  0  0  0  0  0  0  0  0  0  0  # atno 11005 bound_to 11000
  144.9081  139.4564  143.6600 LP  0  0  0  0  0  0  0  0  0  0  0  0  # atno 17320 bound_to 7965
  146.3146  139.7873  142.8993 LP  0  0  0  0  0  0  0  0  0  0  0  0  # atno 17321 bound_to 7965
  140.7636  143.3227  151.2586 LP  0  0  0  0  0  0  0  0  0  0  0  0  # atno 17342 bound_to 10162
  139.6778  143.9907  152.2791 LP  0  0  0  0  0  0  0  0  0  0  0  0  # atno 17343 bound_to 10162
  156.0141  130.3821  150.2168 LP  0  0  0  0  0  0  0  0  0  0  0  0  # atno 17370 bound_to 10713
  157.0355  131.0020  151.3299 LP  0  0  0  0  0  0  0  0  0  0  0  0  # atno 17371 bound_to 10713
  140.2623  134.8457  157.3770 LP  0  0  0  0  0  0  0  0  0  0  0  0  # atno 17394 bound_to 11000
  140.1599  134.4742  155.7902 LP  0  0  0  0  0  0  0  0  0  0  0  0  # atno 17395 bound_to 11000

$$$$
