AV-unprocessed.smi:1954|AV-procd|sdf|7894|dock4
  -GOLD-   2272010 53D 1   1.00000     0.00000
 Structure written by MMmdl.
 44 46  0  0  0  0  0  0  0  0  1 V2000
  144.7308  136.3586  153.3787 O   0  0  0  0  0  0  0  0  0  0  0  0
  145.8767  136.3508  152.9279 C   0  0  0  0  0  0  0  0  0  0  0  0
  146.8196  137.2260  153.2987 N   0  0  0  0  0  0  0  0  0  0  0  0
  146.6275  138.2891  154.2806 C   0  0  0  0  0  0  0  0  0  0  0  0
  147.9279  139.1284  154.4961 C   0  0  1  0  0  0  0  0  0  0  0  0
  149.1327  138.2451  154.4263 N   0  0  0  0  0  0  0  0  0  0  0  0
  150.4305  138.9018  154.6413 C   0  0  0  0  0  0  0  0  0  0  0  0
  151.6136  137.9333  154.4712 C   0  0  0  0  0  0  0  0  0  0  0  0
  151.4634  136.8290  155.3526 O   0  0  0  0  0  0  0  0  0  0  0  0
  150.2543  136.1196  155.1208 C   0  0  0  0  0  0  0  0  0  0  0  0
  149.0565  137.0666  155.3008 C   0  0  0  0  0  0  0  0  0  0  0  0
  147.9323  140.2657  153.4333 C   0  0  0  0  0  0  0  0  0  0  0  0
  146.8559  141.2970  153.7904 C   0  0  0  0  0  0  0  0  0  0  0  0
  146.7235  141.3384  155.5933 S   0  0  0  0  0  0  0  0  0  0  0  0
  147.7964  139.8958  155.8365 C   0  0  0  0  0  0  0  0  0  0  0  0
  146.3515  135.4806  152.0192 N   0  0  0  0  0  0  0  0  0  0  0  0
  145.6606  134.4194  151.3756 C   0  0  0  0  0  0  0  0  0  0  0  0
  146.4872  133.4559  150.7545 C   0  0  0  0  0  0  0  0  0  0  0  0
  145.8984  132.3647  150.0867 C   0  0  0  0  0  0  0  0  0  0  0  0
  144.4960  132.2654  150.0557 C   0  0  0  0  0  0  0  0  0  0  0  0
  143.7464  133.2677  150.6985 C   0  0  0  0  0  0  0  0  0  0  0  0
  144.3087  134.3138  151.3400 N   0  0  0  0  0  0  0  0  0  0  0  0
  147.7379  137.1513  152.8856 H   0  0  0  0  0  0  0  0  0  0  0  0
  145.7974  138.9165  153.9566 H   0  0  0  0  0  0  0  0  0  0  0  0
  146.2783  137.8466  155.2132 H   0  0  0  0  0  0  0  0  0  0  0  0
  150.5863  139.7060  153.9265 H   0  0  0  0  0  0  0  0  0  0  0  0
  150.4795  139.3412  155.6368 H   0  0  0  0  0  0  0  0  0  0  0  0
  151.6788  137.5795  153.4412 H   0  0  0  0  0  0  0  0  0  0  0  0
  152.5523  138.4404  154.6943 H   0  0  0  0  0  0  0  0  0  0  0  0
  150.2599  135.6900  154.1177 H   0  0  0  0  0  0  0  0  0  0  0  0
  150.1891  135.2898  155.8242 H   0  0  0  0  0  0  0  0  0  0  0  0
  149.0056  137.3795  156.3443 H   0  0  0  0  0  0  0  0  0  0  0  0
  148.1574  136.4875  155.1026 H   0  0  0  0  0  0  0  0  0  0  0  0
  148.8691  140.8179  153.4486 H   0  0  0  0  0  0  0  0  0  0  0  0
  147.8109  139.8942  152.4155 H   0  0  0  0  0  0  0  0  0  0  0  0
  147.0976  142.2856  153.3997 H   0  0  0  0  0  0  0  0  0  0  0  0
  145.8904  141.0119  153.3721 H   0  0  0  0  0  0  0  0  0  0  0  0
  147.4102  139.2700  156.6418 H   0  0  0  0  0  0  0  0  0  0  0  0
  148.7566  140.2841  156.1716 H   0  0  0  0  0  0  0  0  0  0  0  0
  147.3195  135.5906  151.7563 H   0  0  0  0  0  0  0  0  0  0  0  0
  147.5633  133.5476  150.7875 H   0  0  0  0  0  0  0  0  0  0  0  0
  146.5131  131.6172  149.6069 H   0  0  0  0  0  0  0  0  0  0  0  0
  144.0075  131.4439  149.5529 H   0  0  0  0  0  0  0  0  0  0  0  0
  142.6672  133.2293  150.6984 H   0  0  0  0  0  0  0  0  0  0  0  0
  1  2  2  0  0  0  0
  2  3  1  0  0  0  0
  2 16  1  0  0  0  0
  3  4  1  0  0  0  0
  3 23  1  0  0  0  0
  4  5  1  0  0  0  0
  4 24  1  0  0  0  0
  4 25  1  0  0  0  0
  5 15  1  0  0  0  0
  5  6  1  0  0  0  0
  5 12  1  0  0  0  0
  6 11  1  0  0  0  0
  6  7  1  0  0  0  0
  7  8  1  0  0  0  0
  7 26  1  0  0  0  0
  7 27  1  0  0  0  0
  8  9  1  0  0  0  0
  8 28  1  0  0  0  0
  8 29  1  0  0  0  0
  9 10  1  0  0  0  0
 10 11  1  0  0  0  0
 10 30  1  0  0  0  0
 10 31  1  0  0  0  0
 11 32  1  0  0  0  0
 11 33  1  0  0  0  0
 12 13  1  0  0  0  0
 12 34  1  0  0  0  0
 12 35  1  0  0  0  0
 13 14  1  0  0  0  0
 13 36  1  0  0  0  0
 13 37  1  0  0  0  0
 14 15  1  0  0  0  0
 15 38  1  0  0  0  0
 15 39  1  0  0  0  0
 16 17  1  0  0  0  0
 16 40  1  0  0  0  0
 17 22  1  0  0  0  0
 17 18  2  0  0  0  0
 18 19  1  0  0  0  0
 18 41  1  0  0  0  0
 19 20  2  0  0  0  0
 19 42  1  0  0  0  0
 20 21  1  0  0  0  0
 20 43  1  0  0  0  0
 21 22  2  0  0  0  0
 21 44  1  0  0  0  0
M  END
> <s_m_source_file>
AV-unprocessed.smi

> <i_m_source_file_index>
1954

> <i_lp_mmshare_version>
43012

> <i_f3d_flags>
0

> <s_epik_input>
bjFbY0hdW2NIXVtjSF1bY0hdYzFbTkhdQyg9TylbTkhdW0NIMl1bQ0BdMihbQ0gyXVtDSDJdU1tDSDJdMilOM1tDSDJdW0NIMl1PW0NIMl1bQ0gyXTM=

> <s_epik_cmdline>
J2VwaWtfcHl0aG9uJywgJy1waCcsICc3LjAnLCAnLXRuJywgJzgnLCAnLW1hJywgJzIwMCcsICctbWV0YWxfYmluZGluZycsICctaW1hZScsICc8aW5maWxlLm1hZT4nLCAnLW9tYWUnLCAnPG91dGZpbGUubWFlPic=

> <r_epik_Ionization_Penalty>
0.0195535

> <r_epik_Ionization_Penalty_Charging>
0

> <r_epik_Ionization_Penalty_Neutral>
0.0195535

> <r_epik_State_Penalty>
0.0155843

> <r_epik_Charging_Adjusted_Penalty>
0.0155843

> <i_epik_Tot_Q>
0

> <i_epik_Tot_abs_Q>
0

> <r_epik_Metal_State_Penalty>
0.0155842

> <b_epik_Metal_Only>
0

> <s_lp_Force_Field>
OPLS_2005

> <r_lp_Energy>
55.5144

> <b_lp_Chiralities_Consistent>
1

> <s_lp_Variant>
AV-unprocessed.smi:1954-1

> <Gold.Version>
5.8.1

> <Gold.Id.Protein>
6NUR|6NUR_protein|mol2

> <Gold.PLP.Fitness>
43.8422

> <Gold.PLP.PLP>
-32.7480

> <Gold.PLP.part.hbond>
-3.0000

> <Gold.PLP.part.metal>
0.0000

> <Gold.PLP.part.buried>
-4.4212

> <Gold.PLP.part.nonpolar>
-27.1259

> <Gold.PLP.part.repulsive>
0.5742

> <Gold.PLP.ligand.clash>
0.0000

> <Gold.PLP.ligand.torsion>
0.4868

> <Gold.PLP.Chemscore.Hbond>
3.0000

> <Gold.PLP.Chemscore.CHOScore>
1.0000

> <Gold.PLP.Chemscore.Metal>
0.0000

> <Gold.Chemscore.Hbonds>
donor molecule, donor type, donor heavy atom, donor atom, acceptor molecule, acceptor atom, score
      L1  H     3    23       P1  7948  1.00
      L1  H    16    40       P1  7948  1.00
      P1  H 10752 10765       L1     9  0.89
      L1  C    21    44       P1 10186  1.00

> <Gold.PLP.Chemscore.Internal.Correction>
0.0678

> <Gold.Rescore>
     Score         DG    S(hbond)    S(metal)    S(lipo)     H(rot)  DE(clash)    DE(int)     intcor
     15.69     -17.96       1.93        0.00      84.25       1.49       0.71       1.56       ----

> <Gold.Chemscore.Fitness>
15.6941

> <Gold.Chemscore.DG>
-17.9627

> <Gold.Chemscore.ZeroCoef>
-5.4800

> <Gold.Chemscore.Hbond>
1.9313

> <Gold.Chemscore.Metal>
0.0000

> <Gold.Chemscore.Lipo>
84.2470

> <Gold.Chemscore.Internal_Hbond>
0.0000

> <Gold.Chemscore.DEClash>
0.7120

> <Gold.Chemscore.DEInternal>
1.5566

> <Gold.Chemscore.Rot>
1.4940

> <Gold.Chemscore.Internal.Correction>
   9.000000E+99

> <Gold.Chemscore.Hbonds>
donor molecule, donor type, donor heavy atom, donor atom, acceptor molecule, acceptor atom, score
      L1  H     3    23       P1  7948  0.94
      L1  H    16    40       P1  7948  0.99
      P1  H 10752 10765       L1     9  0.23

> <Gold.Chemscore.Hbond.Weighted>
-6.4504

> <Gold.Chemscore.Metal.Weighted>
-0.0000

> <Gold.Chemscore.Lipo.Weighted>
-9.8569

> <Gold.Chemscore.Internal_Hbond.Weighted>
0.0000

> <Gold.Chemscore.DEClash.Weighted>
0.7120

> <Gold.Chemscore.DEInternal.Weighted>
1.5566

> <Gold.Chemscore.Rot.Weighted>
3.8246

> <Gold.Chemscore.Internal.Correction.Weighted>
   9.000000E+99

> <Gold.Protein.RotatedTorsions>
[ 6907 6896 6895 6894 ] final   -4.44 input  -60.11 | X-H torsion
[ 7974 7965 7964 7962 ] final   57.38 input  175.53 | X-H torsion
[ 8008 7997 7996 7995 ] final  154.96 input   59.86 | X-H torsion
[ 10167 10162 10161 10158 ] final   28.51 input  -65.29 | X-H torsion
[ 10718 10713 10712 10709 ] final  -86.93 input   66.30 | X-H torsion
[ 10763 10752 10751 10750 ] final -166.15 input  -60.55 | X-H torsion
[ 11005 11000 10999 10996 ] final -102.37 input  -57.11 | X-H torsion

> <Gold.Protein.ActiveResidues>
 VAL166  LYS551  ARG553  GLY616  TRP617  ASP618  TYR619  PRO620  LYS621  CYS622 
 ASP623  PHE694  ASN695  SER759  ASP760  ASP761  ALA762  ILE779  LEU786  VAL792 
 PHE793  MET794  SER795  GLU796  ALA797  LYS798  CYS799  TRP800  GLU811  SER814 

> <Gold.Protein.RotatedAtoms>
  151.4977  135.1060  159.9820 H   0  0  0  0  0  0  0  0  0  0  0  0  # atno 6907 bound_to 6896
  152.4715  133.8036  159.6976 H   0  0  0  0  0  0  0  0  0  0  0  0  # atno 6908 bound_to 6896
  150.8727  133.7420  159.2982 H   0  0  0  0  0  0  0  0  0  0  0  0  # atno 6909 bound_to 6896
  145.9296  139.3796  143.0429 H   0  0  0  0  0  0  0  0  0  0  0  0  # atno 7974 bound_to 7965
  156.2504  140.1952  156.6726 H   0  0  0  0  0  0  0  0  0  0  0  0  # atno 8008 bound_to 7997
  154.6381  140.0587  156.9839 H   0  0  0  0  0  0  0  0  0  0  0  0  # atno 8009 bound_to 7997
  155.1605  140.3259  155.4415 H   0  0  0  0  0  0  0  0  0  0  0  0  # atno 8010 bound_to 7997
  140.4846  144.0562  150.6276 H   0  0  0  0  0  0  0  0  0  0  0  0  # atno 10167 bound_to 10162
  155.9987  130.4782  150.4789 H   0  0  0  0  0  0  0  0  0  0  0  0  # atno 10718 bound_to 10713
  154.6862  135.2963  154.9544 H   0  0  0  0  0  0  0  0  0  0  0  0  # atno 10763 bound_to 10752
  154.0523  135.6643  153.4806 H   0  0  0  0  0  0  0  0  0  0  0  0  # atno 10764 bound_to 10752
  153.0580  135.5132  154.7930 H   0  0  0  0  0  0  0  0  0  0  0  0  # atno 10765 bound_to 10752
  141.1192  133.8553  157.1351 H   0  0  0  0  0  0  0  0  0  0  0  0  # atno 11005 bound_to 11000
  145.8443  140.9563  143.0783 LP  0  0  0  0  0  0  0  0  0  0  0  0  # atno 17320 bound_to 7965
  144.6763  140.0325  143.7482 LP  0  0  0  0  0  0  0  0  0  0  0  0  # atno 17321 bound_to 7965
  140.3814  143.2801  152.0166 LP  0  0  0  0  0  0  0  0  0  0  0  0  # atno 17342 bound_to 10162
  139.4839  144.6151  151.7360 LP  0  0  0  0  0  0  0  0  0  0  0  0  # atno 17343 bound_to 10162
  157.2796  131.0604  151.2206 LP  0  0  0  0  0  0  0  0  0  0  0  0  # atno 17370 bound_to 10713
  157.3257  130.6959  149.6295 LP  0  0  0  0  0  0  0  0  0  0  0  0  # atno 17371 bound_to 10713
  140.0136  134.9977  157.0447 LP  0  0  0  0  0  0  0  0  0  0  0  0  # atno 17394 bound_to 11000
  140.4557  134.1536  155.7186 LP  0  0  0  0  0  0  0  0  0  0  0  0  # atno 17395 bound_to 11000

$$$$
