#       Name:                AV-unprocessed.smi:3063
#       Creating user name   scv26
#       Creation time:       Fri Mar 27 17:09:25 2020


#       File generated by GOLD software.
#

@<TRIPOS>MOLECULE
AV-unprocessed.smi:3063
    49    50     1
SMALL
NO_CHARGES


@<TRIPOS>ATOM
      1 ****        -1.9752   2.0217  -1.9553 C.3            1 S1                 0.0000
      2 ****        -2.3648   0.7510  -1.1967 C.2            1 S1                 0.0000
      3 ****        -2.3917  -0.3107  -1.8194 O.2            1 S1                 0.0000
      4 ****        -2.6477   0.8284   0.1267 N.am           1 S1                 0.0000
      5 ****        -2.8982  -0.3768   0.9310 C.3            1 S1                 0.0000
      6 ****        -1.5829  -0.9612   1.4884 C.3            1 S1                 0.0000
      7 ****        -0.8026   0.0235   2.3860 C.3            1 S1                 0.0000
      8 ****        -0.4022   1.2361   1.6457 N.am           1 S1                 0.0000
      9 ****         0.7321   1.3626   0.9085 C.2            1 S1                 0.0000
     10 ****         1.0392   2.3951   0.3109 O.2            1 S1                 0.0000
     11 ****         1.4986   0.2589   0.8655 N.am           1 S1                 0.0000
     12 ****         2.7649   0.1232   0.1487 C.3            1 S1                 0.0000
     13 ****         3.5755  -1.0245   0.7722 C.3            1 S1                 0.0000
     14 ****         2.5436  -0.0421  -1.3743 C.3            1 S1                 0.0000
     15 ****         1.9193  -1.3019  -1.7420 N.pl3          1 S1                 0.0000
     16 ****         2.5197  -2.4703  -2.1622 C.2            1 S1                 0.0000
     17 ****         1.5261  -3.3787  -2.3917 C.2            1 S1                 0.0000
     18 ****         0.3358  -2.6615  -2.0860 C.2            1 S1                 0.0000
     19 ****         0.5757  -1.4196  -1.7007 N.2            1 S1                 0.0000
     20 ****        -1.3869   2.3293   1.7358 C.3            1 S1                 0.0000
     21 ****        -2.6724   2.0814   0.9024 C.3            1 S1                 0.0000
     22 ****        -1.1796   2.5582  -1.4383 H              1 S1                 0.0000
     23 ****        -2.8349   2.6830  -2.0656 H              1 S1                 0.0000
     24 ****        -1.6119   1.7746  -2.9533 H              1 S1                 0.0000
     25 ****        -3.5712  -0.1493   1.7585 H              1 S1                 0.0000
     26 ****        -3.4200  -1.1347   0.3444 H              1 S1                 0.0000
     27 ****        -1.8137  -1.8573   2.0650 H              1 S1                 0.0000
     28 ****        -0.9499  -1.2939   0.6658 H              1 S1                 0.0000
     29 ****        -1.4255   0.2945   3.2394 H              1 S1                 0.0000
     30 ****         0.0621  -0.4744   2.8266 H              1 S1                 0.0000
     31 ****         1.1733  -0.5551   1.3662 H              1 S1                 0.0000
     32 ****         3.3353   1.0411   0.3018 H              1 S1                 0.0000
     33 ****         4.5281  -1.1547   0.2583 H              1 S1                 0.0000
     34 ****         3.0381  -1.9722   0.7247 H              1 S1                 0.0000
     35 ****         3.7935  -0.8234   1.8215 H              1 S1                 0.0000
     36 ****         1.9423   0.7766  -1.7726 H              1 S1                 0.0000
     37 ****         3.5043   0.0157  -1.8873 H              1 S1                 0.0000
     38 ****         3.5920  -2.5580  -2.2577 H              1 S1                 0.0000
     39 ****         1.6331  -4.3991  -2.7280 H              1 S1                 0.0000
     40 ****        -0.6883  -3.0017  -2.1327 H              1 S1                 0.0000
     41 ****        -1.6584   2.4773   2.7817 H              1 S1                 0.0000
     42 ****        -0.9546   3.2860   1.4394 H              1 S1                 0.0000
     43 ****        -2.8722   2.9475   0.2721 H              1 S1                 0.0000
     44 ****        -3.5278   2.0570   1.5785 H              1 S1                 0.0000
     45 ****        -2.1628  -0.3255  -2.7928 LP             1 S1                 0.0000
     46 ****        -2.6424  -1.1584  -1.3519 LP             1 S1                 0.0000
     47 ****         0.4405   3.1949   0.3544 LP             1 S1                 0.0000
     48 ****         1.8872   2.4334  -0.2178 LP             1 S1                 0.0000
     49 ****        -0.0908  -0.7223  -1.4372 LP             1 S1                 0.0000
@<TRIPOS>BOND
    1    1    2 1     
    2    1   22 1     
    3    1   23 1     
    4    1   24 1     
    5    2    3 2     
    6    2    4 am    
    7    4   21 1     
    8    4    5 1     
    9    5    6 1     
   10    5   25 1     
   11    5   26 1     
   12    6    7 1     
   13    6   27 1     
   14    6   28 1     
   15    7    8 1     
   16    7   29 1     
   17    7   30 1     
   18    8    9 am    
   19    8   20 1     
   20    9   10 2     
   21    9   11 am    
   22   11   12 1     
   23   11   31 1     
   24   12   13 1     
   25   12   14 1     
   26   12   32 1     
   27   13   33 1     
   28   13   34 1     
   29   13   35 1     
   30   14   15 1     
   31   14   36 1     
   32   14   37 1     
   33   15   19 1     
   34   15   16 1     
   35   16   17 2     
   36   16   38 1     
   37   17   18 1     
   38   17   39 1     
   39   18   19 2     
   40   18   40 1     
   41   20   21 1     
   42   20   41 1     
   43   20   42 1     
   44   21   43 1     
   45   21   44 1     
   46    3   45 1     
   47    3   46 1     
   48   10   47 1     
   49   10   48 1     
   50   19   49 1     
@<TRIPOS>SUBSTRUCTURE
      1 S1             1
@<TRIPOS>SET
LONE_PAIRS      STATIC     ATOMS    <user>   **** ""
5 45 46 47 48 49
DONOR_HYDROGENS      STATIC     ATOMS    <user>   **** ""
1 31
ATOM$BLUE        STATIC     ATOMS    COLORGROUP SYSTEM
5 45 46 47 48 49
ATOM$RED        STATIC     ATOMS    COLORGROUP SYSTEM
1 31
