AV-unprocessed.smi:166|AV-procd|sdf|1388|dock2
  -GOLD-   2262019123D 1   1.00000     0.00000
 Structure written by MMmdl.
 54 58  0  0  0  0  0  0  0  0  1 V2000
  152.9307  144.8761  158.2640 O   0  0  0  0  0  0  0  0  0  0  0  0
  152.0315  143.8286  158.5867 C   0  0  1  0  0  0  0  0  0  0  0  0
  151.4372  143.2539  157.2786 C   0  0  0  0  0  0  0  0  0  0  0  0
  150.6306  142.0588  157.4786 N   0  0  0  0  0  0  0  0  0  0  0  0
  149.2642  141.9521  157.3463 C   0  0  0  0  0  0  0  0  0  0  0  0
  148.7723  140.7668  157.5821 N   0  0  0  0  0  0  0  0  0  0  0  0
  149.8847  139.9907  157.8853 C   0  0  0  0  0  0  0  0  0  0  0  0
  150.0739  138.6254  158.2415 C   0  0  0  0  0  0  0  0  0  0  0  0
  149.0466  137.7437  158.3401 N   0  0  0  0  0  0  0  0  0  0  0  0
  148.8767  136.8705  157.1789 C   0  0  0  0  0  0  0  0  0  0  0  0
  147.4894  136.2087  157.1904 C   0  0  0  0  0  0  0  0  0  0  0  0
  147.2395  135.4834  158.5208 C   0  0  0  0  0  0  0  0  0  0  0  0
  147.4268  136.4506  159.7010 C   0  0  1  0  0  0  0  0  0  0  0  0
  147.2702  135.7005  160.8977 O   0  0  0  0  0  0  0  0  0  0  0  0
  147.2355  136.4836  162.0836 C   0  0  0  0  0  0  0  0  0  0  0  0
  146.4977  135.7616  163.1962 C   0  0  0  0  0  0  0  0  0  0  0  0
  145.9240  134.3765  162.9783 C   0  0  0  0  0  0  0  0  0  0  0  0
  144.9983  135.5527  163.1337 C   0  0  0  0  0  0  0  0  0  0  0  0
  148.8225  137.1053  159.6387 C   0  0  0  0  0  0  0  0  0  0  0  0
  151.3472  138.2151  158.4886 N   0  0  0  0  0  0  0  0  0  0  0  0
  152.3658  139.0738  158.3864 C   0  0  0  0  0  0  0  0  0  0  0  0
  152.3368  140.3672  158.0613 N   0  0  0  0  0  0  0  0  0  0  0  0
  151.0621  140.7891  157.8224 C   0  0  0  0  0  0  0  0  0  0  0  0
  152.7887  142.7863  159.4018 C   0  0  0  0  0  0  0  0  0  0  0  0
  152.6056  143.2764  160.8317 C   0  0  0  0  0  0  0  0  0  0  0  0
  151.2625  143.7271  160.8367 O   0  0  0  0  0  0  0  0  0  0  0  0
  150.9921  144.3676  159.5935 C   0  0  0  0  0  0  0  0  0  0  0  0
  152.4833  145.4957  157.7082 H   0  0  0  0  0  0  0  0  0  0  0  0
  150.8201  144.0032  156.7809 H   0  0  0  0  0  0  0  0  0  0  0  0
  152.2392  143.0093  156.5812 H   0  0  0  0  0  0  0  0  0  0  0  0
  148.6376  142.7887  157.0735 H   0  0  0  0  0  0  0  0  0  0  0  0
  149.0063  137.4166  156.2453 H   0  0  0  0  0  0  0  0  0  0  0  0
  149.6531  136.1047  157.2022 H   0  0  0  0  0  0  0  0  0  0  0  0
  146.7215  136.9682  157.0378 H   0  0  0  0  0  0  0  0  0  0  0  0
  147.4029  135.5079  156.3597 H   0  0  0  0  0  0  0  0  0  0  0  0
  146.2341  135.0619  158.5356 H   0  0  0  0  0  0  0  0  0  0  0  0
  147.9315  134.6454  158.6159 H   0  0  0  0  0  0  0  0  0  0  0  0
  146.6540  137.2196  159.6401 H   0  0  0  0  0  0  0  0  0  0  0  0
  148.2438  136.7082  162.4307 H   0  0  0  0  0  0  0  0  0  0  0  0
  146.7324  137.4322  161.8918 H   0  0  0  0  0  0  0  0  0  0  0  0
  146.9096  135.9524  164.1854 H   0  0  0  0  0  0  0  0  0  0  0  0
  146.0125  133.9350  161.9875 H   0  0  0  0  0  0  0  0  0  0  0  0
  145.9852  133.6732  163.8063 H   0  0  0  0  0  0  0  0  0  0  0  0
  144.4420  135.6334  164.0653 H   0  0  0  0  0  0  0  0  0  0  0  0
  144.4690  135.8953  162.2469 H   0  0  0  0  0  0  0  0  0  0  0  0
  149.5938  136.3520  159.8053 H   0  0  0  0  0  0  0  0  0  0  0  0
  148.9206  137.8491  160.4298 H   0  0  0  0  0  0  0  0  0  0  0  0
  153.3438  138.6662  158.5956 H   0  0  0  0  0  0  0  0  0  0  0  0
  152.3151  141.8086  159.3013 H   0  0  0  0  0  0  0  0  0  0  0  0
  153.8358  142.6777  159.1165 H   0  0  0  0  0  0  0  0  0  0  0  0
  152.7713  142.4941  161.5726 H   0  0  0  0  0  0  0  0  0  0  0  0
  153.2750  144.1097  161.0509 H   0  0  0  0  0  0  0  0  0  0  0  0
  151.0558  145.4505  159.7117 H   0  0  0  0  0  0  0  0  0  0  0  0
  149.9684  144.1312  159.3062 H   0  0  0  0  0  0  0  0  0  0  0  0
  1  2  1  0  0  0  0
  1 28  1  0  0  0  0
  2 27  1  0  0  0  0
  2  3  1  0  0  0  0
  2 24  1  0  0  0  0
  3  4  1  0  0  0  0
  3 29  1  0  0  0  0
  3 30  1  0  0  0  0
  4 23  1  0  0  0  0
  4  5  1  0  0  0  0
  5  6  2  0  0  0  0
  5 31  1  0  0  0  0
  6  7  1  0  0  0  0
  7 23  2  0  0  0  0
  7  8  1  0  0  0  0
  8  9  1  0  0  0  0
  8 20  2  0  0  0  0
  9 19  1  0  0  0  0
  9 10  1  0  0  0  0
 10 11  1  0  0  0  0
 10 32  1  0  0  0  0
 10 33  1  0  0  0  0
 11 12  1  0  0  0  0
 11 34  1  0  0  0  0
 11 35  1  0  0  0  0
 12 13  1  0  0  0  0
 12 36  1  0  0  0  0
 12 37  1  0  0  0  0
 13 14  1  0  0  0  0
 13 19  1  0  0  0  0
 13 38  1  0  0  0  0
 14 15  1  0  0  0  0
 15 16  1  0  0  0  0
 15 39  1  0  0  0  0
 15 40  1  0  0  0  0
 16 18  1  0  0  0  0
 16 17  1  0  0  0  0
 16 41  1  0  0  0  0
 17 18  1  0  0  0  0
 17 42  1  0  0  0  0
 17 43  1  0  0  0  0
 18 44  1  0  0  0  0
 18 45  1  0  0  0  0
 19 46  1  0  0  0  0
 19 47  1  0  0  0  0
 20 21  1  0  0  0  0
 21 22  2  0  0  0  0
 21 48  1  0  0  0  0
 22 23  1  0  0  0  0
 24 25  1  0  0  0  0
 24 49  1  0  0  0  0
 24 50  1  0  0  0  0
 25 26  1  0  0  0  0
 25 51  1  0  0  0  0
 25 52  1  0  0  0  0
 26 27  1  0  0  0  0
 27 53  1  0  0  0  0
 27 54  1  0  0  0  0
M  END
> <s_m_source_file>
AV-unprocessed.smi

> <i_m_source_file_index>
166

> <i_lp_mmshare_version>
43012

> <i_f3d_flags>
0

> <s_epik_input>
W0NIMl0xT1tDSDJdW0NIMl1bQ0BAXTEoW09IXSlbQ0gyXW4oW2NIXW4yKWMoYzIzKW5bY0hdbmMzTjRbQ0gyXVtDSDJdW0NIMl1bQ0BIXShbQ0gyXTQpT1tDSDJdW0NIXTVbQ0gyXVtDSDJdNQ==

> <s_epik_cmdline>
J2VwaWtfcHl0aG9uJywgJy1waCcsICc3LjAnLCAnLXRuJywgJzgnLCAnLW1hJywgJzIwMCcsICctbWV0YWxfYmluZGluZycsICctaW1hZScsICc8aW5maWxlLm1hZT4nLCAnLW9tYWUnLCAnPG91dGZpbGUubWFlPic=

> <r_lp_tautomer_probability>
1

> <r_epik_Ionization_Penalty>
0.00342552

> <r_epik_Ionization_Penalty_Charging>
0

> <r_epik_Ionization_Penalty_Neutral>
0.00342552

> <r_epik_State_Penalty>
0.0022204

> <r_epik_Charging_Adjusted_Penalty>
0.0022204

> <i_epik_Tot_Q>
0

> <i_epik_Tot_abs_Q>
0

> <r_epik_Metal_State_Penalty>
-0

> <b_epik_Metal_Only>
0

> <s_lp_Force_Field>
OPLS_2005

> <r_lp_Energy>
44.5811

> <b_lp_Chiralities_Consistent>
1

> <s_lp_Variant>
AV-unprocessed.smi:166-1

> <Gold.Version>
5.8.1

> <Gold.Id.Protein>
6NUR|6NUR_protein|mol2

> <Gold.PLP.Fitness>
47.8807

> <Gold.PLP.PLP>
-45.8638

> <Gold.PLP.part.hbond>
-1.6447

> <Gold.PLP.part.metal>
0.0000

> <Gold.PLP.part.buried>
-4.6133

> <Gold.PLP.part.nonpolar>
-39.1935

> <Gold.PLP.part.repulsive>
0.1508

> <Gold.PLP.ligand.clash>
0.0000

> <Gold.PLP.ligand.torsion>
0.9846

> <Gold.PLP.Chemscore.Hbond>
0.0000

> <Gold.PLP.Chemscore.CHOScore>
0.9908

> <Gold.PLP.Chemscore.Metal>
0.0000

> <Gold.Chemscore.Hbonds>
donor molecule, donor type, donor heavy atom, donor atom, acceptor molecule, acceptor atom, score
      L1  C     5    31       P1  8028  1.00

> <Gold.PLP.Chemscore.Internal.Correction>
1.0138

> <Gold.Rescore>
     Score         DG    S(hbond)    S(metal)    S(lipo)     H(rot)  DE(clash)    DE(int)     intcor
      7.94     -11.59       0.00        0.00     110.91       2.68       0.33       3.32       ----

> <Gold.Chemscore.Fitness>
7.9387

> <Gold.Chemscore.DG>
-11.5915

> <Gold.Chemscore.ZeroCoef>
-5.4800

> <Gold.Chemscore.Hbond>
0.0000

> <Gold.Chemscore.Metal>
0.0000

> <Gold.Chemscore.Lipo>
110.9109

> <Gold.Chemscore.Internal_Hbond>
0.0000

> <Gold.Chemscore.DEClash>
0.3333

> <Gold.Chemscore.DEInternal>
3.3195

> <Gold.Chemscore.Rot>
2.6817

> <Gold.Chemscore.Internal.Correction>
   9.000000E+99

> <Gold.Chemscore.Hbond.Weighted>
-0.0000

> <Gold.Chemscore.Metal.Weighted>
-0.0000

> <Gold.Chemscore.Lipo.Weighted>
-12.9766

> <Gold.Chemscore.Internal_Hbond.Weighted>
0.0000

> <Gold.Chemscore.DEClash.Weighted>
0.3333

> <Gold.Chemscore.DEInternal.Weighted>
3.3195

> <Gold.Chemscore.Rot.Weighted>
6.8651

> <Gold.Chemscore.Internal.Correction.Weighted>
   9.000000E+99

> <Gold.Protein.RotatedTorsions>
[ 6907 6896 6895 6894 ] final -150.06 input  -60.11 | X-H torsion
[ 7974 7965 7964 7962 ] final   -9.22 input  175.53 | X-H torsion
[ 8008 7997 7996 7995 ] final  149.67 input   59.86 | X-H torsion
[ 10167 10162 10161 10158 ] final   66.75 input  -65.29 | X-H torsion
[ 10718 10713 10712 10709 ] final   41.75 input   66.30 | X-H torsion
[ 10763 10752 10751 10750 ] final   65.05 input  -60.55 | X-H torsion
[ 11005 11000 10999 10996 ] final -134.28 input  -57.11 | X-H torsion

> <Gold.Protein.ActiveResidues>
 VAL166  LYS551  ARG553  GLY616  TRP617  ASP618  TYR619  PRO620  LYS621  CYS622 
 ASP623  PHE694  ASN695  SER759  ASP760  ASP761  ALA762  ILE779  LEU786  VAL792 
 PHE793  MET794  SER795  GLU796  ALA797  LYS798  CYS799  TRP800  GLU811  SER814 

> <Gold.Protein.RotatedAtoms>
  151.1931  133.4655  159.2594 H   0  0  0  0  0  0  0  0  0  0  0  0  # atno 6907 bound_to 6896
  151.1144  135.0044  159.8519 H   0  0  0  0  0  0  0  0  0  0  0  0  # atno 6908 bound_to 6896
  152.5452  134.1848  159.8703 H   0  0  0  0  0  0  0  0  0  0  0  0  # atno 6909 bound_to 6896
  146.2258  140.2583  142.8350 H   0  0  0  0  0  0  0  0  0  0  0  0  # atno 7974 bound_to 7965
  156.2746  140.2095  156.5895 H   0  0  0  0  0  0  0  0  0  0  0  0  # atno 8008 bound_to 7997
  154.6993  140.0522  157.0466 H   0  0  0  0  0  0  0  0  0  0  0  0  # atno 8009 bound_to 7997
  155.0757  140.3181  155.4620 H   0  0  0  0  0  0  0  0  0  0  0  0  # atno 8010 bound_to 7997
  140.0970  144.4937  150.7061 H   0  0  0  0  0  0  0  0  0  0  0  0  # atno 10167 bound_to 10162
  157.3970  130.7839  149.7317 H   0  0  0  0  0  0  0  0  0  0  0  0  # atno 10718 bound_to 10713
  153.0080  135.5371  154.6606 H   0  0  0  0  0  0  0  0  0  0  0  0  # atno 10763 bound_to 10752
  154.5816  135.2850  155.0729 H   0  0  0  0  0  0  0  0  0  0  0  0  # atno 10764 bound_to 10752
  154.1856  135.6509  153.5098 H   0  0  0  0  0  0  0  0  0  0  0  0  # atno 10765 bound_to 10752
  140.9004  134.1697  157.4464 H   0  0  0  0  0  0  0  0  0  0  0  0  # atno 11005 bound_to 11000
  144.9359  140.8025  143.5661 LP  0  0  0  0  0  0  0  0  0  0  0  0  # atno 17320 bound_to 7965
  145.2531  139.2023  143.4932 LP  0  0  0  0  0  0  0  0  0  0  0  0  # atno 17321 bound_to 7965
  140.6998  143.2427  151.4897 LP  0  0  0  0  0  0  0  0  0  0  0  0  # atno 17342 bound_to 10162
  139.5692  144.1968  152.1811 LP  0  0  0  0  0  0  0  0  0  0  0  0  # atno 17343 bound_to 10162
  155.9813  130.4021  150.3479 LP  0  0  0  0  0  0  0  0  0  0  0  0  # atno 17370 bound_to 10713
  157.1602  131.0343  151.2844 LP  0  0  0  0  0  0  0  0  0  0  0  0  # atno 17371 bound_to 10713
  139.8741  134.9896  156.5463 LP  0  0  0  0  0  0  0  0  0  0  0  0  # atno 17394 bound_to 11000
  140.8236  133.8334  155.8919 LP  0  0  0  0  0  0  0  0  0  0  0  0  # atno 17395 bound_to 11000

$$$$
