#       Name:                AV-unprocessed.smi:1466
#       Creating user name   scv26
#       Creation time:       Fri Mar 27 06:03:54 2020


#       File generated by GOLD software.
#

@<TRIPOS>MOLECULE
AV-unprocessed.smi:1466
    53    54     1
SMALL
NO_CHARGES


@<TRIPOS>ATOM
      1 ****        -7.3240   2.2781  -0.1093 C.3            1 S1                 0.0000
      2 ****        -6.2118   3.1232  -0.5231 N.pl3          1 S1                 0.0000
      3 ****        -6.4024   4.5590  -0.6960 C.3            1 S1                 0.0000
      4 ****        -4.9415   2.5511  -0.7506 C.ar           1 S1                 0.0000
      5 ****        -4.6837   1.1633  -0.6313 C.ar           1 S1                 0.0000
      6 ****        -3.3871   0.6639  -0.8724 C.ar           1 S1                 0.0000
      7 ****        -2.3473   1.5589  -1.2236 C.ar           1 S1                 0.0000
      8 ****        -1.0120   1.1585  -1.4999 N.am           1 S1                 0.0000
      9 ****        -0.3730   0.0480  -1.0931 C.2            1 S1                 0.0000
     10 ****        -0.8584  -0.8296  -0.3796 O.2            1 S1                 0.0000
     11 ****         0.8879   0.0179  -1.5471 N.am           1 S1                 0.0000
     12 ****         1.8501  -1.0407  -1.2644 C.3            1 S1                 0.0000
     13 ****         2.4957  -0.8599   0.1220 C.3            1 S1                 0.0000
     14 ****         3.4817  -1.9115   0.3961 N.am           1 S1                 0.0000
     15 ****         4.8891  -1.5556   0.1572 C.3            1 S1                 0.0000
     16 ****         5.7219  -1.4062   1.4512 C.3            1 S1                 0.0000
     17 ****         5.2932  -2.2867   2.6418 C.3            1 S1                 0.0000
     18 ****         5.1473  -3.7901   2.3249 C.3            1 S1                 0.0000
     19 ****         4.2145  -4.1631   1.1475 C.3            1 S1                 0.0000
     20 ****         3.1118  -3.1321   0.8555 C.2            1 S1                 0.0000
     21 ****         1.9375  -3.4488   1.0479 O.2            1 S1                 0.0000
     22 ****        -2.6598   2.9276  -1.3450 C.ar           1 S1                 0.0000
     23 ****        -3.9153   3.3629  -1.1048 N.pl3          1 S1                 1.0000
     24 ****        -7.0845   1.7534   0.8161 H              1 S1                 0.0000
     25 ****        -7.5517   1.5413  -0.8801 H              1 S1                 0.0000
     26 ****        -8.2248   2.8663   0.0662 H              1 S1                 0.0000
     27 ****        -5.7811   5.1145   0.0071 H              1 S1                 0.0000
     28 ****        -7.4401   4.8451  -0.5236 H              1 S1                 0.0000
     29 ****        -6.1378   4.8626  -1.7095 H              1 S1                 0.0000
     30 ****        -5.4630   0.4664  -0.3625 H              1 S1                 0.0000
     31 ****        -3.2220  -0.3996  -0.7951 H              1 S1                 0.0000
     32 ****        -0.4561   1.8257  -2.0146 H              1 S1                 0.0000
     33 ****         1.2083   0.7816  -2.1247 H              1 S1                 0.0000
     34 ****         1.3649  -2.0150  -1.3454 H              1 S1                 0.0000
     35 ****         2.6187  -1.0135  -2.0372 H              1 S1                 0.0000
     36 ****         2.9634   0.1234   0.1891 H              1 S1                 0.0000
     37 ****         1.7293  -0.8626   0.8994 H              1 S1                 0.0000
     38 ****         5.3433  -2.3086  -0.4871 H              1 S1                 0.0000
     39 ****         4.9637  -0.6358  -0.4243 H              1 S1                 0.0000
     40 ****         6.7706  -1.5931   1.2175 H              1 S1                 0.0000
     41 ****         5.6744  -0.3660   1.7751 H              1 S1                 0.0000
     42 ****         6.0193  -2.1659   3.4462 H              1 S1                 0.0000
     43 ****         4.3552  -1.9089   3.0510 H              1 S1                 0.0000
     44 ****         6.1357  -4.2069   2.1294 H              1 S1                 0.0000
     45 ****         4.7924  -4.2940   3.2246 H              1 S1                 0.0000
     46 ****         4.7992  -4.3191   0.2415 H              1 S1                 0.0000
     47 ****         3.7535  -5.1307   1.3499 H              1 S1                 0.0000
     48 ****        -1.9445   3.6896  -1.6197 H              1 S1                 0.0000
     49 ****        -4.1014   4.3618  -1.1950 H              1 S1                 0.0000
     50 ****        -1.8009  -0.7464  -0.0559 LP             1 S1                 0.0000
     51 ****        -0.3102  -1.6258  -0.1235 LP             1 S1                 0.0000
     52 ****         1.2060  -2.7923   0.8640 LP             1 S1                 0.0000
     53 ****         1.7154  -4.3625   1.3881 LP             1 S1                 0.0000
@<TRIPOS>BOND
    1    1    2 1     
    2    1   24 1     
    3    1   25 1     
    4    1   26 1     
    5    2    3 1     
    6    2    4 1     
    7    3   27 1     
    8    3   28 1     
    9    3   29 1     
   10    4   23 ar    
   11    4    5 ar    
   12    5    6 ar    
   13    5   30 1     
   14    6    7 ar    
   15    6   31 1     
   16    7    8 1     
   17    7   22 ar    
   18    8    9 am    
   19    8   32 1     
   20    9   10 2     
   21    9   11 am    
   22   11   12 1     
   23   11   33 1     
   24   12   13 1     
   25   12   34 1     
   26   12   35 1     
   27   13   14 1     
   28   13   36 1     
   29   13   37 1     
   30   14   20 am    
   31   14   15 1     
   32   15   16 1     
   33   15   38 1     
   34   15   39 1     
   35   16   17 1     
   36   16   40 1     
   37   16   41 1     
   38   17   18 1     
   39   17   42 1     
   40   17   43 1     
   41   18   19 1     
   42   18   44 1     
   43   18   45 1     
   44   19   20 1     
   45   19   46 1     
   46   19   47 1     
   47   20   21 2     
   48   22   23 ar    
   49   22   48 1     
   50   23   49 1     
   51   10   50 1     
   52   10   51 1     
   53   21   52 1     
   54   21   53 1     
@<TRIPOS>SUBSTRUCTURE
      1 S1             1
@<TRIPOS>SET
LONE_PAIRS      STATIC     ATOMS    <user>   **** ""
4 50 51 52 53
DONOR_HYDROGENS      STATIC     ATOMS    <user>   **** ""
3 32 33 49
ATOM$BLUE        STATIC     ATOMS    COLORGROUP SYSTEM
4 50 51 52 53
ATOM$RED        STATIC     ATOMS    COLORGROUP SYSTEM
3 32 33 49
