AV-unprocessed.smi:196|AV-procd|sdf|1542|dock10
  -GOLD-   2262019403D 1   1.00000     0.00000
 Structure written by MMmdl.
 47 50  0  0  0  0  0  0  0  0  1 V2000
  149.6110  138.0407  154.5395 C   0  0  0  0  0  0  0  0  0  0  0  0
  149.9262  139.5353  154.3661 C   0  0  2  0  0  0  0  0  0  0  0  0
  151.2172  139.8449  154.8904 O   0  0  0  0  0  0  0  0  0  0  0  0
  151.1207  140.8928  155.8450 C   0  0  0  0  0  0  0  0  0  0  0  0
  149.8588  141.6503  155.4531 C   0  0  0  0  0  0  0  0  0  0  0  0
  148.9304  140.5317  155.0029 C   0  0  2  0  0  0  0  0  0  0  0  0
  148.3153  139.9702  156.1521 O   0  0  0  0  0  0  0  0  0  0  0  0
  147.8211  140.9864  154.0256 C   0  0  0  0  0  0  0  0  0  0  0  0
  147.0991  139.8814  153.4147 N   0  0  0  0  0  0  0  0  0  0  0  0
  147.0171  139.5944  152.0700 C   0  0  0  0  0  0  0  0  0  0  0  0
  146.3044  138.5440  151.7661 N   0  0  0  0  0  0  0  0  0  0  0  0
  145.8529  138.0797  152.9943 C   0  0  0  0  0  0  0  0  0  0  0  0
  145.0313  136.9956  153.3957 C   0  0  0  0  0  0  0  0  0  0  0  0
  144.5011  136.1348  152.4989 N   0  0  0  0  0  0  0  0  0  0  0  0
  145.3760  135.7703  151.3891 C   0  0  0  0  0  0  0  0  0  0  0  0
  145.1851  134.2671  151.1692 C   0  0  1  0  0  0  0  0  0  0  0  0
  146.1471  133.6007  151.8095 F   0  0  0  0  0  0  0  0  0  0  0  0
  143.8408  133.9782  151.8304 C   0  0  0  0  0  0  0  0  0  0  0  0
  143.8277  134.9446  153.0214 C   0  0  2  0  0  0  0  0  0  0  0  0
  142.4010  135.2496  153.5017 C   0  0  0  0  0  0  0  0  0  0  0  0
  141.7720  134.2814  154.1715 N   0  0  0  0  0  0  0  0  0  0  0  0
  141.8679  136.3325  153.2650 O   0  0  0  0  0  0  0  0  0  0  0  0
  144.7926  136.8324  154.7233 N   0  0  0  0  0  0  0  0  0  0  0  0
  145.3195  137.6886  155.6042 C   0  0  0  0  0  0  0  0  0  0  0  0
  146.0966  138.7500  155.3751 N   0  0  0  0  0  0  0  0  0  0  0  0
  146.3415  138.9078  154.0421 C   0  0  0  0  0  0  0  0  0  0  0  0
  145.2257  133.9748  150.1196 H   0  0  0  0  0  0  0  0  0  0  0  0
  144.4051  134.5088  153.8392 H   0  0  0  0  0  0  0  0  0  0  0  0
  148.6190  137.8015  154.1558 H   0  0  0  0  0  0  0  0  0  0  0  0
  149.6511  137.7400  155.5869 H   0  0  0  0  0  0  0  0  0  0  0  0
  150.3325  137.4295  153.9968 H   0  0  0  0  0  0  0  0  0  0  0  0
  149.9929  139.7444  153.2975 H   0  0  0  0  0  0  0  0  0  0  0  0
  151.0162  140.4587  156.8401 H   0  0  0  0  0  0  0  0  0  0  0  0
  152.0097  141.5239  155.8392 H   0  0  0  0  0  0  0  0  0  0  0  0
  149.4551  142.2623  156.2607 H   0  0  0  0  0  0  0  0  0  0  0  0
  150.0874  142.3100  154.6152 H   0  0  0  0  0  0  0  0  0  0  0  0
  147.6417  139.3714  155.8677 H   0  0  0  0  0  0  0  0  0  0  0  0
  147.0982  141.6199  154.5413 H   0  0  0  0  0  0  0  0  0  0  0  0
  148.2480  141.5984  153.2299 H   0  0  0  0  0  0  0  0  0  0  0  0
  147.5096  140.1911  151.3158 H   0  0  0  0  0  0  0  0  0  0  0  0
  145.0439  136.3234  150.5100 H   0  0  0  0  0  0  0  0  0  0  0  0
  146.4243  136.0243  151.5580 H   0  0  0  0  0  0  0  0  0  0  0  0
  143.0348  134.2099  151.1318 H   0  0  0  0  0  0  0  0  0  0  0  0
  143.7345  132.9349  152.1300 H   0  0  0  0  0  0  0  0  0  0  0  0
  140.8314  134.4290  154.5077 H   0  0  0  0  0  0  0  0  0  0  0  0
  142.2404  133.4023  154.3373 H   0  0  0  0  0  0  0  0  0  0  0  0
  145.0847  137.4962  156.6406 H   0  0  0  0  0  0  0  0  0  0  0  0
  1  2  1  0  0  0  0
  1 29  1  0  0  0  0
  1 30  1  0  0  0  0
  1 31  1  0  0  0  0
  2  6  1  0  0  0  0
  2  3  1  0  0  0  0
  2 32  1  0  0  0  0
  3  4  1  0  0  0  0
  4  5  1  0  0  0  0
  4 33  1  0  0  0  0
  4 34  1  0  0  0  0
  5  6  1  0  0  0  0
  5 35  1  0  0  0  0
  5 36  1  0  0  0  0
  6  7  1  0  0  0  0
  6  8  1  0  0  0  0
  7 37  1  0  0  0  0
  8  9  1  0  0  0  0
  8 38  1  0  0  0  0
  8 39  1  0  0  0  0
  9 26  1  0  0  0  0
  9 10  1  0  0  0  0
 10 11  2  0  0  0  0
 10 40  1  0  0  0  0
 11 12  1  0  0  0  0
 12 26  2  0  0  0  0
 12 13  1  0  0  0  0
 13 14  1  0  0  0  0
 13 23  2  0  0  0  0
 14 19  1  0  0  0  0
 14 15  1  0  0  0  0
 15 16  1  0  0  0  0
 15 41  1  0  0  0  0
 15 42  1  0  0  0  0
 16 27  1  0  0  0  0
 16 17  1  0  0  0  0
 16 18  1  0  0  0  0
 18 19  1  0  0  0  0
 18 43  1  0  0  0  0
 18 44  1  0  0  0  0
 19 28  1  0  0  0  0
 19 20  1  0  0  0  0
 20 21  1  0  0  0  0
 20 22  2  0  0  0  0
 21 45  1  0  0  0  0
 21 46  1  0  0  0  0
 23 24  1  0  0  0  0
 24 25  2  0  0  0  0
 24 47  1  0  0  0  0
 25 26  1  0  0  0  0
M  END
> <s_m_source_file>
AV-unprocessed.smi

> <i_m_source_file_index>
196

> <i_lp_mmshare_version>
43012

> <i_f3d_flags>
0

> <s_epik_input>
W0NIMl0xW0NIMl1PW0NAQEhdKFtDSDNdKVtDQEBdMShbT0hdKVtDSDJdbihbY0hdbjIpYyhjMjMpbltjSF1uYzNONFtDSDJdW0NASF0oRilbQ0gyXVtDQEhdNEMoPU8pW05IMl0=

> <s_epik_cmdline>
J2VwaWtfcHl0aG9uJywgJy1waCcsICc3LjAnLCAnLXRuJywgJzgnLCAnLW1hJywgJzIwMCcsICctbWV0YWxfYmluZGluZycsICctaW1hZScsICc8aW5maWxlLm1hZT4nLCAnLW9tYWUnLCAnPG91dGZpbGUubWFlPic=

> <r_lp_tautomer_probability>
1

> <r_epik_Ionization_Penalty>
0.000857933

> <r_epik_Ionization_Penalty_Charging>
0

> <r_epik_Ionization_Penalty_Neutral>
0.000857933

> <r_epik_State_Penalty>
0.000462053

> <r_epik_Charging_Adjusted_Penalty>
0.000462053

> <i_epik_Tot_Q>
0

> <i_epik_Tot_abs_Q>
0

> <r_epik_Metal_State_Penalty>
-0

> <b_epik_Metal_Only>
0

> <s_lp_Force_Field>
OPLS_2005

> <r_lp_Energy>
44.722

> <b_lp_Chiralities_Consistent>
1

> <s_lp_Variant>
AV-unprocessed.smi:196-15

> <Gold.Version>
5.8.1

> <Gold.Id.Protein>
6NUR|6NUR_protein|mol2

> <Gold.PLP.Fitness>
44.2071

> <Gold.PLP.PLP>
-37.6228

> <Gold.PLP.part.hbond>
-3.0000

> <Gold.PLP.part.metal>
0.0000

> <Gold.PLP.part.buried>
-4.4591

> <Gold.PLP.part.nonpolar>
-32.0836

> <Gold.PLP.part.repulsive>
0.8295

> <Gold.PLP.ligand.clash>
0.0000

> <Gold.PLP.ligand.torsion>
0.6769

> <Gold.PLP.Chemscore.Hbond>
1.8234

> <Gold.PLP.Chemscore.CHOScore>
0.7621

> <Gold.PLP.Chemscore.Metal>
0.0000

> <Gold.Chemscore.Hbonds>
donor molecule, donor type, donor heavy atom, donor atom, acceptor molecule, acceptor atom, score
      L1  H    21    45       P1 11000  0.22
      L1  H    21    46       P1 10957  1.00
      P1  H  7989  7998       L1     3  0.55
      L1  C    10    40       P1  7957  0.78

> <Gold.PLP.Chemscore.Internal.Correction>
0.1815

> <Gold.Rescore>
     Score         DG    S(hbond)    S(metal)    S(lipo)     H(rot)  DE(clash)    DE(int)     intcor
      5.75     -10.57       1.63        0.00      63.57       3.04       1.33       3.49       ----

> <Gold.Chemscore.Fitness>
5.7523

> <Gold.Chemscore.DG>
-10.5723

> <Gold.Chemscore.ZeroCoef>
-5.4800

> <Gold.Chemscore.Hbond>
1.6287

> <Gold.Chemscore.Metal>
0.0000

> <Gold.Chemscore.Lipo>
63.5740

> <Gold.Chemscore.Internal_Hbond>
0.0000

> <Gold.Chemscore.DEClash>
1.3261

> <Gold.Chemscore.DEInternal>
3.4938

> <Gold.Chemscore.Rot>
3.0413

> <Gold.Chemscore.Internal.Correction>
   9.000000E+99

> <Gold.Chemscore.Hbonds>
donor molecule, donor type, donor heavy atom, donor atom, acceptor molecule, acceptor atom, score
      L1  H    21    45       P1 11000  0.21
      L1  H    21    46       P1 10957  1.00
      P1  H  7989  7998       L1     3  0.01

> <Gold.Chemscore.Hbond.Weighted>
-5.4398

> <Gold.Chemscore.Metal.Weighted>
-0.0000

> <Gold.Chemscore.Lipo.Weighted>
-7.4382

> <Gold.Chemscore.Internal_Hbond.Weighted>
0.0000

> <Gold.Chemscore.DEClash.Weighted>
1.3261

> <Gold.Chemscore.DEInternal.Weighted>
3.4938

> <Gold.Chemscore.Rot.Weighted>
7.7856

> <Gold.Chemscore.Internal.Correction.Weighted>
   9.000000E+99

> <Gold.Protein.RotatedTorsions>
[ 6907 6896 6895 6894 ] final  -78.67 input  -60.11 | X-H torsion
[ 7974 7965 7964 7962 ] final   69.34 input  175.53 | X-H torsion
[ 8008 7997 7996 7995 ] final  125.20 input   59.86 | X-H torsion
[ 10167 10162 10161 10158 ] final -172.80 input  -65.29 | X-H torsion
[ 10718 10713 10712 10709 ] final -124.52 input   66.30 | X-H torsion
[ 10763 10752 10751 10750 ] final  103.16 input  -60.55 | X-H torsion
[ 11005 11000 10999 10996 ] final  169.52 input  -57.11 | X-H torsion

> <Gold.Protein.ActiveResidues>
 VAL166  LYS551  ARG553  GLY616  TRP617  ASP618  TYR619  PRO620  LYS621  CYS622 
 ASP623  PHE694  ASN695  SER759  ASP760  ASP761  ALA762  ILE779  LEU786  VAL792 
 PHE793  MET794  SER795  GLU796  ALA797  LYS798  CYS799  TRP800  GLU811  SER814 

> <Gold.Protein.RotatedAtoms>
  150.6967  134.4237  159.5216 H   0  0  0  0  0  0  0  0  0  0  0  0  # atno 6907 bound_to 6896
  152.1975  134.8614  160.0520 H   0  0  0  0  0  0  0  0  0  0  0  0  # atno 6908 bound_to 6896
  151.9547  133.3641  159.4050 H   0  0  0  0  0  0  0  0  0  0  0  0  # atno 6909 bound_to 6896
  145.7916  139.2937  143.1207 H   0  0  0  0  0  0  0  0  0  0  0  0  # atno 7974 bound_to 7965
  156.2826  140.2722  156.1911 H   0  0  0  0  0  0  0  0  0  0  0  0  # atno 8008 bound_to 7997
  155.0457  140.0386  157.2543 H   0  0  0  0  0  0  0  0  0  0  0  0  # atno 8009 bound_to 7997
  154.7237  140.2693  155.6523 H   0  0  0  0  0  0  0  0  0  0  0  0  # atno 8010 bound_to 7997
  139.5724  144.1611  152.1403 H   0  0  0  0  0  0  0  0  0  0  0  0  # atno 10167 bound_to 10162
  156.1595  130.6591  151.0029 H   0  0  0  0  0  0  0  0  0  0  0  0  # atno 10718 bound_to 10713
  153.3490  135.3986  155.1631 H   0  0  0  0  0  0  0  0  0  0  0  0  # atno 10763 bound_to 10752
  154.8659  135.3652  154.5246 H   0  0  0  0  0  0  0  0  0  0  0  0  # atno 10764 bound_to 10752
  153.5697  135.7079  153.5570 H   0  0  0  0  0  0  0  0  0  0  0  0  # atno 10765 bound_to 10752
  140.2986  134.7614  157.3897 H   0  0  0  0  0  0  0  0  0  0  0  0  # atno 11005 bound_to 11000
  145.9970  140.8553  143.0037 LP  0  0  0  0  0  0  0  0  0  0  0  0  # atno 17320 bound_to 7965
  144.6781  140.2298  143.7356 LP  0  0  0  0  0  0  0  0  0  0  0  0  # atno 17321 bound_to 7965
  140.1147  144.5426  150.6902 LP  0  0  0  0  0  0  0  0  0  0  0  0  # atno 17342 bound_to 10162
  140.7008  143.2433  151.4870 LP  0  0  0  0  0  0  0  0  0  0  0  0  # atno 17343 bound_to 10162
  157.6721  131.0859  150.7586 LP  0  0  0  0  0  0  0  0  0  0  0  0  # atno 17370 bound_to 10713
  156.7649  130.4810  149.5429 LP  0  0  0  0  0  0  0  0  0  0  0  0  # atno 17371 bound_to 10713
  140.1130  134.5320  155.8249 LP  0  0  0  0  0  0  0  0  0  0  0  0  # atno 17394 bound_to 11000
  141.2132  133.6731  156.6724 LP  0  0  0  0  0  0  0  0  0  0  0  0  # atno 17395 bound_to 11000

$$$$
