AV-unprocessed.smi:1827|AV-procd|sdf|7420|dock5
  -GOLD-   22720 9103D 1   1.00000     0.00000
 Structure written by MMmdl.
 44 45  0  0  0  0  0  0  0  0  2 V2000
  149.5532  139.4485  153.7392 C   0  0  0  0  0  0  0  0  0  0  0  0
  148.6570  140.6120  154.0617 C   0  0  0  0  0  0  0  0  0  0  0  0
  149.1968  141.7036  154.5883 N   0  0  0  0  0  0  0  0  0  0  0  0
  148.1712  142.5746  154.7010 N   0  0  0  0  0  0  0  0  0  0  0  0
  146.9706  142.0692  154.2562 C   0  0  0  0  0  0  0  0  0  0  0  0
  145.7086  142.8655  154.2743 C   0  0  0  0  0  0  0  0  0  0  0  0
  147.2517  140.7924  153.8645 C   0  0  0  0  0  0  0  0  0  0  0  0
  146.3006  139.9027  153.3050 N   0  0  0  0  0  0  0  0  0  0  0  0
  146.3716  138.5636  153.2660 C   0  0  0  0  0  0  0  0  0  0  0  0
  147.2861  137.8903  153.7397 O   0  0  0  0  0  0  0  0  0  0  0  0
  145.3003  138.0350  152.6573 N   0  0  0  0  0  0  0  0  0  0  0  0
  145.0678  136.6074  152.4586 C   0  0  2  0  0  0  0  0  0  0  0  0
  145.8075  136.0978  151.2078 C   0  0  0  0  0  0  0  0  0  0  0  0
  145.4850  134.6197  150.9345 C   0  0  0  0  0  0  0  0  0  0  0  0
  144.0219  134.4059  150.7968 N   0  3  1  0  0  0  0  0  0  0  0  0
  143.6888  133.0146  150.3951 C   0  0  0  0  0  0  0  0  0  0  0  0
  143.7631  132.7938  148.8807 C   0  0  0  0  0  0  0  0  0  0  0  0
  142.7487  133.2659  148.1528 N   0  0  0  0  0  0  0  0  0  0  0  0
  144.7101  132.1945  148.3745 O   0  0  0  0  0  0  0  0  0  0  0  0
  143.2887  134.8547  152.0111 C   0  0  0  0  0  0  0  0  0  0  0  0
  143.5617  136.3387  152.3081 C   0  0  0  0  0  0  0  0  0  0  0  0
  148.3066  143.5038  155.0731 H   0  0  0  0  0  0  0  0  0  0  0  0
  149.2123  138.9212  152.8483 H   0  0  0  0  0  0  0  0  0  0  0  0
  149.5805  138.7361  154.5635 H   0  0  0  0  0  0  0  0  0  0  0  0
  150.5772  139.7730  153.5509 H   0  0  0  0  0  0  0  0  0  0  0  0
  144.9327  142.3872  153.6763 H   0  0  0  0  0  0  0  0  0  0  0  0
  145.8738  143.8647  153.8709 H   0  0  0  0  0  0  0  0  0  0  0  0
  145.3327  142.9685  155.2923 H   0  0  0  0  0  0  0  0  0  0  0  0
  145.4379  140.3215  152.9902 H   0  0  0  0  0  0  0  0  0  0  0  0
  144.5944  138.6662  152.3072 H   0  0  0  0  0  0  0  0  0  0  0  0
  145.4283  136.0639  153.3345 H   0  0  0  0  0  0  0  0  0  0  0  0
  145.5259  136.6965  150.3401 H   0  0  0  0  0  0  0  0  0  0  0  0
  146.8848  136.2189  151.3289 H   0  0  0  0  0  0  0  0  0  0  0  0
  145.9909  134.3083  150.0200 H   0  0  0  0  0  0  0  0  0  0  0  0
  145.8719  133.9941  151.7407 H   0  0  0  0  0  0  0  0  0  0  0  0
  144.4022  132.3229  150.8447 H   0  0  0  0  0  0  0  0  0  0  0  0
  142.7037  132.7403  150.7763 H   0  0  0  0  0  0  0  0  0  0  0  0
  142.7469  133.1535  147.1491 H   0  0  0  0  0  0  0  0  0  0  0  0
  141.9836  133.7414  148.6101 H   0  0  0  0  0  0  0  0  0  0  0  0
  142.2162  134.7103  151.8784 H   0  0  0  0  0  0  0  0  0  0  0  0
  143.5845  134.2414  152.8638 H   0  0  0  0  0  0  0  0  0  0  0  0
  143.0359  136.6345  153.2168 H   0  0  0  0  0  0  0  0  0  0  0  0
  143.1529  136.9493  151.5013 H   0  0  0  0  0  0  0  0  0  0  0  0
  143.7190  134.9959  150.0346 H   0  0  0  0  0  0  0  0  0  0  0  0
  1  2  1  0  0  0  0
  1 23  1  0  0  0  0
  1 24  1  0  0  0  0
  1 25  1  0  0  0  0
  2  7  1  0  0  0  0
  2  3  2  0  0  0  0
  3  4  1  0  0  0  0
  4 22  1  0  0  0  0
  4  5  1  0  0  0  0
  5  6  1  0  0  0  0
  5  7  2  0  0  0  0
  6 26  1  0  0  0  0
  6 27  1  0  0  0  0
  6 28  1  0  0  0  0
  7  8  1  0  0  0  0
  8  9  1  0  0  0  0
  8 29  1  0  0  0  0
  9 10  2  0  0  0  0
  9 11  1  0  0  0  0
 11 12  1  0  0  0  0
 11 30  1  0  0  0  0
 12 21  1  0  0  0  0
 12 13  1  0  0  0  0
 12 31  1  0  0  0  0
 13 14  1  0  0  0  0
 13 32  1  0  0  0  0
 13 33  1  0  0  0  0
 14 15  1  0  0  0  0
 14 34  1  0  0  0  0
 14 35  1  0  0  0  0
 15 16  1  0  0  0  0
 15 20  1  0  0  0  0
 15 44  1  0  0  0  0
 16 17  1  0  0  0  0
 16 36  1  0  0  0  0
 16 37  1  0  0  0  0
 17 18  1  0  0  0  0
 17 19  2  0  0  0  0
 18 38  1  0  0  0  0
 18 39  1  0  0  0  0
 20 21  1  0  0  0  0
 20 40  1  0  0  0  0
 20 41  1  0  0  0  0
 21 42  1  0  0  0  0
 21 43  1  0  0  0  0
M  CHG  1  15   1
M  END
> <s_m_source_file>
AV-unprocessed.smi

> <i_m_source_file_index>
1827

> <i_lp_mmshare_version>
43012

> <i_f3d_flags>
0

> <s_epik_input>
W0NIM11jMW5bbkhdYyhbQ0gzXSljMVtOSF1DKD1PKVtOSF1bQ0hdMltDSDJdW0NIMl1OKFtDSDJdW0NIMl0yKVtDSDJdQyg9TylbTkgyXQ==

> <s_epik_cmdline>
J2VwaWtfcHl0aG9uJywgJy1waCcsICc3LjAnLCAnLXRuJywgJzgnLCAnLW1hJywgJzIwMCcsICctbWV0YWxfYmluZGluZycsICctaW1hZScsICc8aW5maWxlLm1hZT4nLCAnLW9tYWUnLCAnPG91dGZpbGUubWFlPic=

> <r_lp_tautomer_probability>
0.5

> <r_epik_Ionization_Penalty>
0.839233

> <r_epik_Ionization_Penalty_Charging>
0.838844

> <r_epik_Ionization_Penalty_Neutral>
0.000388936

> <r_epik_State_Penalty>
0.8734

> <r_epik_Charging_Adjusted_Penalty>
1.71224

> <i_epik_Tot_Q>
1

> <i_epik_Tot_abs_Q>
1

> <r_epik_Metal_State_Penalty>
0.890753

> <b_epik_Metal_Only>
0

> <s_lp_Force_Field>
OPLS_2005

> <r_lp_Energy>
15.4281

> <b_lp_Chiralities_Consistent>
1

> <s_lp_Variant>
AV-unprocessed.smi:1827-2

> <Gold.Version>
5.8.1

> <Gold.Id.Protein>
6NUR|6NUR_protein|mol2

> <Gold.PLP.Fitness>
52.8251

> <Gold.PLP.PLP>
-40.4044

> <Gold.PLP.part.hbond>
-8.1063

> <Gold.PLP.part.metal>
0.0000

> <Gold.PLP.part.buried>
-4.4240

> <Gold.PLP.part.nonpolar>
-31.1023

> <Gold.PLP.part.repulsive>
1.4766

> <Gold.PLP.ligand.clash>
0.0000

> <Gold.PLP.ligand.torsion>
1.0061

> <Gold.PLP.Chemscore.Hbond>
4.7023

> <Gold.PLP.Chemscore.CHOScore>
0.0000

> <Gold.PLP.Chemscore.Metal>
0.0000

> <Gold.Chemscore.Hbonds>
donor molecule, donor type, donor heavy atom, donor atom, acceptor molecule, acceptor atom, score
      L1  H     4    22       P1  8028  0.76
      L1  H     8    29       P1 10175  1.00
      L1  H    11    30       P1 10175  0.98
      L1  H    18    38       P1 10195  0.96
      L1  H    18    39       P1 10186  0.91

> <Gold.PLP.Chemscore.Internal.Correction>
0.3261

> <Gold.Rescore>
     Score         DG    S(hbond)    S(metal)    S(lipo)     H(rot)  DE(clash)    DE(int)     intcor
     19.47     -23.22       4.56        0.00      64.94       1.98       0.43       3.32       ----

> <Gold.Chemscore.Fitness>
19.4688

> <Gold.Chemscore.DG>
-23.2183

> <Gold.Chemscore.ZeroCoef>
-5.4800

> <Gold.Chemscore.Hbond>
4.5572

> <Gold.Chemscore.Metal>
0.0000

> <Gold.Chemscore.Lipo>
64.9430

> <Gold.Chemscore.Internal_Hbond>
0.0000

> <Gold.Chemscore.DEClash>
0.4313

> <Gold.Chemscore.DEInternal>
3.3181

> <Gold.Chemscore.Rot>
1.9848

> <Gold.Chemscore.Internal.Correction>
   9.000000E+99

> <Gold.Chemscore.Hbonds>
donor molecule, donor type, donor heavy atom, donor atom, acceptor molecule, acceptor atom, score
      L1  H     4    22       P1  8028  0.73
      L1  H     8    29       P1 10175  0.95
      L1  H    11    30       P1 10175  0.89
      L1  H    18    38       P1 10195  0.92
      L1  H    18    39       P1 10186  0.87

> <Gold.Chemscore.Hbond.Weighted>
-15.2210

> <Gold.Chemscore.Metal.Weighted>
-0.0000

> <Gold.Chemscore.Lipo.Weighted>
-7.5983

> <Gold.Chemscore.Internal_Hbond.Weighted>
0.0000

> <Gold.Chemscore.DEClash.Weighted>
0.4313

> <Gold.Chemscore.DEInternal.Weighted>
3.3181

> <Gold.Chemscore.Rot.Weighted>
5.0810

> <Gold.Chemscore.Internal.Correction.Weighted>
   9.000000E+99

> <Gold.Protein.RotatedTorsions>
[ 6907 6896 6895 6894 ] final  -32.35 input  -60.11 | X-H torsion
[ 7974 7965 7964 7962 ] final   40.18 input  175.53 | X-H torsion
[ 8008 7997 7996 7995 ] final  -76.26 input   59.86 | X-H torsion
[ 10167 10162 10161 10158 ] final  -93.40 input  -65.29 | X-H torsion
[ 10718 10713 10712 10709 ] final  -52.68 input   66.30 | X-H torsion
[ 10763 10752 10751 10750 ] final   24.27 input  -60.55 | X-H torsion
[ 11005 11000 10999 10996 ] final   45.60 input  -57.11 | X-H torsion

> <Gold.Protein.ActiveResidues>
 VAL166  LYS551  ARG553  GLY616  TRP617  ASP618  TYR619  PRO620  LYS621  CYS622 
 ASP623  PHE694  ASN695  SER759  ASP760  ASP761  ALA762  ILE779  LEU786  VAL792 
 PHE793  MET794  SER795  GLU796  ALA797  LYS798  CYS799  TRP800  GLU811  SER814 

> <Gold.Protein.RotatedAtoms>
  151.0799  134.9852  159.8350 H   0  0  0  0  0  0  0  0  0  0  0  0  # atno 6907 bound_to 6896
  152.5418  134.2194  159.8792 H   0  0  0  0  0  0  0  0  0  0  0  0  # atno 6908 bound_to 6896
  151.2224  133.4451  159.2634 H   0  0  0  0  0  0  0  0  0  0  0  0  # atno 6909 bound_to 6896
  146.0925  139.5563  142.9466 H   0  0  0  0  0  0  0  0  0  0  0  0  # atno 7974 bound_to 7965
  154.5489  140.0730  156.8635 H   0  0  0  0  0  0  0  0  0  0  0  0  # atno 8008 bound_to 7997
  155.3032  140.3385  155.4228 H   0  0  0  0  0  0  0  0  0  0  0  0  # atno 8009 bound_to 7997
  156.1943  140.1698  156.8015 H   0  0  0  0  0  0  0  0  0  0  0  0  # atno 8010 bound_to 7997
  140.3251  143.3027  152.0004 H   0  0  0  0  0  0  0  0  0  0  0  0  # atno 10167 bound_to 10162
  156.1600  130.4150  149.9808 H   0  0  0  0  0  0  0  0  0  0  0  0  # atno 10718 bound_to 10713
  153.0776  135.6609  154.0112 H   0  0  0  0  0  0  0  0  0  0  0  0  # atno 10763 bound_to 10752
  153.9742  135.2961  155.3426 H   0  0  0  0  0  0  0  0  0  0  0  0  # atno 10764 bound_to 10752
  154.7168  135.5181  153.8821 H   0  0  0  0  0  0  0  0  0  0  0  0  # atno 10765 bound_to 10752
  140.1445  134.4541  155.8426 H   0  0  0  0  0  0  0  0  0  0  0  0  # atno 11005 bound_to 11000
  145.6012  141.0355  143.2017 LP  0  0  0  0  0  0  0  0  0  0  0  0  # atno 17320 bound_to 7965
  144.7371  139.7556  143.7325 LP  0  0  0  0  0  0  0  0  0  0  0  0  # atno 17321 bound_to 7965
  139.4867  144.6280  151.7126 LP  0  0  0  0  0  0  0  0  0  0  0  0  # atno 17342 bound_to 10162
  140.5449  144.0520  150.6103 LP  0  0  0  0  0  0  0  0  0  0  0  0  # atno 17343 bound_to 10162
  156.7640  130.9161  151.3642 LP  0  0  0  0  0  0  0  0  0  0  0  0  # atno 17370 bound_to 10713
  157.6725  130.9064  150.0073 LP  0  0  0  0  0  0  0  0  0  0  0  0  # atno 17371 bound_to 10713
  141.2190  133.6846  156.7308 LP  0  0  0  0  0  0  0  0  0  0  0  0  # atno 17394 bound_to 11000
  140.2681  134.8414  157.3822 LP  0  0  0  0  0  0  0  0  0  0  0  0  # atno 17395 bound_to 11000

$$$$
