AV-unprocessed.smi:40|AV-procd|sdf|381|dock9
  -GOLD-   2262016243D 1   1.00000     0.00000
 Structure written by MMmdl.
 47 48  0  0  0  0  0  0  0  0  1 V2000
  152.5029  144.3172  158.0123 C   0  0  0  0  0  0  0  0  0  0  0  0
  152.1264  144.0744  159.4797 C   0  0  0  0  0  0  0  0  0  0  0  0
  153.0399  143.0674  160.1973 C   0  0  0  0  0  0  0  0  0  0  0  0
  153.1660  141.7164  159.4707 C   0  0  0  0  0  0  0  0  0  0  0  0
  151.8319  140.9655  159.3662 C   0  0  0  0  0  0  0  0  0  0  0  0
  151.9059  140.0228  158.3098 O   0  0  0  0  0  0  0  0  0  0  0  0
  151.0685  138.9707  158.2732 C   0  0  0  0  0  0  0  0  0  0  0  0
  150.2296  138.7287  159.1409 O   0  0  0  0  0  0  0  0  0  0  0  0
  151.2548  138.1813  157.0665 N   0  0  0  0  0  0  0  0  0  0  0  0
  150.6062  137.0579  156.6718 C   0  0  0  0  0  0  0  0  0  0  0  0
  150.1358  136.1672  157.5314 N   0  0  0  0  0  0  0  0  0  0  0  0
  149.4598  135.0344  157.1674 C   0  0  0  0  0  0  0  0  0  0  0  0
  149.0457  134.2471  158.0176 O   0  0  0  0  0  0  0  0  0  0  0  0
  149.2538  134.8158  155.7854 N   0  0  0  0  0  0  0  0  0  0  0  0
  148.5026  133.5710  155.3588 C   0  0  2  0  0  0  0  0  0  0  0  0
  148.4626  133.5069  153.9610 O   0  0  0  0  0  0  0  0  0  0  0  0
  147.1250  133.6696  153.4997 C   0  0  1  0  0  0  0  0  0  0  0  0
  146.9487  132.9738  152.1453 C   0  0  0  0  0  0  0  0  0  0  0  0
  146.2946  133.0658  154.6299 C   0  0  2  0  0  0  0  0  0  0  0  0
  144.9399  133.4740  154.5984 O   0  0  0  0  0  0  0  0  0  0  0  0
  147.0440  133.5331  155.8733 C   0  0  2  0  0  0  0  0  0  0  0  0
  146.5731  134.7883  156.3423 O   0  0  0  0  0  0  0  0  0  0  0  0
  149.7162  135.7486  154.8679 C   0  0  0  0  0  0  0  0  0  0  0  0
  150.3800  136.8588  155.2560 C   0  0  0  0  0  0  0  0  0  0  0  0
  150.8162  137.7497  154.3486 F   0  0  0  0  0  0  0  0  0  0  0  0
  149.0999  132.7242  155.7007 H   0  0  0  0  0  0  0  0  0  0  0  0
  146.9099  134.7351  153.4058 H   0  0  0  0  0  0  0  0  0  0  0  0
  146.3399  131.9770  154.5754 H   0  0  0  0  0  0  0  0  0  0  0  0
  146.9623  132.8112  156.6865 H   0  0  0  0  0  0  0  0  0  0  0  0
  151.7872  144.9878  157.5365 H   0  0  0  0  0  0  0  0  0  0  0  0
  152.5091  143.3847  157.4475 H   0  0  0  0  0  0  0  0  0  0  0  0
  153.4883  144.7738  157.9208 H   0  0  0  0  0  0  0  0  0  0  0  0
  152.1226  145.0213  160.0211 H   0  0  0  0  0  0  0  0  0  0  0  0
  151.1018  143.7030  159.5167 H   0  0  0  0  0  0  0  0  0  0  0  0
  154.0298  143.5156  160.2902 H   0  0  0  0  0  0  0  0  0  0  0  0
  152.6850  142.9084  161.2164 H   0  0  0  0  0  0  0  0  0  0  0  0
  153.5493  141.8791  158.4635 H   0  0  0  0  0  0  0  0  0  0  0  0
  153.8972  141.0873  159.9796 H   0  0  0  0  0  0  0  0  0  0  0  0
  151.6035  140.4602  160.3057 H   0  0  0  0  0  0  0  0  0  0  0  0
  151.0240  141.6711  159.1679 H   0  0  0  0  0  0  0  0  0  0  0  0
  151.9881  138.5209  156.4612 H   0  0  0  0  0  0  0  0  0  0  0  0
  145.9225  133.0653  151.7889 H   0  0  0  0  0  0  0  0  0  0  0  0
  147.1871  131.9119  152.2119 H   0  0  0  0  0  0  0  0  0  0  0  0
  147.6032  133.4157  151.3937 H   0  0  0  0  0  0  0  0  0  0  0  0
  144.3947  132.7021  154.5777 H   0  0  0  0  0  0  0  0  0  0  0  0
  146.3693  135.3283  155.5941 H   0  0  0  0  0  0  0  0  0  0  0  0
  149.5484  135.6078  153.8113 H   0  0  0  0  0  0  0  0  0  0  0  0
  1  2  1  0  0  0  0
  1 30  1  0  0  0  0
  1 31  1  0  0  0  0
  1 32  1  0  0  0  0
  2  3  1  0  0  0  0
  2 33  1  0  0  0  0
  2 34  1  0  0  0  0
  3  4  1  0  0  0  0
  3 35  1  0  0  0  0
  3 36  1  0  0  0  0
  4  5  1  0  0  0  0
  4 37  1  0  0  0  0
  4 38  1  0  0  0  0
  5  6  1  0  0  0  0
  5 39  1  0  0  0  0
  5 40  1  0  0  0  0
  6  7  1  0  0  0  0
  7  8  2  0  0  0  0
  7  9  1  0  0  0  0
  9 10  1  0  0  0  0
  9 41  1  0  0  0  0
 10 24  1  0  0  0  0
 10 11  2  0  0  0  0
 11 12  1  0  0  0  0
 12 13  2  0  0  0  0
 12 14  1  0  0  0  0
 14 15  1  0  0  0  0
 14 23  1  0  0  0  0
 15 26  1  0  0  0  0
 15 21  1  0  0  0  0
 15 16  1  0  0  0  0
 16 17  1  0  0  0  0
 17 27  1  0  0  0  0
 17 18  1  0  0  0  0
 17 19  1  0  0  0  0
 18 42  1  0  0  0  0
 18 43  1  0  0  0  0
 18 44  1  0  0  0  0
 19 28  1  0  0  0  0
 19 20  1  0  0  0  0
 19 21  1  0  0  0  0
 20 45  1  0  0  0  0
 21 29  1  0  0  0  0
 21 22  1  0  0  0  0
 22 46  1  0  0  0  0
 23 24  2  0  0  0  0
 23 47  1  0  0  0  0
 24 25  1  0  0  0  0
M  END
> <s_m_source_file>
AV-unprocessed.smi

> <i_m_source_file_index>
40

> <i_lp_mmshare_version>
43012

> <i_f3d_flags>
0

> <s_epik_input>
W0NIM11bQ0gyXVtDSDJdW0NIMl1bQ0gyXU9DKD1PKVtOSF1jMW5jKD1PKW4oW2NIXWMxRilbQ0BASF0yT1tDQEhdKFtDSDNdKVtDQEBIXShbT0hdKVtDQEhdMltPSF0=

> <s_epik_cmdline>
J2VwaWtfcHl0aG9uJywgJy1waCcsICc3LjAnLCAnLXRuJywgJzgnLCAnLW1hJywgJzIwMCcsICctbWV0YWxfYmluZGluZycsICctaW1hZScsICc8aW5maWxlLm1hZT4nLCAnLW9tYWUnLCAnPG91dGZpbGUubWFlPic=

> <r_lp_tautomer_probability>
1

> <r_epik_Ionization_Penalty>
2.29506e-06

> <r_epik_Ionization_Penalty_Charging>
8.26867e-09

> <r_epik_Ionization_Penalty_Neutral>
2.2868e-06

> <r_epik_State_Penalty>
-0

> <r_epik_Charging_Adjusted_Penalty>
8.26867e-09

> <i_epik_Tot_Q>
0

> <i_epik_Tot_abs_Q>
0

> <r_epik_Metal_State_Penalty>
-0

> <b_epik_Metal_Only>
0

> <s_epik_Chemistry_Notes>
This compound has an ester and may undergo hydrolysis at high or low pH. This compound contains an acetal/aminal-like group ( X-CH(R)-Y where X, Y are N, S, or O) that may be acid/base labile, releasing an aldehyde.

> <s_lp_Force_Field>
OPLS_2005

> <r_lp_Energy>
41.7027

> <b_lp_Chiralities_Consistent>
1

> <s_lp_Variant>
AV-unprocessed.smi:40-15

> <Gold.Version>
5.8.1

> <Gold.Id.Protein>
6NUR|6NUR_protein|mol2

> <Gold.PLP.Fitness>
43.5664

> <Gold.PLP.PLP>
-35.4184

> <Gold.PLP.part.hbond>
-3.0000

> <Gold.PLP.part.metal>
0.0000

> <Gold.PLP.part.buried>
-4.8438

> <Gold.PLP.part.nonpolar>
-29.2849

> <Gold.PLP.part.repulsive>
0.1755

> <Gold.PLP.ligand.clash>
0.0000

> <Gold.PLP.ligand.torsion>
0.4698

> <Gold.PLP.Chemscore.Hbond>
1.9675

> <Gold.PLP.Chemscore.CHOScore>
1.0000

> <Gold.PLP.Chemscore.Metal>
0.0000

> <Gold.Chemscore.Hbonds>
donor molecule, donor type, donor heavy atom, donor atom, acceptor molecule, acceptor atom, score
      L1  H    20    45       P1 10957  1.00
      P1  H  6896  6909       L1    13  0.83
      L1  C    23    47       P1  7948  1.00

> <Gold.PLP.Chemscore.Internal.Correction>
0.1852

> <Gold.Rescore>
     Score         DG    S(hbond)    S(metal)    S(lipo)     H(rot)  DE(clash)    DE(int)     intcor
      9.74     -11.33       1.87        0.00      77.66       3.70       0.02       1.57       ----

> <Gold.Chemscore.Fitness>
9.7392

> <Gold.Chemscore.DG>
-11.3350

> <Gold.Chemscore.ZeroCoef>
-5.4800

> <Gold.Chemscore.Hbond>
1.8652

> <Gold.Chemscore.Metal>
0.0000

> <Gold.Chemscore.Lipo>
77.6609

> <Gold.Chemscore.Internal_Hbond>
0.0000

> <Gold.Chemscore.DEClash>
0.0233

> <Gold.Chemscore.DEInternal>
1.5724

> <Gold.Chemscore.Rot>
3.6957

> <Gold.Chemscore.Internal.Correction>
   9.000000E+99

> <Gold.Chemscore.Hbonds>
donor molecule, donor type, donor heavy atom, donor atom, acceptor molecule, acceptor atom, score
      L1  H    20    45       P1 10957  0.93
      P1  H  6896  6909       L1    13  0.33

> <Gold.Chemscore.Hbond.Weighted>
-6.2296

> <Gold.Chemscore.Metal.Weighted>
-0.0000

> <Gold.Chemscore.Lipo.Weighted>
-9.0863

> <Gold.Chemscore.Internal_Hbond.Weighted>
0.0000

> <Gold.Chemscore.DEClash.Weighted>
0.0233

> <Gold.Chemscore.DEInternal.Weighted>
1.5724

> <Gold.Chemscore.Rot.Weighted>
9.4610

> <Gold.Chemscore.Internal.Correction.Weighted>
   9.000000E+99

> <Gold.Protein.RotatedTorsions>
[ 6907 6896 6895 6894 ] final   17.32 input  -60.11 | X-H torsion
[ 7974 7965 7964 7962 ] final    9.20 input  175.53 | X-H torsion
[ 8008 7997 7996 7995 ] final  -29.12 input   59.86 | X-H torsion
[ 10167 10162 10161 10158 ] final -165.61 input  -65.29 | X-H torsion
[ 10718 10713 10712 10709 ] final   76.70 input   66.30 | X-H torsion
[ 10763 10752 10751 10750 ] final   -6.71 input  -60.55 | X-H torsion
[ 11005 11000 10999 10996 ] final   73.11 input  -57.11 | X-H torsion

> <Gold.Protein.ActiveResidues>
 VAL166  LYS551  ARG553  GLY616  TRP617  ASP618  TYR619  PRO620  LYS621  CYS622 
 ASP623  PHE694  ASN695  SER759  ASP760  ASP761  ALA762  ILE779  LEU786  VAL792 
 PHE793  MET794  SER795  GLU796  ALA797  LYS798  CYS799  TRP800  GLU811  SER814 

> <Gold.Protein.RotatedAtoms>
  151.8478  135.0568  160.0455 H   0  0  0  0  0  0  0  0  0  0  0  0  # atno 6907 bound_to 6896
  152.2759  133.5421  159.5476 H   0  0  0  0  0  0  0  0  0  0  0  0  # atno 6908 bound_to 6896
  150.7170  134.0548  159.3853 H   0  0  0  0  0  0  0  0  0  0  0  0  # atno 6909 bound_to 6896
  146.2406  139.9819  142.8435 H   0  0  0  0  0  0  0  0  0  0  0  0  # atno 7974 bound_to 7965
  154.4303  140.1827  156.1198 H   0  0  0  0  0  0  0  0  0  0  0  0  # atno 8008 bound_to 7997
  156.0152  140.3346  155.6956 H   0  0  0  0  0  0  0  0  0  0  0  0  # atno 8009 bound_to 7997
  155.6054  140.0644  157.2712 H   0  0  0  0  0  0  0  0  0  0  0  0  # atno 8010 bound_to 7997
  139.6171  144.0699  152.1898 H   0  0  0  0  0  0  0  0  0  0  0  0  # atno 10167 bound_to 10162
  157.6683  130.9786  150.1534 H   0  0  0  0  0  0  0  0  0  0  0  0  # atno 10718 bound_to 10713
  153.4161  135.7009  153.6326 H   0  0  0  0  0  0  0  0  0  0  0  0  # atno 10763 bound_to 10752
  153.4800  135.3696  155.2437 H   0  0  0  0  0  0  0  0  0  0  0  0  # atno 10764 bound_to 10752
  154.8719  135.4063  154.3521 H   0  0  0  0  0  0  0  0  0  0  0  0  # atno 10765 bound_to 10752
  139.9456  134.7319  156.0987 H   0  0  0  0  0  0  0  0  0  0  0  0  # atno 11005 bound_to 11000
  145.1584  140.9660  143.4392 LP  0  0  0  0  0  0  0  0  0  0  0  0  # atno 17320 bound_to 7965
  145.0140  139.3484  143.6106 LP  0  0  0  0  0  0  0  0  0  0  0  0  # atno 17321 bound_to 7965
  140.0331  144.6065  150.7471 LP  0  0  0  0  0  0  0  0  0  0  0  0  # atno 17342 bound_to 10162
  140.7358  143.2745  151.3785 LP  0  0  0  0  0  0  0  0  0  0  0  0  # atno 17343 bound_to 10162
  156.2328  130.3683  149.8426 LP  0  0  0  0  0  0  0  0  0  0  0  0  # atno 17370 bound_to 10713
  156.6248  130.8641  151.3483 LP  0  0  0  0  0  0  0  0  0  0  0  0  # atno 17371 bound_to 10713
  141.1105  133.6645  156.2968 LP  0  0  0  0  0  0  0  0  0  0  0  0  # atno 17394 bound_to 11000
  140.5842  134.5715  157.5486 LP  0  0  0  0  0  0  0  0  0  0  0  0  # atno 17395 bound_to 11000

$$$$
