#       Name:                AV-unprocessed.smi:2636
#       Creating user name   scv26
#       Creation time:       Fri Mar 27 14:26:47 2020


#       File generated by GOLD software.
#

@<TRIPOS>MOLECULE
AV-unprocessed.smi:2636
    42    43     1
SMALL
NO_CHARGES


@<TRIPOS>ATOM
      1 ****        -4.6988   3.2630   1.4867 C.3            1 S1                 0.0000
      2 ****        -4.0518   2.5550   0.3080 C.2            1 S1                 0.0000
      3 ****        -3.5274   1.3065   0.4075 C.2            1 S1                 0.0000
      4 ****        -2.9342   0.6406  -0.6524 N.am           1 S1                 0.0000
      5 ****        -2.3272  -0.6713  -0.5156 C.3            1 S1                 0.0000
      6 ****        -0.9430  -0.5336  -0.5361 O.3            1 S1                 0.0000
      7 ****        -0.2565  -1.7717  -0.4591 C.3            1 S1                 0.0000
      8 ****         1.2389  -1.5449  -0.4810 C.2            1 S1                 0.0000
      9 ****         2.0762  -1.9356   0.4969 C.2            1 S1                 0.0000
     10 ****         3.5372  -1.7442   0.5316 C.ar           1 S1                 0.0000
     11 ****         4.2495  -1.1152  -0.5170 C.ar           1 S1                 0.0000
     12 ****         5.6466  -0.9528  -0.4365 C.ar           1 S1                 0.0000
     13 ****         6.3480  -1.4163   0.6918 C.ar           1 S1                 0.0000
     14 ****         5.6495  -2.0429   1.7403 C.ar           1 S1                 0.0000
     15 ****         4.2528  -2.2047   1.6587 C.ar           1 S1                 0.0000
     16 ****        -2.8290   1.2731  -1.9088 C.2            1 S1                 0.0000
     17 ****        -2.2939   0.7472  -2.8851 O.2            1 S1                 0.0000
     18 ****        -3.3701   2.5537  -2.0112 N.am           1 S1                 0.0000
     19 ****        -3.9914   3.2596  -0.9768 C.2            1 S1                 0.0000
     20 ****        -4.4329   4.3872  -1.1917 O.2            1 S1                 0.0000
     21 ****        -3.3042   3.0124  -2.9082 H              1 S1                 0.0000
     22 ****        -4.6990   2.6400   2.3815 H              1 S1                 0.0000
     23 ****        -5.7339   3.5186   1.2571 H              1 S1                 0.0000
     24 ****        -4.1618   4.1831   1.7195 H              1 S1                 0.0000
     25 ****        -3.5739   0.8026   1.3624 H              1 S1                 0.0000
     26 ****        -2.6441  -1.1122   0.4314 H              1 S1                 0.0000
     27 ****        -2.6800  -1.3150  -1.3255 H              1 S1                 0.0000
     28 ****        -0.5391  -2.3053   0.4501 H              1 S1                 0.0000
     29 ****        -0.5223  -2.4024  -1.3087 H              1 S1                 0.0000
     30 ****         1.6100  -1.0336  -1.3557 H              1 S1                 0.0000
     31 ****         1.6513  -2.4433   1.3509 H              1 S1                 0.0000
     32 ****         3.7412  -0.7490  -1.3954 H              1 S1                 0.0000
     33 ****         6.1802  -0.4711  -1.2426 H              1 S1                 0.0000
     34 ****         7.4191  -1.2913   0.7530 H              1 S1                 0.0000
     35 ****         6.1843  -2.3995   2.6082 H              1 S1                 0.0000
     36 ****         3.7307  -2.6869   2.4722 H              1 S1                 0.0000
     37 ****        -0.6684   0.0308   0.2425 LP             1 S1                 0.0000
     38 ****        -0.6816  -0.0777  -1.3869 LP             1 S1                 0.0000
     39 ****        -1.9078  -0.1721  -2.8088 LP             1 S1                 0.0000
     40 ****        -2.2455   1.2393  -3.7542 LP             1 S1                 0.0000
     41 ****        -4.8768   4.8989  -0.4562 LP             1 S1                 0.0000
     42 ****        -4.3480   4.7923  -2.1021 LP             1 S1                 0.0000
@<TRIPOS>BOND
    1    1    2 1     
    2    1   22 1     
    3    1   23 1     
    4    1   24 1     
    5    2   19 1     
    6    2    3 2     
    7    3    4 1     
    8    3   25 1     
    9    4    5 1     
   10    4   16 1     
   11    5    6 1     
   12    5   26 1     
   13    5   27 1     
   14    6    7 1     
   15    7    8 1     
   16    7   28 1     
   17    7   29 1     
   18    8    9 2     
   19    8   30 1     
   20    9   10 1     
   21    9   31 1     
   22   10   15 ar    
   23   10   11 ar    
   24   11   12 ar    
   25   11   32 1     
   26   12   13 ar    
   27   12   33 1     
   28   13   14 ar    
   29   13   34 1     
   30   14   15 ar    
   31   14   35 1     
   32   15   36 1     
   33   16   17 2     
   34   16   18 1     
   35   18   21 1     
   36   18   19 1     
   37   19   20 2     
   38    6   37 1     
   39    6   38 1     
   40   17   39 1     
   41   17   40 1     
   42   20   41 1     
   43   20   42 1     
@<TRIPOS>SUBSTRUCTURE
      1 S1             1
@<TRIPOS>SET
LONE_PAIRS      STATIC     ATOMS    <user>   **** ""
6 37 38 39 40 41 42
DONOR_HYDROGENS      STATIC     ATOMS    <user>   **** ""
1 21
ATOM$BLUE        STATIC     ATOMS    COLORGROUP SYSTEM
6 37 38 39 40 41 42
ATOM$RED        STATIC     ATOMS    COLORGROUP SYSTEM
1 21
