AV-unprocessed.smi:658|AV-procd|sdf|3237|dock5
  -GOLD-   22720 0183D 1   1.00000     0.00000
 Structure written by MMmdl.
 37 37  0  0  0  0  0  0  0  0  3 V2000
  144.1145  136.2527  151.9496 C   0  0  0  0  0  0  0  0  0  0  0  0
  145.5951  135.8564  151.7891 C   0  0  1  0  0  0  0  0  0  0  0  0
  146.4740  136.7770  152.5485 N   0  3  0  0  0  0  0  0  0  0  0  0
  146.2504  138.2166  152.3064 C   0  0  0  0  0  0  0  0  0  0  0  0
  146.8222  139.0522  153.4561 C   0  0  0  0  0  0  0  0  0  0  0  0
  147.1282  140.4963  153.0352 C   0  0  0  0  0  0  0  0  0  0  0  0
  148.0114  141.4203  154.3654 S   0  0  0  0  0  0  0  0  0  0  0  0
  147.4202  142.9052  154.1420 N   0  5  0  0  0  0  0  0  0  0  0  0
  147.5738  140.8366  155.6426 O   0  0  0  0  0  0  0  0  0  0  0  0
  149.4399  141.3362  154.0263 O   0  0  0  0  0  0  0  0  0  0  0  0
  145.8556  134.3816  152.1936 C   0  0  1  0  0  0  0  0  0  0  0  0
  145.4726  134.0821  153.6542 C   0  0  0  0  0  0  0  0  0  0  0  0
  145.2490  133.4229  151.2737 N   0  0  0  0  0  0  0  0  0  0  0  0
  145.8545  132.4394  150.5146 C   0  0  0  0  0  0  0  0  0  0  0  0
  144.8704  131.7801  149.8363 C   0  0  0  0  0  0  0  0  0  0  0  0
  143.6776  132.4333  150.2521 C   0  0  0  0  0  0  0  0  0  0  0  0
  143.9068  133.4100  151.1145 N   0  0  0  0  0  0  0  0  0  0  0  0
  143.4636  135.5405  151.4420 H   0  0  0  0  0  0  0  0  0  0  0  0
  143.9095  137.2326  151.5194 H   0  0  0  0  0  0  0  0  0  0  0  0
  143.8167  136.2836  152.9982 H   0  0  0  0  0  0  0  0  0  0  0  0
  145.8526  135.9476  150.7328 H   0  0  0  0  0  0  0  0  0  0  0  0
  146.3713  136.5879  153.5354 H   0  0  0  0  0  0  0  0  0  0  0  0
  146.7251  138.5041  151.3674 H   0  0  0  0  0  0  0  0  0  0  0  0
  145.1835  138.4149  152.2062 H   0  0  0  0  0  0  0  0  0  0  0  0
  146.1131  139.0599  154.2850 H   0  0  0  0  0  0  0  0  0  0  0  0
  147.7314  138.5804  153.8303 H   0  0  0  0  0  0  0  0  0  0  0  0
  147.7725  140.4968  152.1559 H   0  0  0  0  0  0  0  0  0  0  0  0
  146.2231  141.0466  152.7770 H   0  0  0  0  0  0  0  0  0  0  0  0
  148.0945  143.5788  154.5250 H   0  0  0  0  0  0  0  0  0  0  0  0
  146.9352  134.2291  152.1378 H   0  0  0  0  0  0  0  0  0  0  0  0
  146.0025  134.7436  154.3399 H   0  0  0  0  0  0  0  0  0  0  0  0
  145.7331  133.0576  153.9228 H   0  0  0  0  0  0  0  0  0  0  0  0
  144.4048  134.2090  153.8332 H   0  0  0  0  0  0  0  0  0  0  0  0
  146.9239  132.2890  150.5176 H   0  0  0  0  0  0  0  0  0  0  0  0
  144.9847  130.9552  149.1484 H   0  0  0  0  0  0  0  0  0  0  0  0
  142.6592  132.2266  149.9579 H   0  0  0  0  0  0  0  0  0  0  0  0
  147.4275  136.5766  152.2828 H   0  0  0  0  0  0  0  0  0  0  0  0
  1  2  1  0  0  0  0
  1 18  1  0  0  0  0
  1 19  1  0  0  0  0
  1 20  1  0  0  0  0
  2  3  1  0  0  0  0
  2 11  1  0  0  0  0
  2 21  1  0  0  0  0
  3  4  1  0  0  0  0
  3 22  1  0  0  0  0
  3 37  1  0  0  0  0
  4  5  1  0  0  0  0
  4 23  1  0  0  0  0
  4 24  1  0  0  0  0
  5  6  1  0  0  0  0
  5 25  1  0  0  0  0
  5 26  1  0  0  0  0
  6  7  1  0  0  0  0
  6 27  1  0  0  0  0
  6 28  1  0  0  0  0
  7  8  1  0  0  0  0
  7  9  2  0  0  0  0
  7 10  2  0  0  0  0
  8 29  1  0  0  0  0
 11 12  1  0  0  0  0
 11 13  1  0  0  0  0
 11 30  1  0  0  0  0
 12 31  1  0  0  0  0
 12 32  1  0  0  0  0
 12 33  1  0  0  0  0
 13 17  1  0  0  0  0
 13 14  1  0  0  0  0
 14 15  2  0  0  0  0
 14 34  1  0  0  0  0
 15 16  1  0  0  0  0
 15 35  1  0  0  0  0
 16 17  2  0  0  0  0
 16 36  1  0  0  0  0
M  CHG  1   3   1
M  CHG  1   8  -1
M  END
> <s_m_source_file>
AV-unprocessed.smi

> <i_m_source_file_index>
658

> <i_lp_mmshare_version>
43012

> <i_f3d_flags>
0

> <s_epik_input>
bjFbY0hdW2NIXVtjSF1uMVtDQEBIXShbQ0gzXSlbQ0BIXShbQ0gzXSlbTkhdW0NIMl1bQ0gyXVtDSDJdUyg9TykoPU8pW05IMl0=

> <s_epik_cmdline>
J2VwaWtfcHl0aG9uJywgJy1waCcsICc3LjAnLCAnLXRuJywgJzgnLCAnLW1hJywgJzIwMCcsICctbWV0YWxfYmluZGluZycsICctaW1hZScsICc8aW5maWxlLm1hZT4nLCAnLW9tYWUnLCAnPG91dGZpbGUubWFlPic=

> <r_lp_tautomer_probability>
1

> <r_epik_Ionization_Penalty>
4.63642

> <r_epik_Ionization_Penalty_Charging>
4.63641

> <r_epik_Ionization_Penalty_Neutral>
1.08396e-05

> <r_epik_State_Penalty>
4.63466

> <r_epik_Charging_Adjusted_Penalty>
9.27106

> <i_epik_Tot_Q>
0

> <i_epik_Tot_abs_Q>
2

> <r_epik_Metal_State_Penalty>
0.890424

> <b_epik_Metal_Only>
1

> <s_lp_Force_Field>
OPLS_2005

> <r_lp_Energy>
1.41706

> <b_lp_Chiralities_Consistent>
1

> <s_lp_Variant>
AV-unprocessed.smi:658-8

> <Gold.Version>
5.8.1

> <Gold.Id.Protein>
6NUR|6NUR_protein|mol2

> <Gold.PLP.Fitness>
47.9986

> <Gold.PLP.PLP>
-31.4603

> <Gold.PLP.part.hbond>
-5.3407

> <Gold.PLP.part.metal>
0.0000

> <Gold.PLP.part.buried>
-2.3507

> <Gold.PLP.part.nonpolar>
-25.2191

> <Gold.PLP.part.repulsive>
0.6649

> <Gold.PLP.ligand.clash>
0.0000

> <Gold.PLP.ligand.torsion>
0.9189

> <Gold.PLP.Chemscore.Hbond>
3.9458

> <Gold.PLP.Chemscore.CHOScore>
2.0940

> <Gold.PLP.Chemscore.Metal>
0.0000

> <Gold.Chemscore.Hbonds>
donor molecule, donor type, donor heavy atom, donor atom, acceptor molecule, acceptor atom, score
      L1  H     3    37       P1  7948  2.00
      L1  H     8    29       P1  8028  1.00
      P1  H  7989  7998       L1    10  0.12
      P1  H  8011  8017       L1    10  0.75
      L1  C    14    34       P1 10747  1.00
      L1  C    16    36       P1 10186  0.30
      L1  C    16    36       P1 10952  0.70

> <Gold.PLP.Chemscore.Internal.Correction>
0.2567

> <Gold.Rescore>
     Score         DG    S(hbond)    S(metal)    S(lipo)     H(rot)  DE(clash)    DE(int)     intcor
     14.00     -15.43       2.88        0.00      69.24       3.04       0.47       0.96       ----

> <Gold.Chemscore.Fitness>
13.9973

> <Gold.Chemscore.DG>
-15.4319

> <Gold.Chemscore.ZeroCoef>
-5.4800

> <Gold.Chemscore.Hbond>
2.8849

> <Gold.Chemscore.Metal>
0.0000

> <Gold.Chemscore.Lipo>
69.2399

> <Gold.Chemscore.Internal_Hbond>
0.0000

> <Gold.Chemscore.DEClash>
0.4749

> <Gold.Chemscore.DEInternal>
0.9597

> <Gold.Chemscore.Rot>
3.0409

> <Gold.Chemscore.Internal.Correction>
   9.000000E+99

> <Gold.Chemscore.Hbonds>
donor molecule, donor type, donor heavy atom, donor atom, acceptor molecule, acceptor atom, score
      L1  H     3    37       P1  7948  0.99
      L1  H     8    29       P1  8028  0.85
      P1  H  7989  7998       L1    10  0.12
      P1  H  8011  8017       L1    10  0.51

> <Gold.Chemscore.Hbond.Weighted>
-9.6356

> <Gold.Chemscore.Metal.Weighted>
-0.0000

> <Gold.Chemscore.Lipo.Weighted>
-8.1011

> <Gold.Chemscore.Internal_Hbond.Weighted>
0.0000

> <Gold.Chemscore.DEClash.Weighted>
0.4749

> <Gold.Chemscore.DEInternal.Weighted>
0.9597

> <Gold.Chemscore.Rot.Weighted>
7.7848

> <Gold.Chemscore.Internal.Correction.Weighted>
   9.000000E+99

> <Gold.Protein.RotatedTorsions>
[ 6907 6896 6895 6894 ] final -172.30 input  -60.11 | X-H torsion
[ 7974 7965 7964 7962 ] final    3.38 input  175.53 | X-H torsion
[ 8008 7997 7996 7995 ] final  -13.83 input   59.86 | X-H torsion
[ 10167 10162 10161 10158 ] final  -96.73 input  -65.29 | X-H torsion
[ 10718 10713 10712 10709 ] final   48.76 input   66.30 | X-H torsion
[ 10763 10752 10751 10750 ] final  128.27 input  -60.55 | X-H torsion
[ 11005 11000 10999 10996 ] final  -19.69 input  -57.11 | X-H torsion

> <Gold.Protein.ActiveResidues>
 VAL166  LYS551  ARG553  GLY616  TRP617  ASP618  TYR619  PRO620  LYS621  CYS622 
 ASP623  PHE694  ASN695  SER759  ASP760  ASP761  ALA762  ILE779  LEU786  VAL792 
 PHE793  MET794  SER795  GLU796  ALA797  LYS798  CYS799  TRP800  GLU811  SER814 

> <Gold.Protein.RotatedAtoms>
  151.5378  133.3438  159.2929 H   0  0  0  0  0  0  0  0  0  0  0  0  # atno 6907 bound_to 6896
  150.8554  134.7894  159.7052 H   0  0  0  0  0  0  0  0  0  0  0  0  # atno 6908 bound_to 6896
  152.4589  134.5237  159.9842 H   0  0  0  0  0  0  0  0  0  0  0  0  # atno 6909 bound_to 6896
  146.2445  140.0694  142.8363 H   0  0  0  0  0  0  0  0  0  0  0  0  # atno 7974 bound_to 7965
  154.5260  140.2239  155.8890 H   0  0  0  0  0  0  0  0  0  0  0  0  # atno 8008 bound_to 7997
  156.1713  140.3121  155.8943 H   0  0  0  0  0  0  0  0  0  0  0  0  # atno 8009 bound_to 7997
  155.3552  140.0458  157.3037 H   0  0  0  0  0  0  0  0  0  0  0  0  # atno 8010 bound_to 7997
  140.2908  143.3222  152.0347 H   0  0  0  0  0  0  0  0  0  0  0  0  # atno 10167 bound_to 10162
  157.4719  130.8260  149.7997 H   0  0  0  0  0  0  0  0  0  0  0  0  # atno 10718 bound_to 10713
  153.7229  135.3250  155.3270 H   0  0  0  0  0  0  0  0  0  0  0  0  # atno 10763 bound_to 10752
  154.8350  135.4504  154.1199 H   0  0  0  0  0  0  0  0  0  0  0  0  # atno 10764 bound_to 10752
  153.2325  135.6961  153.7954 H   0  0  0  0  0  0  0  0  0  0  0  0  # atno 10765 bound_to 10752
  140.8392  133.7939  155.9842 H   0  0  0  0  0  0  0  0  0  0  0  0  # atno 11005 bound_to 11000
  145.0829  140.9233  143.4814 LP  0  0  0  0  0  0  0  0  0  0  0  0  # atno 17320 bound_to 7965
  145.0851  139.2931  143.5764 LP  0  0  0  0  0  0  0  0  0  0  0  0  # atno 17321 bound_to 7965
  139.4938  144.6526  151.6642 LP  0  0  0  0  0  0  0  0  0  0  0  0  # atno 17342 bound_to 10162
  140.5734  144.0071  150.6228 LP  0  0  0  0  0  0  0  0  0  0  0  0  # atno 17343 bound_to 10162
  156.0077  130.3847  150.2372 LP  0  0  0  0  0  0  0  0  0  0  0  0  # atno 17370 bound_to 10713
  157.0555  131.0075  151.3240 LP  0  0  0  0  0  0  0  0  0  0  0  0  # atno 17371 bound_to 10713
  140.8914  134.2490  157.5092 LP  0  0  0  0  0  0  0  0  0  0  0  0  # atno 17394 bound_to 11000
  139.8703  134.9663  156.4559 LP  0  0  0  0  0  0  0  0  0  0  0  0  # atno 17395 bound_to 11000

$$$$
