AV-unprocessed.smi:2221|AV-procd|sdf|8983|dock3
  -GOLD-   2272012193D 1   1.00000     0.00000
 Structure written by MMmdl.
 53 54  0  0  0  0  0  0  0  0  2 V2000
  153.2375  140.7152  159.7896 C   0  0  0  0  0  0  0  0  0  0  0  0
  152.4382  141.8707  159.2252 C   0  0  0  0  0  0  0  0  0  0  0  0
  152.4754  143.1401  159.8334 C   0  0  0  0  0  0  0  0  0  0  0  0
  151.7078  144.1736  159.2623 C   0  0  0  0  0  0  0  0  0  0  0  0
  151.7066  145.5626  159.8656 C   0  0  0  0  0  0  0  0  0  0  0  0
  150.9437  144.0020  158.1621 N   0  0  0  0  0  0  0  0  0  0  0  0
  150.8998  142.7837  157.5684 C   0  0  0  0  0  0  0  0  0  0  0  0
  150.1222  142.4986  156.4145 N   0  0  0  0  0  0  0  0  0  0  0  0
  149.6726  141.3036  155.9930 C   0  0  0  0  0  0  0  0  0  0  0  0
  149.8364  140.2322  156.5776 O   0  0  0  0  0  0  0  0  0  0  0  0
  149.0066  141.4131  154.8343 N   0  0  0  0  0  0  0  0  0  0  0  0
  148.3867  140.3003  154.1241 C   0  0  0  0  0  0  0  0  0  0  0  0
  147.0917  140.7325  153.4083 C   0  0  0  0  0  0  0  0  0  0  0  0
  146.2957  139.5738  152.9315 N   0  3  2  0  0  0  0  0  0  0  0  0
  146.0284  138.5924  154.0099 C   0  0  0  0  0  0  0  0  0  0  0  0
  145.0702  137.4891  153.5338 C   0  0  0  0  0  0  0  0  0  0  0  0
  145.5989  136.7491  152.2792 C   0  0  1  0  0  0  0  0  0  0  0  0
  144.6091  135.7795  151.7727 N   0  0  0  0  0  0  0  0  0  0  0  0
  145.0324  135.1706  150.5131 C   0  0  0  0  0  0  0  0  0  0  0  0
  144.3885  134.6793  152.7093 C   0  0  0  0  0  0  0  0  0  0  0  0
  145.9437  137.8118  151.2057 C   0  0  0  0  0  0  0  0  0  0  0  0
  146.8812  138.9043  151.7440 C   0  0  0  0  0  0  0  0  0  0  0  0
  151.6379  141.6923  158.0786 C   0  0  0  0  0  0  0  0  0  0  0  0
  153.9518  141.0576  160.5390 H   0  0  0  0  0  0  0  0  0  0  0  0
  153.7921  140.2127  158.9968 H   0  0  0  0  0  0  0  0  0  0  0  0
  152.5714  139.9899  160.2570 H   0  0  0  0  0  0  0  0  0  0  0  0
  153.0756  143.3184  160.7139 H   0  0  0  0  0  0  0  0  0  0  0  0
  151.9514  145.5258  160.9276 H   0  0  0  0  0  0  0  0  0  0  0  0
  150.7275  146.0316  159.7612 H   0  0  0  0  0  0  0  0  0  0  0  0
  152.4440  146.1902  159.3649 H   0  0  0  0  0  0  0  0  0  0  0  0
  149.8905  143.2959  155.8409 H   0  0  0  0  0  0  0  0  0  0  0  0
  148.9141  142.3297  154.4208 H   0  0  0  0  0  0  0  0  0  0  0  0
  149.0955  139.8765  153.4105 H   0  0  0  0  0  0  0  0  0  0  0  0
  148.1846  139.5227  154.8597 H   0  0  0  0  0  0  0  0  0  0  0  0
  146.4801  141.3623  154.0562 H   0  0  0  0  0  0  0  0  0  0  0  0
  147.3627  141.3482  152.5496 H   0  0  0  0  0  0  0  0  0  0  0  0
  146.9688  138.1555  154.3499 H   0  0  0  0  0  0  0  0  0  0  0  0
  145.5851  139.0982  154.8686 H   0  0  0  0  0  0  0  0  0  0  0  0
  144.9312  136.8007  154.3666 H   0  0  0  0  0  0  0  0  0  0  0  0
  144.0928  137.9260  153.3226 H   0  0  0  0  0  0  0  0  0  0  0  0
  146.5106  136.2125  152.5474 H   0  0  0  0  0  0  0  0  0  0  0  0
  144.3302  134.3957  150.2031 H   0  0  0  0  0  0  0  0  0  0  0  0
  146.0195  134.7150  150.6038 H   0  0  0  0  0  0  0  0  0  0  0  0
  145.0575  135.8962  149.7015 H   0  0  0  0  0  0  0  0  0  0  0  0
  143.7219  133.9310  152.2780 H   0  0  0  0  0  0  0  0  0  0  0  0
  143.9075  135.0189  153.6254 H   0  0  0  0  0  0  0  0  0  0  0  0
  145.3259  134.1858  152.9705 H   0  0  0  0  0  0  0  0  0  0  0  0
  146.4358  137.3578  150.3464 H   0  0  0  0  0  0  0  0  0  0  0  0
  145.0280  138.2739  150.8333 H   0  0  0  0  0  0  0  0  0  0  0  0
  147.0649  139.6280  150.9509 H   0  0  0  0  0  0  0  0  0  0  0  0
  147.8486  138.4726  152.0058 H   0  0  0  0  0  0  0  0  0  0  0  0
  151.5936  140.7259  157.5973 H   0  0  0  0  0  0  0  0  0  0  0  0
  145.3959  139.9408  152.6554 H   0  0  0  0  0  0  0  0  0  0  0  0
  1  2  1  0  0  0  0
  1 24  1  0  0  0  0
  1 25  1  0  0  0  0
  1 26  1  0  0  0  0
  2 23  1  0  0  0  0
  2  3  2  0  0  0  0
  3  4  1  0  0  0  0
  3 27  1  0  0  0  0
  4  5  1  0  0  0  0
  4  6  2  0  0  0  0
  5 28  1  0  0  0  0
  5 29  1  0  0  0  0
  5 30  1  0  0  0  0
  6  7  1  0  0  0  0
  7  8  1  0  0  0  0
  7 23  2  0  0  0  0
  8  9  1  0  0  0  0
  8 31  1  0  0  0  0
  9 10  2  0  0  0  0
  9 11  1  0  0  0  0
 11 12  1  0  0  0  0
 11 32  1  0  0  0  0
 12 13  1  0  0  0  0
 12 33  1  0  0  0  0
 12 34  1  0  0  0  0
 13 14  1  0  0  0  0
 13 35  1  0  0  0  0
 13 36  1  0  0  0  0
 14 22  1  0  0  0  0
 14 15  1  0  0  0  0
 14 53  1  0  0  0  0
 15 16  1  0  0  0  0
 15 37  1  0  0  0  0
 15 38  1  0  0  0  0
 16 17  1  0  0  0  0
 16 39  1  0  0  0  0
 16 40  1  0  0  0  0
 17 18  1  0  0  0  0
 17 21  1  0  0  0  0
 17 41  1  0  0  0  0
 18 19  1  0  0  0  0
 18 20  1  0  0  0  0
 19 42  1  0  0  0  0
 19 43  1  0  0  0  0
 19 44  1  0  0  0  0
 20 45  1  0  0  0  0
 20 46  1  0  0  0  0
 20 47  1  0  0  0  0
 21 22  1  0  0  0  0
 21 48  1  0  0  0  0
 21 49  1  0  0  0  0
 22 50  1  0  0  0  0
 22 51  1  0  0  0  0
 23 52  1  0  0  0  0
M  CHG  1  14   1
M  END
> <s_m_source_file>
AV-unprocessed.smi

> <i_m_source_file_index>
2221

> <i_lp_mmshare_version>
43012

> <i_f3d_flags>
0

> <s_epik_input>
W0NIM11jMVtjSF1jKFtDSDNdKW5jKFtjSF0xKVtOSF1DKD1PKVtOSF1bQ0gyXVtDSDJdTjJbQ0gyXVtDSDJdW0NIXShOKFtDSDNdKVtDSDNdKVtDSDJdW0NIMl0y

> <s_epik_cmdline>
J2VwaWtfcHl0aG9uJywgJy1waCcsICc3LjAnLCAnLXRuJywgJzgnLCAnLW1hJywgJzIwMCcsICctbWV0YWxfYmluZGluZycsICctaW1hZScsICc8aW5maWxlLm1hZT4nLCAnLW9tYWUnLCAnPG91dGZpbGUubWFlPic=

> <r_epik_Ionization_Penalty>
1.32168

> <r_epik_Ionization_Penalty_Charging>
0.00219175

> <r_epik_Ionization_Penalty_Neutral>
1.31949

> <r_epik_State_Penalty>
1.51166

> <r_epik_Charging_Adjusted_Penalty>
1.51385

> <i_epik_Tot_Q>
1

> <i_epik_Tot_abs_Q>
1

> <r_epik_Metal_State_Penalty>
1.51167

> <b_epik_Metal_Only>
0

> <s_lp_Force_Field>
OPLS_2005

> <r_lp_Energy>
22.6933

> <b_lp_Chiralities_Consistent>
1

> <s_lp_Variant>
AV-unprocessed.smi:2221-4

> <Gold.Version>
5.8.1

> <Gold.Id.Protein>
6NUR|6NUR_protein|mol2

> <Gold.PLP.Fitness>
52.7903

> <Gold.PLP.PLP>
-45.1194

> <Gold.PLP.part.hbond>
-2.0000

> <Gold.PLP.part.metal>
0.0000

> <Gold.PLP.part.buried>
-1.8119

> <Gold.PLP.part.nonpolar>
-43.3608

> <Gold.PLP.part.repulsive>
0.6030

> <Gold.PLP.ligand.clash>
0.0000

> <Gold.PLP.ligand.torsion>
0.4283

> <Gold.PLP.Chemscore.Hbond>
2.8160

> <Gold.PLP.Chemscore.CHOScore>
0.0000

> <Gold.PLP.Chemscore.Metal>
0.0000

> <Gold.Chemscore.Hbonds>
donor molecule, donor type, donor heavy atom, donor atom, acceptor molecule, acceptor atom, score
      L1  H     8    31       P1  8028  0.94
      L1  H    14    53       P1 10175  2.00

> <Gold.PLP.Chemscore.Internal.Correction>
0.0796

> <Gold.Rescore>
     Score         DG    S(hbond)    S(metal)    S(lipo)     H(rot)  DE(clash)    DE(int)     intcor
     18.24     -21.65       1.97        0.00     117.39       1.61       1.56       1.84       ----

> <Gold.Chemscore.Fitness>
18.2419

> <Gold.Chemscore.DG>
-21.6513

> <Gold.Chemscore.ZeroCoef>
-5.4800

> <Gold.Chemscore.Hbond>
1.9651

> <Gold.Chemscore.Metal>
0.0000

> <Gold.Chemscore.Lipo>
117.3859

> <Gold.Chemscore.Internal_Hbond>
0.0000

> <Gold.Chemscore.DEClash>
1.5647

> <Gold.Chemscore.DEInternal>
1.8447

> <Gold.Chemscore.Rot>
1.6119

> <Gold.Chemscore.Internal.Correction>
   9.000000E+99

> <Gold.Chemscore.Hbonds>
donor molecule, donor type, donor heavy atom, donor atom, acceptor molecule, acceptor atom, score
      L1  H     8    31       P1  8028  0.91
      L1  H    14    53       P1 10175  0.99

> <Gold.Chemscore.Hbond.Weighted>
-6.5635

> <Gold.Chemscore.Metal.Weighted>
-0.0000

> <Gold.Chemscore.Lipo.Weighted>
-13.7342

> <Gold.Chemscore.Internal_Hbond.Weighted>
0.0000

> <Gold.Chemscore.DEClash.Weighted>
1.5647

> <Gold.Chemscore.DEInternal.Weighted>
1.8447

> <Gold.Chemscore.Rot.Weighted>
4.1264

> <Gold.Chemscore.Internal.Correction.Weighted>
   9.000000E+99

> <Gold.Protein.RotatedTorsions>
[ 6907 6896 6895 6894 ] final   55.83 input  -60.11 | X-H torsion
[ 7974 7965 7964 7962 ] final  160.01 input  175.53 | X-H torsion
[ 8008 7997 7996 7995 ] final  -87.28 input   59.86 | X-H torsion
[ 10167 10162 10161 10158 ] final -173.72 input  -65.29 | X-H torsion
[ 10718 10713 10712 10709 ] final -111.15 input   66.30 | X-H torsion
[ 10763 10752 10751 10750 ] final -127.42 input  -60.55 | X-H torsion
[ 11005 11000 10999 10996 ] final    6.43 input  -57.11 | X-H torsion

> <Gold.Protein.ActiveResidues>
 VAL166  LYS551  ARG553  GLY616  TRP617  ASP618  TYR619  PRO620  LYS621  CYS622 
 ASP623  PHE694  ASN695  SER759  ASP760  ASP761  ALA762  ILE779  LEU786  VAL792 
 PHE793  MET794  SER795  GLU796  ALA797  LYS798  CYS799  TRP800  GLU811  SER814 

> <Gold.Protein.RotatedAtoms>
  152.3577  134.6916  160.0216 H   0  0  0  0  0  0  0  0  0  0  0  0  # atno 6907 bound_to 6896
  151.7250  133.3310  159.3333 H   0  0  0  0  0  0  0  0  0  0  0  0  # atno 6908 bound_to 6896
  150.7583  134.6348  159.6250 H   0  0  0  0  0  0  0  0  0  0  0  0  # atno 6909 bound_to 6896
  144.7759  139.7697  143.6279 H   0  0  0  0  0  0  0  0  0  0  0  0  # atno 7974 bound_to 7965
  154.6615  140.0568  157.0067 H   0  0  0  0  0  0  0  0  0  0  0  0  # atno 8008 bound_to 7997
  155.1222  140.3248  155.4476 H   0  0  0  0  0  0  0  0  0  0  0  0  # atno 8009 bound_to 7997
  156.2620  140.1995  156.6343 H   0  0  0  0  0  0  0  0  0  0  0  0  # atno 8010 bound_to 7997
  139.5673  144.1725  152.1331 H   0  0  0  0  0  0  0  0  0  0  0  0  # atno 10167 bound_to 10162
  156.0631  130.5852  150.8335 H   0  0  0  0  0  0  0  0  0  0  0  0  # atno 10718 bound_to 10713
  154.8752  135.3962  154.3590 H   0  0  0  0  0  0  0  0  0  0  0  0  # atno 10763 bound_to 10752
  153.4365  135.7026  153.6202 H   0  0  0  0  0  0  0  0  0  0  0  0  # atno 10764 bound_to 10752
  153.4801  135.3771  155.2407 H   0  0  0  0  0  0  0  0  0  0  0  0  # atno 10765 bound_to 10752
  140.5595  134.0206  155.7966 H   0  0  0  0  0  0  0  0  0  0  0  0  # atno 11005 bound_to 11000
  146.1939  139.5194  142.9787 LP  0  0  0  0  0  0  0  0  0  0  0  0  # atno 17320 bound_to 7965
  145.6186  141.0326  143.1927 LP  0  0  0  0  0  0  0  0  0  0  0  0  # atno 17321 bound_to 7965
  140.1251  144.5339  150.6838 LP  0  0  0  0  0  0  0  0  0  0  0  0  # atno 17342 bound_to 10162
  140.6957  143.2402  151.5008 LP  0  0  0  0  0  0  0  0  0  0  0  0  # atno 17343 bound_to 10162
  157.5654  131.0946  150.9498 LP  0  0  0  0  0  0  0  0  0  0  0  0  # atno 17370 bound_to 10713
  156.9726  130.5496  149.5291 LP  0  0  0  0  0  0  0  0  0  0  0  0  # atno 17371 bound_to 10713
  141.1123  133.9597  157.2887 LP  0  0  0  0  0  0  0  0  0  0  0  0  # atno 17394 bound_to 11000
  139.9415  135.0190  156.8721 LP  0  0  0  0  0  0  0  0  0  0  0  0  # atno 17395 bound_to 11000

$$$$
