AV-unprocessed.smi:1686|AV-procd|sdf|6762|dock1
  -GOLD-   22720 7523D 1   1.00000     0.00000
 Structure written by MMmdl.
 41 43  0  0  0  0  0  0  0  0  1 V2000
  149.0483  135.7751  155.1556 C   0  0  0  0  0  0  0  0  0  0  0  0
  149.5858  134.5196  155.7805 C   0  0  0  0  0  0  0  0  0  0  0  0
  149.9331  134.5279  157.0606 N   0  0  0  0  0  0  0  0  0  0  0  0
  150.3813  133.2354  157.3560 O   0  0  0  0  0  0  0  0  0  0  0  0
  150.2783  132.5108  156.2185 C   0  0  0  0  0  0  0  0  0  0  0  0
  150.7135  130.8497  156.1437 Cl  0  0  0  0  0  0  0  0  0  0  0  0
  149.7867  133.2436  155.1765 C   0  0  0  0  0  0  0  0  0  0  0  0
  149.5030  132.8199  153.7552 C   0  0  0  0  0  0  0  0  0  0  0  0
  148.0056  132.9408  153.4666 C   0  0  0  0  0  0  0  0  0  0  0  0
  147.2587  131.9855  153.6744 O   0  0  0  0  0  0  0  0  0  0  0  0
  147.5842  134.1291  153.0060 N   0  0  0  0  0  0  0  0  0  0  0  0
  146.1955  134.5308  152.8004 C   0  0  2  0  0  0  0  0  0  0  0  0
  145.3407  133.9498  153.9393 C   0  0  0  0  0  0  0  0  0  0  0  0
  145.7412  134.0591  151.3968 C   0  0  2  0  0  0  0  0  0  0  0  0
  144.2243  134.2526  151.1368 C   0  0  0  0  0  0  0  0  0  0  0  0
  143.7600  132.8560  150.6900 C   0  0  1  0  0  0  0  0  0  0  0  0
  144.3435  132.5386  149.3014 C   0  0  0  0  0  0  0  0  0  0  0  0
  145.8321  132.2922  149.6093 C   0  0  0  0  0  0  0  0  0  0  0  0
  145.9123  132.5426  151.1279 C   0  0  2  0  0  0  0  0  0  0  0  0
  144.5856  131.9558  151.5991 C   0  0  0  0  0  0  0  0  0  0  0  0
  148.2955  135.5488  154.4005 H   0  0  0  0  0  0  0  0  0  0  0  0
  149.8449  136.3409  154.6723 H   0  0  0  0  0  0  0  0  0  0  0  0
  148.5819  136.4242  155.8977 H   0  0  0  0  0  0  0  0  0  0  0  0
  150.0481  133.4320  153.0364 H   0  0  0  0  0  0  0  0  0  0  0  0
  149.8210  131.7911  153.5805 H   0  0  0  0  0  0  0  0  0  0  0  0
  148.2819  134.8438  152.8593 H   0  0  0  0  0  0  0  0  0  0  0  0
  146.1196  135.6186  152.8390 H   0  0  0  0  0  0  0  0  0  0  0  0
  144.3053  134.2822  153.8784 H   0  0  0  0  0  0  0  0  0  0  0  0
  145.7197  134.2662  154.9117 H   0  0  0  0  0  0  0  0  0  0  0  0
  145.3429  132.8597  153.9219 H   0  0  0  0  0  0  0  0  0  0  0  0
  146.3084  134.6245  150.6555 H   0  0  0  0  0  0  0  0  0  0  0  0
  143.6925  134.5400  152.0449 H   0  0  0  0  0  0  0  0  0  0  0  0
  144.0260  135.0187  150.3861 H   0  0  0  0  0  0  0  0  0  0  0  0
  142.6812  132.7123  150.7558 H   0  0  0  0  0  0  0  0  0  0  0  0
  143.8852  131.6429  148.8802 H   0  0  0  0  0  0  0  0  0  0  0  0
  144.1937  133.3566  148.5956 H   0  0  0  0  0  0  0  0  0  0  0  0
  146.1048  131.2629  149.3730 H   0  0  0  0  0  0  0  0  0  0  0  0
  146.4910  132.9490  149.0403 H   0  0  0  0  0  0  0  0  0  0  0  0
  146.7947  132.0938  151.5819 H   0  0  0  0  0  0  0  0  0  0  0  0
  144.3898  132.1141  152.6608 H   0  0  0  0  0  0  0  0  0  0  0  0
  144.4773  130.8939  151.3711 H   0  0  0  0  0  0  0  0  0  0  0  0
  1  2  1  0  0  0  0
  1 21  1  0  0  0  0
  1 22  1  0  0  0  0
  1 23  1  0  0  0  0
  2  7  1  0  0  0  0
  2  3  2  0  0  0  0
  3  4  1  0  0  0  0
  4  5  1  0  0  0  0
  5  6  1  0  0  0  0
  5  7  2  0  0  0  0
  7  8  1  0  0  0  0
  8  9  1  0  0  0  0
  8 24  1  0  0  0  0
  8 25  1  0  0  0  0
  9 10  2  0  0  0  0
  9 11  1  0  0  0  0
 11 12  1  0  0  0  0
 11 26  1  0  0  0  0
 12 13  1  0  0  0  0
 12 14  1  0  0  0  0
 12 27  1  0  0  0  0
 13 28  1  0  0  0  0
 13 29  1  0  0  0  0
 13 30  1  0  0  0  0
 14 19  1  0  0  0  0
 14 15  1  0  0  0  0
 14 31  1  0  0  0  0
 15 16  1  0  0  0  0
 15 32  1  0  0  0  0
 15 33  1  0  0  0  0
 16 20  1  0  0  0  0
 16 17  1  0  0  0  0
 16 34  1  0  0  0  0
 17 18  1  0  0  0  0
 17 35  1  0  0  0  0
 17 36  1  0  0  0  0
 18 19  1  0  0  0  0
 18 37  1  0  0  0  0
 18 38  1  0  0  0  0
 19 20  1  0  0  0  0
 19 39  1  0  0  0  0
 20 40  1  0  0  0  0
 20 41  1  0  0  0  0
M  END
> <s_m_source_file>
AV-unprocessed.smi

> <i_m_source_file_index>
1686

> <i_lp_mmshare_version>
43012

> <i_f3d_flags>
0

> <s_epik_input>
W0NIM11jMW5vYyhDbCljMVtDSDJdQyg9TylbTkhdW0NASF0oW0NIM10pW0NASF0oW0NIMl1bQ0BIXTIzKVtDQEhdKFtDSDJdMylbQ0gyXVtDSDJdMg==

> <s_epik_cmdline>
J2VwaWtfcHl0aG9uJywgJy1waCcsICc3LjAnLCAnLXRuJywgJzgnLCAnLW1hJywgJzIwMCcsICctbWV0YWxfYmluZGluZycsICctaW1hZScsICc8aW5maWxlLm1hZT4nLCAnLW9tYWUnLCAnPG91dGZpbGUubWFlPic=

> <r_lp_tautomer_probability>
1

> <r_epik_Ionization_Penalty>
2.01576e-08

> <r_epik_Ionization_Penalty_Charging>
0

> <r_epik_Ionization_Penalty_Neutral>
2.01576e-08

> <r_epik_State_Penalty>
-0

> <r_epik_Charging_Adjusted_Penalty>
0

> <i_epik_Tot_Q>
0

> <i_epik_Tot_abs_Q>
0

> <r_epik_Metal_State_Penalty>
-0

> <b_epik_Metal_Only>
0

> <s_lp_Force_Field>
OPLS_2005

> <r_lp_Energy>
45.7389

> <b_lp_Chiralities_Consistent>
1

> <s_lp_Variant>
AV-unprocessed.smi:1686-5

> <Gold.Version>
5.8.1

> <Gold.Id.Protein>
6NUR|6NUR_protein|mol2

> <Gold.PLP.Fitness>
41.5434

> <Gold.PLP.PLP>
-37.0203

> <Gold.PLP.part.hbond>
-2.1749

> <Gold.PLP.part.metal>
0.0000

> <Gold.PLP.part.buried>
-6.1883

> <Gold.PLP.part.nonpolar>
-29.3225

> <Gold.PLP.part.repulsive>
0.0765

> <Gold.PLP.ligand.clash>
0.0000

> <Gold.PLP.ligand.torsion>
0.7686

> <Gold.PLP.Chemscore.Hbond>
2.0000

> <Gold.PLP.Chemscore.CHOScore>
0.0000

> <Gold.PLP.Chemscore.Metal>
0.0000

> <Gold.Chemscore.Hbonds>
donor molecule, donor type, donor heavy atom, donor atom, acceptor molecule, acceptor atom, score
      L1  H    11    26       P1  7948  0.99
      P1  H  6896  6909       L1     4  1.00

> <Gold.PLP.Chemscore.Internal.Correction>
0.0603

> <Gold.Rescore>
     Score         DG    S(hbond)    S(metal)    S(lipo)     H(rot)  DE(clash)    DE(int)     intcor
     16.30     -18.69       1.71        0.00      96.02       1.46       0.06       2.32       ----

> <Gold.Chemscore.Fitness>
16.3040

> <Gold.Chemscore.DG>
-18.6904

> <Gold.Chemscore.ZeroCoef>
-5.4800

> <Gold.Chemscore.Hbond>
1.7143

> <Gold.Chemscore.Metal>
0.0000

> <Gold.Chemscore.Lipo>
96.0230

> <Gold.Chemscore.Internal_Hbond>
0.0000

> <Gold.Chemscore.DEClash>
0.0637

> <Gold.Chemscore.DEInternal>
2.3227

> <Gold.Chemscore.Rot>
1.4648

> <Gold.Chemscore.Internal.Correction>
   9.000000E+99

> <Gold.Chemscore.Hbonds>
donor molecule, donor type, donor heavy atom, donor atom, acceptor molecule, acceptor atom, score
      L1  H    11    26       P1  7948  0.66
      P1  H  6896  6909       L1     4  0.27

> <Gold.Chemscore.Hbond.Weighted>
-5.7257

> <Gold.Chemscore.Metal.Weighted>
-0.0000

> <Gold.Chemscore.Lipo.Weighted>
-11.2347

> <Gold.Chemscore.Internal_Hbond.Weighted>
0.0000

> <Gold.Chemscore.DEClash.Weighted>
0.0637

> <Gold.Chemscore.DEInternal.Weighted>
2.3227

> <Gold.Chemscore.Rot.Weighted>
3.7500

> <Gold.Chemscore.Internal.Correction.Weighted>
   9.000000E+99

> <Gold.Protein.RotatedTorsions>
[ 6907 6896 6895 6894 ] final  -25.53 input  -60.11 | X-H torsion
[ 7974 7965 7964 7962 ] final  168.05 input  175.53 | X-H torsion
[ 8008 7997 7996 7995 ] final -146.43 input   59.86 | X-H torsion
[ 10167 10162 10161 10158 ] final  -84.92 input  -65.29 | X-H torsion
[ 10718 10713 10712 10709 ] final  142.61 input   66.30 | X-H torsion
[ 10763 10752 10751 10750 ] final -150.37 input  -60.55 | X-H torsion
[ 11005 11000 10999 10996 ] final  107.28 input  -57.11 | X-H torsion

> <Gold.Protein.ActiveResidues>
 VAL166  LYS551  ARG553  GLY616  TRP617  ASP618  TYR619  PRO620  LYS621  CYS622 
 ASP623  PHE694  ASN695  SER759  ASP760  ASP761  ALA762  ILE779  LEU786  VAL792 
 PHE793  MET794  SER795  GLU796  ALA797  LYS798  CYS799  TRP800  GLU811  SER814 

> <Gold.Protein.RotatedAtoms>
  151.1739  135.0330  159.8763 H   0  0  0  0  0  0  0  0  0  0  0  0  # atno 6907 bound_to 6896
  152.5448  134.1139  159.8380 H   0  0  0  0  0  0  0  0  0  0  0  0  # atno 6908 bound_to 6896
  151.1248  133.5031  159.2633 H   0  0  0  0  0  0  0  0  0  0  0  0  # atno 6909 bound_to 6896
  144.7402  139.8851  143.6399 H   0  0  0  0  0  0  0  0  0  0  0  0  # atno 7974 bound_to 7965
  155.5592  140.0624  157.2832 H   0  0  0  0  0  0  0  0  0  0  0  0  # atno 8008 bound_to 7997
  154.4395  140.1888  156.0811 H   0  0  0  0  0  0  0  0  0  0  0  0  # atno 8009 bound_to 7997
  156.0459  140.3290  155.7300 H   0  0  0  0  0  0  0  0  0  0  0  0  # atno 8010 bound_to 7997
  140.4087  143.2632  151.9047 H   0  0  0  0  0  0  0  0  0  0  0  0  # atno 10167 bound_to 10162
  157.3785  131.0989  151.0761 H   0  0  0  0  0  0  0  0  0  0  0  0  # atno 10718 bound_to 10713
  154.8123  135.3286  154.7272 H   0  0  0  0  0  0  0  0  0  0  0  0  # atno 10763 bound_to 10752
  153.7919  135.6910  153.4874 H   0  0  0  0  0  0  0  0  0  0  0  0  # atno 10764 bound_to 10752
  153.1911  135.4550  155.0097 H   0  0  0  0  0  0  0  0  0  0  0  0  # atno 10765 bound_to 10752
  139.8826  134.9396  156.5795 H   0  0  0  0  0  0  0  0  0  0  0  0  # atno 11005 bound_to 11000
  146.1183  139.4197  143.0244 LP  0  0  0  0  0  0  0  0  0  0  0  0  # atno 17320 bound_to 7965
  145.7342  141.0031  143.1335 LP  0  0  0  0  0  0  0  0  0  0  0  0  # atno 17321 bound_to 7965
  139.4783  144.5559  151.8314 LP  0  0  0  0  0  0  0  0  0  0  0  0  # atno 17342 bound_to 10162
  140.4662  144.1652  150.5912 LP  0  0  0  0  0  0  0  0  0  0  0  0  # atno 17343 bound_to 10162
  157.1839  130.6321  149.5681 LP  0  0  0  0  0  0  0  0  0  0  0  0  # atno 17370 bound_to 10713
  155.9770  130.4744  150.6568 LP  0  0  0  0  0  0  0  0  0  0  0  0  # atno 17371 bound_to 10713
  140.8038  133.8484  155.8750 LP  0  0  0  0  0  0  0  0  0  0  0  0  # atno 17394 bound_to 11000
  140.9568  134.1707  157.4685 LP  0  0  0  0  0  0  0  0  0  0  0  0  # atno 17395 bound_to 11000

$$$$
