AV-unprocessed.smi:3281|AV-procd|sdf|12556|dock7
  -GOLD-   2272018473D 1   1.00000     0.00000
 Structure written by MMmdl.
 37 38  0  0  0  0  0  0  0  0  2 V2000
  142.7637  144.2641  162.2283 C   0  0  0  0  0  0  0  0  0  0  0  0
  144.1379  143.8332  162.7517 C   0  0  0  0  0  0  0  0  0  0  0  0
  145.0882  143.4513  161.6652 C   0  0  0  0  0  0  0  0  0  0  0  0
  145.1057  142.2864  160.9386 C   0  0  0  0  0  0  0  0  0  0  0  0
  146.1243  142.2312  159.9842 N   0  0  0  0  0  0  0  0  0  0  0  0
  146.8872  143.3263  159.9895 C   0  0  0  0  0  0  0  0  0  0  0  0
  148.0227  143.5422  159.0466 C   0  0  0  0  0  0  0  0  0  0  0  0
  148.4769  142.2406  158.3744 C   0  0  0  0  0  0  0  0  0  0  0  0
  149.4401  142.5154  157.2877 N   0  3  0  0  0  0  0  0  0  0  0  0
  150.8350  142.7567  157.7205 C   0  0  2  0  0  0  0  0  0  0  0  0
  151.3287  141.6378  158.6650 C   0  0  0  0  0  0  0  0  0  0  0  0
  152.7909  141.8265  159.1032 C   0  0  0  0  0  0  0  0  0  0  0  0
  153.0134  143.1389  159.8663 C   0  0  0  0  0  0  0  0  0  0  0  0
  152.6294  144.5701  158.8233 S   0  0  0  0  0  0  0  0  0  0  0  0
  150.9211  144.1369  158.3971 C   0  0  0  0  0  0  0  0  0  0  0  0
  146.3710  144.5254  161.1687 S   0  0  0  0  0  0  0  0  0  0  0  0
  142.1028  144.5362  163.0515 H   0  0  0  0  0  0  0  0  0  0  0  0
  142.2839  143.4607  161.6688 H   0  0  0  0  0  0  0  0  0  0  0  0
  142.8482  145.1284  161.5689 H   0  0  0  0  0  0  0  0  0  0  0  0
  144.5667  144.6426  163.3435 H   0  0  0  0  0  0  0  0  0  0  0  0
  144.0156  142.9929  163.4356 H   0  0  0  0  0  0  0  0  0  0  0  0
  144.4307  141.4483  161.0317 H   0  0  0  0  0  0  0  0  0  0  0  0
  147.7137  144.2678  158.2933 H   0  0  0  0  0  0  0  0  0  0  0  0
  148.8516  143.9932  159.5943 H   0  0  0  0  0  0  0  0  0  0  0  0
  148.9325  141.5861  159.1175 H   0  0  0  0  0  0  0  0  0  0  0  0
  147.6123  141.7150  157.9666 H   0  0  0  0  0  0  0  0  0  0  0  0
  149.4465  141.7047  156.6852 H   0  0  0  0  0  0  0  0  0  0  0  0
  151.4650  142.7792  156.8295 H   0  0  0  0  0  0  0  0  0  0  0  0
  150.6882  141.5881  159.5468 H   0  0  0  0  0  0  0  0  0  0  0  0
  151.2469  140.6677  158.1756 H   0  0  0  0  0  0  0  0  0  0  0  0
  153.0861  140.9900  159.7372 H   0  0  0  0  0  0  0  0  0  0  0  0
  153.4453  141.7927  158.2310 H   0  0  0  0  0  0  0  0  0  0  0  0
  152.3904  143.1707  160.7608 H   0  0  0  0  0  0  0  0  0  0  0  0
  154.0501  143.2140  160.1954 H   0  0  0  0  0  0  0  0  0  0  0  0
  150.5325  144.9104  157.7339 H   0  0  0  0  0  0  0  0  0  0  0  0
  150.3148  144.1600  159.3036 H   0  0  0  0  0  0  0  0  0  0  0  0
  149.1215  143.3093  156.7508 H   0  0  0  0  0  0  0  0  0  0  0  0
  1  2  1  0  0  0  0
  1 17  1  0  0  0  0
  1 18  1  0  0  0  0
  1 19  1  0  0  0  0
  2  3  1  0  0  0  0
  2 20  1  0  0  0  0
  2 21  1  0  0  0  0
  3 16  1  0  0  0  0
  3  4  2  0  0  0  0
  4  5  1  0  0  0  0
  4 22  1  0  0  0  0
  5  6  2  0  0  0  0
  6  7  1  0  0  0  0
  6 16  1  0  0  0  0
  7  8  1  0  0  0  0
  7 23  1  0  0  0  0
  7 24  1  0  0  0  0
  8  9  1  0  0  0  0
  8 25  1  0  0  0  0
  8 26  1  0  0  0  0
  9 10  1  0  0  0  0
  9 27  1  0  0  0  0
  9 37  1  0  0  0  0
 10 15  1  0  0  0  0
 10 11  1  0  0  0  0
 10 28  1  0  0  0  0
 11 12  1  0  0  0  0
 11 29  1  0  0  0  0
 11 30  1  0  0  0  0
 12 13  1  0  0  0  0
 12 31  1  0  0  0  0
 12 32  1  0  0  0  0
 13 14  1  0  0  0  0
 13 33  1  0  0  0  0
 13 34  1  0  0  0  0
 14 15  1  0  0  0  0
 15 35  1  0  0  0  0
 15 36  1  0  0  0  0
M  CHG  1   9   1
M  END
> <s_m_source_file>
AV-unprocessed.smi

> <i_m_source_file_index>
3281

> <i_lp_mmshare_version>
43012

> <i_f3d_flags>
0

> <s_epik_input>
W0NIM11bQ0gyXWMxW2NIXW5jKHMxKVtDSDJdW0NIMl1bTkhdW0NAQEhdMltDSDJdW0NIMl1bQ0gyXVNbQ0gyXTI=

> <s_epik_cmdline>
J2VwaWtfcHl0aG9uJywgJy1waCcsICc3LjAnLCAnLXRuJywgJzgnLCAnLW1hJywgJzIwMCcsICctbWV0YWxfYmluZGluZycsICctaW1hZScsICc8aW5maWxlLm1hZT4nLCAnLW9tYWUnLCAnPG91dGZpbGUubWFlPic=

> <r_epik_Ionization_Penalty>
0.00827702

> <r_epik_Ionization_Penalty_Charging>
0.00826679

> <r_epik_Ionization_Penalty_Neutral>
1.02314e-05

> <r_epik_State_Penalty>
0.00622064

> <r_epik_Charging_Adjusted_Penalty>
0.0144874

> <i_epik_Tot_Q>
1

> <i_epik_Tot_abs_Q>
1

> <r_epik_Metal_State_Penalty>
0.0062521

> <b_epik_Metal_Only>
0

> <s_lp_Force_Field>
OPLS_2005

> <r_lp_Energy>
-1.10641

> <b_lp_Chiralities_Consistent>
1

> <s_lp_Variant>
AV-unprocessed.smi:3281-1

> <Gold.Version>
5.8.1

> <Gold.Id.Protein>
6NUR|6NUR_protein|mol2

> <Gold.PLP.Fitness>
43.3053

> <Gold.PLP.PLP>
-36.2048

> <Gold.PLP.part.hbond>
-2.0000

> <Gold.PLP.part.metal>
0.0000

> <Gold.PLP.part.buried>
-1.8345

> <Gold.PLP.part.nonpolar>
-32.9254

> <Gold.PLP.part.repulsive>
0.0251

> <Gold.PLP.ligand.clash>
0.0000

> <Gold.PLP.ligand.torsion>
0.5873

> <Gold.PLP.Chemscore.Hbond>
2.7500

> <Gold.PLP.Chemscore.CHOScore>
0.0000

> <Gold.PLP.Chemscore.Metal>
0.0000

> <Gold.Chemscore.Hbonds>
donor molecule, donor type, donor heavy atom, donor atom, acceptor molecule, acceptor atom, score
      L1  H     9    37       P1  8028  2.00
      P1  H  6934  6946       L1     5  0.70

> <Gold.PLP.Chemscore.Internal.Correction>
0.0252

> <Gold.Rescore>
     Score         DG    S(hbond)    S(metal)    S(lipo)     H(rot)  DE(clash)    DE(int)     intcor
     17.35     -18.54       1.28        0.00     105.31       1.38       0.83       0.37       ----

> <Gold.Chemscore.Fitness>
17.3504

> <Gold.Chemscore.DG>
-18.5446

> <Gold.Chemscore.ZeroCoef>
-5.4800

> <Gold.Chemscore.Hbond>
1.2779

> <Gold.Chemscore.Metal>
0.0000

> <Gold.Chemscore.Lipo>
105.3051

> <Gold.Chemscore.Internal_Hbond>
0.0000

> <Gold.Chemscore.DEClash>
0.8291

> <Gold.Chemscore.DEInternal>
0.3651

> <Gold.Chemscore.Rot>
1.3767

> <Gold.Chemscore.Internal.Correction>
   9.000000E+99

> <Gold.Chemscore.Hbonds>
donor molecule, donor type, donor heavy atom, donor atom, acceptor molecule, acceptor atom, score
      L1  H     9    37       P1  8028  0.94
      P1  H  6934  6946       L1     5  0.06

> <Gold.Chemscore.Hbond.Weighted>
-4.2683

> <Gold.Chemscore.Metal.Weighted>
-0.0000

> <Gold.Chemscore.Lipo.Weighted>
-12.3207

> <Gold.Chemscore.Internal_Hbond.Weighted>
0.0000

> <Gold.Chemscore.DEClash.Weighted>
0.8291

> <Gold.Chemscore.DEInternal.Weighted>
0.3651

> <Gold.Chemscore.Rot.Weighted>
3.5243

> <Gold.Chemscore.Internal.Correction.Weighted>
   9.000000E+99

> <Gold.Protein.RotatedTorsions>
[ 6907 6896 6895 6894 ] final   84.71 input  -60.11 | X-H torsion
[ 7974 7965 7964 7962 ] final -132.31 input  175.53 | X-H torsion
[ 8008 7997 7996 7995 ] final  127.59 input   59.86 | X-H torsion
[ 10167 10162 10161 10158 ] final  -76.59 input  -65.29 | X-H torsion
[ 10718 10713 10712 10709 ] final    0.14 input   66.30 | X-H torsion
[ 10763 10752 10751 10750 ] final  -32.48 input  -60.55 | X-H torsion
[ 11005 11000 10999 10996 ] final -121.66 input  -57.11 | X-H torsion

> <Gold.Protein.ActiveResidues>
 VAL166  LYS551  ARG553  GLY616  TRP617  ASP618  TYR619  PRO620  LYS621  CYS622 
 ASP623  PHE694  ASN695  SER759  ASP760  ASP761  ALA762  ILE779  LEU786  VAL792 
 PHE793  MET794  SER795  GLU796  ALA797  LYS798  CYS799  TRP800  GLU811  SER814 

> <Gold.Protein.RotatedAtoms>
  152.5359  134.2698  159.8966 H   0  0  0  0  0  0  0  0  0  0  0  0  # atno 6907 bound_to 6896
  151.2655  133.4274  159.2626 H   0  0  0  0  0  0  0  0  0  0  0  0  # atno 6908 bound_to 6896
  151.0414  134.9624  159.8220 H   0  0  0  0  0  0  0  0  0  0  0  0  # atno 6909 bound_to 6896
  144.9298  140.7114  143.4913 H   0  0  0  0  0  0  0  0  0  0  0  0  # atno 7974 bound_to 7965
  156.2894  140.2665  156.2297 H   0  0  0  0  0  0  0  0  0  0  0  0  # atno 8008 bound_to 7997
  155.0085  140.0387  157.2407 H   0  0  0  0  0  0  0  0  0  0  0  0  # atno 8009 bound_to 7997
  154.7539  140.2748  155.6274 H   0  0  0  0  0  0  0  0  0  0  0  0  # atno 8010 bound_to 7997
  140.4844  143.2394  151.8007 H   0  0  0  0  0  0  0  0  0  0  0  0  # atno 10167 bound_to 10162
  156.8290  130.5482  149.5689 H   0  0  0  0  0  0  0  0  0  0  0  0  # atno 10718 bound_to 10713
  153.8144  135.6879  153.4836 H   0  0  0  0  0  0  0  0  0  0  0  0  # atno 10763 bound_to 10752
  153.1608  135.4580  154.9767 H   0  0  0  0  0  0  0  0  0  0  0  0  # atno 10764 bound_to 10752
  154.7954  135.3317  154.7622 H   0  0  0  0  0  0  0  0  0  0  0  0  # atno 10765 bound_to 10752
  141.0053  134.0343  157.3484 H   0  0  0  0  0  0  0  0  0  0  0  0  # atno 11005 bound_to 11000
  145.3161  139.1803  143.4613 LP  0  0  0  0  0  0  0  0  0  0  0  0  # atno 17320 bound_to 7965
  146.3242  140.3172  142.8631 LP  0  0  0  0  0  0  0  0  0  0  0  0  # atno 17321 bound_to 7965
  139.4839  144.4731  151.9400 LP  0  0  0  0  0  0  0  0  0  0  0  0  # atno 17342 bound_to 10162
  140.3817  144.2728  150.5908 LP  0  0  0  0  0  0  0  0  0  0  0  0  # atno 17343 bound_to 10162
  156.0945  130.5921  150.9790 LP  0  0  0  0  0  0  0  0  0  0  0  0  # atno 17370 bound_to 10713
  157.6417  131.0909  150.8238 LP  0  0  0  0  0  0  0  0  0  0  0  0  # atno 17371 bound_to 10713
  139.9060  135.0179  156.7488 LP  0  0  0  0  0  0  0  0  0  0  0  0  # atno 17394 bound_to 11000
  140.6822  133.9464  155.7917 LP  0  0  0  0  0  0  0  0  0  0  0  0  # atno 17395 bound_to 11000

$$$$
