AV-unprocessed.smi:982|AV-procd|sdf|4315|dock2
  -GOLD-   22720 2223D 1   1.00000     0.00000
 Structure written by MMmdl.
 29 30  0  0  0  0  0  0  0  0  1 V2000
  149.4592  138.6047  153.5203 N   0  0  0  0  0  0  0  0  0  0  0  0
  150.6063  138.2270  154.3216 C   0  0  0  0  0  0  0  0  0  0  0  0
  150.9705  139.2804  155.3479 C   0  0  0  0  0  0  0  0  0  0  0  0
  150.2703  140.5004  155.4147 C   0  0  0  0  0  0  0  0  0  0  0  0
  150.6449  141.4489  156.3858 C   0  0  0  0  0  0  0  0  0  0  0  0
  151.7112  141.1504  157.2681 C   0  0  0  0  0  0  0  0  0  0  0  0
  152.1008  142.0844  158.2530 N   0  0  0  0  0  0  0  0  0  0  0  0
  151.5605  143.4326  158.0947 C   0  0  0  0  0  0  0  0  0  0  0  0
  152.2863  144.4147  159.0306 C   0  0  0  0  0  0  0  0  0  0  0  0
  152.2165  143.9446  160.3726 O   0  0  0  0  0  0  0  0  0  0  0  0
  152.8511  142.6794  160.5232 C   0  0  0  0  0  0  0  0  0  0  0  0
  152.1409  141.6365  159.6441 C   0  0  0  0  0  0  0  0  0  0  0  0
  152.3870  139.9766  157.1923 N   0  0  0  0  0  0  0  0  0  0  0  0
  152.0231  139.0703  156.2605 C   0  0  0  0  0  0  0  0  0  0  0  0
  149.2333  137.8525  152.8851 H   0  0  0  0  0  0  0  0  0  0  0  0
  148.6536  138.7130  154.1199 H   0  0  0  0  0  0  0  0  0  0  0  0
  150.3978  137.2784  154.8175 H   0  0  0  0  0  0  0  0  0  0  0  0
  151.4590  138.0611  153.6627 H   0  0  0  0  0  0  0  0  0  0  0  0
  149.4597  140.7089  154.7320 H   0  0  0  0  0  0  0  0  0  0  0  0
  150.1222  142.3924  156.4326 H   0  0  0  0  0  0  0  0  0  0  0  0
  151.6536  143.7885  157.0698 H   0  0  0  0  0  0  0  0  0  0  0  0
  150.4954  143.4135  158.3284 H   0  0  0  0  0  0  0  0  0  0  0  0
  153.3283  144.5387  158.7311 H   0  0  0  0  0  0  0  0  0  0  0  0
  151.8205  145.3987  158.9752 H   0  0  0  0  0  0  0  0  0  0  0  0
  153.9073  142.7560  160.2603 H   0  0  0  0  0  0  0  0  0  0  0  0
  152.8048  142.3811  161.5706 H   0  0  0  0  0  0  0  0  0  0  0  0
  151.1229  141.4773  160.0025 H   0  0  0  0  0  0  0  0  0  0  0  0
  152.6666  140.6838  159.7191 H   0  0  0  0  0  0  0  0  0  0  0  0
  152.5908  138.1516  156.2451 H   0  0  0  0  0  0  0  0  0  0  0  0
  1  2  1  0  0  0  0
  1 15  1  0  0  0  0
  1 16  1  0  0  0  0
  2  3  1  0  0  0  0
  2 17  1  0  0  0  0
  2 18  1  0  0  0  0
  3 14  1  0  0  0  0
  3  4  2  0  0  0  0
  4  5  1  0  0  0  0
  4 19  1  0  0  0  0
  5  6  2  0  0  0  0
  5 20  1  0  0  0  0
  6  7  1  0  0  0  0
  6 13  1  0  0  0  0
  7 12  1  0  0  0  0
  7  8  1  0  0  0  0
  8  9  1  0  0  0  0
  8 21  1  0  0  0  0
  8 22  1  0  0  0  0
  9 10  1  0  0  0  0
  9 23  1  0  0  0  0
  9 24  1  0  0  0  0
 10 11  1  0  0  0  0
 11 12  1  0  0  0  0
 11 25  1  0  0  0  0
 11 26  1  0  0  0  0
 12 27  1  0  0  0  0
 12 28  1  0  0  0  0
 13 14  2  0  0  0  0
 14 29  1  0  0  0  0
M  END
> <s_m_source_file>
AV-unprocessed.smi

> <i_m_source_file_index>
982

> <i_lp_mmshare_version>
43012

> <i_f3d_flags>
0

> <s_epik_input>
W05IMl1bQ0gyXWMxW2NIXVtjSF1jKG5bY0hdMSlOMltDSDJdW0NIMl1PW0NIMl1bQ0gyXTI=

> <s_epik_cmdline>
J2VwaWtfcHl0aG9uJywgJy1waCcsICc3LjAnLCAnLXRuJywgJzgnLCAnLW1hJywgJzIwMCcsICctbWV0YWxfYmluZGluZycsICctaW1hZScsICc8aW5maWxlLm1hZT4nLCAnLW9tYWUnLCAnPG91dGZpbGUubWFlPic=

> <r_lp_tautomer_probability>
1

> <r_epik_Ionization_Penalty>
1.39093

> <r_epik_Ionization_Penalty_Charging>
0

> <r_epik_Ionization_Penalty_Neutral>
1.39093

> <r_epik_State_Penalty>
1.46593

> <r_epik_Charging_Adjusted_Penalty>
1.46593

> <i_epik_Tot_Q>
0

> <i_epik_Tot_abs_Q>
0

> <r_epik_Metal_State_Penalty>
1.46056

> <b_epik_Metal_Only>
0

> <s_lp_Force_Field>
OPLS_2005

> <r_lp_Energy>
15.7707

> <b_lp_Chiralities_Consistent>
1

> <s_lp_Variant>
AV-unprocessed.smi:982-2

> <Gold.Version>
5.8.1

> <Gold.Id.Protein>
6NUR|6NUR_protein|mol2

> <Gold.PLP.Fitness>
38.7317

> <Gold.PLP.PLP>
-32.7865

> <Gold.PLP.part.hbond>
-3.0000

> <Gold.PLP.part.metal>
0.0000

> <Gold.PLP.part.buried>
-3.4456

> <Gold.PLP.part.nonpolar>
-26.0619

> <Gold.PLP.part.repulsive>
0.0689

> <Gold.PLP.ligand.clash>
0.0000

> <Gold.PLP.ligand.torsion>
0.1941

> <Gold.PLP.Chemscore.Hbond>
2.0000

> <Gold.PLP.Chemscore.CHOScore>
0.0000

> <Gold.PLP.Chemscore.Metal>
0.0000

> <Gold.Chemscore.Hbonds>
donor molecule, donor type, donor heavy atom, donor atom, acceptor molecule, acceptor atom, score
      L1  H     1    15       P1  7948  1.00
      P1  H  7997  8010       L1    13  0.83

> <Gold.PLP.Chemscore.Internal.Correction>
0.3333

> <Gold.Rescore>
     Score         DG    S(hbond)    S(metal)    S(lipo)     H(rot)  DE(clash)    DE(int)     intcor
     17.18     -17.38       1.77        0.00      79.28       1.29       0.02       0.18       ----

> <Gold.Chemscore.Fitness>
17.1816

> <Gold.Chemscore.DG>
-17.3819

> <Gold.Chemscore.ZeroCoef>
-5.4800

> <Gold.Chemscore.Hbond>
1.7732

> <Gold.Chemscore.Metal>
0.0000

> <Gold.Chemscore.Lipo>
79.2767

> <Gold.Chemscore.Internal_Hbond>
0.0000

> <Gold.Chemscore.DEClash>
0.0174

> <Gold.Chemscore.DEInternal>
0.1829

> <Gold.Chemscore.Rot>
1.2875

> <Gold.Chemscore.Internal.Correction>
   9.000000E+99

> <Gold.Chemscore.Hbonds>
donor molecule, donor type, donor heavy atom, donor atom, acceptor molecule, acceptor atom, score
      L1  H     1    15       P1  7948  0.97
      P1  H  7997  8010       L1    13  0.17

> <Gold.Chemscore.Hbond.Weighted>
-5.9226

> <Gold.Chemscore.Metal.Weighted>
-0.0000

> <Gold.Chemscore.Lipo.Weighted>
-9.2754

> <Gold.Chemscore.Internal_Hbond.Weighted>
0.0000

> <Gold.Chemscore.DEClash.Weighted>
0.0174

> <Gold.Chemscore.DEInternal.Weighted>
0.1829

> <Gold.Chemscore.Rot.Weighted>
3.2961

> <Gold.Chemscore.Internal.Correction.Weighted>
   9.000000E+99

> <Gold.Protein.RotatedTorsions>
[ 6907 6896 6895 6894 ] final -168.96 input  -60.11 | X-H torsion
[ 7974 7965 7964 7962 ] final  142.58 input  175.53 | X-H torsion
[ 8008 7997 7996 7995 ] final   51.34 input   59.86 | X-H torsion
[ 10167 10162 10161 10158 ] final  126.92 input  -65.29 | X-H torsion
[ 10718 10713 10712 10709 ] final  -23.43 input   66.30 | X-H torsion
[ 10763 10752 10751 10750 ] final   34.75 input  -60.55 | X-H torsion
[ 11005 11000 10999 10996 ] final  -57.15 input  -57.11 | X-H torsion

> <Gold.Protein.ActiveResidues>
 VAL166  LYS551  ARG553  GLY616  TRP617  ASP618  TYR619  PRO620  LYS621  CYS622 
 ASP623  PHE694  ASN695  SER759  ASP760  ASP761  ALA762  ILE779  LEU786  VAL792 
 PHE793  MET794  SER795  GLU796  ALA797  LYS798  CYS799  TRP800  GLU811  SER814 

> <Gold.Protein.RotatedAtoms>
  151.4840  133.3540  159.2842 H   0  0  0  0  0  0  0  0  0  0  0  0  # atno 6907 bound_to 6896
  150.8878  134.8280  159.7282 H   0  0  0  0  0  0  0  0  0  0  0  0  # atno 6908 bound_to 6896
  152.4804  134.4746  159.9698 H   0  0  0  0  0  0  0  0  0  0  0  0  # atno 6909 bound_to 6896
  144.8995  139.5443  143.5760 H   0  0  0  0  0  0  0  0  0  0  0  0  # atno 7974 bound_to 7965
  155.4337  140.3451  155.4282 H   0  0  0  0  0  0  0  0  0  0  0  0  # atno 8008 bound_to 7997
  156.1321  140.1517  156.9080 H   0  0  0  0  0  0  0  0  0  0  0  0  # atno 8009 bound_to 7997
  154.4903  140.0843  156.7559 H   0  0  0  0  0  0  0  0  0  0  0  0  # atno 8010 bound_to 7997
  139.5605  144.6878  151.4056 H   0  0  0  0  0  0  0  0  0  0  0  0  # atno 10167 bound_to 10162
  156.4911  130.4567  149.6755 H   0  0  0  0  0  0  0  0  0  0  0  0  # atno 10718 bound_to 10713
  153.0150  135.6352  154.1717 H   0  0  0  0  0  0  0  0  0  0  0  0  # atno 10763 bound_to 10752
  154.1457  135.2832  155.3150 H   0  0  0  0  0  0  0  0  0  0  0  0  # atno 10764 bound_to 10752
  154.6091  135.5562  153.7515 H   0  0  0  0  0  0  0  0  0  0  0  0  # atno 10765 bound_to 10752
  141.1152  133.6610  156.4726 H   0  0  0  0  0  0  0  0  0  0  0  0  # atno 11005 bound_to 11000
  146.3100  139.7714  142.9027 LP  0  0  0  0  0  0  0  0  0  0  0  0  # atno 17320 bound_to 7965
  145.3641  141.0331  143.3268 LP  0  0  0  0  0  0  0  0  0  0  0  0  # atno 17321 bound_to 7965
  140.6884  143.7919  150.7220 LP  0  0  0  0  0  0  0  0  0  0  0  0  # atno 17342 bound_to 10162
  140.1394  143.4455  152.2204 LP  0  0  0  0  0  0  0  0  0  0  0  0  # atno 17343 bound_to 10162
  156.3425  130.7389  151.2337 LP  0  0  0  0  0  0  0  0  0  0  0  0  # atno 17370 bound_to 10713
  157.7473  131.0399  150.4575 LP  0  0  0  0  0  0  0  0  0  0  0  0  # atno 17371 bound_to 10713
  140.4666  134.6792  157.5110 LP  0  0  0  0  0  0  0  0  0  0  0  0  # atno 17394 bound_to 11000
  140.0069  134.6749  155.9440 LP  0  0  0  0  0  0  0  0  0  0  0  0  # atno 17395 bound_to 11000

$$$$
