#       Name:                AV-unprocessed.smi:196
#       Creating user name   scv26
#       Creation time:       Thu Mar 26 19:37:50 2020


#       File generated by GOLD software.
#

@<TRIPOS>MOLECULE
AV-unprocessed.smi:196
    56    59     1
SMALL
NO_CHARGES


@<TRIPOS>ATOM
      1 ****        -1.9492  -3.3797   4.3519 C.3            1 S1                 0.0000
      2 ****        -2.8482  -2.5599   3.4132 C.3            1 S1                 0.0000
      3 ****        -3.8181  -3.4420   2.8553 O.3            1 S1                 0.0000
      4 ****        -4.2000  -2.9487   1.5840 C.3            1 S1                 0.0000
      5 ****        -2.8709  -2.4954   1.0006 C.3            1 S1                 0.0000
      6 ****        -2.1595  -1.8723   2.2000 C.3            1 S1                 0.0000
      7 ****        -2.4992  -0.4962   2.2331 O.3            1 S1                 0.0000
      8 ****        -0.6140  -1.9888   2.1282 C.3            1 S1                 0.0000
      9 ****        -0.0411  -1.3540   0.9512 N.pl3          1 S1                 0.0000
     10 ****         0.1742  -1.9348  -0.2775 C.2            1 S1                 0.0000
     11 ****         0.6945  -1.1492  -1.1798 N.2            1 S1                 0.0000
     12 ****         0.8648   0.0642  -0.5220 C.ar           1 S1                 0.0000
     13 ****         1.3681   1.3423  -0.9034 C.ar           1 S1                 0.0000
     14 ****         1.8374   1.6216  -2.1492 N.pl3          1 S1                 0.0000
     15 ****         2.6310   0.6242  -2.8576 C.3            1 S1                 0.0000
     16 ****         3.6439   1.4156  -3.6848 C.3            1 S1                 0.0000
     17 ****         4.7588   1.5903  -2.9732 F              1 S1                 0.0000
     18 ****         2.9554   2.7614  -3.8895 C.3            1 S1                 0.0000
     19 ****         2.1796   2.9810  -2.5801 C.3            1 S1                 0.0000
     20 ****         0.9406   3.8617  -2.8075 C.2            1 S1                 0.0000
     21 ****         1.0744   5.1653  -2.5533 N.am           1 S1                 0.0000
     22 ****        -0.1144   3.3798  -3.2174 O.2            1 S1                 0.0000
     23 ****         1.3597   2.3196   0.0420 N.ar           1 S1                 0.0000
     24 ****         0.9041   2.0709   1.2727 C.ar           1 S1                 0.0000
     25 ****         0.4130   0.9331   1.7657 N.ar           1 S1                 0.0000
     26 ****         0.4070  -0.0510   0.8219 C.ar           1 S1                 0.0000
     27 ****         3.9213   0.9216  -4.6164 H              1 S1                 0.0000
     28 ****         2.8420   3.4376  -1.8422 H              1 S1                 0.0000
     29 ****        -1.1899  -2.7559   4.8234 H              1 S1                 0.0000
     30 ****        -1.4471  -4.1889   3.8215 H              1 S1                 0.0000
     31 ****        -2.5395  -3.8310   5.1496 H              1 S1                 0.0000
     32 ****        -3.3863  -1.8223   4.0119 H              1 S1                 0.0000
     33 ****        -4.6863  -3.7166   0.9823 H              1 S1                 0.0000
     34 ****        -4.8871  -2.1093   1.7012 H              1 S1                 0.0000
     35 ****        -2.3254  -3.3744   0.6552 H              1 S1                 0.0000
     36 ****        -2.9823  -1.8194   0.1515 H              1 S1                 0.0000
     37 ****        -2.0847  -0.1021   2.9855 H              1 S1                 0.0000
     38 ****        -0.1557  -1.5431   3.0117 H              1 S1                 0.0000
     39 ****        -0.3102  -3.0359   2.1172 H              1 S1                 0.0000
     40 ****        -0.0749  -2.9645  -0.4883 H              1 S1                 0.0000
     41 ****         3.1299  -0.0787  -2.1885 H              1 S1                 0.0000
     42 ****         1.9660   0.0579  -3.5108 H              1 S1                 0.0000
     43 ****         3.6612   3.5656  -4.1001 H              1 S1                 0.0000
     44 ****         2.2745   2.6877  -4.7397 H              1 S1                 0.0000
     45 ****         0.2935   5.7895  -2.6938 H              1 S1                 0.0000
     46 ****         1.9610   5.5228  -2.2284 H              1 S1                 0.0000
     47 ****         0.9383   2.9030   1.9602 H              1 S1                 0.0000
     48 ****        -4.6179  -3.4852   3.4539 LP             1 S1                 0.0000
     49 ****        -3.4251  -4.3564   2.7576 LP             1 S1                 0.0000
     50 ****        -3.4916  -0.3956   2.3037 LP             1 S1                 0.0000
     51 ****        -2.1774  -0.0494   1.3983 LP             1 S1                 0.0000
     52 ****         0.9197  -1.3695  -2.1289 LP             1 S1                 0.0000
     53 ****        -0.1757   2.4001  -3.4083 LP             1 S1                 0.0000
     54 ****        -0.9107   3.9677  -3.3597 LP             1 S1                 0.0000
     55 ****         1.6976   3.2327  -0.1862 LP             1 S1                 0.0000
     56 ****         0.0911   0.8168   2.7053 LP             1 S1                 0.0000
@<TRIPOS>BOND
    1    1    2 1     
    2    1   29 1     
    3    1   30 1     
    4    1   31 1     
    5    2    6 1     
    6    2    3 1     
    7    2   32 1     
    8    3    4 1     
    9    4    5 1     
   10    4   33 1     
   11    4   34 1     
   12    5    6 1     
   13    5   35 1     
   14    5   36 1     
   15    6    7 1     
   16    6    8 1     
   17    7   37 1     
   18    8    9 1     
   19    8   38 1     
   20    8   39 1     
   21    9   26 1     
   22    9   10 1     
   23   10   11 2     
   24   10   40 1     
   25   11   12 1     
   26   12   26 ar    
   27   12   13 ar    
   28   13   14 1     
   29   13   23 ar    
   30   14   19 1     
   31   14   15 1     
   32   15   16 1     
   33   15   41 1     
   34   15   42 1     
   35   16   27 1     
   36   16   17 1     
   37   16   18 1     
   38   18   19 1     
   39   18   43 1     
   40   18   44 1     
   41   19   28 1     
   42   19   20 1     
   43   20   21 am    
   44   20   22 2     
   45   21   45 1     
   46   21   46 1     
   47   23   24 ar    
   48   24   25 ar    
   49   24   47 1     
   50   25   26 ar    
   51    3   48 1     
   52    3   49 1     
   53    7   50 1     
   54    7   51 1     
   55   11   52 1     
   56   22   53 1     
   57   22   54 1     
   58   23   55 1     
   59   25   56 1     
@<TRIPOS>SUBSTRUCTURE
      1 S1             1
@<TRIPOS>SET
LONE_PAIRS      STATIC     ATOMS    <user>   **** ""
9 48 49 50 51 52 53 54 55 56
DONOR_HYDROGENS      STATIC     ATOMS    <user>   **** ""
3 37 45 46
ATOM$BLUE        STATIC     ATOMS    COLORGROUP SYSTEM
9 48 49 50 51 52 53 54 55 56
ATOM$RED        STATIC     ATOMS    COLORGROUP SYSTEM
3 37 45 46
