AV-unprocessed.smi:1958|AV-procd|sdf|7907|dock3
  -GOLD-   2272010 63D 1   1.00000     0.00000
 Structure written by MMmdl.
 47 48  0  0  0  0  0  0  0  0  1 V2000
  150.5748  138.6951  155.1554 C   0  0  0  0  0  0  0  0  0  0  0  0
  151.4646  139.7773  155.3634 O   0  0  0  0  0  0  0  0  0  0  0  0
  152.0042  139.7938  156.6752 C   0  0  0  0  0  0  0  0  0  0  0  0
  151.1077  140.6481  157.5862 C   0  0  0  0  0  0  0  0  0  0  0  0
  151.8839  141.3420  158.6202 N   0  0  0  0  0  0  0  0  0  0  0  0
  152.5846  140.4945  159.4620 N   0  0  0  0  0  0  0  0  0  0  0  0
  153.2944  140.9787  160.4296 C   0  0  0  0  0  0  0  0  0  0  0  0
  154.0557  140.1005  161.3606 C   0  0  0  0  0  0  0  0  0  0  0  0
  153.7340  138.9273  161.5557 O   0  0  0  0  0  0  0  0  0  0  0  0
  155.1052  140.6836  161.9687 N   0  0  0  0  0  0  0  0  0  0  0  0
  156.0070  140.0445  162.9242 C   0  0  0  0  0  0  0  0  0  0  0  0
  155.4378  140.0205  164.3713 C   0  0  1  0  0  0  0  0  0  0  0  0
  156.0591  138.8259  165.1391 C   0  0  0  0  0  0  0  0  0  0  0  0
  155.6041  141.3079  165.0871 N   0  0  0  0  0  0  0  0  0  0  0  0
  155.3316  141.1928  166.5250 C   0  0  0  0  0  0  0  0  0  0  0  0
  155.4744  142.5306  167.2715 C   0  0  0  0  0  0  0  0  0  0  0  0
  154.6143  143.4989  166.6877 O   0  0  0  0  0  0  0  0  0  0  0  0
  154.8986  143.7014  165.3105 C   0  0  0  0  0  0  0  0  0  0  0  0
  154.7487  142.3728  164.5495 C   0  0  0  0  0  0  0  0  0  0  0  0
  153.3762  142.4134  160.6460 C   0  0  0  0  0  0  0  0  0  0  0  0
  152.6881  143.2279  159.8162 C   0  0  0  0  0  0  0  0  0  0  0  0
  151.8713  142.7054  158.7196 C   0  0  0  0  0  0  0  0  0  0  0  0
  151.2271  143.4261  157.9578 O   0  0  0  0  0  0  0  0  0  0  0  0
  150.1886  138.7299  154.1367 H   0  0  0  0  0  0  0  0  0  0  0  0
  149.7264  138.7440  155.8391 H   0  0  0  0  0  0  0  0  0  0  0  0
  151.0801  137.7380  155.2915 H   0  0  0  0  0  0  0  0  0  0  0  0
  152.0498  138.7746  157.0614 H   0  0  0  0  0  0  0  0  0  0  0  0
  153.0243  140.1811  156.6650 H   0  0  0  0  0  0  0  0  0  0  0  0
  150.5515  141.3671  156.9817 H   0  0  0  0  0  0  0  0  0  0  0  0
  150.3491  140.0168  158.0519 H   0  0  0  0  0  0  0  0  0  0  0  0
  155.2932  141.6513  161.7482 H   0  0  0  0  0  0  0  0  0  0  0  0
  156.2759  139.0344  162.6106 H   0  0  0  0  0  0  0  0  0  0  0  0
  156.9196  140.6349  162.8681 H   0  0  0  0  0  0  0  0  0  0  0  0
  154.3683  139.8208  164.2872 H   0  0  0  0  0  0  0  0  0  0  0  0
  155.9581  137.8863  164.5980 H   0  0  0  0  0  0  0  0  0  0  0  0
  155.5735  138.6491  166.0976 H   0  0  0  0  0  0  0  0  0  0  0  0
  157.1221  138.9859  165.3221 H   0  0  0  0  0  0  0  0  0  0  0  0
  154.3264  140.7976  166.6807 H   0  0  0  0  0  0  0  0  0  0  0  0
  156.0227  140.4945  166.9933 H   0  0  0  0  0  0  0  0  0  0  0  0
  155.2098  142.4078  168.3219 H   0  0  0  0  0  0  0  0  0  0  0  0
  156.5068  142.8823  167.2411 H   0  0  0  0  0  0  0  0  0  0  0  0
  154.2101  144.4459  164.9109 H   0  0  0  0  0  0  0  0  0  0  0  0
  155.9068  144.1021  165.1933 H   0  0  0  0  0  0  0  0  0  0  0  0
  154.9951  142.5783  163.5097 H   0  0  0  0  0  0  0  0  0  0  0  0
  153.7046  142.0570  164.5738 H   0  0  0  0  0  0  0  0  0  0  0  0
  153.9702  142.8268  161.4481 H   0  0  0  0  0  0  0  0  0  0  0  0
  152.7401  144.2964  159.9655 H   0  0  0  0  0  0  0  0  0  0  0  0
  1  2  1  0  0  0  0
  1 24  1  0  0  0  0
  1 25  1  0  0  0  0
  1 26  1  0  0  0  0
  2  3  1  0  0  0  0
  3  4  1  0  0  0  0
  3 27  1  0  0  0  0
  3 28  1  0  0  0  0
  4  5  1  0  0  0  0
  4 29  1  0  0  0  0
  4 30  1  0  0  0  0
  5 22  1  0  0  0  0
  5  6  1  0  0  0  0
  6  7  2  0  0  0  0
  7  8  1  0  0  0  0
  7 20  1  0  0  0  0
  8  9  2  0  0  0  0
  8 10  1  0  0  0  0
 10 11  1  0  0  0  0
 10 31  1  0  0  0  0
 11 12  1  0  0  0  0
 11 32  1  0  0  0  0
 11 33  1  0  0  0  0
 12 13  1  0  0  0  0
 12 14  1  0  0  0  0
 12 34  1  0  0  0  0
 13 35  1  0  0  0  0
 13 36  1  0  0  0  0
 13 37  1  0  0  0  0
 14 19  1  0  0  0  0
 14 15  1  0  0  0  0
 15 16  1  0  0  0  0
 15 38  1  0  0  0  0
 15 39  1  0  0  0  0
 16 17  1  0  0  0  0
 16 40  1  0  0  0  0
 16 41  1  0  0  0  0
 17 18  1  0  0  0  0
 18 19  1  0  0  0  0
 18 42  1  0  0  0  0
 18 43  1  0  0  0  0
 19 44  1  0  0  0  0
 19 45  1  0  0  0  0
 20 21  2  0  0  0  0
 20 46  1  0  0  0  0
 21 22  1  0  0  0  0
 21 47  1  0  0  0  0
 22 23  2  0  0  0  0
M  END
> <s_m_source_file>
AV-unprocessed.smi

> <i_m_source_file_index>
1958

> <i_lp_mmshare_version>
43012

> <i_f3d_flags>
0

> <s_epik_input>
W0NIM11PW0NIMl1bQ0gyXW4xbmMoW2NIXVtjSF1jMT1PKUMoPU8pW05IXVtDSDJdW0NASF0oW0NIM10pTjJbQ0gyXVtDSDJdT1tDSDJdW0NIMl0y

> <s_epik_cmdline>
J2VwaWtfcHl0aG9uJywgJy1waCcsICc3LjAnLCAnLXRuJywgJzgnLCAnLW1hJywgJzIwMCcsICctbWV0YWxfYmluZGluZycsICctaW1hZScsICc8aW5maWxlLm1hZT4nLCAnLW9tYWUnLCAnPG91dGZpbGUubWFlPic=

> <r_lp_tautomer_probability>
1

> <r_epik_Ionization_Penalty>
0.206669

> <r_epik_Ionization_Penalty_Charging>
5.75808e-09

> <r_epik_Ionization_Penalty_Neutral>
0.206669

> <r_epik_State_Penalty>
0.196651

> <r_epik_Charging_Adjusted_Penalty>
0.196651

> <i_epik_Tot_Q>
0

> <i_epik_Tot_abs_Q>
0

> <r_epik_Metal_State_Penalty>
0.198415

> <b_epik_Metal_Only>
0

> <s_lp_Force_Field>
OPLS_2005

> <r_lp_Energy>
50.1951

> <b_lp_Chiralities_Consistent>
1

> <s_lp_Variant>
AV-unprocessed.smi:1958-2

> <Gold.Version>
5.8.1

> <Gold.Id.Protein>
6NUR|6NUR_protein|mol2

> <Gold.PLP.Fitness>
43.4466

> <Gold.PLP.PLP>
-42.7800

> <Gold.PLP.part.hbond>
-2.7548

> <Gold.PLP.part.metal>
0.0000

> <Gold.PLP.part.buried>
-5.3355

> <Gold.PLP.part.nonpolar>
-34.5358

> <Gold.PLP.part.repulsive>
0.2106

> <Gold.PLP.ligand.clash>
0.0000

> <Gold.PLP.ligand.torsion>
1.2403

> <Gold.PLP.Chemscore.Hbond>
1.0000

> <Gold.PLP.Chemscore.CHOScore>
0.0000

> <Gold.PLP.Chemscore.Metal>
0.0000

> <Gold.Chemscore.Hbonds>
donor molecule, donor type, donor heavy atom, donor atom, acceptor molecule, acceptor atom, score
      P1  H  7989  7998       L1     2  0.67

> <Gold.PLP.Chemscore.Internal.Correction>
0.1473

> <Gold.Rescore>
     Score         DG    S(hbond)    S(metal)    S(lipo)     H(rot)  DE(clash)    DE(int)     intcor
     13.17     -14.56       0.95        0.00      95.08       2.04       0.24       1.14       ----

> <Gold.Chemscore.Fitness>
13.1719

> <Gold.Chemscore.DG>
-14.5589

> <Gold.Chemscore.ZeroCoef>
-5.4800

> <Gold.Chemscore.Hbond>
0.9520

> <Gold.Chemscore.Metal>
0.0000

> <Gold.Chemscore.Lipo>
95.0845

> <Gold.Chemscore.Internal_Hbond>
0.0000

> <Gold.Chemscore.DEClash>
0.2421

> <Gold.Chemscore.DEInternal>
1.1449

> <Gold.Chemscore.Rot>
2.0413

> <Gold.Chemscore.Internal.Correction>
   9.000000E+99

> <Gold.Chemscore.Hbonds>
donor molecule, donor type, donor heavy atom, donor atom, acceptor molecule, acceptor atom, score
      P1  H  7989  7998       L1     2  0.43

> <Gold.Chemscore.Hbond.Weighted>
-3.1797

> <Gold.Chemscore.Metal.Weighted>
-0.0000

> <Gold.Chemscore.Lipo.Weighted>
-11.1249

> <Gold.Chemscore.Internal_Hbond.Weighted>
0.0000

> <Gold.Chemscore.DEClash.Weighted>
0.2421

> <Gold.Chemscore.DEInternal.Weighted>
1.1449

> <Gold.Chemscore.Rot.Weighted>
5.2257

> <Gold.Chemscore.Internal.Correction.Weighted>
   9.000000E+99

> <Gold.Protein.RotatedTorsions>
[ 6907 6896 6895 6894 ] final  152.94 input  -60.11 | X-H torsion
[ 7974 7965 7964 7962 ] final   37.63 input  175.53 | X-H torsion
[ 8008 7997 7996 7995 ] final   -3.97 input   59.86 | X-H torsion
[ 10167 10162 10161 10158 ] final  176.41 input  -65.29 | X-H torsion
[ 10718 10713 10712 10709 ] final  -79.15 input   66.30 | X-H torsion
[ 10763 10752 10751 10750 ] final   -9.97 input  -60.55 | X-H torsion
[ 11005 11000 10999 10996 ] final  122.33 input  -57.11 | X-H torsion

> <Gold.Protein.ActiveResidues>
 VAL166  LYS551  ARG553  GLY616  TRP617  ASP618  TYR619  PRO620  LYS621  CYS622 
 ASP623  PHE694  ASN695  SER759  ASP760  ASP761  ALA762  ILE779  LEU786  VAL792 
 PHE793  MET794  SER795  GLU796  ALA797  LYS798  CYS799  TRP800  GLU811  SER814 

> <Gold.Protein.RotatedAtoms>
  152.0797  133.4146  159.4495 H   0  0  0  0  0  0  0  0  0  0  0  0  # atno 6907 bound_to 6896
  150.6862  134.2997  159.4710 H   0  0  0  0  0  0  0  0  0  0  0  0  # atno 6908 bound_to 6896
  152.0837  134.9453  160.0623 H   0  0  0  0  0  0  0  0  0  0  0  0  # atno 6909 bound_to 6896
  146.1123  139.5871  142.9344 H   0  0  0  0  0  0  0  0  0  0  0  0  # atno 7974 bound_to 7965
  154.6193  140.2496  155.7570 H   0  0  0  0  0  0  0  0  0  0  0  0  # atno 8008 bound_to 7997
  156.2417  140.2930  156.0412 H   0  0  0  0  0  0  0  0  0  0  0  0  # atno 8009 bound_to 7997
  155.1923  140.0392  157.2893 H   0  0  0  0  0  0  0  0  0  0  0  0  # atno 8010 bound_to 7997
  139.5213  144.2918  152.0457 H   0  0  0  0  0  0  0  0  0  0  0  0  # atno 10167 bound_to 10162
  156.0099  130.4538  150.3605 H   0  0  0  0  0  0  0  0  0  0  0  0  # atno 10718 bound_to 10713
  153.4625  135.7016  153.6042 H   0  0  0  0  0  0  0  0  0  0  0  0  # atno 10763 bound_to 10752
  153.4330  135.3798  155.2182 H   0  0  0  0  0  0  0  0  0  0  0  0  # atno 10764 bound_to 10752
  154.8727  135.3955  154.4052 H   0  0  0  0  0  0  0  0  0  0  0  0  # atno 10765 bound_to 10752
  139.9264  134.9641  156.8093 H   0  0  0  0  0  0  0  0  0  0  0  0  # atno 11005 bound_to 11000
  145.5638  141.0401  143.2212 LP  0  0  0  0  0  0  0  0  0  0  0  0  # atno 17320 bound_to 7965
  144.7522  139.7164  143.7268 LP  0  0  0  0  0  0  0  0  0  0  0  0  # atno 17321 bound_to 7965
  140.2369  144.4310  150.6276 LP  0  0  0  0  0  0  0  0  0  0  0  0  # atno 17342 bound_to 10162
  140.6317  143.2188  151.6481 LP  0  0  0  0  0  0  0  0  0  0  0  0  # atno 17343 bound_to 10162
  157.1694  131.0365  151.2803 LP  0  0  0  0  0  0  0  0  0  0  0  0  # atno 17370 bound_to 10713
  157.4242  130.7454  149.6938 LP  0  0  0  0  0  0  0  0  0  0  0  0  # atno 17371 bound_to 10713
  140.6325  133.9892  155.7669 LP  0  0  0  0  0  0  0  0  0  0  0  0  # atno 17394 bound_to 11000
  141.0824  134.0042  157.3366 LP  0  0  0  0  0  0  0  0  0  0  0  0  # atno 17395 bound_to 11000

$$$$
