#       Name:                AV-unprocessed.smi:1504
#       Creating user name   scv26
#       Creation time:       Fri Mar 27 06:19:35 2020


#       File generated by GOLD software.
#

@<TRIPOS>MOLECULE
AV-unprocessed.smi:1504
    42    43     1
SMALL
NO_CHARGES


@<TRIPOS>ATOM
      1 ****         0.3363   1.4524   1.1320 O.2            1 S1                 0.0000
      2 ****        -0.1700   0.3305   1.1569 C.2            1 S1                 0.0000
      3 ****         0.5358  -0.8087   1.1865 N.am           1 S1                 0.0000
      4 ****         1.9921  -0.8850   1.1880 C.3            1 S1                 0.0000
      5 ****         2.5709  -0.6814  -0.2224 C.3            1 S1                 0.0000
      6 ****         4.0852  -0.7567  -0.2385 C.ar           1 S1                 0.0000
      7 ****         4.8934   0.4009  -0.2427 C.ar           1 S1                 0.0000
      8 ****         6.2970   0.2613  -0.2517 C.ar           1 S1                 0.0000
      9 ****         6.8620  -1.0310  -0.2546 C.ar           1 S1                 0.0000
     10 ****         6.0077  -2.1526  -0.2477 C.ar           1 S1                 0.0000
     11 ****         4.6680  -1.9776  -0.2397 N.pl3          1 S1                 1.0000
     12 ****        -1.4891   0.0982   1.1507 N.am           1 S1                 0.0000
     13 ****        -2.5213   1.1278   1.0974 C.3            1 S1                 0.0000
     14 ****        -3.7496   0.6354   0.3131 C.3            1 S1                 0.0000
     15 ****        -4.8852   1.6767   0.2837 C.3            1 S1                 0.0000
     16 ****        -5.9364   1.2231  -0.7337 C.3            1 S1                 0.0000
     17 ****        -4.9992   0.4004  -2.0745 S.o2           1 S1                 0.0000
     18 ****        -5.5662  -0.9369  -2.3053 O.2            1 S1                 0.0000
     19 ****        -4.8045   1.3429  -3.1864 O.2            1 S1                 0.0000
     20 ****        -3.4278   0.2494  -1.1419 C.3            1 S1                 0.0000
     21 ****         0.0309  -1.6829   1.2089 H              1 S1                 0.0000
     22 ****         2.4021  -0.1467   1.8796 H              1 S1                 0.0000
     23 ****         2.2791  -1.8639   1.5728 H              1 S1                 0.0000
     24 ****         2.1711  -1.4341  -0.9034 H              1 S1                 0.0000
     25 ****         2.2641   0.2863  -0.6218 H              1 S1                 0.0000
     26 ****         4.4455   1.3841  -0.2375 H              1 S1                 0.0000
     27 ****         6.9322   1.1352  -0.2552 H              1 S1                 0.0000
     28 ****         7.9348  -1.1594  -0.2613 H              1 S1                 0.0000
     29 ****         6.3526  -3.1763  -0.2482 H              1 S1                 0.0000
     30 ****        -1.8045  -0.8606   1.1752 H              1 S1                 0.0000
     31 ****        -2.8062   1.3841   2.1184 H              1 S1                 0.0000
     32 ****        -2.1365   2.0406   0.6388 H              1 S1                 0.0000
     33 ****        -4.1436  -0.2536   0.8086 H              1 S1                 0.0000
     34 ****        -5.3246   1.8243   1.2706 H              1 S1                 0.0000
     35 ****        -4.4822   2.6399  -0.0328 H              1 S1                 0.0000
     36 ****        -6.6093   0.4877  -0.2924 H              1 S1                 0.0000
     37 ****        -6.5294   2.0452  -1.1342 H              1 S1                 0.0000
     38 ****        -2.7128   0.9445  -1.5834 H              1 S1                 0.0000
     39 ****        -3.0312  -0.7614  -1.2372 H              1 S1                 0.0000
     40 ****         4.0690  -2.8035  -0.2347 H              1 S1                 0.0000
     41 ****         1.3313   1.5521   1.1331 LP             1 S1                 0.0000
     42 ****        -0.2475   2.2641   1.1106 LP             1 S1                 0.0000
@<TRIPOS>BOND
    1    1    2 2     
    2    2    3 am    
    3    2   12 am    
    4    3    4 1     
    5    3   21 1     
    6    4    5 1     
    7    4   22 1     
    8    4   23 1     
    9    5    6 1     
   10    5   24 1     
   11    5   25 1     
   12    6   11 ar    
   13    6    7 ar    
   14    7    8 ar    
   15    7   26 1     
   16    8    9 ar    
   17    8   27 1     
   18    9   10 ar    
   19    9   28 1     
   20   10   11 ar    
   21   10   29 1     
   22   11   40 1     
   23   12   13 1     
   24   12   30 1     
   25   13   14 1     
   26   13   31 1     
   27   13   32 1     
   28   14   20 1     
   29   14   15 1     
   30   14   33 1     
   31   15   16 1     
   32   15   34 1     
   33   15   35 1     
   34   16   17 1     
   35   16   36 1     
   36   16   37 1     
   37   17   18 2     
   38   17   19 2     
   39   17   20 1     
   40   20   38 1     
   41   20   39 1     
   42    1   41 1     
   43    1   42 1     
@<TRIPOS>SUBSTRUCTURE
      1 S1             1
@<TRIPOS>SET
LONE_PAIRS      STATIC     ATOMS    <user>   **** ""
4 41 42 18 19
DONOR_HYDROGENS      STATIC     ATOMS    <user>   **** ""
3 21 40 30
ATOM$BLUE        STATIC     ATOMS    COLORGROUP SYSTEM
4 41 42 18 19
ATOM$RED        STATIC     ATOMS    COLORGROUP SYSTEM
3 21 40 30
