#       Name:                AV-unprocessed.smi:701
#       Creating user name   scv26
#       Creation time:       Fri Mar 27 00:39:38 2020


#       File generated by GOLD software.
#

@<TRIPOS>MOLECULE
AV-unprocessed.smi:701
    57    59     1
SMALL
NO_CHARGES


@<TRIPOS>ATOM
      1 ****        -2.8732   2.3363  -1.5375 C.3            1 S1                 0.0000
      2 ****        -1.3648   2.4306  -1.7753 C.3            1 S1                 0.0000
      3 ****        -0.8006   1.1402  -1.6154 O.3            1 S1                 0.0000
      4 ****         0.6128   1.1190  -1.7733 C.3            1 S1                 0.0000
      5 ****         1.3466   1.5021  -0.4822 C.3            1 S1                 0.0000
      6 ****         1.4044   0.0075  -0.1353 C.3            1 S1                 0.0000
      7 ****         0.2777  -0.3989   0.7054 N.am           1 S1                 0.0000
      8 ****         0.1819  -0.1635   2.0213 C.2            1 S1                 0.0000
      9 ****         1.0545   0.4236   2.6630 O.2            1 S1                 0.0000
     10 ****        -1.1134  -0.6410   2.6929 C.3            1 S1                 0.0000
     11 ****        -1.0349  -0.6612   4.1624 N.am           1 S1                 0.0000
     12 ****        -1.4901   0.4753   4.8538 C.2            1 S1                 0.0000
     13 ****        -1.4471   0.5542   6.1972 C.2            1 S1                 0.0000
     14 ****        -0.9115  -0.5810   6.9380 C.2            1 S1                 0.0000
     15 ****        -0.8697  -0.5289   8.1657 O.2            1 S1                 0.0000
     16 ****        -0.4780  -1.6592   6.2215 N.pl3          1 S1                -1.0000
     17 ****        -0.5229  -1.7231   4.8544 C.2            1 S1                 0.0000
     18 ****        -0.1195  -2.7031   4.2271 O.2            1 S1                 0.0000
     19 ****         1.2027  -0.3109  -1.6436 C.3            1 S1                 0.0000
     20 ****         0.2763  -1.4894  -2.0185 C.3            1 S1                 0.0000
     21 ****         0.0253  -1.5925  -3.5321 C.3            1 S1                 0.0000
     22 ****         1.3422  -1.7485  -4.3017 C.3            1 S1                 0.0000
     23 ****         2.3292  -0.6332  -3.9377 C.3            1 S1                 0.0000
     24 ****         2.5222  -0.5327  -2.4140 C.3            1 S1                 0.0000
     25 ****        -3.3482   3.3106  -1.6532 H              1 S1                 0.0000
     26 ****        -3.0880   1.9759  -0.5312 H              1 S1                 0.0000
     27 ****        -3.3387   1.6507  -2.2461 H              1 S1                 0.0000
     28 ****        -1.1674   2.8029  -2.7815 H              1 S1                 0.0000
     29 ****        -0.9230   3.1353  -1.0702 H              1 S1                 0.0000
     30 ****         0.9522   1.6588  -2.6583 H              1 S1                 0.0000
     31 ****         2.3334   1.9266  -0.6709 H              1 S1                 0.0000
     32 ****         0.7806   2.1229   0.2130 H              1 S1                 0.0000
     33 ****         2.3739  -0.3111   0.2512 H              1 S1                 0.0000
     34 ****        -0.4848  -0.8793   0.2501 H              1 S1                 0.0000
     35 ****        -1.9246   0.0127   2.3697 H              1 S1                 0.0000
     36 ****        -1.3753  -1.6297   2.3115 H              1 S1                 0.0000
     37 ****        -1.8638   1.2736   4.2296 H              1 S1                 0.0000
     38 ****        -1.7962   1.4365   6.7129 H              1 S1                 0.0000
     39 ****         0.7056  -2.4267  -1.6621 H              1 S1                 0.0000
     40 ****        -0.6901  -1.4072  -1.5211 H              1 S1                 0.0000
     41 ****        -0.6298  -2.4378  -3.7444 H              1 S1                 0.0000
     42 ****        -0.4994  -0.7009  -3.8779 H              1 S1                 0.0000
     43 ****         1.7867  -2.7159  -4.0650 H              1 S1                 0.0000
     44 ****         1.1536  -1.7483  -5.3756 H              1 S1                 0.0000
     45 ****         3.2885  -0.8160  -4.4225 H              1 S1                 0.0000
     46 ****         1.9654   0.3173  -4.3288 H              1 S1                 0.0000
     47 ****         3.2288   0.2713  -2.2060 H              1 S1                 0.0000
     48 ****         3.0086  -1.4421  -2.0583 H              1 S1                 0.0000
     49 ****        -1.2050   0.5305  -2.2971 LP             1 S1                 0.0000
     50 ****        -1.0222   0.8085  -0.6984 LP             1 S1                 0.0000
     51 ****         1.8806   0.7484   2.2025 LP             1 S1                 0.0000
     52 ****         0.9367   0.5753   3.6444 LP             1 S1                 0.0000
     53 ****        -1.2006   0.2850   8.6431 LP             1 S1                 0.0000
     54 ****        -0.5047  -1.3005   8.6867 LP             1 S1                 0.0000
     55 ****        -0.1085  -2.4429   6.7209 LP             1 S1                 0.0000
     56 ****        -0.1696  -2.7129   3.2284 LP             1 S1                 0.0000
     57 ****         0.2583  -3.4892   4.7164 LP             1 S1                 0.0000
@<TRIPOS>BOND
    1    1    2 1     
    2    1   25 1     
    3    1   26 1     
    4    1   27 1     
    5    2    3 1     
    6    2   28 1     
    7    2   29 1     
    8    3    4 1     
    9    4   19 1     
   10    4    5 1     
   11    4   30 1     
   12    5    6 1     
   13    5   31 1     
   14    5   32 1     
   15    6    7 1     
   16    6   19 1     
   17    6   33 1     
   18    7    8 am    
   19    7   34 1     
   20    8    9 2     
   21    8   10 1     
   22   10   11 1     
   23   10   35 1     
   24   10   36 1     
   25   11   17 am    
   26   11   12 1     
   27   12   13 2     
   28   12   37 1     
   29   13   14 1     
   30   13   38 1     
   31   14   15 2     
   32   14   16 1     
   33   16   17 1     
   34   17   18 2     
   35   19   24 1     
   36   19   20 1     
   37   20   21 1     
   38   20   39 1     
   39   20   40 1     
   40   21   22 1     
   41   21   41 1     
   42   21   42 1     
   43   22   23 1     
   44   22   43 1     
   45   22   44 1     
   46   23   24 1     
   47   23   45 1     
   48   23   46 1     
   49   24   47 1     
   50   24   48 1     
   51    3   49 1     
   52    3   50 1     
   53    9   51 1     
   54    9   52 1     
   55   15   53 1     
   56   15   54 1     
   57   16   55 1     
   58   18   56 1     
   59   18   57 1     
@<TRIPOS>SUBSTRUCTURE
      1 S1             1
@<TRIPOS>SET
LONE_PAIRS      STATIC     ATOMS    <user>   **** ""
9 49 50 51 52 53 54 55 56 57
DONOR_HYDROGENS      STATIC     ATOMS    <user>   **** ""
1 34
ATOM$BLUE        STATIC     ATOMS    COLORGROUP SYSTEM
9 49 50 51 52 53 54 55 56 57
ATOM$RED        STATIC     ATOMS    COLORGROUP SYSTEM
1 34
