AV-unprocessed.smi:48|AV-procd|sdf|453|dock5
  -GOLD-   2262016323D 1   1.00000     0.00000
 Structure written by MMmdl.
 30 32  0  0  0  0  0  0  0  0  1 V2000
  147.4233  138.8269  151.5326 O   0  0  0  0  0  0  0  0  0  0  0  0
  146.7481  138.5926  152.7500 C   0  0  0  0  0  0  0  0  0  0  0  0
  147.2842  139.5357  153.8373 C   0  0  1  0  0  0  0  0  0  0  0  0
  148.6068  139.9455  153.5150 O   0  0  0  0  0  0  0  0  0  0  0  0
  148.9164  141.1016  154.2293 C   0  0  2  0  0  0  0  0  0  0  0  0
  149.5478  140.7120  155.5324 N   0  0  0  0  0  0  0  0  0  0  0  0
  149.0547  140.7997  156.7873 C   0  0  0  0  0  0  0  0  0  0  0  0
  149.8228  140.3536  157.7812 N   0  0  0  0  0  0  0  0  0  0  0  0
  150.9366  139.9058  157.0907 C   0  0  0  0  0  0  0  0  0  0  0  0
  152.1481  139.3014  157.5060 C   0  0  0  0  0  0  0  0  0  0  0  0
  152.4634  138.9957  159.1749 Cl  0  0  0  0  0  0  0  0  0  0  0  0
  153.0573  138.9642  156.5601 N   0  0  0  0  0  0  0  0  0  0  0  0
  152.7859  139.2083  155.2718 C   0  0  0  0  0  0  0  0  0  0  0  0
  151.6959  139.7677  154.7332 N   0  0  0  0  0  0  0  0  0  0  0  0
  150.7837  140.1100  155.6906 C   0  0  0  0  0  0  0  0  0  0  0  0
  147.5860  141.8375  154.4769 C   0  0  1  0  0  0  0  0  0  0  0  0
  147.5431  143.0727  153.7932 O   0  0  0  0  0  0  0  0  0  0  0  0
  146.5431  140.8743  153.9097 C   0  0  2  0  0  0  0  0  0  0  0  0
  145.4346  140.7727  154.7805 O   0  0  0  0  0  0  0  0  0  0  0  0
  147.2733  139.0519  154.8161 H   0  0  0  0  0  0  0  0  0  0  0  0
  149.6827  141.6931  153.7263 H   0  0  0  0  0  0  0  0  0  0  0  0
  147.4423  142.0078  155.5454 H   0  0  0  0  0  0  0  0  0  0  0  0
  146.2213  141.1837  152.9135 H   0  0  0  0  0  0  0  0  0  0  0  0
  148.0993  139.4698  151.6831 H   0  0  0  0  0  0  0  0  0  0  0  0
  145.6719  138.7083  152.6176 H   0  0  0  0  0  0  0  0  0  0  0  0
  146.9307  137.5550  153.0311 H   0  0  0  0  0  0  0  0  0  0  0  0
  148.0774  141.2130  156.9891 H   0  0  0  0  0  0  0  0  0  0  0  0
  153.5520  138.9128  154.5702 H   0  0  0  0  0  0  0  0  0  0  0  0
  147.8820  143.7435  154.3665 H   0  0  0  0  0  0  0  0  0  0  0  0
  144.6545  140.6639  154.2581 H   0  0  0  0  0  0  0  0  0  0  0  0
  1  2  1  0  0  0  0
  1 24  1  0  0  0  0
  2  3  1  0  0  0  0
  2 25  1  0  0  0  0
  2 26  1  0  0  0  0
  3 20  1  0  0  0  0
  3 18  1  0  0  0  0
  3  4  1  0  0  0  0
  4  5  1  0  0  0  0
  5 21  1  0  0  0  0
  5  6  1  0  0  0  0
  5 16  1  0  0  0  0
  6 15  1  0  0  0  0
  6  7  1  0  0  0  0
  7  8  2  0  0  0  0
  7 27  1  0  0  0  0
  8  9  1  0  0  0  0
  9 15  2  0  0  0  0
  9 10  1  0  0  0  0
 10 11  1  0  0  0  0
 10 12  2  0  0  0  0
 12 13  1  0  0  0  0
 13 14  2  0  0  0  0
 13 28  1  0  0  0  0
 14 15  1  0  0  0  0
 16 22  1  0  0  0  0
 16 17  1  0  0  0  0
 16 18  1  0  0  0  0
 17 29  1  0  0  0  0
 18 23  1  0  0  0  0
 18 19  1  0  0  0  0
 19 30  1  0  0  0  0
M  END
> <s_m_source_file>
AV-unprocessed.smi

> <i_m_source_file_index>
48

> <i_lp_mmshare_version>
43012

> <i_f3d_flags>
0

> <s_epik_input>
W09IXVtDSDJdW0NASF0xT1tDQEhdKFtDQEhdKFtPSF0pW0NAQEhdMVtPSF0pbihbY0hdbjIpYyhjMjMpbltjSF1uYzNDbA==

> <s_epik_cmdline>
J2VwaWtfcHl0aG9uJywgJy1waCcsICc3LjAnLCAnLXRuJywgJzgnLCAnLW1hJywgJzIwMCcsICctbWV0YWxfYmluZGluZycsICctaW1hZScsICc8aW5maWxlLm1hZT4nLCAnLW9tYWUnLCAnPG91dGZpbGUubWFlPic=

> <r_lp_tautomer_probability>
1

> <r_epik_Ionization_Penalty>
3.45505e-06

> <r_epik_Ionization_Penalty_Charging>
0

> <r_epik_Ionization_Penalty_Neutral>
3.45505e-06

> <r_epik_State_Penalty>
-0

> <r_epik_Charging_Adjusted_Penalty>
0

> <i_epik_Tot_Q>
0

> <i_epik_Tot_abs_Q>
0

> <r_epik_Metal_State_Penalty>
-0

> <b_epik_Metal_Only>
0

> <s_epik_Chemistry_Notes>
This compound contains an acetal/aminal-like group ( X-CH(R)-Y where X, Y are N, S, or O) that may be acid/base labile, releasing an aldehyde.

> <s_lp_Force_Field>
OPLS_2005

> <r_lp_Energy>
31.0033

> <b_lp_Chiralities_Consistent>
1

> <s_lp_Variant>
AV-unprocessed.smi:48-7

> <Gold.Version>
5.8.1

> <Gold.Id.Protein>
6NUR|6NUR_protein|mol2

> <Gold.PLP.Fitness>
43.6895

> <Gold.PLP.PLP>
-27.9304

> <Gold.PLP.part.hbond>
-8.8494

> <Gold.PLP.part.metal>
0.0000

> <Gold.PLP.part.buried>
-0.3214

> <Gold.PLP.part.nonpolar>
-22.2059

> <Gold.PLP.part.repulsive>
3.7604

> <Gold.PLP.ligand.clash>
0.0000

> <Gold.PLP.ligand.torsion>
0.5362

> <Gold.PLP.Chemscore.Hbond>
5.6000

> <Gold.PLP.Chemscore.CHOScore>
0.0000

> <Gold.PLP.Chemscore.Metal>
0.0000

> <Gold.Chemscore.Hbonds>
donor molecule, donor type, donor heavy atom, donor atom, acceptor molecule, acceptor atom, score
      L1  H     1    24       P1  7957  0.86
      L1  H    17    29       P1  8028  1.00
      L1  H    19    30       P1 10175  1.00
      P1  H  7954  7966       L1     1  0.91
      P1  H  7989  7998       L1    14  1.00
      P1  H  7997  8008       L1    12  0.83

> <Gold.PLP.Chemscore.Internal.Correction>
0.0313

> <Gold.Rescore>
     Score         DG    S(hbond)    S(metal)    S(lipo)     H(rot)  DE(clash)    DE(int)     intcor
     10.13     -12.70       3.74        0.00      38.26       3.80       2.03       0.54       ----

> <Gold.Chemscore.Fitness>
10.1299

> <Gold.Chemscore.DG>
-12.7036

> <Gold.Chemscore.ZeroCoef>
-5.4800

> <Gold.Chemscore.Hbond>
3.7365

> <Gold.Chemscore.Metal>
0.0000

> <Gold.Chemscore.Lipo>
38.2567

> <Gold.Chemscore.Internal_Hbond>
0.0000

> <Gold.Chemscore.DEClash>
2.0306

> <Gold.Chemscore.DEInternal>
0.5430

> <Gold.Chemscore.Rot>
3.8017

> <Gold.Chemscore.Internal.Correction>
   9.000000E+99

> <Gold.Chemscore.Hbonds>
donor molecule, donor type, donor heavy atom, donor atom, acceptor molecule, acceptor atom, score
      L1  H     1    24       P1  7957  0.84
      L1  H    17    29       P1  8028  0.50
      L1  H    19    30       P1 10175  0.90
      P1  H  7954  7966       L1     1  0.21
      P1  H  7989  7998       L1    14  0.72
      P1  H  7997  8008       L1    12  0.16

> <Gold.Chemscore.Hbond.Weighted>
-12.4799

> <Gold.Chemscore.Metal.Weighted>
-0.0000

> <Gold.Chemscore.Lipo.Weighted>
-4.4760

> <Gold.Chemscore.Internal_Hbond.Weighted>
0.0000

> <Gold.Chemscore.DEClash.Weighted>
2.0306

> <Gold.Chemscore.DEInternal.Weighted>
0.5430

> <Gold.Chemscore.Rot.Weighted>
9.7324

> <Gold.Chemscore.Internal.Correction.Weighted>
   9.000000E+99

> <Gold.Protein.RotatedTorsions>
[ 6907 6896 6895 6894 ] final   -9.98 input  -60.11 | X-H torsion
[ 7974 7965 7964 7962 ] final  104.10 input  175.53 | X-H torsion
[ 8008 7997 7996 7995 ] final  -78.14 input   59.86 | X-H torsion
[ 10167 10162 10161 10158 ] final  -25.43 input  -65.29 | X-H torsion
[ 10718 10713 10712 10709 ] final -150.10 input   66.30 | X-H torsion
[ 10763 10752 10751 10750 ] final   38.43 input  -60.55 | X-H torsion
[ 11005 11000 10999 10996 ] final    7.98 input  -57.11 | X-H torsion

> <Gold.Protein.ActiveResidues>
 VAL166  LYS551  ARG553  GLY616  TRP617  ASP618  TYR619  PRO620  LYS621  CYS622 
 ASP623  PHE694  ASN695  SER759  ASP760  ASP761  ALA762  ILE779  LEU786  VAL792 
 PHE793  MET794  SER795  GLU796  ALA797  LYS798  CYS799  TRP800  GLU811  SER814 

> <Gold.Protein.RotatedAtoms>
  151.4092  135.0982  159.9579 H   0  0  0  0  0  0  0  0  0  0  0  0  # atno 6907 bound_to 6896
  152.5025  133.8813  159.7358 H   0  0  0  0  0  0  0  0  0  0  0  0  # atno 6908 bound_to 6896
  150.9304  133.6716  159.2840 H   0  0  0  0  0  0  0  0  0  0  0  0  # atno 6909 bound_to 6896
  145.3372  139.2471  143.3629 H   0  0  0  0  0  0  0  0  0  0  0  0  # atno 7974 bound_to 7965
  154.5662  140.0699  156.8895 H   0  0  0  0  0  0  0  0  0  0  0  0  # atno 8008 bound_to 7997
  155.2719  140.3366  155.4246 H   0  0  0  0  0  0  0  0  0  0  0  0  # atno 8009 bound_to 7997
  156.2082  140.1748  156.7739 H   0  0  0  0  0  0  0  0  0  0  0  0  # atno 8010 bound_to 7997
  140.7286  143.4265  151.0868 H   0  0  0  0  0  0  0  0  0  0  0  0  # atno 10167 bound_to 10162
  156.4418  130.8125  151.2355 H   0  0  0  0  0  0  0  0  0  0  0  0  # atno 10718 bound_to 10713
  153.0001  135.6249  154.2304 H   0  0  0  0  0  0  0  0  0  0  0  0  # atno 10763 bound_to 10752
  154.2046  135.2802  155.2981 H   0  0  0  0  0  0  0  0  0  0  0  0  # atno 10764 bound_to 10752
  154.5656  135.5692  153.7106 H   0  0  0  0  0  0  0  0  0  0  0  0  # atno 10765 bound_to 10752
  140.5421  134.0364  155.7908 H   0  0  0  0  0  0  0  0  0  0  0  0  # atno 11005 bound_to 11000
  146.3022  140.3961  142.8700 LP  0  0  0  0  0  0  0  0  0  0  0  0  # atno 17320 bound_to 7965
  144.8818  140.7411  143.5981 LP  0  0  0  0  0  0  0  0  0  0  0  0  # atno 17321 bound_to 7965
  139.7917  143.8208  152.3152 LP  0  0  0  0  0  0  0  0  0  0  0  0  # atno 17342 bound_to 10162
  139.8195  144.7302  150.9591 LP  0  0  0  0  0  0  0  0  0  0  0  0  # atno 17343 bound_to 10162
  157.7506  131.0166  150.3550 LP  0  0  0  0  0  0  0  0  0  0  0  0  # atno 17370 bound_to 10713
  156.3909  130.3898  149.7030 LP  0  0  0  0  0  0  0  0  0  0  0  0  # atno 17371 bound_to 10713
  141.1221  133.9444  157.2709 LP  0  0  0  0  0  0  0  0  0  0  0  0  # atno 17394 bound_to 11000
  139.9498  135.0177  156.8961 LP  0  0  0  0  0  0  0  0  0  0  0  0  # atno 17395 bound_to 11000

$$$$
