AV-unprocessed.smi:1714|AV-procd|sdf|6908|dock1
  -GOLD-   22720 8113D 1   1.00000     0.00000
 Structure written by MMmdl.
 46 47  0  0  0  0  0  0  0  0  2 V2000
  147.6656  133.0048  152.4053 C   0  0  0  0  0  0  0  0  0  0  0  0
  146.4061  133.0447  151.5550 C   0  0  0  0  0  0  0  0  0  0  0  0
  145.9012  131.8435  151.0129 C   0  0  0  0  0  0  0  0  0  0  0  0
  144.7363  131.8816  150.2281 C   0  0  0  0  0  0  0  0  0  0  0  0
  144.1208  133.1274  150.0175 C   0  0  0  0  0  0  0  0  0  0  0  0
  144.5956  134.2795  150.5328 N   0  0  0  0  0  0  0  0  0  0  0  0
  145.7187  134.2602  151.2937 C   0  0  0  0  0  0  0  0  0  0  0  0
  146.2749  135.4367  151.8708 N   0  0  0  0  0  0  0  0  0  0  0  0
  145.6484  136.4079  152.5579 C   0  0  0  0  0  0  0  0  0  0  0  0
  144.4428  136.4440  152.8058 O   0  0  0  0  0  0  0  0  0  0  0  0
  146.5110  137.3576  152.9497 N   0  0  0  0  0  0  0  0  0  0  0  0
  146.1716  138.5432  153.7376 C   0  0  0  0  0  0  0  0  0  0  0  0
  146.9312  139.8378  153.3112 C   0  0  0  0  0  0  0  0  0  0  0  0
  148.3595  139.7631  153.9132 C   0  0  0  0  0  0  0  0  0  0  0  0
  147.0722  139.9159  151.7710 C   0  0  0  0  0  0  0  0  0  0  0  0
  146.1771  141.0315  153.8477 N   0  3  0  0  0  0  0  0  0  0  0  0
  145.8384  141.0028  155.3002 C   0  0  0  0  0  0  0  0  0  0  0  0
  144.9476  142.1991  155.6810 C   0  0  0  0  0  0  0  0  0  0  0  0
  145.5834  143.4177  155.3253 O   0  0  0  0  0  0  0  0  0  0  0  0
  145.8136  143.4960  153.9265 C   0  0  0  0  0  0  0  0  0  0  0  0
  146.7607  142.3615  153.5064 C   0  0  0  0  0  0  0  0  0  0  0  0
  148.0774  131.9966  152.4586 H   0  0  0  0  0  0  0  0  0  0  0  0
  147.4484  133.3328  153.4221 H   0  0  0  0  0  0  0  0  0  0  0  0
  148.4325  133.6565  151.9858 H   0  0  0  0  0  0  0  0  0  0  0  0
  146.3981  130.9018  151.1948 H   0  0  0  0  0  0  0  0  0  0  0  0
  144.3254  130.9799  149.7990 H   0  0  0  0  0  0  0  0  0  0  0  0
  143.2237  133.2017  149.4208 H   0  0  0  0  0  0  0  0  0  0  0  0
  147.2714  135.5434  151.7524 H   0  0  0  0  0  0  0  0  0  0  0  0
  147.4821  137.2455  152.6968 H   0  0  0  0  0  0  0  0  0  0  0  0
  145.0914  138.6776  153.7074 H   0  0  0  0  0  0  0  0  0  0  0  0
  146.4052  138.3132  154.7778 H   0  0  0  0  0  0  0  0  0  0  0  0
  148.8811  138.8517  153.6207 H   0  0  0  0  0  0  0  0  0  0  0  0
  148.3358  139.7859  155.0033 H   0  0  0  0  0  0  0  0  0  0  0  0
  148.9944  140.5801  153.5700 H   0  0  0  0  0  0  0  0  0  0  0  0
  147.7265  139.1315  151.3900 H   0  0  0  0  0  0  0  0  0  0  0  0
  147.5032  140.8649  151.4522 H   0  0  0  0  0  0  0  0  0  0  0  0
  146.1140  139.7976  151.2646 H   0  0  0  0  0  0  0  0  0  0  0  0
  145.2856  140.1039  155.5670 H   0  0  0  0  0  0  0  0  0  0  0  0
  146.7515  141.0134  155.8965 H   0  0  0  0  0  0  0  0  0  0  0  0
  143.9743  142.1296  155.1920 H   0  0  0  0  0  0  0  0  0  0  0  0
  144.7622  142.2004  156.7551 H   0  0  0  0  0  0  0  0  0  0  0  0
  144.8705  143.4436  153.3800 H   0  0  0  0  0  0  0  0  0  0  0  0
  146.2613  144.4635  153.6982 H   0  0  0  0  0  0  0  0  0  0  0  0
  147.7149  142.4954  154.0169 H   0  0  0  0  0  0  0  0  0  0  0  0
  146.9556  142.4577  152.4408 H   0  0  0  0  0  0  0  0  0  0  0  0
  145.2841  140.9990  153.3767 H   0  0  0  0  0  0  0  0  0  0  0  0
  1  2  1  0  0  0  0
  1 22  1  0  0  0  0
  1 23  1  0  0  0  0
  1 24  1  0  0  0  0
  2  7  1  0  0  0  0
  2  3  2  0  0  0  0
  3  4  1  0  0  0  0
  3 25  1  0  0  0  0
  4  5  2  0  0  0  0
  4 26  1  0  0  0  0
  5  6  1  0  0  0  0
  5 27  1  0  0  0  0
  6  7  2  0  0  0  0
  7  8  1  0  0  0  0
  8  9  1  0  0  0  0
  8 28  1  0  0  0  0
  9 10  2  0  0  0  0
  9 11  1  0  0  0  0
 11 12  1  0  0  0  0
 11 29  1  0  0  0  0
 12 13  1  0  0  0  0
 12 30  1  0  0  0  0
 12 31  1  0  0  0  0
 13 14  1  0  0  0  0
 13 15  1  0  0  0  0
 13 16  1  0  0  0  0
 14 32  1  0  0  0  0
 14 33  1  0  0  0  0
 14 34  1  0  0  0  0
 15 35  1  0  0  0  0
 15 36  1  0  0  0  0
 15 37  1  0  0  0  0
 16 21  1  0  0  0  0
 16 17  1  0  0  0  0
 16 46  1  0  0  0  0
 17 18  1  0  0  0  0
 17 38  1  0  0  0  0
 17 39  1  0  0  0  0
 18 19  1  0  0  0  0
 18 40  1  0  0  0  0
 18 41  1  0  0  0  0
 19 20  1  0  0  0  0
 20 21  1  0  0  0  0
 20 42  1  0  0  0  0
 20 43  1  0  0  0  0
 21 44  1  0  0  0  0
 21 45  1  0  0  0  0
M  CHG  1  16   1
M  END
> <s_m_source_file>
AV-unprocessed.smi

> <i_m_source_file_index>
1714

> <i_lp_mmshare_version>
43012

> <i_f3d_flags>
0

> <s_epik_input>
W0NIM11jMVtjSF1bY0hdW2NIXW5jMVtOSF1DKD1PKVtOSF1bQ0gyXUMoW0NIM10pKFtDSDNdKU4yW0NIMl1bQ0gyXU9bQ0gyXVtDSDJdMg==

> <s_epik_cmdline>
J2VwaWtfcHl0aG9uJywgJy1waCcsICc3LjAnLCAnLXRuJywgJzgnLCAnLW1hJywgJzIwMCcsICctbWV0YWxfYmluZGluZycsICctaW1hZScsICc8aW5maWxlLm1hZT4nLCAnLW9tYWUnLCAnPG91dGZpbGUubWFlPic=

> <r_epik_Ionization_Penalty>
0.602574

> <r_epik_Ionization_Penalty_Charging>
0.602531

> <r_epik_Ionization_Penalty_Neutral>
4.31176e-05

> <r_epik_State_Penalty>
0.617039

> <r_epik_Charging_Adjusted_Penalty>
1.21957

> <i_epik_Tot_Q>
1

> <i_epik_Tot_abs_Q>
1

> <r_epik_Metal_State_Penalty>
0.617042

> <b_epik_Metal_Only>
0

> <s_lp_Force_Field>
OPLS_2005

> <r_lp_Energy>
27.6878

> <b_lp_Chiralities_Consistent>
1

> <s_lp_Variant>
AV-unprocessed.smi:1714-2

> <Gold.Version>
5.8.1

> <Gold.Id.Protein>
6NUR|6NUR_protein|mol2

> <Gold.PLP.Fitness>
48.1802

> <Gold.PLP.PLP>
-34.7395

> <Gold.PLP.part.hbond>
-3.0000

> <Gold.PLP.part.metal>
0.0000

> <Gold.PLP.part.buried>
-2.5998

> <Gold.PLP.part.nonpolar>
-30.1998

> <Gold.PLP.part.repulsive>
0.5511

> <Gold.PLP.ligand.clash>
0.0000

> <Gold.PLP.ligand.torsion>
0.8839

> <Gold.PLP.Chemscore.Hbond>
4.0000

> <Gold.PLP.Chemscore.CHOScore>
1.0000

> <Gold.PLP.Chemscore.Metal>
0.0000

> <Gold.Chemscore.Hbonds>
donor molecule, donor type, donor heavy atom, donor atom, acceptor molecule, acceptor atom, score
      L1  H     8    28       P1  7948  1.00
      L1  H    11    29       P1  7948  1.00
      L1  H    16    46       P1 10175  2.00
      L1  C     5    27       P1 10186  1.00

> <Gold.PLP.Chemscore.Internal.Correction>
0.2085

> <Gold.Rescore>
     Score         DG    S(hbond)    S(metal)    S(lipo)     H(rot)  DE(clash)    DE(int)     intcor
     19.57     -21.72       2.93        0.00      87.80       1.49       1.25       0.89       ----

> <Gold.Chemscore.Fitness>
19.5724

> <Gold.Chemscore.DG>
-21.7155

> <Gold.Chemscore.ZeroCoef>
-5.4800

> <Gold.Chemscore.Hbond>
2.9297

> <Gold.Chemscore.Metal>
0.0000

> <Gold.Chemscore.Lipo>
87.7970

> <Gold.Chemscore.Internal_Hbond>
0.0000

> <Gold.Chemscore.DEClash>
1.2493

> <Gold.Chemscore.DEInternal>
0.8938

> <Gold.Chemscore.Rot>
1.4930

> <Gold.Chemscore.Internal.Correction>
   9.000000E+99

> <Gold.Chemscore.Hbonds>
donor molecule, donor type, donor heavy atom, donor atom, acceptor molecule, acceptor atom, score
      L1  H     8    28       P1  7948  1.00
      L1  H    11    29       P1  7948  0.95
      L1  H    16    46       P1 10175  0.55

> <Gold.Chemscore.Hbond.Weighted>
-9.7852

> <Gold.Chemscore.Metal.Weighted>
-0.0000

> <Gold.Chemscore.Lipo.Weighted>
-10.2722

> <Gold.Chemscore.Internal_Hbond.Weighted>
0.0000

> <Gold.Chemscore.DEClash.Weighted>
1.2493

> <Gold.Chemscore.DEInternal.Weighted>
0.8938

> <Gold.Chemscore.Rot.Weighted>
3.8220

> <Gold.Chemscore.Internal.Correction.Weighted>
   9.000000E+99

> <Gold.Protein.RotatedTorsions>
[ 6907 6896 6895 6894 ] final -141.24 input  -60.11 | X-H torsion
[ 7974 7965 7964 7962 ] final   43.91 input  175.53 | X-H torsion
[ 8008 7997 7996 7995 ] final  -97.10 input   59.86 | X-H torsion
[ 10167 10162 10161 10158 ] final -142.44 input  -65.29 | X-H torsion
[ 10718 10713 10712 10709 ] final  127.98 input   66.30 | X-H torsion
[ 10763 10752 10751 10750 ] final  -27.78 input  -60.55 | X-H torsion
[ 11005 11000 10999 10996 ] final  126.12 input  -57.11 | X-H torsion

> <Gold.Protein.ActiveResidues>
 VAL166  LYS551  ARG553  GLY616  TRP617  ASP618  TYR619  PRO620  LYS621  CYS622 
 ASP623  PHE694  ASN695  SER759  ASP760  ASP761  ALA762  ILE779  LEU786  VAL792 
 PHE793  MET794  SER795  GLU796  ALA797  LYS798  CYS799  TRP800  GLU811  SER814 

> <Gold.Protein.RotatedAtoms>
  151.0712  133.5464  159.2626 H   0  0  0  0  0  0  0  0  0  0  0  0  # atno 6907 bound_to 6896
  151.2403  135.0586  159.9032 H   0  0  0  0  0  0  0  0  0  0  0  0  # atno 6908 bound_to 6896
  152.5412  134.0488  159.8154 H   0  0  0  0  0  0  0  0  0  0  0  0  # atno 6909 bound_to 6896
  146.0614  139.5133  142.9656 H   0  0  0  0  0  0  0  0  0  0  0  0  # atno 7974 bound_to 7965
  154.7832  140.0466  157.1143 H   0  0  0  0  0  0  0  0  0  0  0  0  # atno 8008 bound_to 7997
  154.9680  140.3086  155.4981 H   0  0  0  0  0  0  0  0  0  0  0  0  # atno 8009 bound_to 7997
  156.2939  140.2258  156.4770 H   0  0  0  0  0  0  0  0  0  0  0  0  # atno 8010 bound_to 7997
  139.8088  143.7731  152.2662 H   0  0  0  0  0  0  0  0  0  0  0  0  # atno 10167 bound_to 10162
  157.5285  131.1098  150.9045 H   0  0  0  0  0  0  0  0  0  0  0  0  # atno 10718 bound_to 10713
  153.7376  135.6934  153.4974 H   0  0  0  0  0  0  0  0  0  0  0  0  # atno 10763 bound_to 10752
  153.2092  135.4409  155.0358 H   0  0  0  0  0  0  0  0  0  0  0  0  # atno 10764 bound_to 10752
  154.8232  135.3432  154.6903 H   0  0  0  0  0  0  0  0  0  0  0  0  # atno 10765 bound_to 10752
  139.9440  134.9632  156.8659 H   0  0  0  0  0  0  0  0  0  0  0  0  # atno 11005 bound_to 11000
  145.6553  141.0253  143.1738 LP  0  0  0  0  0  0  0  0  0  0  0  0  # atno 17320 bound_to 7965
  144.7177  139.8138  143.7393 LP  0  0  0  0  0  0  0  0  0  0  0  0  # atno 17321 bound_to 7965
  139.7874  144.7423  151.0003 LP  0  0  0  0  0  0  0  0  0  0  0  0  # atno 17342 bound_to 10162
  140.7818  143.4478  151.0457 LP  0  0  0  0  0  0  0  0  0  0  0  0  # atno 17343 bound_to 10162
  156.9634  130.5464  149.5287 LP  0  0  0  0  0  0  0  0  0  0  0  0  # atno 17370 bound_to 10713
  156.0405  130.5488  150.8758 LP  0  0  0  0  0  0  0  0  0  0  0  0  # atno 17371 bound_to 10713
  140.5881  134.0288  155.7489 LP  0  0  0  0  0  0  0  0  0  0  0  0  # atno 17394 bound_to 11000
  141.1084  133.9656  157.2955 LP  0  0  0  0  0  0  0  0  0  0  0  0  # atno 17395 bound_to 11000

$$$$
