AV-unprocessed.smi:2249|AV-procd|sdf|9099|dock1
  -GOLD-   2272012293D 1   1.00000     0.00000
 Structure written by MMmdl.
 38 39  0  0  0  0  0  0  0  0  1 V2000
  144.2177  136.6216  153.9056 C   0  0  0  0  0  0  0  0  0  0  0  0
  145.0667  136.3720  152.6452 C   0  0  1  0  0  0  0  0  0  0  0  0
  146.4058  136.9170  152.8667 N   0  0  0  0  0  0  0  0  0  0  0  0
  146.6851  138.0930  153.4479 C   0  0  0  0  0  0  0  0  0  0  0  0
  145.8237  138.8596  153.8795 O   0  0  0  0  0  0  0  0  0  0  0  0
  148.0119  138.3063  153.4927 N   0  0  0  0  0  0  0  0  0  0  0  0
  148.6844  139.3777  153.9908 C   0  0  0  0  0  0  0  0  0  0  0  0
  148.2385  140.6551  154.1942 C   0  0  0  0  0  0  0  0  0  0  0  0
  149.3905  141.3021  154.7265 C   0  0  0  0  0  0  0  0  0  0  0  0
  150.4376  140.4938  154.8348 N   0  0  0  0  0  0  0  0  0  0  0  0
  150.0044  139.2986  154.3782 N   0  0  0  0  0  0  0  0  0  0  0  0
  150.9043  138.1620  154.3539 C   0  0  0  0  0  0  0  0  0  0  0  0
  145.1596  134.8739  152.2534 C   0  0  0  0  0  0  0  0  0  0  0  0
  146.1656  134.6258  151.1084 C   0  0  0  0  0  0  0  0  0  0  0  0
  146.1843  133.1467  150.6909 C   0  0  0  0  0  0  0  0  0  0  0  0
  144.8788  132.7328  150.3085 O   0  0  0  0  0  0  0  0  0  0  0  0
  143.9417  132.8220  151.3744 C   0  0  0  0  0  0  0  0  0  0  0  0
  143.7991  134.2832  151.8306 C   0  0  0  0  0  0  0  0  0  0  0  0
  143.1732  136.3548  153.7487 H   0  0  0  0  0  0  0  0  0  0  0  0
  144.2328  137.6749  154.1876 H   0  0  0  0  0  0  0  0  0  0  0  0
  144.5881  136.0466  154.7549 H   0  0  0  0  0  0  0  0  0  0  0  0
  144.6017  136.9040  151.8131 H   0  0  0  0  0  0  0  0  0  0  0  0
  147.1796  136.3536  152.5455 H   0  0  0  0  0  0  0  0  0  0  0  0
  148.5923  137.5766  153.1061 H   0  0  0  0  0  0  0  0  0  0  0  0
  147.2628  141.0756  154.0031 H   0  0  0  0  0  0  0  0  0  0  0  0
  149.4972  142.3311  155.0361 H   0  0  0  0  0  0  0  0  0  0  0  0
  150.5582  137.4075  155.0606 H   0  0  0  0  0  0  0  0  0  0  0  0
  151.9156  138.4661  154.6278 H   0  0  0  0  0  0  0  0  0  0  0  0
  150.9252  137.7310  153.3526 H   0  0  0  0  0  0  0  0  0  0  0  0
  145.5070  134.3180  153.1261 H   0  0  0  0  0  0  0  0  0  0  0  0
  145.9013  135.2401  150.2465 H   0  0  0  0  0  0  0  0  0  0  0  0
  147.1725  134.9221  151.4028 H   0  0  0  0  0  0  0  0  0  0  0  0
  146.8586  133.0054  149.8461 H   0  0  0  0  0  0  0  0  0  0  0  0
  146.5549  132.5180  151.5020 H   0  0  0  0  0  0  0  0  0  0  0  0
  142.9797  132.4430  151.0288 H   0  0  0  0  0  0  0  0  0  0  0  0
  144.2546  132.1847  152.2029 H   0  0  0  0  0  0  0  0  0  0  0  0
  143.0865  134.3231  152.6538 H   0  0  0  0  0  0  0  0  0  0  0  0
  143.3740  134.8754  151.0194 H   0  0  0  0  0  0  0  0  0  0  0  0
  1  2  1  0  0  0  0
  1 19  1  0  0  0  0
  1 20  1  0  0  0  0
  1 21  1  0  0  0  0
  2  3  1  0  0  0  0
  2 13  1  0  0  0  0
  2 22  1  0  0  0  0
  3  4  1  0  0  0  0
  3 23  1  0  0  0  0
  4  5  2  0  0  0  0
  4  6  1  0  0  0  0
  6  7  1  0  0  0  0
  6 24  1  0  0  0  0
  7 11  1  0  0  0  0
  7  8  2  0  0  0  0
  8  9  1  0  0  0  0
  8 25  1  0  0  0  0
  9 10  2  0  0  0  0
  9 26  1  0  0  0  0
 10 11  1  0  0  0  0
 11 12  1  0  0  0  0
 12 27  1  0  0  0  0
 12 28  1  0  0  0  0
 12 29  1  0  0  0  0
 13 18  1  0  0  0  0
 13 14  1  0  0  0  0
 13 30  1  0  0  0  0
 14 15  1  0  0  0  0
 14 31  1  0  0  0  0
 14 32  1  0  0  0  0
 15 16  1  0  0  0  0
 15 33  1  0  0  0  0
 15 34  1  0  0  0  0
 16 17  1  0  0  0  0
 17 18  1  0  0  0  0
 17 35  1  0  0  0  0
 17 36  1  0  0  0  0
 18 37  1  0  0  0  0
 18 38  1  0  0  0  0
M  END
> <s_m_source_file>
AV-unprocessed.smi

> <i_m_source_file_index>
2249

> <i_lp_mmshare_version>
43012

> <i_f3d_flags>
0

> <s_epik_input>
W0NIMl0xW0NIMl1PW0NIMl1bQ0gyXVtDSF0xW0NASF0oW0NIM10pW05IXUMoPU8pW05IXWMyW2NIXVtjSF1ubjJbQ0gzXQ==

> <s_epik_cmdline>
J2VwaWtfcHl0aG9uJywgJy1waCcsICc3LjAnLCAnLXRuJywgJzgnLCAnLW1hJywgJzIwMCcsICctbWV0YWxfYmluZGluZycsICctaW1hZScsICc8aW5maWxlLm1hZT4nLCAnLW9tYWUnLCAnPG91dGZpbGUubWFlPic=

> <r_lp_tautomer_probability>
1

> <r_epik_Ionization_Penalty>
4.67687e-05

> <r_epik_Ionization_Penalty_Charging>
0

> <r_epik_Ionization_Penalty_Neutral>
4.67687e-05

> <r_epik_State_Penalty>
-0

> <r_epik_Charging_Adjusted_Penalty>
0

> <i_epik_Tot_Q>
0

> <i_epik_Tot_abs_Q>
0

> <r_epik_Metal_State_Penalty>
-0

> <b_epik_Metal_Only>
0

> <s_lp_Force_Field>
OPLS_2005

> <r_lp_Energy>
13.2478

> <b_lp_Chiralities_Consistent>
1

> <s_lp_Variant>
AV-unprocessed.smi:2249-2

> <Gold.Version>
5.8.1

> <Gold.Id.Protein>
6NUR|6NUR_protein|mol2

> <Gold.PLP.Fitness>
41.0493

> <Gold.PLP.PLP>
-29.9139

> <Gold.PLP.part.hbond>
-3.1004

> <Gold.PLP.part.metal>
0.0000

> <Gold.PLP.part.buried>
-4.4034

> <Gold.PLP.part.nonpolar>
-23.2590

> <Gold.PLP.part.repulsive>
1.0572

> <Gold.PLP.ligand.clash>
0.0000

> <Gold.PLP.ligand.torsion>
0.3578

> <Gold.PLP.Chemscore.Hbond>
2.9500

> <Gold.PLP.Chemscore.CHOScore>
0.9936

> <Gold.PLP.Chemscore.Metal>
0.0000

> <Gold.Chemscore.Hbonds>
donor molecule, donor type, donor heavy atom, donor atom, acceptor molecule, acceptor atom, score
      L1  H     3    23       P1  7948  1.00
      L1  H     6    24       P1  7948  1.00
      P1  H  7989  7998       L1    10  0.95
      L1  C     9    26       P1  8028  0.99

> <Gold.PLP.Chemscore.Internal.Correction>
0.0202

> <Gold.Rescore>
     Score         DG    S(hbond)    S(metal)    S(lipo)     H(rot)  DE(clash)    DE(int)     intcor
     13.95     -16.82       2.37        0.00      56.98       1.26       0.13       2.75       ----

> <Gold.Chemscore.Fitness>
13.9543

> <Gold.Chemscore.DG>
-16.8246

> <Gold.Chemscore.ZeroCoef>
-5.4800

> <Gold.Chemscore.Hbond>
2.3653

> <Gold.Chemscore.Metal>
0.0000

> <Gold.Chemscore.Lipo>
56.9832

> <Gold.Chemscore.Internal_Hbond>
0.0000

> <Gold.Chemscore.DEClash>
0.1252

> <Gold.Chemscore.DEInternal>
2.7452

> <Gold.Chemscore.Rot>
1.2588

> <Gold.Chemscore.Internal.Correction>
   9.000000E+99

> <Gold.Chemscore.Hbonds>
donor molecule, donor type, donor heavy atom, donor atom, acceptor molecule, acceptor atom, score
      L1  H     3    23       P1  7948  0.94
      L1  H     6    24       P1  7948  0.97
      P1  H  7989  7998       L1    10  0.14

> <Gold.Chemscore.Hbond.Weighted>
-7.9000

> <Gold.Chemscore.Metal.Weighted>
-0.0000

> <Gold.Chemscore.Lipo.Weighted>
-6.6670

> <Gold.Chemscore.Internal_Hbond.Weighted>
0.0000

> <Gold.Chemscore.DEClash.Weighted>
0.1252

> <Gold.Chemscore.DEInternal.Weighted>
2.7452

> <Gold.Chemscore.Rot.Weighted>
3.2224

> <Gold.Chemscore.Internal.Correction.Weighted>
   9.000000E+99

> <Gold.Protein.RotatedTorsions>
[ 6907 6896 6895 6894 ] final  -77.56 input  -60.11 | X-H torsion
[ 7974 7965 7964 7962 ] final -131.51 input  175.53 | X-H torsion
[ 8008 7997 7996 7995 ] final -132.27 input   59.86 | X-H torsion
[ 10167 10162 10161 10158 ] final   35.85 input  -65.29 | X-H torsion
[ 10718 10713 10712 10709 ] final -172.97 input   66.30 | X-H torsion
[ 10763 10752 10751 10750 ] final  -97.22 input  -60.55 | X-H torsion
[ 11005 11000 10999 10996 ] final   19.90 input  -57.11 | X-H torsion

> <Gold.Protein.ActiveResidues>
 VAL166  LYS551  ARG553  GLY616  TRP617  ASP618  TYR619  PRO620  LYS621  CYS622 
 ASP623  PHE694  ASN695  SER759  ASP760  ASP761  ALA762  ILE779  LEU786  VAL792 
 PHE793  MET794  SER795  GLU796  ALA797  LYS798  CYS799  TRP800  GLU811  SER814 

> <Gold.Protein.RotatedAtoms>
  150.6995  134.4404  159.5289 H   0  0  0  0  0  0  0  0  0  0  0  0  # atno 6907 bound_to 6896
  152.2115  134.8494  160.0506 H   0  0  0  0  0  0  0  0  0  0  0  0  # atno 6908 bound_to 6896
  151.9378  133.3594  159.3991 H   0  0  0  0  0  0  0  0  0  0  0  0  # atno 6909 bound_to 6896
  144.9372  140.7197  143.4869 H   0  0  0  0  0  0  0  0  0  0  0  0  # atno 7974 bound_to 7965
  155.3262  140.0464  157.3041 H   0  0  0  0  0  0  0  0  0  0  0  0  # atno 8008 bound_to 7997
  154.5353  140.2270  155.8699 H   0  0  0  0  0  0  0  0  0  0  0  0  # atno 8009 bound_to 7997
  156.1829  140.3069  155.9189 H   0  0  0  0  0  0  0  0  0  0  0  0  # atno 8010 bound_to 7997
  140.4183  144.1496  150.6145 H   0  0  0  0  0  0  0  0  0  0  0  0  # atno 10167 bound_to 10162
  156.7634  130.9422  151.3118 H   0  0  0  0  0  0  0  0  0  0  0  0  # atno 10718 bound_to 10713
  154.7308  135.5055  153.8961 H   0  0  0  0  0  0  0  0  0  0  0  0  # atno 10763 bound_to 10752
  153.0948  135.6669  153.9792 H   0  0  0  0  0  0  0  0  0  0  0  0  # atno 10764 bound_to 10752
  153.9594  135.3049  155.3413 H   0  0  0  0  0  0  0  0  0  0  0  0  # atno 10765 bound_to 10752
  140.4086  134.1643  155.7666 H   0  0  0  0  0  0  0  0  0  0  0  0  # atno 11005 bound_to 11000
  145.3048  139.1838  143.4670 LP  0  0  0  0  0  0  0  0  0  0  0  0  # atno 17320 bound_to 7965
  146.3271  140.3044  142.8623 LP  0  0  0  0  0  0  0  0  0  0  0  0  # atno 17321 bound_to 7965
  140.4562  143.2467  151.9281 LP  0  0  0  0  0  0  0  0  0  0  0  0  # atno 17342 bound_to 10162
  139.4782  144.5513  151.8381 LP  0  0  0  0  0  0  0  0  0  0  0  0  # atno 17343 bound_to 10162
  157.6724  130.9063  150.0071 LP  0  0  0  0  0  0  0  0  0  0  0  0  # atno 17370 bound_to 10713
  156.1324  130.3643  149.9711 LP  0  0  0  0  0  0  0  0  0  0  0  0  # atno 17371 bound_to 10713
  141.1830  133.8374  157.1190 LP  0  0  0  0  0  0  0  0  0  0  0  0  # atno 17394 bound_to 11000
  140.0284  134.9913  157.0732 LP  0  0  0  0  0  0  0  0  0  0  0  0  # atno 17395 bound_to 11000

$$$$
