AV-unprocessed.smi:1344|AV-procd|sdf|5509|dock8
  -GOLD-   22720 5 93D 1   1.00000     0.00000
 Structure written by MMmdl.
 32 34  0  0  0  0  0  0  0  0  1 V2000
  153.0510  136.6510  159.9453 O   0  0  0  0  0  0  0  0  0  0  0  0
  153.9279  137.4144  160.3503 C   0  0  0  0  0  0  0  0  0  0  0  0
  154.4767  138.5060  159.4297 C   0  0  0  0  0  0  0  0  0  0  0  0
  154.0463  139.8593  159.9173 C   0  0  0  0  0  0  0  0  0  0  0  0
  154.2832  140.4001  161.1575 C   0  0  0  0  0  0  0  0  0  0  0  0
  153.6165  142.0027  161.3107 S   0  0  0  0  0  0  0  0  0  0  0  0
  153.0258  141.8787  159.6511 C   0  0  0  0  0  0  0  0  0  0  0  0
  152.3132  142.8811  158.9291 N   0  0  0  0  0  0  0  0  0  0  0  0
  152.3872  144.2911  159.2988 C   0  0  0  0  0  0  0  0  0  0  0  0
  151.4537  144.9786  158.3072 C   0  0  0  0  0  0  0  0  0  0  0  0
  150.9966  143.8706  157.5020 N   0  0  0  0  0  0  0  0  0  0  0  0
  151.4979  142.6902  157.8730 C   0  0  0  0  0  0  0  0  0  0  0  0
  151.2380  141.6264  157.3139 O   0  0  0  0  0  0  0  0  0  0  0  0
  153.3223  140.7097  159.0737 N   0  0  0  0  0  0  0  0  0  0  0  0
  154.4513  137.3591  161.5844 N   0  0  0  0  0  0  0  0  0  0  0  0
  154.0715  136.4422  162.6091 C   0  0  0  0  0  0  0  0  0  0  0  0
  153.4871  137.0179  163.8809 C   0  0  0  0  0  0  0  0  0  0  0  0
  154.8781  136.4464  163.8895 C   0  0  0  0  0  0  0  0  0  0  0  0
  155.5646  138.4365  159.3877 H   0  0  0  0  0  0  0  0  0  0  0  0
  154.1189  138.3308  158.4141 H   0  0  0  0  0  0  0  0  0  0  0  0
  154.8129  139.9549  161.9868 H   0  0  0  0  0  0  0  0  0  0  0  0
  152.0559  144.4389  160.3278 H   0  0  0  0  0  0  0  0  0  0  0  0
  153.4095  144.6604  159.2047 H   0  0  0  0  0  0  0  0  0  0  0  0
  150.6122  145.4625  158.8044 H   0  0  0  0  0  0  0  0  0  0  0  0
  151.9752  145.7129  157.6925 H   0  0  0  0  0  0  0  0  0  0  0  0
  150.3582  143.9909  156.7289 H   0  0  0  0  0  0  0  0  0  0  0  0
  155.1659  138.0323  161.8212 H   0  0  0  0  0  0  0  0  0  0  0  0
  153.6761  135.4770  162.2957 H   0  0  0  0  0  0  0  0  0  0  0  0
  153.3885  138.0997  163.9519 H   0  0  0  0  0  0  0  0  0  0  0  0
  152.7059  136.4459  164.3776 H   0  0  0  0  0  0  0  0  0  0  0  0
  155.0264  135.4924  164.3912 H   0  0  0  0  0  0  0  0  0  0  0  0
  155.7085  137.1461  163.9664 H   0  0  0  0  0  0  0  0  0  0  0  0
  1  2  2  0  0  0  0
  2  3  1  0  0  0  0
  2 15  1  0  0  0  0
  3  4  1  0  0  0  0
  3 19  1  0  0  0  0
  3 20  1  0  0  0  0
  4 14  1  0  0  0  0
  4  5  2  0  0  0  0
  5  6  1  0  0  0  0
  5 21  1  0  0  0  0
  6  7  1  0  0  0  0
  7  8  1  0  0  0  0
  7 14  2  0  0  0  0
  8 12  1  0  0  0  0
  8  9  1  0  0  0  0
  9 10  1  0  0  0  0
  9 22  1  0  0  0  0
  9 23  1  0  0  0  0
 10 11  1  0  0  0  0
 10 24  1  0  0  0  0
 10 25  1  0  0  0  0
 11 12  1  0  0  0  0
 11 26  1  0  0  0  0
 12 13  2  0  0  0  0
 15 16  1  0  0  0  0
 15 27  1  0  0  0  0
 16 18  1  0  0  0  0
 16 17  1  0  0  0  0
 16 28  1  0  0  0  0
 17 18  1  0  0  0  0
 17 29  1  0  0  0  0
 17 30  1  0  0  0  0
 18 31  1  0  0  0  0
 18 32  1  0  0  0  0
M  END
> <s_m_source_file>
AV-unprocessed.smi

> <i_m_source_file_index>
1344

> <i_lp_mmshare_version>
43012

> <i_f3d_flags>
0

> <s_epik_input>
W0NIMl0xW0NIMl1bQ0hdMVtOSF1DKD1PKVtDSDJdYzJbY0hdc2MobjIpTjNbQ0gyXVtDSDJdW05IXUMzPU8=

> <s_epik_cmdline>
J2VwaWtfcHl0aG9uJywgJy1waCcsICc3LjAnLCAnLXRuJywgJzgnLCAnLW1hJywgJzIwMCcsICctbWV0YWxfYmluZGluZycsICctaW1hZScsICc8aW5maWxlLm1hZT4nLCAnLW9tYWUnLCAnPG91dGZpbGUubWFlPic=

> <r_lp_tautomer_probability>
1

> <r_epik_Ionization_Penalty>
0.000119825

> <r_epik_Ionization_Penalty_Charging>
0

> <r_epik_Ionization_Penalty_Neutral>
0.000119825

> <r_epik_State_Penalty>
-0

> <r_epik_Charging_Adjusted_Penalty>
0

> <i_epik_Tot_Q>
0

> <i_epik_Tot_abs_Q>
0

> <r_epik_Metal_State_Penalty>
-0

> <b_epik_Metal_Only>
0

> <s_lp_Force_Field>
OPLS_2005

> <r_lp_Energy>
42.6691

> <b_lp_Chiralities_Consistent>
1

> <s_lp_Variant>
AV-unprocessed.smi:1344-1

> <Gold.Version>
5.8.1

> <Gold.Id.Protein>
6NUR|6NUR_protein|mol2

> <Gold.PLP.Fitness>
45.4420

> <Gold.PLP.PLP>
-39.8894

> <Gold.PLP.part.hbond>
-2.4701

> <Gold.PLP.part.metal>
0.0000

> <Gold.PLP.part.buried>
-4.9132

> <Gold.PLP.part.nonpolar>
-31.9147

> <Gold.PLP.part.repulsive>
0.0548

> <Gold.PLP.ligand.clash>
0.0000

> <Gold.PLP.ligand.torsion>
0.3303

> <Gold.PLP.Chemscore.Hbond>
2.0574

> <Gold.PLP.Chemscore.CHOScore>
0.0000

> <Gold.PLP.Chemscore.Metal>
0.0000

> <Gold.Chemscore.Hbonds>
donor molecule, donor type, donor heavy atom, donor atom, acceptor molecule, acceptor atom, score
      L1  H    11    26       P1  8028  1.00
      P1  H  6896  6907       L1     1  1.00

> <Gold.PLP.Chemscore.Internal.Correction>
0.0409

> <Gold.Rescore>
     Score         DG    S(hbond)    S(metal)    S(lipo)     H(rot)  DE(clash)    DE(int)     intcor
     15.94     -17.59       1.98        0.00      82.25       1.61       0.01       1.63       ----

> <Gold.Chemscore.Fitness>
15.9450

> <Gold.Chemscore.DG>
-17.5896

> <Gold.Chemscore.ZeroCoef>
-5.4800

> <Gold.Chemscore.Hbond>
1.9758

> <Gold.Chemscore.Metal>
0.0000

> <Gold.Chemscore.Lipo>
82.2525

> <Gold.Chemscore.Internal_Hbond>
0.0000

> <Gold.Chemscore.DEClash>
0.0149

> <Gold.Chemscore.DEInternal>
1.6298

> <Gold.Chemscore.Rot>
1.6067

> <Gold.Chemscore.Internal.Correction>
   9.000000E+99

> <Gold.Chemscore.Hbonds>
donor molecule, donor type, donor heavy atom, donor atom, acceptor molecule, acceptor atom, score
      L1  H    11    26       P1  8028  0.98
      P1  H  6896  6907       L1     1  0.99

> <Gold.Chemscore.Hbond.Weighted>
-6.5992

> <Gold.Chemscore.Metal.Weighted>
-0.0000

> <Gold.Chemscore.Lipo.Weighted>
-9.6235

> <Gold.Chemscore.Internal_Hbond.Weighted>
0.0000

> <Gold.Chemscore.DEClash.Weighted>
0.0149

> <Gold.Chemscore.DEInternal.Weighted>
1.6298

> <Gold.Chemscore.Rot.Weighted>
4.1132

> <Gold.Chemscore.Internal.Correction.Weighted>
   9.000000E+99

> <Gold.Protein.RotatedTorsions>
[ 6907 6896 6895 6894 ] final   45.21 input  -60.11 | X-H torsion
[ 7974 7965 7964 7962 ] final  -34.85 input  175.53 | X-H torsion
[ 8008 7997 7996 7995 ] final   24.35 input   59.86 | X-H torsion
[ 10167 10162 10161 10158 ] final  170.67 input  -65.29 | X-H torsion
[ 10718 10713 10712 10709 ] final  -67.88 input   66.30 | X-H torsion
[ 10763 10752 10751 10750 ] final  -11.68 input  -60.55 | X-H torsion
[ 11005 11000 10999 10996 ] final   60.88 input  -57.11 | X-H torsion

> <Gold.Protein.ActiveResidues>
 VAL166  LYS551  ARG553  GLY616  TRP617  ASP618  TYR619  PRO620  LYS621  CYS622 
 ASP623  PHE694  ASN695  SER759  ASP760  ASP761  ALA762  ILE779  LEU786  VAL792 
 PHE793  MET794  SER795  GLU796  ALA797  LYS798  CYS799  TRP800  GLU811  SER814 

> <Gold.Protein.RotatedAtoms>
  152.2418  134.8220  160.0458 H   0  0  0  0  0  0  0  0  0  0  0  0  # atno 6907 bound_to 6896
  151.8932  133.3516  159.3813 H   0  0  0  0  0  0  0  0  0  0  0  0  # atno 6908 bound_to 6896
  150.7056  134.4829  159.5523 H   0  0  0  0  0  0  0  0  0  0  0  0  # atno 6909 bound_to 6896
  146.0795  140.6088  142.8915 H   0  0  0  0  0  0  0  0  0  0  0  0  # atno 7974 bound_to 7965
  154.9949  140.3118  155.4891 H   0  0  0  0  0  0  0  0  0  0  0  0  # atno 8008 bound_to 7997
  156.2934  140.2242  156.4997 H   0  0  0  0  0  0  0  0  0  0  0  0  # atno 8009 bound_to 7997
  154.7670  140.0455  157.1008 H   0  0  0  0  0  0  0  0  0  0  0  0  # atno 8010 bound_to 7997
  139.5025  144.3570  151.9864 H   0  0  0  0  0  0  0  0  0  0  0  0  # atno 10167 bound_to 10162
  156.0534  130.4285  150.1919 H   0  0  0  0  0  0  0  0  0  0  0  0  # atno 10718 bound_to 10713
  153.4873  135.7017  153.5904 H   0  0  0  0  0  0  0  0  0  0  0  0  # atno 10763 bound_to 10752
  153.4092  135.3853  155.2039 H   0  0  0  0  0  0  0  0  0  0  0  0  # atno 10764 bound_to 10752
  154.8718  135.3900  154.4329 H   0  0  0  0  0  0  0  0  0  0  0  0  # atno 10765 bound_to 10752
  140.0200  134.6167  155.9653 H   0  0  0  0  0  0  0  0  0  0  0  0  # atno 11005 bound_to 11000
  144.7284  140.4596  143.6956 LP  0  0  0  0  0  0  0  0  0  0  0  0  # atno 17320 bound_to 7965
  145.6243  139.1528  143.3005 LP  0  0  0  0  0  0  0  0  0  0  0  0  # atno 17321 bound_to 7965
  140.3007  144.3650  150.6061 LP  0  0  0  0  0  0  0  0  0  0  0  0  # atno 17342 bound_to 10162
  140.5876  143.2169  151.7314 LP  0  0  0  0  0  0  0  0  0  0  0  0  # atno 17343 bound_to 10162
  156.9999  130.9919  151.3393 LP  0  0  0  0  0  0  0  0  0  0  0  0  # atno 17370 bound_to 10713
  157.5482  130.8165  149.8112 LP  0  0  0  0  0  0  0  0  0  0  0  0  # atno 17371 bound_to 10713
  141.1768  133.6541  156.4860 LP  0  0  0  0  0  0  0  0  0  0  0  0  # atno 17394 bound_to 11000
  140.4403  134.7021  157.4988 LP  0  0  0  0  0  0  0  0  0  0  0  0  # atno 17395 bound_to 11000

$$$$
