#       Name:                AV-unprocessed.smi:33
#       Creating user name   scv26
#       Creation time:       Thu Mar 26 15:50:01 2020


#       File generated by GOLD software.
#

@<TRIPOS>MOLECULE
AV-unprocessed.smi:33
    80    85     1
SMALL
NO_CHARGES


@<TRIPOS>ATOM
      1 ****        -3.9543   2.8460   1.7685 O.2            1 S1                 0.0000
      2 ****        -4.4026   2.7431   0.6248 C.2            1 S1                 0.0000
      3 ****        -5.0257   1.6413   0.1616 O.3            1 S1                 0.0000
      4 ****        -5.1592   0.4942   0.9864 C.3            1 S1                 0.0000
      5 ****        -5.4232  -0.7326   0.0985 C.3            1 S1                 0.0000
      6 ****        -4.2469  -1.0078  -0.6693 O.3            1 S1                 0.0000
      7 ****        -3.6719  -2.2238  -0.2890 C.3            1 S1                 0.0000
      8 ****        -2.1801  -2.0913  -0.2361 N.pl3          1 S1                 0.0000
      9 ****        -1.2499  -3.0708  -0.5054 C.2            1 S1                 0.0000
     10 ****        -0.0010  -2.7071  -0.3921 N.2            1 S1                 0.0000
     11 ****        -0.0743  -1.3724  -0.0169 C.ar           1 S1                 0.0000
     12 ****         0.8936  -0.3731   0.2729 C.ar           1 S1                 0.0000
     13 ****         2.2266  -0.5983   0.2076 N.am           1 S1                 0.0000
     14 ****         2.8122  -0.7551  -1.1320 C.2            1 S1                 0.0000
     15 ****         2.2384  -0.2686  -2.1082 O.2            1 S1                 0.0000
     16 ****         4.1234  -1.4657  -1.3131 C.ar           1 S1                 0.0000
     17 ****         5.1357  -0.8886  -2.1108 C.ar           1 S1                 0.0000
     18 ****         6.3619  -1.5568  -2.2949 C.ar           1 S1                 0.0000
     19 ****         6.5757  -2.8146  -1.6996 C.ar           1 S1                 0.0000
     20 ****         5.5596  -3.4086  -0.9270 C.ar           1 S1                 0.0000
     21 ****         4.3340  -2.7404  -0.7406 C.ar           1 S1                 0.0000
     22 ****         2.9633  -0.6511   1.4790 C.2            1 S1                 0.0000
     23 ****         2.3685  -0.9637   2.5123 O.2            1 S1                 0.0000
     24 ****         4.4418  -0.3846   1.5173 C.ar           1 S1                 0.0000
     25 ****         5.2985  -1.2544   2.2273 C.ar           1 S1                 0.0000
     26 ****         6.6836  -1.0036   2.2757 C.ar           1 S1                 0.0000
     27 ****         7.2182   0.1284   1.6314 C.ar           1 S1                 0.0000
     28 ****         6.3661   1.0156   0.9470 C.ar           1 S1                 0.0000
     29 ****         4.9812   0.7652   0.8974 C.ar           1 S1                 0.0000
     30 ****         0.4520   0.8615   0.6264 N.ar           1 S1                 0.0000
     31 ****        -0.8604   1.1027   0.6879 C.ar           1 S1                 0.0000
     32 ****        -1.8732   0.2695   0.4408 N.ar           1 S1                 0.0000
     33 ****        -1.4354  -0.9733   0.0878 C.ar           1 S1                 0.0000
     34 ****        -4.2937  -2.6295   1.0526 C.3            1 S1                 0.0000
     35 ****        -3.5999  -2.1128   2.1751 O.3            1 S1                 0.0000
     36 ****        -5.6743  -2.0233   0.8867 C.3            1 S1                 0.0000
     37 ****        -6.3363  -1.8676   2.0347 F              1 S1                 0.0000
     38 ****        -4.2984   3.8231  -0.3981 C.ar           1 S1                 0.0000
     39 ****        -3.6114   5.0172  -0.0770 C.ar           1 S1                 0.0000
     40 ****        -3.4921   6.0530  -1.0239 C.ar           1 S1                 0.0000
     41 ****        -4.0595   5.9081  -2.3032 C.ar           1 S1                 0.0000
     42 ****        -4.7463   4.7257  -2.6346 C.ar           1 S1                 0.0000
     43 ****        -4.8653   3.6880  -1.6895 C.ar           1 S1                 0.0000
     44 ****        -4.2682   0.3400   1.5946 H              1 S1                 0.0000
     45 ****        -5.9933   0.6547   1.6700 H              1 S1                 0.0000
     46 ****        -6.2643  -0.5279  -0.5650 H              1 S1                 0.0000
     47 ****        -3.8593  -2.9593  -1.0729 H              1 S1                 0.0000
     48 ****        -1.5302  -4.0743  -0.7912 H              1 S1                 0.0000
     49 ****         4.9824   0.0765  -2.5721 H              1 S1                 0.0000
     50 ****         7.1380  -1.1044  -2.8942 H              1 S1                 0.0000
     51 ****         7.5160  -3.3264  -1.8418 H              1 S1                 0.0000
     52 ****         5.7192  -4.3779  -0.4783 H              1 S1                 0.0000
     53 ****         3.5594  -3.2082  -0.1501 H              1 S1                 0.0000
     54 ****         4.8995  -2.1264   2.7252 H              1 S1                 0.0000
     55 ****         7.3358  -1.6799   2.8082 H              1 S1                 0.0000
     56 ****         8.2806   0.3195   1.6683 H              1 S1                 0.0000
     57 ****         6.7738   1.8892   0.4602 H              1 S1                 0.0000
     58 ****         4.3366   1.4556   0.3724 H              1 S1                 0.0000
     59 ****        -1.1400   2.1059   0.9746 H              1 S1                 0.0000
     60 ****        -4.3261  -3.7166   1.1320 H              1 S1                 0.0000
     61 ****        -2.7035  -2.4100   2.1365 H              1 S1                 0.0000
     62 ****        -6.2807  -2.6940   0.2761 H              1 S1                 0.0000
     63 ****        -3.1657   5.1507   0.8982 H              1 S1                 0.0000
     64 ****        -2.9635   6.9594  -0.7682 H              1 S1                 0.0000
     65 ****        -3.9679   6.7025  -3.0291 H              1 S1                 0.0000
     66 ****        -5.1821   4.6134  -3.6163 H              1 S1                 0.0000
     67 ****        -5.3983   2.7934  -1.9768 H              1 S1                 0.0000
     68 ****        -4.0435   2.0849   2.4109 LP             1 S1                 0.0000
     69 ****        -3.5013   3.6906   2.0539 LP             1 S1                 0.0000
     70 ****        -3.5835  -0.2735  -0.5254 LP             1 S1                 0.0000
     71 ****        -4.4915  -1.0508  -1.6379 LP             1 S1                 0.0000
     72 ****         0.8181  -3.2612  -0.5410 LP             1 S1                 0.0000
     73 ****         1.3798   0.2293  -1.9866 LP             1 S1                 0.0000
     74 ****         2.6315  -0.3717  -3.0219 LP             1 S1                 0.0000
     75 ****         1.3925  -1.1790   2.4818 LP             1 S1                 0.0000
     76 ****         2.8620  -1.0020   3.3812 LP             1 S1                 0.0000
     77 ****         1.1065   1.5869   0.8398 LP             1 S1                 0.0000
     78 ****        -2.8376   0.5256   0.5066 LP             1 S1                 0.0000
     79 ****        -4.0282  -2.4413   3.0169 LP             1 S1                 0.0000
     80 ****        -3.6250  -1.1133   2.1564 LP             1 S1                 0.0000
@<TRIPOS>BOND
    1    1    2 2     
    2    2    3 1     
    3    2   38 1     
    4    3    4 1     
    5    4    5 1     
    6    4   44 1     
    7    4   45 1     
    8    5   36 1     
    9    5    6 1     
   10    5   46 1     
   11    6    7 1     
   12    7    8 1     
   13    7   34 1     
   14    7   47 1     
   15    8   33 1     
   16    8    9 1     
   17    9   10 2     
   18    9   48 1     
   19   10   11 1     
   20   11   33 ar    
   21   11   12 ar    
   22   12   13 1     
   23   12   30 ar    
   24   13   14 am    
   25   13   22 am    
   26   14   15 2     
   27   14   16 1     
   28   16   21 ar    
   29   16   17 ar    
   30   17   18 ar    
   31   17   49 1     
   32   18   19 ar    
   33   18   50 1     
   34   19   20 ar    
   35   19   51 1     
   36   20   21 ar    
   37   20   52 1     
   38   21   53 1     
   39   22   23 2     
   40   22   24 1     
   41   24   29 ar    
   42   24   25 ar    
   43   25   26 ar    
   44   25   54 1     
   45   26   27 ar    
   46   26   55 1     
   47   27   28 ar    
   48   27   56 1     
   49   28   29 ar    
   50   28   57 1     
   51   29   58 1     
   52   30   31 ar    
   53   31   32 ar    
   54   31   59 1     
   55   32   33 ar    
   56   34   35 1     
   57   34   36 1     
   58   34   60 1     
   59   35   61 1     
   60   36   37 1     
   61   36   62 1     
   62   38   43 ar    
   63   38   39 ar    
   64   39   40 ar    
   65   39   63 1     
   66   40   41 ar    
   67   40   64 1     
   68   41   42 ar    
   69   41   65 1     
   70   42   43 ar    
   71   42   66 1     
   72   43   67 1     
   73    1   68 1     
   74    1   69 1     
   75    6   70 1     
   76    6   71 1     
   77   10   72 1     
   78   15   73 1     
   79   15   74 1     
   80   23   75 1     
   81   23   76 1     
   82   30   77 1     
   83   32   78 1     
   84   35   79 1     
   85   35   80 1     
@<TRIPOS>SUBSTRUCTURE
      1 S1             1
@<TRIPOS>SET
LONE_PAIRS      STATIC     ATOMS    <user>   **** ""
13 68 69 70 71 72 73 74 75 76 77 78 79 80
DONOR_HYDROGENS      STATIC     ATOMS    <user>   **** ""
1 61
ATOM$BLUE        STATIC     ATOMS    COLORGROUP SYSTEM
13 68 69 70 71 72 73 74 75 76 77 78 79 80
ATOM$RED        STATIC     ATOMS    COLORGROUP SYSTEM
1 61
