AV-unprocessed.smi:266|AV-procd|sdf|2032|dock3
  -GOLD-   2262021243D 1   1.00000     0.00000
 Structure written by MMmdl.
 52 55  0  0  0  0  0  0  0  0  1 V2000
  154.4772  137.2029  162.9540 C   0  0  0  0  0  0  0  0  0  0  0  0
  155.3849  138.3442  163.4408 C   0  0  1  0  0  0  0  0  0  0  0  0
  155.6993  138.1271  164.8128 O   0  0  0  0  0  0  0  0  0  0  0  0
  156.9640  138.7050  165.0793 C   0  0  0  0  0  0  0  0  0  0  0  0
  157.7586  138.3197  163.8424 C   0  0  0  0  0  0  0  0  0  0  0  0
  156.7470  138.5145  162.7112 C   0  0  1  0  0  0  0  0  0  0  0  0
  156.9706  137.5091  161.7373 O   0  0  0  0  0  0  0  0  0  0  0  0
  156.8360  139.9019  162.0214 C   0  0  0  0  0  0  0  0  0  0  0  0
  155.7256  140.2086  161.1307 N   0  0  0  0  0  0  0  0  0  0  0  0
  155.4337  139.5885  159.9389 C   0  0  0  0  0  0  0  0  0  0  0  0
  154.3868  140.0524  159.3156 N   0  0  0  0  0  0  0  0  0  0  0  0
  153.9215  141.0855  160.1247 C   0  0  0  0  0  0  0  0  0  0  0  0
  152.8355  142.0154  160.0496 C   0  0  0  0  0  0  0  0  0  0  0  0
  151.9174  142.0695  159.0389 N   0  0  0  0  0  0  0  0  0  0  0  0
  151.3420  143.3483  158.6391 C   0  0  0  0  0  0  0  0  0  0  0  0
  151.6180  140.8996  158.2073 C   0  0  0  0  0  0  0  0  0  0  0  0
  150.5878  141.1982  157.0996 C   0  0  2  0  0  0  0  0  0  0  0  0
  149.1468  140.8924  157.5503 C   0  0  0  0  0  0  0  0  0  0  0  0
  148.2223  140.9777  156.3311 C   0  0  0  0  0  0  0  0  0  0  0  0
  149.2270  140.4111  154.9081 S   0  0  0  0  0  0  0  0  0  0  0  0
  148.8699  139.0241  154.5739 O   0  0  0  0  0  0  0  0  0  0  0  0
  149.2301  141.4620  153.8791 O   0  0  0  0  0  0  0  0  0  0  0  0
  150.8295  140.4194  155.7966 C   0  0  0  0  0  0  0  0  0  0  0  0
  152.7328  142.9096  161.0697 N   0  0  0  0  0  0  0  0  0  0  0  0
  153.5992  142.9036  162.0850 C   0  0  0  0  0  0  0  0  0  0  0  0
  154.6418  142.0988  162.2830 N   0  0  0  0  0  0  0  0  0  0  0  0
  154.7660  141.1969  161.2696 C   0  0  0  0  0  0  0  0  0  0  0  0
  154.2001  137.3395  161.9084 H   0  0  0  0  0  0  0  0  0  0  0  0
  153.5564  137.1662  163.5367 H   0  0  0  0  0  0  0  0  0  0  0  0
  154.9672  136.2339  163.0517 H   0  0  0  0  0  0  0  0  0  0  0  0
  154.8205  139.2766  163.3896 H   0  0  0  0  0  0  0  0  0  0  0  0
  156.8691  139.7884  165.1665 H   0  0  0  0  0  0  0  0  0  0  0  0
  157.3989  138.3169  166.0003 H   0  0  0  0  0  0  0  0  0  0  0  0
  158.6796  138.8901  163.7368 H   0  0  0  0  0  0  0  0  0  0  0  0
  158.0388  137.2683  163.9287 H   0  0  0  0  0  0  0  0  0  0  0  0
  157.9023  137.4130  161.6123 H   0  0  0  0  0  0  0  0  0  0  0  0
  156.8934  140.6890  162.7746 H   0  0  0  0  0  0  0  0  0  0  0  0
  157.7573  139.9725  161.4414 H   0  0  0  0  0  0  0  0  0  0  0  0
  156.0226  138.7727  159.5452 H   0  0  0  0  0  0  0  0  0  0  0  0
  152.1260  144.0677  158.4008 H   0  0  0  0  0  0  0  0  0  0  0  0
  150.7149  143.7535  159.4337 H   0  0  0  0  0  0  0  0  0  0  0  0
  150.7167  143.2379  157.7527 H   0  0  0  0  0  0  0  0  0  0  0  0
  152.5169  140.4504  157.7849 H   0  0  0  0  0  0  0  0  0  0  0  0
  151.2088  140.1341  158.8675 H   0  0  0  0  0  0  0  0  0  0  0  0
  150.6235  142.2621  156.8608 H   0  0  0  0  0  0  0  0  0  0  0  0
  149.1051  139.8802  157.9551 H   0  0  0  0  0  0  0  0  0  0  0  0
  148.8201  141.5659  158.3433 H   0  0  0  0  0  0  0  0  0  0  0  0
  147.3261  140.3651  156.4302 H   0  0  0  0  0  0  0  0  0  0  0  0
  147.9229  142.0091  156.1433 H   0  0  0  0  0  0  0  0  0  0  0  0
  151.6066  140.8594  155.1717 H   0  0  0  0  0  0  0  0  0  0  0  0
  151.0940  139.3824  156.0041 H   0  0  0  0  0  0  0  0  0  0  0  0
  153.4325  143.6500  162.8478 H   0  0  0  0  0  0  0  0  0  0  0  0
  1  2  1  0  0  0  0
  1 28  1  0  0  0  0
  1 29  1  0  0  0  0
  1 30  1  0  0  0  0
  2  6  1  0  0  0  0
  2  3  1  0  0  0  0
  2 31  1  0  0  0  0
  3  4  1  0  0  0  0
  4  5  1  0  0  0  0
  4 32  1  0  0  0  0
  4 33  1  0  0  0  0
  5  6  1  0  0  0  0
  5 34  1  0  0  0  0
  5 35  1  0  0  0  0
  6  7  1  0  0  0  0
  6  8  1  0  0  0  0
  7 36  1  0  0  0  0
  8  9  1  0  0  0  0
  8 37  1  0  0  0  0
  8 38  1  0  0  0  0
  9 27  1  0  0  0  0
  9 10  1  0  0  0  0
 10 11  2  0  0  0  0
 10 39  1  0  0  0  0
 11 12  1  0  0  0  0
 12 27  2  0  0  0  0
 12 13  1  0  0  0  0
 13 14  1  0  0  0  0
 13 24  2  0  0  0  0
 14 15  1  0  0  0  0
 14 16  1  0  0  0  0
 15 40  1  0  0  0  0
 15 41  1  0  0  0  0
 15 42  1  0  0  0  0
 16 17  1  0  0  0  0
 16 43  1  0  0  0  0
 16 44  1  0  0  0  0
 17 23  1  0  0  0  0
 17 18  1  0  0  0  0
 17 45  1  0  0  0  0
 18 19  1  0  0  0  0
 18 46  1  0  0  0  0
 18 47  1  0  0  0  0
 19 20  1  0  0  0  0
 19 48  1  0  0  0  0
 19 49  1  0  0  0  0
 20 21  2  0  0  0  0
 20 22  2  0  0  0  0
 20 23  1  0  0  0  0
 23 50  1  0  0  0  0
 23 51  1  0  0  0  0
 24 25  1  0  0  0  0
 25 26  2  0  0  0  0
 25 52  1  0  0  0  0
 26 27  1  0  0  0  0
M  END
> <s_m_source_file>
AV-unprocessed.smi

> <i_m_source_file_index>
266

> <i_lp_mmshare_version>
43012

> <i_f3d_flags>
0

> <s_epik_input>
W0NIMl0xW0NIMl1PW0NAQEhdKFtDSDNdKVtDQEBdMShbT0hdKVtDSDJdbihbY0hdbjIpYyhjMjMpbltjSF1uYzNOKFtDSDNdKVtDSDJdW0NAQEhdKFtDSDJdNClbQ0gyXVtDSDJdUzQoPU8pPU8=

> <s_epik_cmdline>
J2VwaWtfcHl0aG9uJywgJy1waCcsICc3LjAnLCAnLXRuJywgJzgnLCAnLW1hJywgJzIwMCcsICctbWV0YWxfYmluZGluZycsICctaW1hZScsICc8aW5maWxlLm1hZT4nLCAnLW9tYWUnLCAnPG91dGZpbGUubWFlPic=

> <r_lp_tautomer_probability>
1

> <r_epik_Ionization_Penalty>
0.00155497

> <r_epik_Ionization_Penalty_Charging>
0

> <r_epik_Ionization_Penalty_Neutral>
0.00155497

> <r_epik_State_Penalty>
-0

> <r_epik_Charging_Adjusted_Penalty>
0

> <i_epik_Tot_Q>
0

> <i_epik_Tot_abs_Q>
0

> <r_epik_Metal_State_Penalty>
-0

> <b_epik_Metal_Only>
0

> <s_lp_Force_Field>
OPLS_2005

> <r_lp_Energy>
32.0182

> <b_lp_Chiralities_Consistent>
1

> <s_lp_Variant>
AV-unprocessed.smi:266-2

> <Gold.Version>
5.8.1

> <Gold.Id.Protein>
6NUR|6NUR_protein|mol2

> <Gold.PLP.Fitness>
46.5122

> <Gold.PLP.PLP>
-44.3932

> <Gold.PLP.part.hbond>
-3.6353

> <Gold.PLP.part.metal>
0.0000

> <Gold.PLP.part.buried>
-5.2392

> <Gold.PLP.part.nonpolar>
-34.9842

> <Gold.PLP.part.repulsive>
0.9103

> <Gold.PLP.ligand.clash>
0.0031

> <Gold.PLP.ligand.torsion>
0.9227

> <Gold.PLP.Chemscore.Hbond>
1.2863

> <Gold.PLP.Chemscore.CHOScore>
0.0000

> <Gold.PLP.Chemscore.Metal>
0.0000

> <Gold.Chemscore.Hbonds>
donor molecule, donor type, donor heavy atom, donor atom, acceptor molecule, acceptor atom, score
      P1  H  7997  8008       L1    11  0.83
      P1  H  8011  8017       L1    22  0.74

> <Gold.PLP.Chemscore.Internal.Correction>
0.1086

> <Gold.Rescore>
     Score         DG    S(hbond)    S(metal)    S(lipo)     H(rot)  DE(clash)    DE(int)     intcor
      8.63     -12.48       1.62        0.00      67.14       2.45       2.33       1.53       ----

> <Gold.Chemscore.Fitness>
8.6305

> <Gold.Chemscore.DG>
-12.4811

> <Gold.Chemscore.ZeroCoef>
-5.4800

> <Gold.Chemscore.Hbond>
1.6198

> <Gold.Chemscore.Metal>
0.0000

> <Gold.Chemscore.Lipo>
67.1420

> <Gold.Chemscore.Internal_Hbond>
0.0000

> <Gold.Chemscore.DEClash>
2.3250

> <Gold.Chemscore.DEInternal>
1.5255

> <Gold.Chemscore.Rot>
2.4471

> <Gold.Chemscore.Internal.Correction>
   9.000000E+99

> <Gold.Chemscore.Hbonds>
donor molecule, donor type, donor heavy atom, donor atom, acceptor molecule, acceptor atom, score
      P1  H  7997  8008       L1    11  0.27
      P1  H  8011  8017       L1    22  0.74

> <Gold.Chemscore.Hbond.Weighted>
-5.4100

> <Gold.Chemscore.Metal.Weighted>
-0.0000

> <Gold.Chemscore.Lipo.Weighted>
-7.8556

> <Gold.Chemscore.Internal_Hbond.Weighted>
0.0000

> <Gold.Chemscore.DEClash.Weighted>
2.3250

> <Gold.Chemscore.DEInternal.Weighted>
1.5255

> <Gold.Chemscore.Rot.Weighted>
6.2645

> <Gold.Chemscore.Internal.Correction.Weighted>
   9.000000E+99

> <Gold.Protein.RotatedTorsions>
[ 6907 6896 6895 6894 ] final   30.02 input  -60.11 | X-H torsion
[ 7974 7965 7964 7962 ] final  -38.09 input  175.53 | X-H torsion
[ 8008 7997 7996 7995 ] final -115.00 input   59.86 | X-H torsion
[ 10167 10162 10161 10158 ] final -142.29 input  -65.29 | X-H torsion
[ 10718 10713 10712 10709 ] final -158.29 input   66.30 | X-H torsion
[ 10763 10752 10751 10750 ] final   17.23 input  -60.55 | X-H torsion
[ 11005 11000 10999 10996 ] final -143.81 input  -57.11 | X-H torsion

> <Gold.Protein.ActiveResidues>
 VAL166  LYS551  ARG553  GLY616  TRP617  ASP618  TYR619  PRO620  LYS621  CYS622 
 ASP623  PHE694  ASN695  SER759  ASP760  ASP761  ALA762  ILE779  LEU786  VAL792 
 PHE793  MET794  SER795  GLU796  ALA797  LYS798  CYS799  TRP800  GLU811  SER814 

> <Gold.Protein.RotatedAtoms>
  152.0399  134.9717  160.0573 H   0  0  0  0  0  0  0  0  0  0  0  0  # atno 6907 bound_to 6896
  152.1160  133.4322  159.4661 H   0  0  0  0  0  0  0  0  0  0  0  0  # atno 6908 bound_to 6896
  150.6846  134.2510  159.4554 H   0  0  0  0  0  0  0  0  0  0  0  0  # atno 6909 bound_to 6896
  146.0517  140.6472  142.9039 H   0  0  0  0  0  0  0  0  0  0  0  0  # atno 7974 bound_to 7965
  155.0451  140.0392  157.2523 H   0  0  0  0  0  0  0  0  0  0  0  0  # atno 8008 bound_to 7997
  154.7184  140.2707  155.6540 H   0  0  0  0  0  0  0  0  0  0  0  0  # atno 8009 bound_to 7997
  156.2810  140.2708  156.1848 H   0  0  0  0  0  0  0  0  0  0  0  0  # atno 8010 bound_to 7997
  139.8103  143.7712  152.2663 H   0  0  0  0  0  0  0  0  0  0  0  0  # atno 10167 bound_to 10162
  156.5520  130.8610  151.2783 H   0  0  0  0  0  0  0  0  0  0  0  0  # atno 10718 bound_to 10713
  153.1358  135.6750  153.9105 H   0  0  0  0  0  0  0  0  0  0  0  0  # atno 10763 bound_to 10752
  153.8577  135.3085  155.3437 H   0  0  0  0  0  0  0  0  0  0  0  0  # atno 10764 bound_to 10752
  154.7746  135.4921  153.9801 H   0  0  0  0  0  0  0  0  0  0  0  0  # atno 10765 bound_to 10752
  140.8088  134.2769  157.4949 H   0  0  0  0  0  0  0  0  0  0  0  0  # atno 11005 bound_to 11000
  144.7126  140.4095  143.7069 LP  0  0  0  0  0  0  0  0  0  0  0  0  # atno 17320 bound_to 7965
  145.6713  139.1600  143.2753 LP  0  0  0  0  0  0  0  0  0  0  0  0  # atno 17321 bound_to 7965
  139.7859  144.7428  151.0023 LP  0  0  0  0  0  0  0  0  0  0  0  0  # atno 17342 bound_to 10162
  140.7818  143.4493  151.0436 LP  0  0  0  0  0  0  0  0  0  0  0  0  # atno 17343 bound_to 10162
  157.7385  130.9815  150.2259 LP  0  0  0  0  0  0  0  0  0  0  0  0  # atno 17370 bound_to 10713
  156.2875  130.3741  149.7874 LP  0  0  0  0  0  0  0  0  0  0  0  0  # atno 17371 bound_to 10713
  139.8715  134.9471  156.3958 LP  0  0  0  0  0  0  0  0  0  0  0  0  # atno 17394 bound_to 11000
  140.9219  133.7639  155.9917 LP  0  0  0  0  0  0  0  0  0  0  0  0  # atno 17395 bound_to 11000

$$$$
