AV-unprocessed.smi:2921|AV-procd|sdf|11197|dock3
  -GOLD-   2272016 83D 1   1.00000     0.00000
 Structure written by MMmdl.
 41 42  0  0  0  0  0  0  0  0  1 V2000
  150.4544  137.0920  155.4227 C   0  0  0  0  0  0  0  0  0  0  0  0
  150.9188  138.1472  154.4070 C   0  0  0  0  0  0  0  0  0  0  0  0
  152.3657  138.5973  154.6686 C   0  0  0  0  0  0  0  0  0  0  0  0
  150.0043  139.2847  154.3813 N   0  0  0  0  0  0  0  0  0  0  0  0
  150.4043  140.4878  154.8562 N   0  0  0  0  0  0  0  0  0  0  0  0
  149.3582  141.2887  154.7048 C   0  0  0  0  0  0  0  0  0  0  0  0
  148.2333  140.6320  154.1314 C   0  0  0  0  0  0  0  0  0  0  0  0
  148.6958  139.3577  153.9450 C   0  0  0  0  0  0  0  0  0  0  0  0
  148.0358  138.2837  153.4352 N   0  0  0  0  0  0  0  0  0  0  0  0
  146.7718  137.8867  153.6635 C   0  0  0  0  0  0  0  0  0  0  0  0
  145.9676  138.4516  154.4049 O   0  0  0  0  0  0  0  0  0  0  0  0
  146.4790  136.7838  152.9603 N   0  0  0  0  0  0  0  0  0  0  0  0
  145.1792  136.1213  152.9377 C   0  0  0  0  0  0  0  0  0  0  0  0
  144.6974  135.7889  151.5116 C   0  0  0  0  0  0  0  0  0  0  0  0
  144.8607  134.3288  151.1223 C   0  0  0  0  0  0  0  0  0  0  0  0
  143.8801  133.4376  150.9810 C   0  0  0  0  0  0  0  0  0  0  0  0
  144.3792  132.0850  150.5529 C   0  0  0  0  0  0  0  0  0  0  0  0
  145.8965  132.2937  150.3551 C   0  0  0  0  0  0  0  0  0  0  0  0
  146.2117  133.7382  150.8023 C   0  0  0  0  0  0  0  0  0  0  0  0
  151.1003  136.2139  155.3976 H   0  0  0  0  0  0  0  0  0  0  0  0
  149.4385  136.7599  155.2058 H   0  0  0  0  0  0  0  0  0  0  0  0
  150.4670  137.4832  156.4405 H   0  0  0  0  0  0  0  0  0  0  0  0
  150.9006  137.6823  153.4213 H   0  0  0  0  0  0  0  0  0  0  0  0
  153.0542  137.7543  154.6050 H   0  0  0  0  0  0  0  0  0  0  0  0
  152.4776  139.0392  155.6594 H   0  0  0  0  0  0  0  0  0  0  0  0
  152.6840  139.3382  153.9347 H   0  0  0  0  0  0  0  0  0  0  0  0
  149.4448  142.3186  155.0184 H   0  0  0  0  0  0  0  0  0  0  0  0
  147.2607  141.0437  153.9084 H   0  0  0  0  0  0  0  0  0  0  0  0
  148.5631  137.7278  152.7784 H   0  0  0  0  0  0  0  0  0  0  0  0
  147.2008  136.3843  152.3785 H   0  0  0  0  0  0  0  0  0  0  0  0
  145.2447  135.2084  153.5304 H   0  0  0  0  0  0  0  0  0  0  0  0
  144.4443  136.7551  153.4367 H   0  0  0  0  0  0  0  0  0  0  0  0
  143.6387  136.0402  151.4385 H   0  0  0  0  0  0  0  0  0  0  0  0
  145.2052  136.4116  150.7742 H   0  0  0  0  0  0  0  0  0  0  0  0
  142.8311  133.6346  151.1463 H   0  0  0  0  0  0  0  0  0  0  0  0
  144.1701  131.3491  151.3297 H   0  0  0  0  0  0  0  0  0  0  0  0
  143.8901  131.7686  149.6311 H   0  0  0  0  0  0  0  0  0  0  0  0
  146.4736  131.5674  150.9286 H   0  0  0  0  0  0  0  0  0  0  0  0
  146.1610  132.1600  149.3055 H   0  0  0  0  0  0  0  0  0  0  0  0
  146.7047  134.3076  150.0138 H   0  0  0  0  0  0  0  0  0  0  0  0
  146.8512  133.7393  151.6842 H   0  0  0  0  0  0  0  0  0  0  0  0
  1  2  1  0  0  0  0
  1 20  1  0  0  0  0
  1 21  1  0  0  0  0
  1 22  1  0  0  0  0
  2  3  1  0  0  0  0
  2  4  1  0  0  0  0
  2 23  1  0  0  0  0
  3 24  1  0  0  0  0
  3 25  1  0  0  0  0
  3 26  1  0  0  0  0
  4  8  1  0  0  0  0
  4  5  1  0  0  0  0
  5  6  2  0  0  0  0
  6  7  1  0  0  0  0
  6 27  1  0  0  0  0
  7  8  2  0  0  0  0
  7 28  1  0  0  0  0
  8  9  1  0  0  0  0
  9 10  1  0  0  0  0
  9 29  1  0  0  0  0
 10 11  2  0  0  0  0
 10 12  1  0  0  0  0
 12 13  1  0  0  0  0
 12 30  1  0  0  0  0
 13 14  1  0  0  0  0
 13 31  1  0  0  0  0
 13 32  1  0  0  0  0
 14 15  1  0  0  0  0
 14 33  1  0  0  0  0
 14 34  1  0  0  0  0
 15 19  1  0  0  0  0
 15 16  2  0  0  0  0
 16 17  1  0  0  0  0
 16 35  1  0  0  0  0
 17 18  1  0  0  0  0
 17 36  1  0  0  0  0
 17 37  1  0  0  0  0
 18 19  1  0  0  0  0
 18 38  1  0  0  0  0
 18 39  1  0  0  0  0
 19 40  1  0  0  0  0
 19 41  1  0  0  0  0
M  END
> <s_m_source_file>
AV-unprocessed.smi

> <i_m_source_file_index>
2921

> <i_lp_mmshare_version>
43012

> <i_f3d_flags>
0

> <s_epik_input>
W0NIM11bQ0hdKFtDSDNdKW4xbltjSF1bY0hdYzFbTkhdQyg9TylbTkhdW0NIMl1bQ0gyXUMyPVtDSF1bQ0gyXVtDSDJdW0NIMl0y

> <s_epik_cmdline>
J2VwaWtfcHl0aG9uJywgJy1waCcsICc3LjAnLCAnLXRuJywgJzgnLCAnLW1hJywgJzIwMCcsICctbWV0YWxfYmluZGluZycsICctaW1hZScsICc8aW5maWxlLm1hZT4nLCAnLW9tYWUnLCAnPG91dGZpbGUubWFlPic=

> <r_lp_tautomer_probability>
1

> <r_epik_Ionization_Penalty>
4.14613e-05

> <r_epik_Ionization_Penalty_Charging>
0

> <r_epik_Ionization_Penalty_Neutral>
4.14613e-05

> <r_epik_State_Penalty>
-0

> <r_epik_Charging_Adjusted_Penalty>
0

> <i_epik_Tot_Q>
0

> <i_epik_Tot_abs_Q>
0

> <r_epik_Metal_State_Penalty>
-0

> <b_epik_Metal_Only>
0

> <s_lp_Force_Field>
OPLS_2005

> <r_lp_Energy>
26.255

> <b_lp_Chiralities_Consistent>
1

> <s_lp_Variant>
AV-unprocessed.smi:2921-1

> <Gold.Version>
5.8.1

> <Gold.Id.Protein>
6NUR|6NUR_protein|mol2

> <Gold.PLP.Fitness>
48.4206

> <Gold.PLP.PLP>
-38.8450

> <Gold.PLP.part.hbond>
-3.2129

> <Gold.PLP.part.metal>
0.0000

> <Gold.PLP.part.buried>
-5.1751

> <Gold.PLP.part.nonpolar>
-31.9748

> <Gold.PLP.part.repulsive>
0.2247

> <Gold.PLP.ligand.clash>
0.0000

> <Gold.PLP.ligand.torsion>
1.0821

> <Gold.PLP.Chemscore.Hbond>
2.9000

> <Gold.PLP.Chemscore.CHOScore>
0.9795

> <Gold.PLP.Chemscore.Metal>
0.0000

> <Gold.Chemscore.Hbonds>
donor molecule, donor type, donor heavy atom, donor atom, acceptor molecule, acceptor atom, score
      L1  H     9    29       P1  7948  1.00
      L1  H    12    30       P1  7948  1.00
      P1  H  7989  7998       L1     5  0.85
      L1  C     6    27       P1  8028  0.98

> <Gold.PLP.Chemscore.Internal.Correction>
0.1014

> <Gold.Rescore>
     Score         DG    S(hbond)    S(metal)    S(lipo)     H(rot)  DE(clash)    DE(int)     intcor
     17.45     -18.63       2.10        0.00      85.27       1.50       0.10       1.08       ----

> <Gold.Chemscore.Fitness>
17.4454

> <Gold.Chemscore.DG>
-18.6261

> <Gold.Chemscore.ZeroCoef>
-5.4800

> <Gold.Chemscore.Hbond>
2.1000

> <Gold.Chemscore.Metal>
0.0000

> <Gold.Chemscore.Lipo>
85.2697

> <Gold.Chemscore.Internal_Hbond>
0.0000

> <Gold.Chemscore.DEClash>
0.1042

> <Gold.Chemscore.DEInternal>
1.0766

> <Gold.Chemscore.Rot>
1.5018

> <Gold.Chemscore.Internal.Correction>
   9.000000E+99

> <Gold.Chemscore.Hbonds>
donor molecule, donor type, donor heavy atom, donor atom, acceptor molecule, acceptor atom, score
      L1  H     9    29       P1  7948  0.99
      L1  H    12    30       P1  7948  0.97
      P1  H  7989  7998       L1     5  0.08

> <Gold.Chemscore.Hbond.Weighted>
-7.0141

> <Gold.Chemscore.Metal.Weighted>
-0.0000

> <Gold.Chemscore.Lipo.Weighted>
-9.9766

> <Gold.Chemscore.Internal_Hbond.Weighted>
0.0000

> <Gold.Chemscore.DEClash.Weighted>
0.1042

> <Gold.Chemscore.DEInternal.Weighted>
1.0766

> <Gold.Chemscore.Rot.Weighted>
3.8446

> <Gold.Chemscore.Internal.Correction.Weighted>
   9.000000E+99

> <Gold.Protein.RotatedTorsions>
[ 6907 6896 6895 6894 ] final   53.82 input  -60.11 | X-H torsion
[ 7974 7965 7964 7962 ] final  167.04 input  175.53 | X-H torsion
[ 8008 7997 7996 7995 ] final -164.92 input   59.86 | X-H torsion
[ 10167 10162 10161 10158 ] final  -49.69 input  -65.29 | X-H torsion
[ 10718 10713 10712 10709 ] final   76.62 input   66.30 | X-H torsion
[ 10763 10752 10751 10750 ] final -100.32 input  -60.55 | X-H torsion
[ 11005 11000 10999 10996 ] final  153.19 input  -57.11 | X-H torsion

> <Gold.Protein.ActiveResidues>
 VAL166  LYS551  ARG553  GLY616  TRP617  ASP618  TYR619  PRO620  LYS621  CYS622 
 ASP623  PHE694  ASN695  SER759  ASP760  ASP761  ALA762  ILE779  LEU786  VAL792 
 PHE793  MET794  SER795  GLU796  ALA797  LYS798  CYS799  TRP800  GLU811  SER814 

> <Gold.Protein.RotatedAtoms>
  152.3376  134.7177  160.0272 H   0  0  0  0  0  0  0  0  0  0  0  0  # atno 6907 bound_to 6896
  151.7573  133.3326  159.3416 H   0  0  0  0  0  0  0  0  0  0  0  0  # atno 6908 bound_to 6896
  150.7460  134.6070  159.6111 H   0  0  0  0  0  0  0  0  0  0  0  0  # atno 6909 bound_to 6896
  144.7439  139.8703  143.6388 H   0  0  0  0  0  0  0  0  0  0  0  0  # atno 7974 bound_to 7965
  155.8425  140.0950  157.1725 H   0  0  0  0  0  0  0  0  0  0  0  0  # atno 8008 bound_to 7997
  154.3982  140.1398  156.3807 H   0  0  0  0  0  0  0  0  0  0  0  0  # atno 8009 bound_to 7997
  155.8049  140.3451  155.5426 H   0  0  0  0  0  0  0  0  0  0  0  0  # atno 8010 bound_to 7997
  140.6673  143.2687  151.4251 H   0  0  0  0  0  0  0  0  0  0  0  0  # atno 10167 bound_to 10162
  157.6680  130.9783  150.1524 H   0  0  0  0  0  0  0  0  0  0  0  0  # atno 10718 bound_to 10713
  154.7570  135.4939  153.9393 H   0  0  0  0  0  0  0  0  0  0  0  0  # atno 10763 bound_to 10752
  153.1207  135.6731  153.9349 H   0  0  0  0  0  0  0  0  0  0  0  0  # atno 10764 bound_to 10752
  153.9081  135.3102  155.3427 H   0  0  0  0  0  0  0  0  0  0  0  0  # atno 10765 bound_to 10752
  140.1376  134.8761  157.2287 H   0  0  0  0  0  0  0  0  0  0  0  0  # atno 11005 bound_to 11000
  146.1285  139.4316  143.0184 LP  0  0  0  0  0  0  0  0  0  0  0  0  # atno 17320 bound_to 7965
  145.7199  141.0078  143.1408 LP  0  0  0  0  0  0  0  0  0  0  0  0  # atno 17321 bound_to 7965
  139.5927  144.1464  152.2107 LP  0  0  0  0  0  0  0  0  0  0  0  0  # atno 17342 bound_to 10162
  140.0824  144.5690  150.7113 LP  0  0  0  0  0  0  0  0  0  0  0  0  # atno 17343 bound_to 10162
  156.2320  130.3683  149.8434 LP  0  0  0  0  0  0  0  0  0  0  0  0  # atno 17370 bound_to 10713
  156.6258  130.8645  151.3485 LP  0  0  0  0  0  0  0  0  0  0  0  0  # atno 17371 bound_to 10713
  140.2763  134.3401  155.7357 LP  0  0  0  0  0  0  0  0  0  0  0  0  # atno 17394 bound_to 11000
  141.2181  133.7452  156.9298 LP  0  0  0  0  0  0  0  0  0  0  0  0  # atno 17395 bound_to 11000

$$$$
