AV-unprocessed.smi:2424|AV-procd|sdf|9567|dock1
  -GOLD-   2272013193D 1   1.00000     0.00000
 Structure written by MMmdl.
 49 50  0  0  0  0  0  0  0  0  2 V2000
  148.8086  141.2637  157.7602 C   0  0  0  0  0  0  0  0  0  0  0  0
  149.3430  139.8657  157.4093 C   0  0  0  0  0  0  0  0  0  0  0  0
  150.8793  139.7787  157.2092 C   0  0  0  0  0  0  0  0  0  0  0  0
  151.5736  140.3797  158.4565 C   0  0  0  0  0  0  0  0  0  0  0  0
  151.6643  141.9148  158.4850 C   0  0  0  0  0  0  0  0  0  0  0  0
  151.4742  138.4125  156.7568 C   0  0  1  0  0  0  0  0  0  0  0  0
  150.5166  137.5633  156.0452 N   0  0  0  0  0  0  0  0  0  0  0  0
  150.6899  136.2677  155.7552 C   0  0  0  0  0  0  0  0  0  0  0  0
  151.7076  135.6388  156.0445 O   0  0  0  0  0  0  0  0  0  0  0  0
  149.6079  135.7744  155.1279 N   0  0  0  0  0  0  0  0  0  0  0  0
  149.3915  134.4781  154.6441 C   0  0  0  0  0  0  0  0  0  0  0  0
  150.2129  133.4416  155.0387 C   0  0  0  0  0  0  0  0  0  0  0  0
  150.1640  132.1394  154.6840 N   0  5  0  0  0  0  0  0  0  0  0  0
  149.1850  131.7453  153.8201 C   0  0  0  0  0  0  0  0  0  0  0  0
  149.0824  130.5772  153.4471 O   0  0  0  0  0  0  0  0  0  0  0  0
  148.2253  132.7522  153.3240 C   0  0  0  0  0  0  0  0  0  0  0  0
  147.1273  132.3076  152.3730 C   0  0  0  0  0  0  0  0  0  0  0  0
  148.3398  134.0429  153.7255 C   0  0  0  0  0  0  0  0  0  0  0  0
  152.4071  139.1593  155.7882 C   0  0  1  0  0  0  0  0  0  0  0  0
  152.8080  138.5492  154.4466 C   0  0  0  0  0  0  0  0  0  0  0  0
  151.4251  140.3433  155.8688 C   0  0  1  0  0  0  0  0  0  0  0  0
  150.4445  140.3123  154.8370 O   0  0  0  0  0  0  0  0  0  0  0  0
  149.5777  141.4335  154.8578 C   0  0  0  0  0  0  0  0  0  0  0  0
  147.7184  141.2660  157.7556 H   0  0  0  0  0  0  0  0  0  0  0  0
  149.1416  142.0101  157.0388 H   0  0  0  0  0  0  0  0  0  0  0  0
  149.1238  141.5850  158.7523 H   0  0  0  0  0  0  0  0  0  0  0  0
  149.0088  139.1491  158.1587 H   0  0  0  0  0  0  0  0  0  0  0  0
  148.8239  139.5605  156.5010 H   0  0  0  0  0  0  0  0  0  0  0  0
  151.0397  140.0755  159.3566 H   0  0  0  0  0  0  0  0  0  0  0  0
  152.5705  139.9593  158.5857 H   0  0  0  0  0  0  0  0  0  0  0  0
  152.0496  142.2550  159.4463 H   0  0  0  0  0  0  0  0  0  0  0  0
  150.6894  142.3795  158.3400 H   0  0  0  0  0  0  0  0  0  0  0  0
  152.3383  142.2969  157.7190 H   0  0  0  0  0  0  0  0  0  0  0  0
  152.0294  137.8972  157.5419 H   0  0  0  0  0  0  0  0  0  0  0  0
  149.6492  137.9987  155.7670 H   0  0  0  0  0  0  0  0  0  0  0  0
  148.8395  136.4134  154.9851 H   0  0  0  0  0  0  0  0  0  0  0  0
  151.0357  133.6981  155.7406 H   0  0  0  0  0  0  0  0  0  0  0  0
  146.4799  133.1400  152.0955 H   0  0  0  0  0  0  0  0  0  0  0  0
  146.5077  131.5403  152.8380 H   0  0  0  0  0  0  0  0  0  0  0  0
  147.5581  131.8966  151.4595 H   0  0  0  0  0  0  0  0  0  0  0  0
  147.6169  134.7477  153.3486 H   0  0  0  0  0  0  0  0  0  0  0  0
  153.3109  139.4295  156.3367 H   0  0  0  0  0  0  0  0  0  0  0  0
  151.9425  138.3293  153.8212 H   0  0  0  0  0  0  0  0  0  0  0  0
  153.3530  137.6160  154.5895 H   0  0  0  0  0  0  0  0  0  0  0  0
  153.4552  139.2234  153.8862 H   0  0  0  0  0  0  0  0  0  0  0  0
  151.9037  141.3181  155.9825 H   0  0  0  0  0  0  0  0  0  0  0  0
  148.8826  141.3727  154.0208 H   0  0  0  0  0  0  0  0  0  0  0  0
  150.1279  142.3705  154.7712 H   0  0  0  0  0  0  0  0  0  0  0  0
  148.9933  141.4568  155.7784 H   0  0  0  0  0  0  0  0  0  0  0  0
  1  2  1  0  0  0  0
  1 24  1  0  0  0  0
  1 25  1  0  0  0  0
  1 26  1  0  0  0  0
  2  3  1  0  0  0  0
  2 27  1  0  0  0  0
  2 28  1  0  0  0  0
  3 21  1  0  0  0  0
  3  4  1  0  0  0  0
  3  6  1  0  0  0  0
  4  5  1  0  0  0  0
  4 29  1  0  0  0  0
  4 30  1  0  0  0  0
  5 31  1  0  0  0  0
  5 32  1  0  0  0  0
  5 33  1  0  0  0  0
  6  7  1  0  0  0  0
  6 19  1  0  0  0  0
  6 34  1  0  0  0  0
  7  8  1  0  0  0  0
  7 35  1  0  0  0  0
  8  9  2  0  0  0  0
  8 10  1  0  0  0  0
 10 11  1  0  0  0  0
 10 36  1  0  0  0  0
 11 18  1  0  0  0  0
 11 12  2  0  0  0  0
 12 13  1  0  0  0  0
 12 37  1  0  0  0  0
 13 14  1  0  0  0  0
 14 15  2  0  0  0  0
 14 16  1  0  0  0  0
 16 17  1  0  0  0  0
 16 18  2  0  0  0  0
 17 38  1  0  0  0  0
 17 39  1  0  0  0  0
 17 40  1  0  0  0  0
 18 41  1  0  0  0  0
 19 20  1  0  0  0  0
 19 21  1  0  0  0  0
 19 42  1  0  0  0  0
 20 43  1  0  0  0  0
 20 44  1  0  0  0  0
 20 45  1  0  0  0  0
 21 22  1  0  0  0  0
 21 46  1  0  0  0  0
 22 23  1  0  0  0  0
 23 47  1  0  0  0  0
 23 48  1  0  0  0  0
 23 49  1  0  0  0  0
M  CHG  1  13  -1
M  END
> <s_m_source_file>
AV-unprocessed.smi

> <i_m_source_file_index>
2424

> <i_lp_mmshare_version>
43012

> <i_f3d_flags>
0

> <s_epik_input>
W0NIM11PW0NAQEhdMVtDQEhdKFtDSDNdKVtDQEBIXShDMShbQ0gyXVtDSDNdKVtDSDJdW0NIM10pW05IXUMoPU8pW05IXWMyW2NIXVtuSF1jKD1PKWMoW0NIM10pW2NIXTI=

> <s_epik_cmdline>
J2VwaWtfcHl0aG9uJywgJy1waCcsICc3LjAnLCAnLXRuJywgJzgnLCAnLW1hJywgJzIwMCcsICctbWV0YWxfYmluZGluZycsICctaW1hZScsICc8aW5maWxlLm1hZT4nLCAnLW9tYWUnLCAnPG91dGZpbGUubWFlPic=

> <r_lp_tautomer_probability>
1

> <r_epik_Ionization_Penalty>
7.6122

> <r_epik_Ionization_Penalty_Charging>
1.53843

> <r_epik_Ionization_Penalty_Neutral>
6.07377

> <r_epik_State_Penalty>
6.07371

> <r_epik_Charging_Adjusted_Penalty>
7.61214

> <i_epik_Tot_Q>
-1

> <i_epik_Tot_abs_Q>
1

> <r_epik_Metal_State_Penalty>
2.02136

> <b_epik_Metal_Only>
1

> <s_lp_Force_Field>
OPLS_2005

> <r_lp_Energy>
42.7103

> <b_lp_Chiralities_Consistent>
1

> <s_lp_Variant>
AV-unprocessed.smi:2424-9

> <Gold.Version>
5.8.1

> <Gold.Id.Protein>
6NUR|6NUR_protein|mol2

> <Gold.PLP.Fitness>
40.0442

> <Gold.PLP.PLP>
-36.0575

> <Gold.PLP.part.hbond>
-2.0000

> <Gold.PLP.part.metal>
0.0000

> <Gold.PLP.part.buried>
-4.3396

> <Gold.PLP.part.nonpolar>
-30.7962

> <Gold.PLP.part.repulsive>
0.2551

> <Gold.PLP.ligand.clash>
0.0000

> <Gold.PLP.ligand.torsion>
0.8624

> <Gold.PLP.Chemscore.Hbond>
1.6650

> <Gold.PLP.Chemscore.CHOScore>
0.0000

> <Gold.PLP.Chemscore.Metal>
0.0000

> <Gold.Chemscore.Hbonds>
donor molecule, donor type, donor heavy atom, donor atom, acceptor molecule, acceptor atom, score
      P1  H  7989  7998       L1    22  0.71
      P1  H 10752 10764       L1     9  1.00

> <Gold.PLP.Chemscore.Internal.Correction>
0.7165

> <Gold.Rescore>
     Score         DG    S(hbond)    S(metal)    S(lipo)     H(rot)  DE(clash)    DE(int)     intcor
     12.41     -14.87       1.01        0.00      84.81       1.52       0.01       2.46       ----

> <Gold.Chemscore.Fitness>
12.4055

> <Gold.Chemscore.DG>
-14.8750

> <Gold.Chemscore.ZeroCoef>
-5.4800

> <Gold.Chemscore.Hbond>
1.0074

> <Gold.Chemscore.Metal>
0.0000

> <Gold.Chemscore.Lipo>
84.8075

> <Gold.Chemscore.Internal_Hbond>
0.0000

> <Gold.Chemscore.DEClash>
0.0067

> <Gold.Chemscore.DEInternal>
2.4628

> <Gold.Chemscore.Rot>
1.5204

> <Gold.Chemscore.Internal.Correction>
   9.000000E+99

> <Gold.Chemscore.Hbonds>
donor molecule, donor type, donor heavy atom, donor atom, acceptor molecule, acceptor atom, score
      P1  H  7989  7998       L1    22  0.02
      P1  H 10752 10764       L1     9  0.98

> <Gold.Chemscore.Hbond.Weighted>
-3.3647

> <Gold.Chemscore.Metal.Weighted>
-0.0000

> <Gold.Chemscore.Lipo.Weighted>
-9.9225

> <Gold.Chemscore.Internal_Hbond.Weighted>
0.0000

> <Gold.Chemscore.DEClash.Weighted>
0.0067

> <Gold.Chemscore.DEInternal.Weighted>
2.4628

> <Gold.Chemscore.Rot.Weighted>
3.8922

> <Gold.Chemscore.Internal.Correction.Weighted>
   9.000000E+99

> <Gold.Protein.RotatedTorsions>
[ 6907 6896 6895 6894 ] final -145.47 input  -60.11 | X-H torsion
[ 7974 7965 7964 7962 ] final  145.64 input  175.53 | X-H torsion
[ 8008 7997 7996 7995 ] final -155.97 input   59.86 | X-H torsion
[ 10167 10162 10161 10158 ] final   52.53 input  -65.29 | X-H torsion
[ 10718 10713 10712 10709 ] final   91.40 input   66.30 | X-H torsion
[ 10763 10752 10751 10750 ] final  -18.87 input  -60.55 | X-H torsion
[ 11005 11000 10999 10996 ] final   19.71 input  -57.11 | X-H torsion

> <Gold.Protein.ActiveResidues>
 VAL166  LYS551  ARG553  GLY616  TRP617  ASP618  TYR619  PRO620  LYS621  CYS622 
 ASP623  PHE694  ASN695  SER759  ASP760  ASP761  ALA762  ILE779  LEU786  VAL792 
 PHE793  MET794  SER795  GLU796  ALA797  LYS798  CYS799  TRP800  GLU811  SER814 

> <Gold.Protein.RotatedAtoms>
  151.1282  133.5055  159.2599 H   0  0  0  0  0  0  0  0  0  0  0  0  # atno 6907 bound_to 6896
  151.1786  135.0350  159.8792 H   0  0  0  0  0  0  0  0  0  0  0  0  # atno 6908 bound_to 6896
  152.5459  134.1137  159.8423 H   0  0  0  0  0  0  0  0  0  0  0  0  # atno 6909 bound_to 6896
  144.8736  139.5807  143.5875 H   0  0  0  0  0  0  0  0  0  0  0  0  # atno 7974 bound_to 7965
  155.7100  140.0777  157.2375 H   0  0  0  0  0  0  0  0  0  0  0  0  # atno 8008 bound_to 7997
  154.4060  140.1631  156.2340 H   0  0  0  0  0  0  0  0  0  0  0  0  # atno 8009 bound_to 7997
  155.9291  140.3392  155.6237 H   0  0  0  0  0  0  0  0  0  0  0  0  # atno 8010 bound_to 7997
  140.2504  144.3485  150.6350 H   0  0  0  0  0  0  0  0  0  0  0  0  # atno 10167 bound_to 10162
  157.6960  131.0406  150.3724 H   0  0  0  0  0  0  0  0  0  0  0  0  # atno 10718 bound_to 10713
  153.5960  135.7001  153.5403 H   0  0  0  0  0  0  0  0  0  0  0  0  # atno 10763 bound_to 10752
  153.3137  135.4094  155.1358 H   0  0  0  0  0  0  0  0  0  0  0  0  # atno 10764 bound_to 10752
  154.8591  135.3678  154.5494 H   0  0  0  0  0  0  0  0  0  0  0  0  # atno 10765 bound_to 10752
  140.4107  134.1621  155.7667 H   0  0  0  0  0  0  0  0  0  0  0  0  # atno 11005 bound_to 11000
  146.2947  139.7243  142.9135 LP  0  0  0  0  0  0  0  0  0  0  0  0  # atno 17320 bound_to 7965
  145.4084  141.0393  143.3031 LP  0  0  0  0  0  0  0  0  0  0  0  0  # atno 17321 bound_to 7965
  140.6045  143.2167  151.7008 LP  0  0  0  0  0  0  0  0  0  0  0  0  # atno 17342 bound_to 10162
  139.5048  144.3741  152.0441 LP  0  0  0  0  0  0  0  0  0  0  0  0  # atno 17343 bound_to 10162
  156.4148  130.3941  149.6866 LP  0  0  0  0  0  0  0  0  0  0  0  0  # atno 17370 bound_to 10713
  156.4138  130.7735  151.2749 LP  0  0  0  0  0  0  0  0  0  0  0  0  # atno 17371 bound_to 10713
  141.1822  133.8390  157.1217 LP  0  0  0  0  0  0  0  0  0  0  0  0  # atno 17394 bound_to 11000
  140.0269  134.9919  157.0704 LP  0  0  0  0  0  0  0  0  0  0  0  0  # atno 17395 bound_to 11000

$$$$
