AV-unprocessed.smi:48|AV-procd|sdf|456|dock8
  -GOLD-   2262016323D 1   1.00000     0.00000
 Structure written by MMmdl.
 30 32  0  0  0  0  0  0  0  0  1 V2000
  149.6350  141.1267  153.4469 O   0  0  0  0  0  0  0  0  0  0  0  0
  148.9143  140.3825  154.4058 C   0  0  0  0  0  0  0  0  0  0  0  0
  149.8382  139.3618  155.0873 C   0  0  2  0  0  0  0  0  0  0  0  0
  151.1425  139.9084  155.2172 O   0  0  0  0  0  0  0  0  0  0  0  0
  152.0730  138.8808  155.3384 C   0  0  1  0  0  0  0  0  0  0  0  0
  152.3259  138.6409  156.8030 N   0  0  0  0  0  0  0  0  0  0  0  0
  151.9426  139.4609  157.8037 C   0  0  0  0  0  0  0  0  0  0  0  0
  152.2129  139.0874  159.0523 N   0  0  0  0  0  0  0  0  0  0  0  0
  152.8300  137.8669  158.8452 C   0  0  0  0  0  0  0  0  0  0  0  0
  153.3704  136.9091  159.7375 C   0  0  0  0  0  0  0  0  0  0  0  0
  153.3370  137.1661  161.4438 Cl  0  0  0  0  0  0  0  0  0  0  0  0
  153.9152  135.7818  159.2233 N   0  0  0  0  0  0  0  0  0  0  0  0
  153.9260  135.6079  157.8971 C   0  0  0  0  0  0  0  0  0  0  0  0
  153.4601  136.4186  156.9411 N   0  0  0  0  0  0  0  0  0  0  0  0
  152.9090  137.5584  157.4555 C   0  0  0  0  0  0  0  0  0  0  0  0
  151.5005  137.6572  154.6019 C   0  0  2  0  0  0  0  0  0  0  0  0
  152.2334  137.3813  153.4256 O   0  0  0  0  0  0  0  0  0  0  0  0
  150.0781  138.0995  154.2445 C   0  0  1  0  0  0  0  0  0  0  0  0
  149.1423  137.0969  154.5856 O   0  0  0  0  0  0  0  0  0  0  0  0
  149.4548  139.0990  156.0734 H   0  0  0  0  0  0  0  0  0  0  0  0
  153.0420  139.2029  154.9543 H   0  0  0  0  0  0  0  0  0  0  0  0
  151.5335  136.7718  155.2358 H   0  0  0  0  0  0  0  0  0  0  0  0
  149.9990  138.3356  153.1816 H   0  0  0  0  0  0  0  0  0  0  0  0
  150.3943  140.6272  153.1879 H   0  0  0  0  0  0  0  0  0  0  0  0
  148.5290  141.0879  155.1426 H   0  0  0  0  0  0  0  0  0  0  0  0
  148.0556  139.8949  153.9434 H   0  0  0  0  0  0  0  0  0  0  0  0
  151.4316  140.3913  157.6035 H   0  0  0  0  0  0  0  0  0  0  0  0
  154.3750  134.6889  157.5508 H   0  0  0  0  0  0  0  0  0  0  0  0
  151.6346  137.0660  152.7660 H   0  0  0  0  0  0  0  0  0  0  0  0
  148.8860  136.6468  153.7951 H   0  0  0  0  0  0  0  0  0  0  0  0
  1  2  1  0  0  0  0
  1 24  1  0  0  0  0
  2  3  1  0  0  0  0
  2 25  1  0  0  0  0
  2 26  1  0  0  0  0
  3 20  1  0  0  0  0
  3 18  1  0  0  0  0
  3  4  1  0  0  0  0
  4  5  1  0  0  0  0
  5 21  1  0  0  0  0
  5  6  1  0  0  0  0
  5 16  1  0  0  0  0
  6 15  1  0  0  0  0
  6  7  1  0  0  0  0
  7  8  2  0  0  0  0
  7 27  1  0  0  0  0
  8  9  1  0  0  0  0
  9 15  2  0  0  0  0
  9 10  1  0  0  0  0
 10 11  1  0  0  0  0
 10 12  2  0  0  0  0
 12 13  1  0  0  0  0
 13 14  2  0  0  0  0
 13 28  1  0  0  0  0
 14 15  1  0  0  0  0
 16 22  1  0  0  0  0
 16 17  1  0  0  0  0
 16 18  1  0  0  0  0
 17 29  1  0  0  0  0
 18 23  1  0  0  0  0
 18 19  1  0  0  0  0
 19 30  1  0  0  0  0
M  END
> <s_m_source_file>
AV-unprocessed.smi

> <i_m_source_file_index>
48

> <i_lp_mmshare_version>
43012

> <i_f3d_flags>
0

> <s_epik_input>
W09IXVtDSDJdW0NASF0xT1tDQEhdKFtDQEhdKFtPSF0pW0NAQEhdMVtPSF0pbihbY0hdbjIpYyhjMjMpbltjSF1uYzNDbA==

> <s_epik_cmdline>
J2VwaWtfcHl0aG9uJywgJy1waCcsICc3LjAnLCAnLXRuJywgJzgnLCAnLW1hJywgJzIwMCcsICctbWV0YWxfYmluZGluZycsICctaW1hZScsICc8aW5maWxlLm1hZT4nLCAnLW9tYWUnLCAnPG91dGZpbGUubWFlPic=

> <r_lp_tautomer_probability>
1

> <r_epik_Ionization_Penalty>
3.45505e-06

> <r_epik_Ionization_Penalty_Charging>
0

> <r_epik_Ionization_Penalty_Neutral>
3.45505e-06

> <r_epik_State_Penalty>
-0

> <r_epik_Charging_Adjusted_Penalty>
0

> <i_epik_Tot_Q>
0

> <i_epik_Tot_abs_Q>
0

> <r_epik_Metal_State_Penalty>
-0

> <b_epik_Metal_Only>
0

> <s_epik_Chemistry_Notes>
This compound contains an acetal/aminal-like group ( X-CH(R)-Y where X, Y are N, S, or O) that may be acid/base labile, releasing an aldehyde.

> <s_lp_Force_Field>
OPLS_2005

> <r_lp_Energy>
32.3387

> <b_lp_Chiralities_Consistent>
1

> <s_lp_Variant>
AV-unprocessed.smi:48-10

> <Gold.Version>
5.8.1

> <Gold.Id.Protein>
6NUR|6NUR_protein|mol2

> <Gold.PLP.Fitness>
46.7670

> <Gold.PLP.PLP>
-28.4911

> <Gold.PLP.part.hbond>
-8.5459

> <Gold.PLP.part.metal>
0.0000

> <Gold.PLP.part.buried>
-1.3728

> <Gold.PLP.part.nonpolar>
-19.3322

> <Gold.PLP.part.repulsive>
0.0353

> <Gold.PLP.ligand.clash>
0.0000

> <Gold.PLP.ligand.torsion>
0.5829

> <Gold.PLP.Chemscore.Hbond>
6.4726

> <Gold.PLP.Chemscore.CHOScore>
0.0000

> <Gold.PLP.Chemscore.Metal>
0.0000

> <Gold.Chemscore.Hbonds>
donor molecule, donor type, donor heavy atom, donor atom, acceptor molecule, acceptor atom, score
      L1  H    17    29       P1  7949  1.00
      L1  H    19    30       P1  7948  1.00
      P1  H  6896  6907       L1    12  0.45
      P1  H  7989  7998       L1     4  1.00
      P1  H  8011  8017       L1     1  0.90
      P1  H 10752 10764       L1    17  1.00
      P1  H 10752 10765       L1    14  0.95

> <Gold.PLP.Chemscore.Internal.Correction>
0.0238

> <Gold.Rescore>
     Score         DG    S(hbond)    S(metal)    S(lipo)     H(rot)  DE(clash)    DE(int)     intcor
     15.20     -16.54       4.63        0.00      45.50       3.80       0.95       0.39       ----

> <Gold.Chemscore.Fitness>
15.2014

> <Gold.Chemscore.DG>
-16.5428

> <Gold.Chemscore.ZeroCoef>
-5.4800

> <Gold.Chemscore.Hbond>
4.6323

> <Gold.Chemscore.Metal>
0.0000

> <Gold.Chemscore.Lipo>
45.4979

> <Gold.Chemscore.Internal_Hbond>
0.0000

> <Gold.Chemscore.DEClash>
0.9520

> <Gold.Chemscore.DEInternal>
0.3893

> <Gold.Chemscore.Rot>
3.8017

> <Gold.Chemscore.Internal.Correction>
   9.000000E+99

> <Gold.Chemscore.Hbonds>
donor molecule, donor type, donor heavy atom, donor atom, acceptor molecule, acceptor atom, score
      L1  H     1    24       P1  7957  0.01
      L1  H    17    29       P1  7949  0.95
      L1  H    19    30       P1  7948  0.96
      P1  H  6896  6907       L1    12  0.01
      P1  H  7989  7998       L1     4  0.35
      P1  H  8011  8017       L1     1  0.17
      P1  H 10752 10764       L1    17  0.07
      P1  H 10752 10765       L1    14  0.21

> <Gold.Chemscore.Hbond.Weighted>
-15.4719

> <Gold.Chemscore.Metal.Weighted>
-0.0000

> <Gold.Chemscore.Lipo.Weighted>
-5.3233

> <Gold.Chemscore.Internal_Hbond.Weighted>
0.0000

> <Gold.Chemscore.DEClash.Weighted>
0.9520

> <Gold.Chemscore.DEInternal.Weighted>
0.3893

> <Gold.Chemscore.Rot.Weighted>
9.7324

> <Gold.Chemscore.Internal.Correction.Weighted>
   9.000000E+99

> <Gold.Protein.RotatedTorsions>
[ 6907 6896 6895 6894 ] final   54.50 input  -60.11 | X-H torsion
[ 7974 7965 7964 7962 ] final   61.00 input  175.53 | X-H torsion
[ 8008 7997 7996 7995 ] final -151.06 input   59.86 | X-H torsion
[ 10167 10162 10161 10158 ] final   85.51 input  -65.29 | X-H torsion
[ 10718 10713 10712 10709 ] final -153.78 input   66.30 | X-H torsion
[ 10763 10752 10751 10750 ] final -101.87 input  -60.55 | X-H torsion
[ 11005 11000 10999 10996 ] final  -38.99 input  -57.11 | X-H torsion

> <Gold.Protein.ActiveResidues>
 VAL166  LYS551  ARG553  GLY616  TRP617  ASP618  TYR619  PRO620  LYS621  CYS622 
 ASP623  PHE694  ASN695  SER759  ASP760  ASP761  ALA762  ILE779  LEU786  VAL792 
 PHE793  MET794  SER795  GLU796  ALA797  LYS798  CYS799  TRP800  GLU811  SER814 

> <Gold.Protein.RotatedAtoms>
  152.3445  134.7089  160.0254 H   0  0  0  0  0  0  0  0  0  0  0  0  # atno 6907 bound_to 6896
  151.7464  133.3319  159.3387 H   0  0  0  0  0  0  0  0  0  0  0  0  # atno 6908 bound_to 6896
  150.7500  134.6165  159.6158 H   0  0  0  0  0  0  0  0  0  0  0  0  # atno 6909 bound_to 6896
  145.8897  139.3502  143.0656 H   0  0  0  0  0  0  0  0  0  0  0  0  # atno 7974 bound_to 7965
  155.6333  140.0694  157.2642 H   0  0  0  0  0  0  0  0  0  0  0  0  # atno 8008 bound_to 7997
  154.4200  140.1763  156.1545 H   0  0  0  0  0  0  0  0  0  0  0  0  # atno 8009 bound_to 7997
  155.9915  140.3344  155.6761 H   0  0  0  0  0  0  0  0  0  0  0  0  # atno 8010 bound_to 7997
  139.8971  144.6352  150.8677 H   0  0  0  0  0  0  0  0  0  0  0  0  # atno 10167 bound_to 10162
  156.4904  130.8344  151.2568 H   0  0  0  0  0  0  0  0  0  0  0  0  # atno 10718 bound_to 10713
  154.7691  135.4882  153.9612 H   0  0  0  0  0  0  0  0  0  0  0  0  # atno 10763 bound_to 10752
  153.1345  135.6760  153.9133 H   0  0  0  0  0  0  0  0  0  0  0  0  # atno 10764 bound_to 10752
  153.8826  135.3130  155.3424 H   0  0  0  0  0  0  0  0  0  0  0  0  # atno 10765 bound_to 10752
  141.0069  133.6927  156.2127 H   0  0  0  0  0  0  0  0  0  0  0  0  # atno 11005 bound_to 11000
  145.8923  140.9296  143.0546 LP  0  0  0  0  0  0  0  0  0  0  0  0  # atno 17320 bound_to 7965
  144.6730  140.0922  143.7464 LP  0  0  0  0  0  0  0  0  0  0  0  0  # atno 17321 bound_to 7965
  140.7715  143.3465  151.2100 LP  0  0  0  0  0  0  0  0  0  0  0  0  # atno 17342 bound_to 10162
  139.7058  143.9457  152.2926 LP  0  0  0  0  0  0  0  0  0  0  0  0  # atno 17343 bound_to 10162
  157.7474  131.0015  150.2967 LP  0  0  0  0  0  0  0  0  0  0  0  0  # atno 17370 bound_to 10713
  156.3432  130.3819  149.7391 LP  0  0  0  0  0  0  0  0  0  0  0  0  # atno 17371 bound_to 10713
  140.6798  134.4779  157.5589 LP  0  0  0  0  0  0  0  0  0  0  0  0  # atno 17394 bound_to 11000
  139.9068  134.8431  156.1676 LP  0  0  0  0  0  0  0  0  0  0  0  0  # atno 17395 bound_to 11000

$$$$
