AV-unprocessed.smi:3270|AV-procd|sdf|12515|dock8
  -GOLD-   2272018423D 1   1.00000     0.00000
 Structure written by MMmdl.
 39 40  0  0  0  0  0  0  0  0  2 V2000
  152.4504  138.4740  154.8472 C   0  0  0  0  0  0  0  0  0  0  0  0
  151.0726  137.9861  154.3548 C   0  0  1  0  0  0  0  0  0  0  0  0
  150.5063  136.8379  155.2068 C   0  0  0  0  0  0  0  0  0  0  0  0
  150.2435  137.0060  156.3984 O   0  0  0  0  0  0  0  0  0  0  0  0
  150.3248  135.6645  154.5798 N   0  0  0  0  0  0  0  0  0  0  0  0
  149.7814  134.4623  155.2005 C   0  0  0  0  0  0  0  0  0  0  0  0
  149.2574  133.4676  154.1465 C   0  0  0  0  0  0  0  0  0  0  0  0
  148.0304  133.9543  153.4679 N   0  3  0  0  0  0  0  0  0  0  0  0
  147.4948  132.9692  152.4980 C   0  0  0  0  0  0  0  0  0  0  0  0
  146.2524  133.5313  151.7862 C   0  0  0  0  0  0  0  0  0  0  0  0
  145.2712  133.8885  152.7511 O   0  0  0  0  0  0  0  0  0  0  0  0
  145.7389  134.9000  153.6344 C   0  0  0  0  0  0  0  0  0  0  0  0
  146.9651  134.3854  154.4079 C   0  0  0  0  0  0  0  0  0  0  0  0
  150.1079  139.0759  154.2610 N   0  0  0  0  0  0  0  0  0  0  0  0
  148.8027  139.0182  153.8151 C   0  0  0  0  0  0  0  0  0  0  0  0
  148.2716  140.2702  153.9347 C   0  0  0  0  0  0  0  0  0  0  0  0
  149.3373  141.0385  154.4799 C   0  0  0  0  0  0  0  0  0  0  0  0
  150.4307  140.3216  154.6807 N   0  0  0  0  0  0  0  0  0  0  0  0
  153.1754  137.6592  154.8570 H   0  0  0  0  0  0  0  0  0  0  0  0
  152.4039  138.8867  155.8559 H   0  0  0  0  0  0  0  0  0  0  0  0
  152.8432  139.2515  154.1915 H   0  0  0  0  0  0  0  0  0  0  0  0
  151.2145  137.5957  153.3456 H   0  0  0  0  0  0  0  0  0  0  0  0
  150.5624  135.6080  153.5999 H   0  0  0  0  0  0  0  0  0  0  0  0
  150.5480  134.0112  155.8314 H   0  0  0  0  0  0  0  0  0  0  0  0
  148.9700  134.7616  155.8644 H   0  0  0  0  0  0  0  0  0  0  0  0
  150.0420  133.3198  153.4026 H   0  0  0  0  0  0  0  0  0  0  0  0
  149.0646  132.4887  154.5885 H   0  0  0  0  0  0  0  0  0  0  0  0
  148.2582  132.7233  151.7587 H   0  0  0  0  0  0  0  0  0  0  0  0
  147.2408  132.0438  153.0178 H   0  0  0  0  0  0  0  0  0  0  0  0
  146.5114  134.3967  151.1739 H   0  0  0  0  0  0  0  0  0  0  0  0
  145.8321  132.7813  151.1159 H   0  0  0  0  0  0  0  0  0  0  0  0
  145.9817  135.8053  153.0752 H   0  0  0  0  0  0  0  0  0  0  0  0
  144.9391  135.1600  154.3284 H   0  0  0  0  0  0  0  0  0  0  0  0
  146.6767  133.5474  155.0447 H   0  0  0  0  0  0  0  0  0  0  0  0
  147.3294  135.1740  155.0653 H   0  0  0  0  0  0  0  0  0  0  0  0
  148.3646  138.0998  153.4526 H   0  0  0  0  0  0  0  0  0  0  0  0
  147.2728  140.5887  153.6756 H   0  0  0  0  0  0  0  0  0  0  0  0
  149.3477  142.0872  154.7379 H   0  0  0  0  0  0  0  0  0  0  0  0
  148.2983  134.7655  152.9289 H   0  0  0  0  0  0  0  0  0  0  0  0
  1  2  1  0  0  0  0
  1 19  1  0  0  0  0
  1 20  1  0  0  0  0
  1 21  1  0  0  0  0
  2  3  1  0  0  0  0
  2 14  1  0  0  0  0
  2 22  1  0  0  0  0
  3  4  2  0  0  0  0
  3  5  1  0  0  0  0
  5  6  1  0  0  0  0
  5 23  1  0  0  0  0
  6  7  1  0  0  0  0
  6 24  1  0  0  0  0
  6 25  1  0  0  0  0
  7  8  1  0  0  0  0
  7 26  1  0  0  0  0
  7 27  1  0  0  0  0
  8 13  1  0  0  0  0
  8  9  1  0  0  0  0
  8 39  1  0  0  0  0
  9 10  1  0  0  0  0
  9 28  1  0  0  0  0
  9 29  1  0  0  0  0
 10 11  1  0  0  0  0
 10 30  1  0  0  0  0
 10 31  1  0  0  0  0
 11 12  1  0  0  0  0
 12 13  1  0  0  0  0
 12 32  1  0  0  0  0
 12 33  1  0  0  0  0
 13 34  1  0  0  0  0
 13 35  1  0  0  0  0
 14 18  1  0  0  0  0
 14 15  1  0  0  0  0
 15 16  2  0  0  0  0
 15 36  1  0  0  0  0
 16 17  1  0  0  0  0
 16 37  1  0  0  0  0
 17 18  2  0  0  0  0
 17 38  1  0  0  0  0
M  CHG  1   8   1
M  END
> <s_m_source_file>
AV-unprocessed.smi

> <i_m_source_file_index>
3270

> <i_lp_mmshare_version>
43012

> <i_f3d_flags>
0

> <s_epik_input>
bjFbY0hdW2NIXVtjSF1uMVtDQEhdKFtDSDNdKUMoPU8pW05IXVtDSDJdW0NIMl1OMltDSDJdW0NIMl1PW0NIMl1bQ0gyXTI=

> <s_epik_cmdline>
J2VwaWtfcHl0aG9uJywgJy1waCcsICc3LjAnLCAnLXRuJywgJzgnLCAnLW1hJywgJzIwMCcsICctbWV0YWxfYmluZGluZycsICctaW1hZScsICc8aW5maWxlLm1hZT4nLCAnLW9tYWUnLCAnPG91dGZpbGUubWFlPic=

> <r_lp_tautomer_probability>
1

> <r_epik_Ionization_Penalty>
0.73255

> <r_epik_Ionization_Penalty_Charging>
0.732531

> <r_epik_Ionization_Penalty_Neutral>
1.96965e-05

> <r_epik_State_Penalty>
0.757939

> <r_epik_Charging_Adjusted_Penalty>
1.49047

> <i_epik_Tot_Q>
1

> <i_epik_Tot_abs_Q>
1

> <r_epik_Metal_State_Penalty>
0.757952

> <b_epik_Metal_Only>
0

> <s_lp_Force_Field>
OPLS_2005

> <r_lp_Energy>
19.4088

> <b_lp_Chiralities_Consistent>
1

> <s_lp_Variant>
AV-unprocessed.smi:3270-4

> <Gold.Version>
5.8.1

> <Gold.Id.Protein>
6NUR|6NUR_protein|mol2

> <Gold.PLP.Fitness>
48.1438

> <Gold.PLP.PLP>
-34.0125

> <Gold.PLP.part.hbond>
-4.0000

> <Gold.PLP.part.metal>
0.0000

> <Gold.PLP.part.buried>
-1.2125

> <Gold.PLP.part.nonpolar>
-28.3779

> <Gold.PLP.part.repulsive>
0.2685

> <Gold.PLP.ligand.clash>
0.0000

> <Gold.PLP.ligand.torsion>
0.2260

> <Gold.PLP.Chemscore.Hbond>
3.4500

> <Gold.PLP.Chemscore.CHOScore>
1.3735

> <Gold.PLP.Chemscore.Metal>
0.0000

> <Gold.Chemscore.Hbonds>
donor molecule, donor type, donor heavy atom, donor atom, acceptor molecule, acceptor atom, score
      L1  H     5    23       P1  7949  0.17
      L1  H     8    39       P1  7948  2.00
      P1  H  7989  7998       L1    18  1.00
      L1  C    15    36       P1  7948  1.00
      L1  C    17    38       P1  8028  0.29

> <Gold.PLP.Chemscore.Internal.Correction>
0.1127

> <Gold.Rescore>
     Score         DG    S(hbond)    S(metal)    S(lipo)     H(rot)  DE(clash)    DE(int)     intcor
     11.02     -11.26       0.92        0.00      65.04       1.91       0.00       0.23       ----

> <Gold.Chemscore.Fitness>
11.0241

> <Gold.Chemscore.DG>
-11.2560

> <Gold.Chemscore.ZeroCoef>
-5.4800

> <Gold.Chemscore.Hbond>
0.9155

> <Gold.Chemscore.Metal>
0.0000

> <Gold.Chemscore.Lipo>
65.0432

> <Gold.Chemscore.Internal_Hbond>
0.0000

> <Gold.Chemscore.DEClash>
0.0029

> <Gold.Chemscore.DEInternal>
0.2291

> <Gold.Chemscore.Rot>
1.9109

> <Gold.Chemscore.Internal.Correction>
   9.000000E+99

> <Gold.Chemscore.Hbonds>
donor molecule, donor type, donor heavy atom, donor atom, acceptor molecule, acceptor atom, score
      L1  H     8    39       P1  7948  0.65
      P1  H  7989  7998       L1    18  0.24

> <Gold.Chemscore.Hbond.Weighted>
-3.0579

> <Gold.Chemscore.Metal.Weighted>
-0.0000

> <Gold.Chemscore.Lipo.Weighted>
-7.6101

> <Gold.Chemscore.Internal_Hbond.Weighted>
0.0000

> <Gold.Chemscore.DEClash.Weighted>
0.0029

> <Gold.Chemscore.DEInternal.Weighted>
0.2291

> <Gold.Chemscore.Rot.Weighted>
4.8919

> <Gold.Chemscore.Internal.Correction.Weighted>
   9.000000E+99

> <Gold.Protein.RotatedTorsions>
[ 6907 6896 6895 6894 ] final  -97.29 input  -60.11 | X-H torsion
[ 7974 7965 7964 7962 ] final   90.75 input  175.53 | X-H torsion
[ 8008 7997 7996 7995 ] final  168.12 input   59.86 | X-H torsion
[ 10167 10162 10161 10158 ] final  151.89 input  -65.29 | X-H torsion
[ 10718 10713 10712 10709 ] final   77.80 input   66.30 | X-H torsion
[ 10763 10752 10751 10750 ] final  -26.42 input  -60.55 | X-H torsion
[ 11005 11000 10999 10996 ] final   -6.96 input  -57.11 | X-H torsion

> <Gold.Protein.ActiveResidues>
 VAL166  LYS551  ARG553  GLY616  TRP617  ASP618  TYR619  PRO620  LYS621  CYS622 
 ASP623  PHE694  ASN695  SER759  ASP760  ASP761  ALA762  ILE779  LEU786  VAL792 
 PHE793  MET794  SER795  GLU796  ALA797  LYS798  CYS799  TRP800  GLU811  SER814 

> <Gold.Protein.RotatedAtoms>
  150.7012  134.1371  159.4090 H   0  0  0  0  0  0  0  0  0  0  0  0  # atno 6907 bound_to 6896
  151.9356  135.0234  160.0541 H   0  0  0  0  0  0  0  0  0  0  0  0  # atno 6908 bound_to 6896
  152.2138  133.4896  159.5161 H   0  0  0  0  0  0  0  0  0  0  0  0  # atno 6909 bound_to 6896
  145.5149  139.2278  143.2704 H   0  0  0  0  0  0  0  0  0  0  0  0  # atno 7974 bound_to 7965
  156.1575  140.1599  156.8668 H   0  0  0  0  0  0  0  0  0  0  0  0  # atno 8008 bound_to 7997
  154.5129  140.0796  156.8060 H   0  0  0  0  0  0  0  0  0  0  0  0  # atno 8009 bound_to 7997
  155.3774  140.3403  155.4247 H   0  0  0  0  0  0  0  0  0  0  0  0  # atno 8010 bound_to 7997
  139.4837  144.5403  151.7576 H   0  0  0  0  0  0  0  0  0  0  0  0  # atno 10167 bound_to 10162
  157.6723  130.9838  150.1694 H   0  0  0  0  0  0  0  0  0  0  0  0  # atno 10718 bound_to 10713
  153.7157  135.6948  153.5026 H   0  0  0  0  0  0  0  0  0  0  0  0  # atno 10763 bound_to 10752
  153.2240  135.4360  155.0520 H   0  0  0  0  0  0  0  0  0  0  0  0  # atno 10764 bound_to 10752
  154.8301  135.3467  154.6692 H   0  0  0  0  0  0  0  0  0  0  0  0  # atno 10765 bound_to 10752
  140.7076  133.8936  155.8728 H   0  0  0  0  0  0  0  0  0  0  0  0  # atno 11005 bound_to 11000
  146.2143  140.5957  142.9045 LP  0  0  0  0  0  0  0  0  0  0  0  0  # atno 17320 bound_to 7965
  144.7707  140.5632  143.6672 LP  0  0  0  0  0  0  0  0  0  0  0  0  # atno 17321 bound_to 7965
  140.4942  144.1266  150.5956 LP  0  0  0  0  0  0  0  0  0  0  0  0  # atno 17342 bound_to 10162
  140.4137  143.2644  151.9801 LP  0  0  0  0  0  0  0  0  0  0  0  0  # atno 17343 bound_to 10162
  156.2452  130.3695  149.8293 LP  0  0  0  0  0  0  0  0  0  0  0  0  # atno 17370 bound_to 10713
  156.6082  130.8575  151.3448 LP  0  0  0  0  0  0  0  0  0  0  0  0  # atno 17371 bound_to 10713
  141.0111  134.1019  157.4220 LP  0  0  0  0  0  0  0  0  0  0  0  0  # atno 17394 bound_to 11000
  139.8880  135.0094  156.6594 LP  0  0  0  0  0  0  0  0  0  0  0  0  # atno 17395 bound_to 11000

$$$$
