AV-unprocessed.smi:501|AV-procd|sdf|2742|dock10
  -GOLD-   2262023203D 1   1.00000     0.00000
 Structure written by MMmdl.
 45 47  0  0  0  0  0  0  0  0  1 V2000
  151.8468  145.1665  159.4129 C   0  0  0  0  0  0  0  0  0  0  0  0
  152.3749  143.7794  159.7159 C   0  0  0  0  0  0  0  0  0  0  0  0
  152.8800  143.4837  160.9974 C   0  0  0  0  0  0  0  0  0  0  0  0
  153.3683  142.1950  161.2800 C   0  0  0  0  0  0  0  0  0  0  0  0
  153.3507  141.2010  160.2834 C   0  0  0  0  0  0  0  0  0  0  0  0
  152.8455  141.4781  158.9966 C   0  0  0  0  0  0  0  0  0  0  0  0
  152.8624  140.4454  158.0836 O   0  0  0  0  0  0  0  0  0  0  0  0
  151.9444  140.4905  157.0007 C   0  0  0  0  0  0  0  0  0  0  0  0
  152.1130  139.2163  156.1650 C   0  0  0  0  0  0  0  0  0  0  0  0
  150.8509  138.7760  155.5874 N   0  0  0  0  0  0  0  0  0  0  0  0
  150.3486  137.5176  155.4727 C   0  0  0  0  0  0  0  0  0  0  0  0
  151.0588  136.2940  155.9741 C   0  0  0  0  0  0  0  0  0  0  0  0
  150.1749  135.0361  155.9334 C   0  0  0  0  0  0  0  0  0  0  0  0
  149.5602  134.8522  154.6237 N   0  0  0  0  0  0  0  0  0  0  0  0
  149.0448  133.7001  154.1726 C   0  0  0  0  0  0  0  0  0  0  0  0
  149.0211  132.6500  154.8128 O   0  0  0  0  0  0  0  0  0  0  0  0
  149.1497  137.4256  154.8954 N   0  0  0  0  0  0  0  0  0  0  0  0
  148.8440  138.7406  154.6085 C   0  0  0  0  0  0  0  0  0  0  0  0
  147.7046  139.3051  153.9919 C   0  0  0  0  0  0  0  0  0  0  0  0
  147.6113  140.7000  153.8061 C   0  0  0  0  0  0  0  0  0  0  0  0
  148.6533  141.5481  154.2337 C   0  0  0  0  0  0  0  0  0  0  0  0
  149.7976  141.0053  154.8494 C   0  0  0  0  0  0  0  0  0  0  0  0
  149.8867  139.6119  155.0310 C   0  0  0  0  0  0  0  0  0  0  0  0
  152.3566  142.7806  158.7200 C   0  0  0  0  0  0  0  0  0  0  0  0
  152.4056  145.9226  159.9651 H   0  0  0  0  0  0  0  0  0  0  0  0
  150.7969  145.2393  159.6970 H   0  0  0  0  0  0  0  0  0  0  0  0
  151.9320  145.3941  158.3499 H   0  0  0  0  0  0  0  0  0  0  0  0
  152.8938  144.2427  161.7660 H   0  0  0  0  0  0  0  0  0  0  0  0
  153.7556  141.9677  162.2622 H   0  0  0  0  0  0  0  0  0  0  0  0
  153.7273  140.2143  160.5096 H   0  0  0  0  0  0  0  0  0  0  0  0
  150.9242  140.5565  157.3778 H   0  0  0  0  0  0  0  0  0  0  0  0
  152.1371  141.3671  156.3801 H   0  0  0  0  0  0  0  0  0  0  0  0
  152.8149  139.4023  155.3515 H   0  0  0  0  0  0  0  0  0  0  0  0
  152.5561  138.4187  156.7580 H   0  0  0  0  0  0  0  0  0  0  0  0
  151.9395  136.1399  155.3493 H   0  0  0  0  0  0  0  0  0  0  0  0
  151.4426  136.4538  156.9794 H   0  0  0  0  0  0  0  0  0  0  0  0
  150.7706  134.1507  156.1502 H   0  0  0  0  0  0  0  0  0  0  0  0
  149.4049  135.0853  156.7054 H   0  0  0  0  0  0  0  0  0  0  0  0
  149.5287  135.6575  154.0152 H   0  0  0  0  0  0  0  0  0  0  0  0
  148.6466  133.8209  153.1534 H   0  0  0  0  0  0  0  0  0  0  0  0
  146.9007  138.6635  153.6625 H   0  0  0  0  0  0  0  0  0  0  0  0
  146.7358  141.1213  153.3339 H   0  0  0  0  0  0  0  0  0  0  0  0
  148.5739  142.6156  154.0888 H   0  0  0  0  0  0  0  0  0  0  0  0
  150.5966  141.6528  155.1786 H   0  0  0  0  0  0  0  0  0  0  0  0
  151.9624  143.0360  157.7482 H   0  0  0  0  0  0  0  0  0  0  0  0
  1  2  1  0  0  0  0
  1 25  1  0  0  0  0
  1 26  1  0  0  0  0
  1 27  1  0  0  0  0
  2 24  1  0  0  0  0
  2  3  2  0  0  0  0
  3  4  1  0  0  0  0
  3 28  1  0  0  0  0
  4  5  2  0  0  0  0
  4 29  1  0  0  0  0
  5  6  1  0  0  0  0
  5 30  1  0  0  0  0
  6  7  1  0  0  0  0
  6 24  2  0  0  0  0
  7  8  1  0  0  0  0
  8  9  1  0  0  0  0
  8 31  1  0  0  0  0
  8 32  1  0  0  0  0
  9 10  1  0  0  0  0
  9 33  1  0  0  0  0
  9 34  1  0  0  0  0
 10 23  1  0  0  0  0
 10 11  1  0  0  0  0
 11 12  1  0  0  0  0
 11 17  2  0  0  0  0
 12 13  1  0  0  0  0
 12 35  1  0  0  0  0
 12 36  1  0  0  0  0
 13 14  1  0  0  0  0
 13 37  1  0  0  0  0
 13 38  1  0  0  0  0
 14 15  1  0  0  0  0
 14 39  1  0  0  0  0
 15 16  2  0  0  0  0
 15 40  1  0  0  0  0
 17 18  1  0  0  0  0
 18 23  2  0  0  0  0
 18 19  1  0  0  0  0
 19 20  2  0  0  0  0
 19 41  1  0  0  0  0
 20 21  1  0  0  0  0
 20 42  1  0  0  0  0
 21 22  2  0  0  0  0
 21 43  1  0  0  0  0
 22 23  1  0  0  0  0
 22 44  1  0  0  0  0
 24 45  1  0  0  0  0
M  END
> <s_m_source_file>
AV-unprocessed.smi

> <i_m_source_file_index>
501

> <i_lp_mmshare_version>
43012

> <i_f3d_flags>
0

> <s_epik_input>
W0NIM11jMVtjSF1bY0hdW2NIXWMoW2NIXTEpT1tDSDJdW0NIMl1uKGMobjIpW0NIMl1bQ0gyXVtOSF1bQ0hdPU8pYyhjMjMpW2NIXVtjSF1bY0hdW2NIXTM=

> <s_epik_cmdline>
J2VwaWtfcHl0aG9uJywgJy1waCcsICc3LjAnLCAnLXRuJywgJzgnLCAnLW1hJywgJzIwMCcsICctbWV0YWxfYmluZGluZycsICctaW1hZScsICc8aW5maWxlLm1hZT4nLCAnLW9tYWUnLCAnPG91dGZpbGUubWFlPic=

> <r_lp_tautomer_probability>
1

> <r_epik_Ionization_Penalty>
0.092246

> <r_epik_Ionization_Penalty_Charging>
0

> <r_epik_Ionization_Penalty_Neutral>
0.092246

> <r_epik_State_Penalty>
0.0825475

> <r_epik_Charging_Adjusted_Penalty>
0.0825475

> <i_epik_Tot_Q>
0

> <i_epik_Tot_abs_Q>
0

> <r_epik_Metal_State_Penalty>
0.0713424

> <b_epik_Metal_Only>
0

> <s_lp_Force_Field>
OPLS_2005

> <r_lp_Energy>
15.5248

> <b_lp_Chiralities_Consistent>
1

> <s_lp_Variant>
AV-unprocessed.smi:501-1

> <Gold.Version>
5.8.1

> <Gold.Id.Protein>
6NUR|6NUR_protein|mol2

> <Gold.PLP.Fitness>
54.4521

> <Gold.PLP.PLP>
-50.9050

> <Gold.PLP.part.hbond>
-2.0000

> <Gold.PLP.part.metal>
0.0000

> <Gold.PLP.part.buried>
-3.2917

> <Gold.PLP.part.nonpolar>
-45.9661

> <Gold.PLP.part.repulsive>
1.2409

> <Gold.PLP.ligand.clash>
0.0000

> <Gold.PLP.ligand.torsion>
1.0449

> <Gold.PLP.Chemscore.Hbond>
1.8240

> <Gold.PLP.Chemscore.CHOScore>
0.0000

> <Gold.PLP.Chemscore.Metal>
0.0000

> <Gold.Chemscore.Hbonds>
donor molecule, donor type, donor heavy atom, donor atom, acceptor molecule, acceptor atom, score
      L1  H    14    39       P1  7948  0.33
      P1  H  7997  8010       L1     7  0.61

> <Gold.PLP.Chemscore.Internal.Correction>
0.1648

> <Gold.Rescore>
     Score         DG    S(hbond)    S(metal)    S(lipo)     H(rot)  DE(clash)    DE(int)     intcor
     16.22     -18.94       1.38        0.00     132.73       2.61       0.22       2.49       ----

> <Gold.Chemscore.Fitness>
16.2236

> <Gold.Chemscore.DG>
-18.9382

> <Gold.Chemscore.ZeroCoef>
-5.4800

> <Gold.Chemscore.Hbond>
1.3819

> <Gold.Chemscore.Metal>
0.0000

> <Gold.Chemscore.Lipo>
132.7342

> <Gold.Chemscore.Internal_Hbond>
0.0000

> <Gold.Chemscore.DEClash>
0.2249

> <Gold.Chemscore.DEInternal>
2.4897

> <Gold.Chemscore.Rot>
2.6122

> <Gold.Chemscore.Internal.Correction>
   9.000000E+99

> <Gold.Chemscore.Hbonds>
donor molecule, donor type, donor heavy atom, donor atom, acceptor molecule, acceptor atom, score
      L1  H    14    39       P1  7948  0.13
      P1  H  7997  8010       L1     7  0.07

> <Gold.Chemscore.Hbond.Weighted>
-4.6155

> <Gold.Chemscore.Metal.Weighted>
-0.0000

> <Gold.Chemscore.Lipo.Weighted>
-15.5299

> <Gold.Chemscore.Internal_Hbond.Weighted>
0.0000

> <Gold.Chemscore.DEClash.Weighted>
0.2249

> <Gold.Chemscore.DEInternal.Weighted>
2.4897

> <Gold.Chemscore.Rot.Weighted>
6.6872

> <Gold.Chemscore.Internal.Correction.Weighted>
   9.000000E+99

> <Gold.Protein.RotatedTorsions>
[ 6907 6896 6895 6894 ] final   25.99 input  -60.11 | X-H torsion
[ 7974 7965 7964 7962 ] final   79.03 input  175.53 | X-H torsion
[ 8008 7997 7996 7995 ] final   42.95 input   59.86 | X-H torsion
[ 10167 10162 10161 10158 ] final  -17.39 input  -65.29 | X-H torsion
[ 10718 10713 10712 10709 ] final  -95.78 input   66.30 | X-H torsion
[ 10763 10752 10751 10750 ] final   60.65 input  -60.55 | X-H torsion
[ 11005 11000 10999 10996 ] final  157.05 input  -57.11 | X-H torsion

> <Gold.Protein.ActiveResidues>
 VAL166  LYS551  ARG553  GLY616  TRP617  ASP618  TYR619  PRO620  LYS621  CYS622 
 ASP623  PHE694  ASN695  SER759  ASP760  ASP761  ALA762  ILE779  LEU786  VAL792 
 PHE793  MET794  SER795  GLU796  ALA797  LYS798  CYS799  TRP800  GLU811  SER814 

> <Gold.Protein.RotatedAtoms>
  151.9807  135.0030  160.0557 H   0  0  0  0  0  0  0  0  0  0  0  0  # atno 6907 bound_to 6896
  152.1698  133.4632  159.4912 H   0  0  0  0  0  0  0  0  0  0  0  0  # atno 6908 bound_to 6896
  150.6900  134.1884  159.4319 H   0  0  0  0  0  0  0  0  0  0  0  0  # atno 6909 bound_to 6896
  145.6695  139.2493  143.1877 H   0  0  0  0  0  0  0  0  0  0  0  0  # atno 7974 bound_to 7965
  155.2947  140.3381  155.4250 H   0  0  0  0  0  0  0  0  0  0  0  0  # atno 8008 bound_to 7997
  156.2029  140.1740  156.7900 H   0  0  0  0  0  0  0  0  0  0  0  0  # atno 8009 bound_to 7997
  154.5583  140.0692  156.8762 H   0  0  0  0  0  0  0  0  0  0  0  0  # atno 8010 bound_to 7997
  140.7246  143.5021  150.9857 H   0  0  0  0  0  0  0  0  0  0  0  0  # atno 10167 bound_to 10162
  156.0049  130.5123  150.6128 H   0  0  0  0  0  0  0  0  0  0  0  0  # atno 10718 bound_to 10713
  152.9927  135.5529  154.5907 H   0  0  0  0  0  0  0  0  0  0  0  0  # atno 10763 bound_to 10752
  154.5269  135.2811  155.1216 H   0  0  0  0  0  0  0  0  0  0  0  0  # atno 10764 bound_to 10752
  154.2547  135.6392  153.5305 H   0  0  0  0  0  0  0  0  0  0  0  0  # atno 10765 bound_to 10752
  140.1732  134.8528  157.2716 H   0  0  0  0  0  0  0  0  0  0  0  0  # atno 11005 bound_to 11000
  146.1058  140.7489  142.9527 LP  0  0  0  0  0  0  0  0  0  0  0  0  # atno 17320 bound_to 7965
  144.7062  140.3859  143.7116 LP  0  0  0  0  0  0  0  0  0  0  0  0  # atno 17321 bound_to 7965
  139.8730  143.7168  152.3164 LP  0  0  0  0  0  0  0  0  0  0  0  0  # atno 17342 bound_to 10162
  139.7423  144.7556  151.0633 LP  0  0  0  0  0  0  0  0  0  0  0  0  # atno 17343 bound_to 10162
  157.3957  131.0802  151.1354 LP  0  0  0  0  0  0  0  0  0  0  0  0  # atno 17370 bound_to 10713
  157.2031  130.6404  149.5746 LP  0  0  0  0  0  0  0  0  0  0  0  0  # atno 17371 bound_to 10713
  140.2353  134.3861  155.7504 LP  0  0  0  0  0  0  0  0  0  0  0  0  # atno 17394 bound_to 11000
  141.2219  133.7236  156.8704 LP  0  0  0  0  0  0  0  0  0  0  0  0  # atno 17395 bound_to 11000

$$$$
