AV-unprocessed.smi:1060|AV-procd|sdf|4658|dock2
  -GOLD-   22720 3163D 1   1.00000     0.00000
 Structure written by MMmdl.
 36 37  0  0  0  0  0  0  0  0  2 V2000
  149.1813  139.5415  157.6331 O   0  0  0  0  0  0  0  0  0  0  0  0
  149.7329  138.7090  158.3523 C   0  0  0  0  0  0  0  0  0  0  0  0
  149.0737  137.3471  158.5790 C   0  0  0  0  0  0  0  0  0  0  0  0
  148.6608  137.2368  159.9327 O   0  0  0  0  0  0  0  0  0  0  0  0
  148.0511  135.9908  160.2223 C   0  0  0  0  0  0  0  0  0  0  0  0
  147.0750  136.1789  161.3900 C   0  0  2  0  0  0  0  0  0  0  0  0
  146.0522  135.0550  161.5273 C   0  0  0  0  0  0  0  0  0  0  0  0
  144.9303  135.7126  162.3118 C   0  0  0  0  0  0  0  0  0  0  0  0
  145.1263  137.2095  162.0496 C   0  0  0  0  0  0  0  0  0  0  0  0
  146.2405  137.3052  161.1704 O   0  0  0  0  0  0  0  0  0  0  0  0
  150.9077  138.8792  158.9905 N   0  0  0  0  0  0  0  0  0  0  0  0
  151.7752  139.9863  159.0208 C   0  0  0  0  0  0  0  0  0  0  0  0
  151.3870  141.2909  159.0830 C   0  0  0  0  0  0  0  0  0  0  0  0
  152.3438  142.3900  159.1153 C   0  0  0  0  0  0  0  0  0  0  0  0
  151.9467  143.8556  159.0944 C   0  0  0  0  0  0  0  0  0  0  0  0
  152.5446  144.4735  158.0768 F   0  0  0  0  0  0  0  0  0  0  0  0
  150.6288  143.9920  158.9462 F   0  0  0  0  0  0  0  0  0  0  0  0
  152.3081  144.4665  160.2227 F   0  0  0  0  0  0  0  0  0  0  0  0
  153.6514  141.9493  159.0589 C   0  0  0  0  0  0  0  0  0  0  0  0
  154.1207  140.6835  159.0161 N   0  5  0  0  0  0  0  0  0  0  0  0
  153.2175  139.6633  158.9898 C   0  0  0  0  0  0  0  0  0  0  0  0
  153.5783  138.4867  158.9426 O   0  0  0  0  0  0  0  0  0  0  0  0
  148.2148  137.2409  157.9141 H   0  0  0  0  0  0  0  0  0  0  0  0
  149.7895  136.5609  158.3341 H   0  0  0  0  0  0  0  0  0  0  0  0
  147.5334  135.5947  159.3472 H   0  0  0  0  0  0  0  0  0  0  0  0
  148.8241  135.2733  160.5017 H   0  0  0  0  0  0  0  0  0  0  0  0
  147.6172  136.3009  162.3298 H   0  0  0  0  0  0  0  0  0  0  0  0
  145.6864  134.7566  160.5438 H   0  0  0  0  0  0  0  0  0  0  0  0
  146.4564  134.1710  162.0214 H   0  0  0  0  0  0  0  0  0  0  0  0
  143.9509  135.3591  161.9877 H   0  0  0  0  0  0  0  0  0  0  0  0
  145.0287  135.5016  163.3771 H   0  0  0  0  0  0  0  0  0  0  0  0
  144.2469  137.6701  161.5994 H   0  0  0  0  0  0  0  0  0  0  0  0
  145.3482  137.7366  162.9782 H   0  0  0  0  0  0  0  0  0  0  0  0
  151.2319  138.0919  159.5335 H   0  0  0  0  0  0  0  0  0  0  0  0
  150.3467  141.5645  159.1174 H   0  0  0  0  0  0  0  0  0  0  0  0
  154.4389  142.7328  159.0417 H   0  0  0  0  0  0  0  0  0  0  0  0
  1  2  2  0  0  0  0
  2  3  1  0  0  0  0
  2 11  1  0  0  0  0
  3  4  1  0  0  0  0
  3 23  1  0  0  0  0
  3 24  1  0  0  0  0
  4  5  1  0  0  0  0
  5  6  1  0  0  0  0
  5 25  1  0  0  0  0
  5 26  1  0  0  0  0
  6 10  1  0  0  0  0
  6  7  1  0  0  0  0
  6 27  1  0  0  0  0
  7  8  1  0  0  0  0
  7 28  1  0  0  0  0
  7 29  1  0  0  0  0
  8  9  1  0  0  0  0
  8 30  1  0  0  0  0
  8 31  1  0  0  0  0
  9 10  1  0  0  0  0
  9 32  1  0  0  0  0
  9 33  1  0  0  0  0
 11 12  1  0  0  0  0
 11 34  1  0  0  0  0
 12 21  1  0  0  0  0
 12 13  2  0  0  0  0
 13 14  1  0  0  0  0
 13 35  1  0  0  0  0
 14 15  1  0  0  0  0
 14 19  2  0  0  0  0
 15 16  1  0  0  0  0
 15 17  1  0  0  0  0
 15 18  1  0  0  0  0
 19 20  1  0  0  0  0
 19 36  1  0  0  0  0
 20 21  1  0  0  0  0
 21 22  2  0  0  0  0
M  CHG  1  20  -1
M  END
> <s_m_source_file>
AV-unprocessed.smi

> <i_m_source_file_index>
1060

> <i_lp_mmshare_version>
43012

> <i_f3d_flags>
0

> <s_epik_input>
Tz1jMVtuSF1bY0hdYyhDKEYpKEYpRilbY0hdYzFbTkhdQyg9TylbQ0gyXU9bQ0gyXVtDQEBIXTJbQ0gyXVtDSDJdW0NIMl1PMg==

> <s_epik_cmdline>
J2VwaWtfcHl0aG9uJywgJy1waCcsICc3LjAnLCAnLXRuJywgJzgnLCAnLW1hJywgJzIwMCcsICctbWV0YWxfYmluZGluZycsICctaW1hZScsICc8aW5maWxlLm1hZT4nLCAnLW9tYWUnLCAnPG91dGZpbGUubWFlPic=

> <r_epik_Ionization_Penalty>
2.50578

> <r_epik_Ionization_Penalty_Charging>
0.0523173

> <r_epik_Ionization_Penalty_Neutral>
2.45346

> <r_epik_State_Penalty>
2.61512

> <r_epik_Charging_Adjusted_Penalty>
2.66744

> <i_epik_Tot_Q>
-1

> <i_epik_Tot_abs_Q>
1

> <r_epik_Metal_State_Penalty>
0.513209

> <b_epik_Metal_Only>
0

> <s_lp_Force_Field>
OPLS_2005

> <r_lp_Energy>
34.3401

> <b_lp_Chiralities_Consistent>
1

> <s_lp_Variant>
AV-unprocessed.smi:1060-3

> <Gold.Version>
5.8.1

> <Gold.Id.Protein>
6NUR|6NUR_protein|mol2

> <Gold.PLP.Fitness>
44.7533

> <Gold.PLP.PLP>
-39.9672

> <Gold.PLP.part.hbond>
-3.2605

> <Gold.PLP.part.metal>
0.0000

> <Gold.PLP.part.buried>
-5.0057

> <Gold.PLP.part.nonpolar>
-32.1689

> <Gold.PLP.part.repulsive>
0.1924

> <Gold.PLP.ligand.clash>
0.0000

> <Gold.PLP.ligand.torsion>
0.7791

> <Gold.PLP.Chemscore.Hbond>
2.0497

> <Gold.PLP.Chemscore.CHOScore>
0.0000

> <Gold.PLP.Chemscore.Metal>
0.0000

> <Gold.Chemscore.Hbonds>
donor molecule, donor type, donor heavy atom, donor atom, acceptor molecule, acceptor atom, score
      P1  H  6931  6943       L1     4  0.26
      P1  H  6934  6947       L1    10  1.00
      P1  H  7997  8009       L1    20  0.80

> <Gold.PLP.Chemscore.Internal.Correction>
0.1952

> <Gold.Rescore>
     Score         DG    S(hbond)    S(metal)    S(lipo)     H(rot)  DE(clash)    DE(int)     intcor
     14.44     -15.31       1.41        0.00      85.82       1.92       0.19       0.68       ----

> <Gold.Chemscore.Fitness>
14.4382

> <Gold.Chemscore.DG>
-15.3072

> <Gold.Chemscore.ZeroCoef>
-5.4800

> <Gold.Chemscore.Hbond>
1.4067

> <Gold.Chemscore.Metal>
0.0000

> <Gold.Chemscore.Lipo>
85.8238

> <Gold.Chemscore.Internal_Hbond>
0.0000

> <Gold.Chemscore.DEClash>
0.1873

> <Gold.Chemscore.DEInternal>
0.6817

> <Gold.Chemscore.Rot>
1.9190

> <Gold.Chemscore.Internal.Correction>
   9.000000E+99

> <Gold.Chemscore.Hbonds>
donor molecule, donor type, donor heavy atom, donor atom, acceptor molecule, acceptor atom, score
      P1  H  6931  6943       L1     4  0.16
      P1  H  6934  6947       L1    10  0.89
      P1  H  7997  8009       L1    20  0.05

> <Gold.Chemscore.Hbond.Weighted>
-4.6984

> <Gold.Chemscore.Metal.Weighted>
-0.0000

> <Gold.Chemscore.Lipo.Weighted>
-10.0414

> <Gold.Chemscore.Internal_Hbond.Weighted>
0.0000

> <Gold.Chemscore.DEClash.Weighted>
0.1873

> <Gold.Chemscore.DEInternal.Weighted>
0.6817

> <Gold.Chemscore.Rot.Weighted>
4.9126

> <Gold.Chemscore.Internal.Correction.Weighted>
   9.000000E+99

> <Gold.Protein.RotatedTorsions>
[ 6907 6896 6895 6894 ] final   -9.03 input  -60.11 | X-H torsion
[ 7974 7965 7964 7962 ] final   74.95 input  175.53 | X-H torsion
[ 8008 7997 7996 7995 ] final  115.98 input   59.86 | X-H torsion
[ 10167 10162 10161 10158 ] final   32.77 input  -65.29 | X-H torsion
[ 10718 10713 10712 10709 ] final  163.35 input   66.30 | X-H torsion
[ 10763 10752 10751 10750 ] final   69.25 input  -60.55 | X-H torsion
[ 11005 11000 10999 10996 ] final   75.02 input  -57.11 | X-H torsion

> <Gold.Protein.ActiveResidues>
 VAL166  LYS551  ARG553  GLY616  TRP617  ASP618  TYR619  PRO620  LYS621  CYS622 
 ASP623  PHE694  ASN695  SER759  ASP760  ASP761  ALA762  ILE779  LEU786  VAL792 
 PHE793  MET794  SER795  GLU796  ALA797  LYS798  CYS799  TRP800  GLU811  SER814 

> <Gold.Protein.RotatedAtoms>
  151.4242  135.1001  159.9622 H   0  0  0  0  0  0  0  0  0  0  0  0  # atno 6907 bound_to 6896
  152.4978  133.8678  159.7293 H   0  0  0  0  0  0  0  0  0  0  0  0  # atno 6908 bound_to 6896
  150.9201  133.6833  159.2862 H   0  0  0  0  0  0  0  0  0  0  0  0  # atno 6909 bound_to 6896
  145.7217  139.2651  143.1592 H   0  0  0  0  0  0  0  0  0  0  0  0  # atno 7974 bound_to 7965
  156.2413  140.2927  156.0452 H   0  0  0  0  0  0  0  0  0  0  0  0  # atno 8008 bound_to 7997
  155.1943  140.0407  157.2923 H   0  0  0  0  0  0  0  0  0  0  0  0  # atno 8009 bound_to 7997
  154.6174  140.2467  155.7600 H   0  0  0  0  0  0  0  0  0  0  0  0  # atno 8010 bound_to 7997
  140.4468  144.1106  150.6184 H   0  0  0  0  0  0  0  0  0  0  0  0  # atno 10167 bound_to 10162
  157.1097  131.0464  151.2462 H   0  0  0  0  0  0  0  0  0  0  0  0  # atno 10718 bound_to 10713
  153.0277  135.5217  154.7259 H   0  0  0  0  0  0  0  0  0  0  0  0  # atno 10763 bound_to 10752
  154.6301  135.2899  155.0229 H   0  0  0  0  0  0  0  0  0  0  0  0  # atno 10764 bound_to 10752
  154.1184  135.6611  153.4951 H   0  0  0  0  0  0  0  0  0  0  0  0  # atno 10765 bound_to 10752
  139.9363  134.7482  156.1220 H   0  0  0  0  0  0  0  0  0  0  0  0  # atno 11005 bound_to 11000
  146.0619  140.7961  142.9730 LP  0  0  0  0  0  0  0  0  0  0  0  0  # atno 17320 bound_to 7965
  144.6915  140.3210  143.7232 LP  0  0  0  0  0  0  0  0  0  0  0  0  # atno 17321 bound_to 7965
  140.4254  143.2592  151.9663 LP  0  0  0  0  0  0  0  0  0  0  0  0  # atno 17342 bound_to 10162
  139.4793  144.5793  151.7959 LP  0  0  0  0  0  0  0  0  0  0  0  0  # atno 17343 bound_to 10162
  157.4570  130.7631  149.7201 LP  0  0  0  0  0  0  0  0  0  0  0  0  # atno 17370 bound_to 10713
  155.9853  130.3984  150.3267 LP  0  0  0  0  0  0  0  0  0  0  0  0  # atno 17371 bound_to 10713
  141.0978  133.6689  156.2685 LP  0  0  0  0  0  0  0  0  0  0  0  0  # atno 17394 bound_to 11000
  140.6067  134.5500  157.5527 LP  0  0  0  0  0  0  0  0  0  0  0  0  # atno 17395 bound_to 11000

$$$$
