AV-unprocessed.smi:1492|AV-procd|sdf|6040|dock6
  -GOLD-   22720 6153D 1   1.00000     0.00000
 Structure written by MMmdl.
 52 53  0  0  0  0  0  0  0  0  1 V2000
  143.0622  135.9340  153.1579 C   0  0  0  0  0  0  0  0  0  0  0  0
  144.3398  135.1085  153.3975 C   0  0  0  0  0  0  0  0  0  0  0  0
  145.6901  135.7673  152.9710 C   0  0  1  0  0  0  0  0  0  0  0  0
  145.5922  136.1854  151.4788 C   0  0  0  0  0  0  0  0  0  0  0  0
  145.8894  137.0863  153.7806 C   0  0  0  0  0  0  0  0  0  0  0  0
  147.1915  137.6888  153.5073 N   0  0  0  0  0  0  0  0  0  0  0  0
  147.7720  138.6705  154.2117 C   0  0  0  0  0  0  0  0  0  0  0  0
  147.2038  139.3125  155.0943 O   0  0  0  0  0  0  0  0  0  0  0  0
  149.2437  138.9297  153.8942 C   0  0  0  0  0  0  0  0  0  0  0  0
  149.8771  140.0438  154.7261 C   0  0  0  0  0  0  0  0  0  0  0  0
  149.3492  141.2911  154.8130 C   0  0  0  0  0  0  0  0  0  0  0  0
  148.0872  141.7397  154.0978 C   0  0  0  0  0  0  0  0  0  0  0  0
  149.9377  142.2645  155.6007 N   0  0  0  0  0  0  0  0  0  0  0  0
  151.0733  141.9214  156.3148 C   0  0  0  0  0  0  0  0  0  0  0  0
  151.6174  143.0462  157.1679 C   0  0  0  0  0  0  0  0  0  0  0  0
  151.6518  140.7595  156.2984 N   0  0  0  0  0  0  0  0  0  0  0  0
  151.1019  139.7406  155.5046 C   0  0  0  0  0  0  0  0  0  0  0  0
  151.6249  138.6273  155.4735 O   0  0  0  0  0  0  0  0  0  0  0  0
  146.8513  134.8495  153.1682 N   0  0  0  0  0  0  0  0  0  0  0  0
  147.1916  134.5625  154.5670 C   0  0  0  0  0  0  0  0  0  0  0  0
  148.4937  133.7540  154.6864 C   0  0  0  0  0  0  0  0  0  0  0  0
  148.3771  132.5455  153.9453 O   0  0  0  0  0  0  0  0  0  0  0  0
  148.0925  132.7746  152.5705 C   0  0  0  0  0  0  0  0  0  0  0  0
  146.7891  133.5805  152.4339 C   0  0  0  0  0  0  0  0  0  0  0  0
  149.5077  143.1773  155.6425 H   0  0  0  0  0  0  0  0  0  0  0  0
  142.1856  135.3721  153.4808 H   0  0  0  0  0  0  0  0  0  0  0  0
  142.9184  136.1699  152.1040 H   0  0  0  0  0  0  0  0  0  0  0  0
  143.0655  136.8672  153.7200 H   0  0  0  0  0  0  0  0  0  0  0  0
  144.3674  134.8616  154.4585 H   0  0  0  0  0  0  0  0  0  0  0  0
  144.2105  134.1601  152.8772 H   0  0  0  0  0  0  0  0  0  0  0  0
  144.9293  137.0386  151.3345 H   0  0  0  0  0  0  0  0  0  0  0  0
  145.2022  135.3821  150.8533 H   0  0  0  0  0  0  0  0  0  0  0  0
  146.5654  136.4714  151.0774 H   0  0  0  0  0  0  0  0  0  0  0  0
  145.1400  137.8286  153.5066 H   0  0  0  0  0  0  0  0  0  0  0  0
  145.7428  136.9155  154.8478 H   0  0  0  0  0  0  0  0  0  0  0  0
  147.7496  137.2359  152.7981 H   0  0  0  0  0  0  0  0  0  0  0  0
  149.8042  138.0009  154.0084 H   0  0  0  0  0  0  0  0  0  0  0  0
  149.3295  139.1759  152.8357 H   0  0  0  0  0  0  0  0  0  0  0  0
  147.2413  141.1199  154.3955 H   0  0  0  0  0  0  0  0  0  0  0  0
  148.2115  141.6620  153.0176 H   0  0  0  0  0  0  0  0  0  0  0  0
  147.8395  142.7758  154.3316 H   0  0  0  0  0  0  0  0  0  0  0  0
  152.5325  142.7416  157.6771 H   0  0  0  0  0  0  0  0  0  0  0  0
  150.8867  143.3351  157.9239 H   0  0  0  0  0  0  0  0  0  0  0  0
  151.8437  143.9169  156.5517 H   0  0  0  0  0  0  0  0  0  0  0  0
  147.3135  135.4798  155.1388 H   0  0  0  0  0  0  0  0  0  0  0  0
  146.3888  133.9992  155.0429 H   0  0  0  0  0  0  0  0  0  0  0  0
  149.3412  134.3331  154.3206 H   0  0  0  0  0  0  0  0  0  0  0  0
  148.6973  133.5142  155.7300 H   0  0  0  0  0  0  0  0  0  0  0  0
  148.9229  133.3049  152.1034 H   0  0  0  0  0  0  0  0  0  0  0  0
  148.0002  131.8152  152.0617 H   0  0  0  0  0  0  0  0  0  0  0  0
  145.9605  132.9726  152.7966 H   0  0  0  0  0  0  0  0  0  0  0  0
  146.6170  133.7507  151.3726 H   0  0  0  0  0  0  0  0  0  0  0  0
  1  2  1  0  0  0  0
  1 26  1  0  0  0  0
  1 27  1  0  0  0  0
  1 28  1  0  0  0  0
  2  3  1  0  0  0  0
  2 29  1  0  0  0  0
  2 30  1  0  0  0  0
  3  4  1  0  0  0  0
  3  5  1  0  0  0  0
  3 19  1  0  0  0  0
  4 31  1  0  0  0  0
  4 32  1  0  0  0  0
  4 33  1  0  0  0  0
  5  6  1  0  0  0  0
  5 34  1  0  0  0  0
  5 35  1  0  0  0  0
  6  7  1  0  0  0  0
  6 36  1  0  0  0  0
  7  8  2  0  0  0  0
  7  9  1  0  0  0  0
  9 37  1  0  0  0  0
  9 38  1  0  0  0  0
  9 10  1  0  0  0  0
 10 17  1  0  0  0  0
 10 11  2  0  0  0  0
 11 12  1  0  0  0  0
 11 13  1  0  0  0  0
 12 39  1  0  0  0  0
 12 40  1  0  0  0  0
 12 41  1  0  0  0  0
 13 25  1  0  0  0  0
 13 14  1  0  0  0  0
 14 15  1  0  0  0  0
 14 16  2  0  0  0  0
 15 42  1  0  0  0  0
 15 43  1  0  0  0  0
 15 44  1  0  0  0  0
 16 17  1  0  0  0  0
 17 18  2  0  0  0  0
 19 24  1  0  0  0  0
 19 20  1  0  0  0  0
 20 21  1  0  0  0  0
 20 45  1  0  0  0  0
 20 46  1  0  0  0  0
 21 22  1  0  0  0  0
 21 47  1  0  0  0  0
 21 48  1  0  0  0  0
 22 23  1  0  0  0  0
 23 24  1  0  0  0  0
 23 49  1  0  0  0  0
 23 50  1  0  0  0  0
 24 51  1  0  0  0  0
 24 52  1  0  0  0  0
M  END
> <s_m_source_file>
AV-unprocessed.smi

> <i_m_source_file_index>
1492

> <i_lp_mmshare_version>
43012

> <i_f3d_flags>
0

> <s_epik_input>
W0NIMl0xW0NIMl1PW0NIMl1bQ0gyXU4xW0NAQF0oW0NIM10pKFtDSDJdW0NIM10pW0NIMl1bTkhdQyg9TylbQ0gyXWMyYyhbQ0gzXSluYyhbQ0gzXSlbbkhdYzI9Tw==

> <s_epik_cmdline>
J2VwaWtfcHl0aG9uJywgJy1waCcsICc3LjAnLCAnLXRuJywgJzgnLCAnLW1hJywgJzIwMCcsICctbWV0YWxfYmluZGluZycsICctaW1hZScsICc8aW5maWxlLm1hZT4nLCAnLW9tYWUnLCAnPG91dGZpbGUubWFlPic=

> <r_lp_tautomer_probability>
0.156392

> <r_epik_Ionization_Penalty>
0.342516

> <r_epik_Ionization_Penalty_Charging>
0.0141408

> <r_epik_Ionization_Penalty_Neutral>
0.328375

> <r_epik_State_Penalty>
1.47662

> <r_epik_Charging_Adjusted_Penalty>
1.49076

> <i_epik_Tot_Q>
0

> <i_epik_Tot_abs_Q>
0

> <r_epik_Metal_State_Penalty>
1.65506

> <b_epik_Metal_Only>
0

> <s_lp_Force_Field>
OPLS_2005

> <r_lp_Energy>
46.8903

> <b_lp_Chiralities_Consistent>
1

> <s_lp_Variant>
AV-unprocessed.smi:1492-5

> <Gold.Version>
5.8.1

> <Gold.Id.Protein>
6NUR|6NUR_protein|mol2

> <Gold.PLP.Fitness>
40.1797

> <Gold.PLP.PLP>
-34.4794

> <Gold.PLP.part.hbond>
-2.0000

> <Gold.PLP.part.metal>
0.0000

> <Gold.PLP.part.buried>
-5.3346

> <Gold.PLP.part.nonpolar>
-29.9005

> <Gold.PLP.part.repulsive>
2.0862

> <Gold.PLP.ligand.clash>
0.0000

> <Gold.PLP.ligand.torsion>
0.2187

> <Gold.PLP.Chemscore.Hbond>
2.0000

> <Gold.PLP.Chemscore.CHOScore>
0.0000

> <Gold.PLP.Chemscore.Metal>
0.0000

> <Gold.Chemscore.Hbonds>
donor molecule, donor type, donor heavy atom, donor atom, acceptor molecule, acceptor atom, score
      L1  H     6    36       P1  7948  1.00
      L1  H    13    25       P1  8028  1.00

> <Gold.PLP.Chemscore.Internal.Correction>
0.1376

> <Gold.Rescore>
     Score         DG    S(hbond)    S(metal)    S(lipo)     H(rot)  DE(clash)    DE(int)     intcor
     14.91     -15.29       2.00        0.00      73.09       2.12       0.06       0.32       ----

> <Gold.Chemscore.Fitness>
14.9119

> <Gold.Chemscore.DG>
-15.2902

> <Gold.Chemscore.ZeroCoef>
-5.4800

> <Gold.Chemscore.Hbond>
1.9983

> <Gold.Chemscore.Metal>
0.0000

> <Gold.Chemscore.Lipo>
73.0918

> <Gold.Chemscore.Internal_Hbond>
0.0000

> <Gold.Chemscore.DEClash>
0.0622

> <Gold.Chemscore.DEInternal>
0.3161

> <Gold.Chemscore.Rot>
2.1155

> <Gold.Chemscore.Internal.Correction>
   9.000000E+99

> <Gold.Chemscore.Hbonds>
donor molecule, donor type, donor heavy atom, donor atom, acceptor molecule, acceptor atom, score
      L1  H     6    36       P1  7948  1.00
      L1  H    13    25       P1  8028  1.00

> <Gold.Chemscore.Hbond.Weighted>
-6.6742

> <Gold.Chemscore.Metal.Weighted>
-0.0000

> <Gold.Chemscore.Lipo.Weighted>
-8.5517

> <Gold.Chemscore.Internal_Hbond.Weighted>
0.0000

> <Gold.Chemscore.DEClash.Weighted>
0.0622

> <Gold.Chemscore.DEInternal.Weighted>
0.3161

> <Gold.Chemscore.Rot.Weighted>
5.4157

> <Gold.Chemscore.Internal.Correction.Weighted>
   9.000000E+99

> <Gold.Protein.RotatedTorsions>
[ 6907 6896 6895 6894 ] final   36.95 input  -60.11 | X-H torsion
[ 7974 7965 7964 7962 ] final   34.99 input  175.53 | X-H torsion
[ 8008 7997 7996 7995 ] final   55.20 input   59.86 | X-H torsion
[ 10167 10162 10161 10158 ] final   -6.91 input  -65.29 | X-H torsion
[ 10718 10713 10712 10709 ] final  110.31 input   66.30 | X-H torsion
[ 10763 10752 10751 10750 ] final  -92.95 input  -60.55 | X-H torsion
[ 11005 11000 10999 10996 ] final  -82.42 input  -57.11 | X-H torsion

> <Gold.Protein.ActiveResidues>
 VAL166  LYS551  ARG553  GLY616  TRP617  ASP618  TYR619  PRO620  LYS621  CYS622 
 ASP623  PHE694  ASN695  SER759  ASP760  ASP761  ALA762  ILE779  LEU786  VAL792 
 PHE793  MET794  SER795  GLU796  ALA797  LYS798  CYS799  TRP800  GLU811  SER814 

> <Gold.Protein.RotatedAtoms>
  152.1366  134.9095  160.0555 H   0  0  0  0  0  0  0  0  0  0  0  0  # atno 6907 bound_to 6896
  152.0179  133.3882  159.4254 H   0  0  0  0  0  0  0  0  0  0  0  0  # atno 6908 bound_to 6896
  150.6861  134.3580  159.4982 H   0  0  0  0  0  0  0  0  0  0  0  0  # atno 6909 bound_to 6896
  146.1314  139.6198  142.9224 H   0  0  0  0  0  0  0  0  0  0  0  0  # atno 7974 bound_to 7965
  155.4972  140.3473  155.4365 H   0  0  0  0  0  0  0  0  0  0  0  0  # atno 8008 bound_to 7997
  156.0938  140.1417  156.9586 H   0  0  0  0  0  0  0  0  0  0  0  0  # atno 8009 bound_to 7997
  154.4651  140.0920  156.6975 H   0  0  0  0  0  0  0  0  0  0  0  0  # atno 8010 bound_to 7997
  140.7012  143.6141  150.8676 H   0  0  0  0  0  0  0  0  0  0  0  0  # atno 10167 bound_to 10162
  157.6500  131.0930  150.6583 H   0  0  0  0  0  0  0  0  0  0  0  0  # atno 10718 bound_to 10713
  154.6911  135.5212  153.8394 H   0  0  0  0  0  0  0  0  0  0  0  0  # atno 10763 bound_to 10752
  153.0633  135.6576  154.0422 H   0  0  0  0  0  0  0  0  0  0  0  0  # atno 10764 bound_to 10752
  154.0296  135.2986  155.3350 H   0  0  0  0  0  0  0  0  0  0  0  0  # atno 10765 bound_to 10752
  141.1663  133.7244  156.8569 H   0  0  0  0  0  0  0  0  0  0  0  0  # atno 11005 bound_to 11000
  145.5252  141.0430  143.2413 LP  0  0  0  0  0  0  0  0  0  0  0  0  # atno 17320 bound_to 7965
  144.7694  139.6769  143.7201 LP  0  0  0  0  0  0  0  0  0  0  0  0  # atno 17321 bound_to 7965
  139.9863  143.5896  152.2926 LP  0  0  0  0  0  0  0  0  0  0  0  0  # atno 17342 bound_to 10162
  139.6535  144.7661  151.2102 LP  0  0  0  0  0  0  0  0  0  0  0  0  # atno 17343 bound_to 10162
  156.6896  130.4591  149.5604 LP  0  0  0  0  0  0  0  0  0  0  0  0  # atno 17370 bound_to 10713
  156.1871  130.6536  151.1019 LP  0  0  0  0  0  0  0  0  0  0  0  0  # atno 17371 bound_to 10713
  140.1876  134.8989  157.3022 LP  0  0  0  0  0  0  0  0  0  0  0  0  # atno 17394 bound_to 11000
  140.2326  134.3891  155.7515 LP  0  0  0  0  0  0  0  0  0  0  0  0  # atno 17395 bound_to 11000

$$$$
