#       Name:                AV-unprocessed.smi:663
#       Creating user name   scv26
#       Creation time:       Fri Mar 27 00:20:07 2020


#       File generated by GOLD software.
#

@<TRIPOS>MOLECULE
AV-unprocessed.smi:663
    36    37     1
SMALL
NO_CHARGES


@<TRIPOS>ATOM
      1 ****        -3.1476   0.9172   0.7026 N.am           1 S1                 0.0000
      2 ****        -2.5721   0.4616  -0.4129 C.2            1 S1                 0.0000
      3 ****        -2.4985   1.1379  -1.4367 O.2            1 S1                 0.0000
      4 ****        -2.0062  -0.9630  -0.3779 C.3            1 S1                 0.0000
      5 ****        -0.4806  -1.0357  -0.6213 C.3            1 S1                 0.0000
      6 ****         0.2411  -0.3968   0.4816 N.am           1 S1                 0.0000
      7 ****         0.8504   0.7985   0.4667 C.2            1 S1                 0.0000
      8 ****         0.8489   1.4837  -0.5584 O.2            1 S1                 0.0000
      9 ****         1.4154   1.1317   1.6496 N.pl3          1 S1                -1.0000
     10 ****         2.0170   2.3241   1.7917 C.2            1 S1                 0.0000
     11 ****         3.3468   2.4777   1.6852 N.2            1 S1                 0.0000
     12 ****         3.7605   3.7906   1.8668 N.2            1 S1                 0.0000
     13 ****         2.7276   4.5958   2.1139 C.2            1 S1                 0.0000
     14 ****         1.1569   3.8230   2.1552 S.3            1 S1                 0.0000
     15 ****        -0.0424  -2.4744  -0.8244 C.3            1 S1                 0.0000
     16 ****         1.1474  -2.8122  -1.6902 C.3            1 S1                 0.0000
     17 ****        -0.2486  -3.1723  -2.1477 C.3            1 S1                 0.0000
     18 ****        -3.5084   1.8595   0.7299 H              1 S1                 0.0000
     19 ****        -3.1956   0.3288   1.5215 H              1 S1                 0.0000
     20 ****        -2.2554  -1.4409   0.5710 H              1 S1                 0.0000
     21 ****        -2.5258  -1.5333  -1.1486 H              1 S1                 0.0000
     22 ****        -0.2620  -0.5115  -1.5537 H              1 S1                 0.0000
     23 ****         0.2787  -0.9118   1.3489 H              1 S1                 0.0000
     24 ****         2.8917   5.6504   2.2771 H              1 S1                 0.0000
     25 ****        -0.1760  -3.0973   0.0584 H              1 S1                 0.0000
     26 ****         1.6494  -1.9932  -2.2019 H              1 S1                 0.0000
     27 ****         1.7947  -3.6218  -1.3593 H              1 S1                 0.0000
     28 ****        -0.5327  -4.2222  -2.1218 H              1 S1                 0.0000
     29 ****        -0.6731  -2.5936  -2.9658 H              1 S1                 0.0000
     30 ****        -2.8773   2.0632  -1.4529 LP             1 S1                 0.0000
     31 ****        -2.0599   0.7627  -2.2533 LP             1 S1                 0.0000
     32 ****         0.3924   1.1490  -1.3828 LP             1 S1                 0.0000
     33 ****         1.3041   2.3740  -0.5653 LP             1 S1                 0.0000
     34 ****         1.3852   0.4913   2.4171 LP             1 S1                 0.0000
     35 ****         3.9750   1.7234   1.4946 LP             1 S1                 0.0000
     36 ****         4.7123   4.0934   1.8184 LP             1 S1                 0.0000
@<TRIPOS>BOND
    1    1    2 am    
    2    1   18 1     
    3    1   19 1     
    4    2    3 2     
    5    2    4 1     
    6    4    5 1     
    7    4   20 1     
    8    4   21 1     
    9    5    6 1     
   10    5   15 1     
   11    5   22 1     
   12    6    7 am    
   13    6   23 1     
   14    7    8 2     
   15    7    9 1     
   16    9   10 1     
   17   10   14 1     
   18   10   11 2     
   19   11   12 1     
   20   12   13 2     
   21   13   14 1     
   22   13   24 1     
   23   15   17 1     
   24   15   16 1     
   25   15   25 1     
   26   16   17 1     
   27   16   26 1     
   28   16   27 1     
   29   17   28 1     
   30   17   29 1     
   31    3   30 1     
   32    3   31 1     
   33    8   32 1     
   34    8   33 1     
   35    9   34 1     
   36   11   35 1     
   37   12   36 1     
@<TRIPOS>SUBSTRUCTURE
      1 S1             1
@<TRIPOS>SET
LONE_PAIRS      STATIC     ATOMS    <user>   **** ""
7 30 31 32 33 34 35 36
DONOR_HYDROGENS      STATIC     ATOMS    <user>   **** ""
3 18 19 23
ATOM$BLUE        STATIC     ATOMS    COLORGROUP SYSTEM
7 30 31 32 33 34 35 36
ATOM$RED        STATIC     ATOMS    COLORGROUP SYSTEM
3 18 19 23
