AV-unprocessed.smi:1663|AV-procd|sdf|6665|dock5
  -GOLD-   22720 7373D 1   1.00000     0.00000
 Structure written by MMmdl.
 39 40  0  0  0  0  0  0  0  0  2 V2000
  146.6898  135.7219  154.4617 C   0  0  0  0  0  0  0  0  0  0  0  0
  147.3676  136.9909  154.1200 N   0  3  2  0  0  0  0  0  0  0  0  0
  147.9871  137.6375  155.3030 C   0  0  0  0  0  0  0  0  0  0  0  0
  148.7894  138.8852  154.8956 C   0  0  0  0  0  0  0  0  0  0  0  0
  147.9115  139.8926  154.1259 C   0  0  1  0  0  0  0  0  0  0  0  0
  148.6975  141.1357  153.6574 C   0  0  0  0  0  0  0  0  0  0  0  0
  149.1739  141.9582  154.7651 N   0  0  0  0  0  0  0  0  0  0  0  0
  150.2138  141.6563  155.5560 C   0  0  0  0  0  0  0  0  0  0  0  0
  150.9095  140.6515  155.4051 O   0  0  0  0  0  0  0  0  0  0  0  0
  150.3832  142.5853  156.5137 N   0  0  0  0  0  0  0  0  0  0  0  0
  151.3424  142.6027  157.5613 C   0  0  0  0  0  0  0  0  0  0  0  0
  151.7864  143.8884  157.9448 C   0  0  0  0  0  0  0  0  0  0  0  0
  152.7327  144.0146  158.9802 C   0  0  0  0  0  0  0  0  0  0  0  0
  153.2117  142.8502  159.6063 C   0  0  0  0  0  0  0  0  0  0  0  0
  152.7195  141.6088  159.1631 C   0  0  0  0  0  0  0  0  0  0  0  0
  151.8128  141.4856  158.1706 N   0  0  0  0  0  0  0  0  0  0  0  0
  147.2538  139.1767  152.9325 C   0  0  0  0  0  0  0  0  0  0  0  0
  146.4828  137.9239  153.3800 C   0  0  0  0  0  0  0  0  0  0  0  0
  145.8605  135.8930  155.1493 H   0  0  0  0  0  0  0  0  0  0  0  0
  147.3872  135.0281  154.9319 H   0  0  0  0  0  0  0  0  0  0  0  0
  146.2973  135.2407  153.5651 H   0  0  0  0  0  0  0  0  0  0  0  0
  147.2108  137.9082  156.0205 H   0  0  0  0  0  0  0  0  0  0  0  0
  148.6475  136.9280  155.8029 H   0  0  0  0  0  0  0  0  0  0  0  0
  149.2062  139.3495  155.7899 H   0  0  0  0  0  0  0  0  0  0  0  0
  149.6383  138.5875  154.2785 H   0  0  0  0  0  0  0  0  0  0  0  0
  147.1139  140.2247  154.7924 H   0  0  0  0  0  0  0  0  0  0  0  0
  149.5642  140.8291  153.0711 H   0  0  0  0  0  0  0  0  0  0  0  0
  148.0814  141.7449  152.9934 H   0  0  0  0  0  0  0  0  0  0  0  0
  148.6575  142.8036  154.9596 H   0  0  0  0  0  0  0  0  0  0  0  0
  149.7363  143.3598  156.5070 H   0  0  0  0  0  0  0  0  0  0  0  0
  151.4066  144.7729  157.4546 H   0  0  0  0  0  0  0  0  0  0  0  0
  153.0840  144.9880  159.2887 H   0  0  0  0  0  0  0  0  0  0  0  0
  153.9371  142.9062  160.4045 H   0  0  0  0  0  0  0  0  0  0  0  0
  153.0623  140.6910  159.6170 H   0  0  0  0  0  0  0  0  0  0  0  0
  146.5749  139.8577  152.4181 H   0  0  0  0  0  0  0  0  0  0  0  0
  148.0159  138.8942  152.2046 H   0  0  0  0  0  0  0  0  0  0  0  0
  146.0708  137.4197  152.5049 H   0  0  0  0  0  0  0  0  0  0  0  0
  145.6383  138.2070  154.0104 H   0  0  0  0  0  0  0  0  0  0  0  0
  148.1227  136.7516  153.4931 H   0  0  0  0  0  0  0  0  0  0  0  0
  1  2  1  0  0  0  0
  1 19  1  0  0  0  0
  1 20  1  0  0  0  0
  1 21  1  0  0  0  0
  2 18  1  0  0  0  0
  2  3  1  0  0  0  0
  2 39  1  0  0  0  0
  3  4  1  0  0  0  0
  3 22  1  0  0  0  0
  3 23  1  0  0  0  0
  4  5  1  0  0  0  0
  4 24  1  0  0  0  0
  4 25  1  0  0  0  0
  5  6  1  0  0  0  0
  5 17  1  0  0  0  0
  5 26  1  0  0  0  0
  6  7  1  0  0  0  0
  6 27  1  0  0  0  0
  6 28  1  0  0  0  0
  7  8  1  0  0  0  0
  7 29  1  0  0  0  0
  8  9  2  0  0  0  0
  8 10  1  0  0  0  0
 10 11  1  0  0  0  0
 10 30  1  0  0  0  0
 11 16  1  0  0  0  0
 11 12  2  0  0  0  0
 12 13  1  0  0  0  0
 12 31  1  0  0  0  0
 13 14  2  0  0  0  0
 13 32  1  0  0  0  0
 14 15  1  0  0  0  0
 14 33  1  0  0  0  0
 15 16  2  0  0  0  0
 15 34  1  0  0  0  0
 17 18  1  0  0  0  0
 17 35  1  0  0  0  0
 17 36  1  0  0  0  0
 18 37  1  0  0  0  0
 18 38  1  0  0  0  0
M  CHG  1   2   1
M  END
> <s_m_source_file>
AV-unprocessed.smi

> <i_m_source_file_index>
1663

> <i_lp_mmshare_version>
43012

> <i_f3d_flags>
0

> <s_epik_input>
W0NIM11OMVtDSDJdW0NIMl1bQ0hdKFtDSDJdW0NIMl0xKVtDSDJdW05IXUMoPU8pW05IXWMyW2NIXVtjSF1bY0hdW2NIXW4y

> <s_epik_cmdline>
J2VwaWtfcHl0aG9uJywgJy1waCcsICc3LjAnLCAnLXRuJywgJzgnLCAnLW1hJywgJzIwMCcsICctbWV0YWxfYmluZGluZycsICctaW1hZScsICc8aW5maWxlLm1hZT4nLCAnLW9tYWUnLCAnPG91dGZpbGUubWFlPic=

> <r_epik_Ionization_Penalty>
0.00110639

> <r_epik_Ionization_Penalty_Charging>
0.00106265

> <r_epik_Ionization_Penalty_Neutral>
4.37361e-05

> <r_epik_State_Penalty>
0.000695551

> <r_epik_Charging_Adjusted_Penalty>
0.0017582

> <i_epik_Tot_Q>
1

> <i_epik_Tot_abs_Q>
1

> <r_epik_Metal_State_Penalty>
-0

> <b_epik_Metal_Only>
0

> <s_lp_Force_Field>
OPLS_2005

> <r_lp_Energy>
18.6494

> <b_lp_Chiralities_Consistent>
1

> <s_lp_Variant>
AV-unprocessed.smi:1663-1

> <Gold.Version>
5.8.1

> <Gold.Id.Protein>
6NUR|6NUR_protein|mol2

> <Gold.PLP.Fitness>
45.8545

> <Gold.PLP.PLP>
-33.2445

> <Gold.PLP.part.hbond>
-4.0000

> <Gold.PLP.part.metal>
0.0000

> <Gold.PLP.part.buried>
-2.0712

> <Gold.PLP.part.nonpolar>
-26.3050

> <Gold.PLP.part.repulsive>
0.3360

> <Gold.PLP.ligand.clash>
0.0000

> <Gold.PLP.ligand.torsion>
0.3448

> <Gold.PLP.Chemscore.Hbond>
4.4320

> <Gold.PLP.Chemscore.CHOScore>
0.0000

> <Gold.PLP.Chemscore.Metal>
0.0000

> <Gold.Chemscore.Hbonds>
donor molecule, donor type, donor heavy atom, donor atom, acceptor molecule, acceptor atom, score
      L1  H     2    39       P1  7948  2.00
      L1  H     7    29       P1  8028  0.86
      L1  H    10    30       P1  8028  1.00
      P1  H  7989  7998       L1     9  0.84

> <Gold.PLP.Chemscore.Internal.Correction>
0.0036

> <Gold.Rescore>
     Score         DG    S(hbond)    S(metal)    S(lipo)     H(rot)  DE(clash)    DE(int)     intcor
     19.18     -22.31       3.28        0.00      78.04       1.28       0.41       2.72       ----

> <Gold.Chemscore.Fitness>
19.1840

> <Gold.Chemscore.DG>
-22.3105

> <Gold.Chemscore.ZeroCoef>
-5.4800

> <Gold.Chemscore.Hbond>
3.2842

> <Gold.Chemscore.Metal>
0.0000

> <Gold.Chemscore.Lipo>
78.0359

> <Gold.Chemscore.Internal_Hbond>
0.0000

> <Gold.Chemscore.DEClash>
0.4109

> <Gold.Chemscore.DEInternal>
2.7156

> <Gold.Chemscore.Rot>
1.2770

> <Gold.Chemscore.Internal.Correction>
   9.000000E+99

> <Gold.Chemscore.Hbonds>
donor molecule, donor type, donor heavy atom, donor atom, acceptor molecule, acceptor atom, score
      L1  H     2    39       P1  7948  0.99
      L1  H     7    29       P1  8028  0.78
      L1  H    10    30       P1  8028  0.96
      P1  H  7989  7998       L1     9  0.31

> <Gold.Chemscore.Hbond.Weighted>
-10.9694

> <Gold.Chemscore.Metal.Weighted>
-0.0000

> <Gold.Chemscore.Lipo.Weighted>
-9.1302

> <Gold.Chemscore.Internal_Hbond.Weighted>
0.0000

> <Gold.Chemscore.DEClash.Weighted>
0.4109

> <Gold.Chemscore.DEInternal.Weighted>
2.7156

> <Gold.Chemscore.Rot.Weighted>
3.2691

> <Gold.Chemscore.Internal.Correction.Weighted>
   9.000000E+99

> <Gold.Protein.RotatedTorsions>
[ 6907 6896 6895 6894 ] final -112.36 input  -60.11 | X-H torsion
[ 7974 7965 7964 7962 ] final  -46.37 input  175.53 | X-H torsion
[ 8008 7997 7996 7995 ] final   43.14 input   59.86 | X-H torsion
[ 10167 10162 10161 10158 ] final    8.46 input  -65.29 | X-H torsion
[ 10718 10713 10712 10709 ] final -143.66 input   66.30 | X-H torsion
[ 10763 10752 10751 10750 ] final  171.83 input  -60.55 | X-H torsion
[ 11005 11000 10999 10996 ] final   30.74 input  -57.11 | X-H torsion

> <Gold.Protein.ActiveResidues>
 VAL166  LYS551  ARG553  GLY616  TRP617  ASP618  TYR619  PRO620  LYS621  CYS622 
 ASP623  PHE694  ASN695  SER759  ASP760  ASP761  ALA762  ILE779  LEU786  VAL792 
 PHE793  MET794  SER795  GLU796  ALA797  LYS798  CYS799  TRP800  GLU811  SER814 

> <Gold.Protein.RotatedAtoms>
  150.7753  133.9101  159.3366 H   0  0  0  0  0  0  0  0  0  0  0  0  # atno 6907 bound_to 6896
  151.6977  135.0933  160.0254 H   0  0  0  0  0  0  0  0  0  0  0  0  # atno 6908 bound_to 6896
  152.3787  133.6478  159.6179 H   0  0  0  0  0  0  0  0  0  0  0  0  # atno 6909 bound_to 6896
  145.9726  140.7367  142.9403 H   0  0  0  0  0  0  0  0  0  0  0  0  # atno 7974 bound_to 7965
  155.2978  140.3383  155.4249 H   0  0  0  0  0  0  0  0  0  0  0  0  # atno 8008 bound_to 7997
  156.2015  140.1735  156.7928 H   0  0  0  0  0  0  0  0  0  0  0  0  # atno 8009 bound_to 7997
  154.5566  140.0695  156.8737 H   0  0  0  0  0  0  0  0  0  0  0  0  # atno 8010 bound_to 7997
  140.6313  143.7987  150.7299 H   0  0  0  0  0  0  0  0  0  0  0  0  # atno 10167 bound_to 10162
  156.3607  130.7736  151.1903 H   0  0  0  0  0  0  0  0  0  0  0  0  # atno 10718 bound_to 10713
  154.4175  135.2757  155.1997 H   0  0  0  0  0  0  0  0  0  0  0  0  # atno 10763 bound_to 10752
  154.3957  135.6056  153.5872 H   0  0  0  0  0  0  0  0  0  0  0  0  # atno 10764 bound_to 10752
  152.9832  135.5914  154.4466 H   0  0  0  0  0  0  0  0  0  0  0  0  # atno 10765 bound_to 10752
  140.2912  134.2862  155.7775 H   0  0  0  0  0  0  0  0  0  0  0  0  # atno 11005 bound_to 11000
  144.6841  140.2774  143.7297 LP  0  0  0  0  0  0  0  0  0  0  0  0  # atno 17320 bound_to 7965
  145.7884  139.1917  143.2117 LP  0  0  0  0  0  0  0  0  0  0  0  0  # atno 17321 bound_to 7965
  140.1599  143.4284  152.2074 LP  0  0  0  0  0  0  0  0  0  0  0  0  # atno 17342 bound_to 10162
  139.5527  144.7350  151.4387 LP  0  0  0  0  0  0  0  0  0  0  0  0  # atno 17343 bound_to 10162
  157.7473  131.0401  150.4581 LP  0  0  0  0  0  0  0  0  0  0  0  0  # atno 17370 bound_to 10713
  156.4792  130.4070  149.6472 LP  0  0  0  0  0  0  0  0  0  0  0  0  # atno 17371 bound_to 10713
  141.2146  133.7586  156.9628 LP  0  0  0  0  0  0  0  0  0  0  0  0  # atno 17394 bound_to 11000
  140.1194  134.9427  157.2181 LP  0  0  0  0  0  0  0  0  0  0  0  0  # atno 17395 bound_to 11000

$$$$
