AV-unprocessed.smi:100|AV-procd|sdf|902|dock8
  -GOLD-   2262017403D 1   1.00000     0.00000
 Structure written by MMmdl.
 31 33  0  0  0  0  0  0  0  0  1 V2000
  142.7941  144.6607  156.1968 N   0  0  0  0  0  0  0  0  0  0  0  0
  143.6846  144.3922  155.2319 C   0  0  0  0  0  0  0  0  0  0  0  0
  143.6743  145.1585  154.1166 N   0  0  0  0  0  0  0  0  0  0  0  0
  144.5511  144.9083  153.1392 C   0  0  0  0  0  0  0  0  0  0  0  0
  145.4939  143.9642  153.0846 N   0  0  0  0  0  0  0  0  0  0  0  0
  145.5076  143.1931  154.2121 C   0  0  0  0  0  0  0  0  0  0  0  0
  144.6343  143.3434  155.3258 C   0  0  0  0  0  0  0  0  0  0  0  0
  144.9237  142.3869  156.2889 N   0  0  0  0  0  0  0  0  0  0  0  0
  145.9130  141.7110  155.7702 C   0  0  0  0  0  0  0  0  0  0  0  0
  146.3331  142.1292  154.5258 N   0  0  0  0  0  0  0  0  0  0  0  0
  147.4456  141.5468  153.7044 C   0  0  1  0  0  0  0  0  0  0  0  0
  148.6432  141.6754  154.4119 O   0  0  0  0  0  0  0  0  0  0  0  0
  149.3625  140.4482  154.3521 C   0  0  1  0  0  0  0  0  0  0  0  0
  150.3531  140.3369  155.5215 C   0  0  0  0  0  0  0  0  0  0  0  0
  151.6771  140.4892  155.0559 O   0  0  0  0  0  0  0  0  0  0  0  0
  148.2645  139.3818  154.3091 C   0  0  1  0  0  0  0  0  0  0  0  0
  147.7668  139.1891  155.5327 F   0  0  0  0  0  0  0  0  0  0  0  0
  147.2424  140.0464  153.4019 C   0  0  1  0  0  0  0  0  0  0  0  0
  145.9333  139.5428  153.6018 O   0  0  0  0  0  0  0  0  0  0  0  0
  142.7816  144.1025  157.0382 H   0  0  0  0  0  0  0  0  0  0  0  0
  142.1399  145.4210  156.0816 H   0  0  0  0  0  0  0  0  0  0  0  0
  144.4894  145.5565  152.2776 H   0  0  0  0  0  0  0  0  0  0  0  0
  146.3733  140.8829  156.2892 H   0  0  0  0  0  0  0  0  0  0  0  0
  147.4660  142.1617  152.8036 H   0  0  0  0  0  0  0  0  0  0  0  0
  149.9091  140.4396  153.4071 H   0  0  0  0  0  0  0  0  0  0  0  0
  150.1550  141.1201  156.2535 H   0  0  0  0  0  0  0  0  0  0  0  0
  150.2518  139.3833  156.0404 H   0  0  0  0  0  0  0  0  0  0  0  0
  152.1405  139.6784  155.2005 H   0  0  0  0  0  0  0  0  0  0  0  0
  148.6117  138.4175  153.9371 H   0  0  0  0  0  0  0  0  0  0  0  0
  147.5277  139.8815  152.3621 H   0  0  0  0  0  0  0  0  0  0  0  0
  145.3625  139.9201  152.9503 H   0  0  0  0  0  0  0  0  0  0  0  0
  1  2  1  0  0  0  0
  1 20  1  0  0  0  0
  1 21  1  0  0  0  0
  2  7  1  0  0  0  0
  2  3  2  0  0  0  0
  3  4  1  0  0  0  0
  4  5  2  0  0  0  0
  4 22  1  0  0  0  0
  5  6  1  0  0  0  0
  6 10  1  0  0  0  0
  6  7  2  0  0  0  0
  7  8  1  0  0  0  0
  8  9  2  0  0  0  0
  9 10  1  0  0  0  0
  9 23  1  0  0  0  0
 10 11  1  0  0  0  0
 11 18  1  0  0  0  0
 11 12  1  0  0  0  0
 11 24  1  0  0  0  0
 12 13  1  0  0  0  0
 13 14  1  0  0  0  0
 13 16  1  0  0  0  0
 13 25  1  0  0  0  0
 14 15  1  0  0  0  0
 14 26  1  0  0  0  0
 14 27  1  0  0  0  0
 15 28  1  0  0  0  0
 16 17  1  0  0  0  0
 16 18  1  0  0  0  0
 16 29  1  0  0  0  0
 18 19  1  0  0  0  0
 18 30  1  0  0  0  0
 19 31  1  0  0  0  0
M  END
> <s_m_source_file>
AV-unprocessed.smi

> <i_m_source_file_index>
100

> <i_lp_mmshare_version>
43012

> <i_f3d_flags>
0

> <s_epik_input>
bjFbY0hdbmMoW05IMl0pYyhjMTIpbltjSF1uMltDQEBIXTNPW0NAQEhdKFtDSDJdW09IXSlbQ0BIXShGKVtDQEhdM1tPSF0=

> <s_epik_cmdline>
J2VwaWtfcHl0aG9uJywgJy1waCcsICc3LjAnLCAnLXRuJywgJzgnLCAnLW1hJywgJzIwMCcsICctbWV0YWxfYmluZGluZycsICctaW1hZScsICc8aW5maWxlLm1hZT4nLCAnLW9tYWUnLCAnPG91dGZpbGUubWFlPic=

> <r_lp_tautomer_probability>
1

> <r_epik_Ionization_Penalty>
0.000750324

> <r_epik_Ionization_Penalty_Charging>
0

> <r_epik_Ionization_Penalty_Neutral>
0.000750324

> <r_epik_State_Penalty>
-0

> <r_epik_Charging_Adjusted_Penalty>
0

> <i_epik_Tot_Q>
0

> <i_epik_Tot_abs_Q>
0

> <r_epik_Metal_State_Penalty>
-0

> <b_epik_Metal_Only>
0

> <s_epik_Chemistry_Notes>
This compound contains an acetal/aminal-like group ( X-CH(R)-Y where X, Y are N, S, or O) that may be acid/base labile, releasing an aldehyde.

> <s_lp_Force_Field>
OPLS_2005

> <r_lp_Energy>
37.3061

> <b_lp_Chiralities_Consistent>
1

> <s_lp_Variant>
AV-unprocessed.smi:100-6

> <Gold.Version>
5.8.1

> <Gold.Id.Protein>
6NUR|6NUR_protein|mol2

> <Gold.PLP.Fitness>
36.6536

> <Gold.PLP.PLP>
-31.8710

> <Gold.PLP.part.hbond>
-4.3463

> <Gold.PLP.part.metal>
0.0000

> <Gold.PLP.part.buried>
-2.9888

> <Gold.PLP.part.nonpolar>
-25.0099

> <Gold.PLP.part.repulsive>
0.5986

> <Gold.PLP.ligand.clash>
0.0000

> <Gold.PLP.ligand.torsion>
0.6726

> <Gold.PLP.Chemscore.Hbond>
2.0418

> <Gold.PLP.Chemscore.CHOScore>
0.0000

> <Gold.PLP.Chemscore.Metal>
0.0000

> <Gold.Chemscore.Hbonds>
donor molecule, donor type, donor heavy atom, donor atom, acceptor molecule, acceptor atom, score
      L1  H    19    31       P1 10175  0.98
      P1  H  7989  7998       L1    15  0.82

> <Gold.PLP.Chemscore.Internal.Correction>
0.0024

> <Gold.Rescore>
     Score         DG    S(hbond)    S(metal)    S(lipo)     H(rot)  DE(clash)    DE(int)     intcor
      6.25      -6.85       1.93        0.00      26.36       3.19       0.00       0.60       ----

> <Gold.Chemscore.Fitness>
6.2483

> <Gold.Chemscore.DG>
-6.8536

> <Gold.Chemscore.ZeroCoef>
-5.4800

> <Gold.Chemscore.Hbond>
1.9330

> <Gold.Chemscore.Metal>
0.0000

> <Gold.Chemscore.Lipo>
26.3605

> <Gold.Chemscore.Internal_Hbond>
0.0000

> <Gold.Chemscore.DEClash>
0.0021

> <Gold.Chemscore.DEInternal>
0.6032

> <Gold.Chemscore.Rot>
3.1901

> <Gold.Chemscore.Internal.Correction>
   9.000000E+99

> <Gold.Chemscore.Hbonds>
donor molecule, donor type, donor heavy atom, donor atom, acceptor molecule, acceptor atom, score
      L1  H    19    31       P1 10175  0.93
      P1  H  7989  7998       L1    15  0.47

> <Gold.Chemscore.Hbond.Weighted>
-6.4561

> <Gold.Chemscore.Metal.Weighted>
-0.0000

> <Gold.Chemscore.Lipo.Weighted>
-3.0842

> <Gold.Chemscore.Internal_Hbond.Weighted>
0.0000

> <Gold.Chemscore.DEClash.Weighted>
0.0021

> <Gold.Chemscore.DEInternal.Weighted>
0.6032

> <Gold.Chemscore.Rot.Weighted>
8.1667

> <Gold.Chemscore.Internal.Correction.Weighted>
   9.000000E+99

> <Gold.Protein.RotatedTorsions>
[ 6907 6896 6895 6894 ] final   46.65 input  -60.11 | X-H torsion
[ 7974 7965 7964 7962 ] final  -18.47 input  175.53 | X-H torsion
[ 8008 7997 7996 7995 ] final   51.42 input   59.86 | X-H torsion
[ 10167 10162 10161 10158 ] final   56.14 input  -65.29 | X-H torsion
[ 10718 10713 10712 10709 ] final  -87.75 input   66.30 | X-H torsion
[ 10763 10752 10751 10750 ] final   26.96 input  -60.55 | X-H torsion
[ 11005 11000 10999 10996 ] final -140.42 input  -57.11 | X-H torsion

> <Gold.Protein.ActiveResidues>
 VAL166  LYS551  ARG553  GLY616  TRP617  ASP618  TYR619  PRO620  LYS621  CYS622 
 ASP623  PHE694  ASN695  SER759  ASP760  ASP761  ALA762  ILE779  LEU786  VAL792 
 PHE793  MET794  SER795  GLU796  ALA797  LYS798  CYS799  TRP800  GLU811  SER814 

> <Gold.Protein.RotatedAtoms>
  152.2589  134.8055  160.0433 H   0  0  0  0  0  0  0  0  0  0  0  0  # atno 6907 bound_to 6896
  151.8708  133.3470  159.3742 H   0  0  0  0  0  0  0  0  0  0  0  0  # atno 6908 bound_to 6896
  150.7109  134.5042  159.5620 H   0  0  0  0  0  0  0  0  0  0  0  0  # atno 6909 bound_to 6896
  146.1891  140.3925  142.8465 H   0  0  0  0  0  0  0  0  0  0  0  0  # atno 7974 bound_to 7965
  155.4350  140.3452  155.4284 H   0  0  0  0  0  0  0  0  0  0  0  0  # atno 8008 bound_to 7997
  156.1313  140.1515  156.9091 H   0  0  0  0  0  0  0  0  0  0  0  0  # atno 8009 bound_to 7997
  154.4897  140.0845  156.7546 H   0  0  0  0  0  0  0  0  0  0  0  0  # atno 8010 bound_to 7997
  140.2119  144.3880  150.6485 H   0  0  0  0  0  0  0  0  0  0  0  0  # atno 10167 bound_to 10162
  155.9984  130.4811  150.4914 H   0  0  0  0  0  0  0  0  0  0  0  0  # atno 10718 bound_to 10713
  153.0587  135.6548  154.0514 H   0  0  0  0  0  0  0  0  0  0  0  0  # atno 10763 bound_to 10752
  154.0187  135.2922  155.3385 H   0  0  0  0  0  0  0  0  0  0  0  0  # atno 10764 bound_to 10752
  154.6915  135.5281  153.8467 H   0  0  0  0  0  0  0  0  0  0  0  0  # atno 10765 bound_to 10752
  140.8424  134.2386  157.4803 H   0  0  0  0  0  0  0  0  0  0  0  0  # atno 11005 bound_to 11000
  144.8452  140.6918  143.6204 LP  0  0  0  0  0  0  0  0  0  0  0  0  # atno 17320 bound_to 7965
  145.3849  139.1629  143.4260 LP  0  0  0  0  0  0  0  0  0  0  0  0  # atno 17321 bound_to 7965
  140.6317  143.2188  151.6480 LP  0  0  0  0  0  0  0  0  0  0  0  0  # atno 17342 bound_to 10162
  139.5177  144.3308  152.0828 LP  0  0  0  0  0  0  0  0  0  0  0  0  # atno 17343 bound_to 10162
  157.2909  131.0626  151.2134 LP  0  0  0  0  0  0  0  0  0  0  0  0  # atno 17370 bound_to 10713
  157.3147  130.6907  149.6235 LP  0  0  0  0  0  0  0  0  0  0  0  0  # atno 17371 bound_to 10713
  139.8703  134.9642  156.4487 LP  0  0  0  0  0  0  0  0  0  0  0  0  # atno 17394 bound_to 11000
  140.8880  133.7869  155.9540 LP  0  0  0  0  0  0  0  0  0  0  0  0  # atno 17395 bound_to 11000

$$$$
