AV-unprocessed.smi:79|AV-procd|sdf|779|dock6
  -GOLD-   2262017133D 1   1.00000     0.00000
 Structure written by MMmdl.
 56 59  0  0  0  0  0  0  0  0  2 V2000
  145.0008  132.3818  150.5034 C   0  0  0  0  0  0  0  0  0  0  0  0
  144.7938  133.9021  150.4993 C   0  0  2  0  0  0  0  0  0  0  0  0
  144.0520  134.2346  149.3427 O   0  0  0  0  0  0  0  0  0  0  0  0
  146.1365  134.6607  150.4843 C   0  0  0  0  0  0  0  0  0  0  0  0
  146.8764  134.5545  151.7681 N   0  3  1  0  0  0  0  0  0  0  0  0
  146.0643  134.9365  152.9513 C   0  0  0  0  0  0  0  0  0  0  0  0
  146.9091  134.8887  154.2326 C   0  0  0  0  0  0  0  0  0  0  0  0
  147.5557  133.5898  154.3903 N   0  0  0  0  0  0  0  0  0  0  0  0
  148.1629  133.4887  155.5937 C   0  0  0  0  0  0  0  0  0  0  0  0
  149.5065  133.3130  155.5946 N   0  0  0  0  0  0  0  0  0  0  0  0
  150.1644  133.2086  156.7536 C   0  0  0  0  0  0  0  0  0  0  0  0
  149.6780  133.2481  157.9962 N   0  0  0  0  0  0  0  0  0  0  0  0
  148.3249  133.4201  157.9961 C   0  0  0  0  0  0  0  0  0  0  0  0
  147.4937  133.5483  156.8486 C   0  0  0  0  0  0  0  0  0  0  0  0
  146.1686  133.7042  157.2367 N   0  0  0  0  0  0  0  0  0  0  0  0
  146.2143  133.6695  158.5408 C   0  0  0  0  0  0  0  0  0  0  0  0
  147.4708  133.5105  159.0816 N   0  0  0  0  0  0  0  0  0  0  0  0
  147.8100  133.4351  160.4945 C   0  0  0  0  0  0  0  0  0  0  0  0
  147.3341  134.6501  161.3155 C   0  0  0  0  0  0  0  0  0  0  0  0
  147.9890  135.9439  160.8003 C   0  0  0  0  0  0  0  0  0  0  0  0
  147.4048  137.0903  161.3845 O   0  0  0  0  0  0  0  0  0  0  0  0
  145.8183  134.7542  161.5379 C   0  0  0  0  0  0  0  0  0  0  0  0
  145.9775  134.8911  162.9653 O   0  0  0  0  0  0  0  0  0  0  0  0
  147.3549  134.4782  162.8405 C   0  0  0  0  0  0  0  0  0  0  0  0
  148.3513  133.1555  153.2361 C   0  0  1  0  0  0  0  0  0  0  0  0
  148.9356  131.7391  153.4125 C   0  0  0  0  0  0  0  0  0  0  0  0
  147.4993  133.2194  151.9507 C   0  0  0  0  0  0  0  0  0  0  0  0
  145.5505  132.0644  151.3899 H   0  0  0  0  0  0  0  0  0  0  0  0
  145.5632  132.0525  149.6289 H   0  0  0  0  0  0  0  0  0  0  0  0
  144.0460  131.8546  150.5031 H   0  0  0  0  0  0  0  0  0  0  0  0
  144.2030  134.1672  151.3753 H   0  0  0  0  0  0  0  0  0  0  0  0
  143.1417  134.0298  149.4905 H   0  0  0  0  0  0  0  0  0  0  0  0
  146.7724  134.2955  149.6763 H   0  0  0  0  0  0  0  0  0  0  0  0
  145.9361  135.7095  150.2590 H   0  0  0  0  0  0  0  0  0  0  0  0
  145.6575  135.9399  152.8326 H   0  0  0  0  0  0  0  0  0  0  0  0
  145.2141  134.2588  153.0430 H   0  0  0  0  0  0  0  0  0  0  0  0
  147.6673  135.6726  154.1991 H   0  0  0  0  0  0  0  0  0  0  0  0
  146.2757  135.0958  155.0969 H   0  0  0  0  0  0  0  0  0  0  0  0
  151.2332  133.0739  156.6741 H   0  0  0  0  0  0  0  0  0  0  0  0
  145.3246  133.7582  159.1472 H   0  0  0  0  0  0  0  0  0  0  0  0
  147.3732  132.5162  160.8879 H   0  0  0  0  0  0  0  0  0  0  0  0
  148.8885  133.3033  160.5867 H   0  0  0  0  0  0  0  0  0  0  0  0
  149.0630  135.9555  160.9863 H   0  0  0  0  0  0  0  0  0  0  0  0
  147.8702  136.0272  159.7193 H   0  0  0  0  0  0  0  0  0  0  0  0
  146.5688  136.8471  161.7528 H   0  0  0  0  0  0  0  0  0  0  0  0
  145.3600  135.6314  161.0795 H   0  0  0  0  0  0  0  0  0  0  0  0
  145.2656  133.8489  161.2832 H   0  0  0  0  0  0  0  0  0  0  0  0
  147.5000  133.4478  163.1689 H   0  0  0  0  0  0  0  0  0  0  0  0
  148.0420  135.1504  163.3557 H   0  0  0  0  0  0  0  0  0  0  0  0
  149.1819  133.8523  153.1171 H   0  0  0  0  0  0  0  0  0  0  0  0
  149.4799  131.4277  152.5205 H   0  0  0  0  0  0  0  0  0  0  0  0
  148.1484  131.0059  153.5920 H   0  0  0  0  0  0  0  0  0  0  0  0
  149.6369  131.6867  154.2458 H   0  0  0  0  0  0  0  0  0  0  0  0
  146.7145  132.4612  151.9816 H   0  0  0  0  0  0  0  0  0  0  0  0
  148.1283  132.9899  151.0894 H   0  0  0  0  0  0  0  0  0  0  0  0
  147.6417  135.2106  151.7105 H   0  0  0  0  0  0  0  0  0  0  0  0
  1  2  1  0  0  0  0
  1 28  1  0  0  0  0
  1 29  1  0  0  0  0
  1 30  1  0  0  0  0
  2  3  1  0  0  0  0
  2  4  1  0  0  0  0
  2 31  1  0  0  0  0
  3 32  1  0  0  0  0
  4  5  1  0  0  0  0
  4 33  1  0  0  0  0
  4 34  1  0  0  0  0
  5 27  1  0  0  0  0
  5  6  1  0  0  0  0
  5 56  1  0  0  0  0
  6  7  1  0  0  0  0
  6 35  1  0  0  0  0
  6 36  1  0  0  0  0
  7  8  1  0  0  0  0
  7 37  1  0  0  0  0
  7 38  1  0  0  0  0
  8  9  1  0  0  0  0
  8 25  1  0  0  0  0
  9 14  1  0  0  0  0
  9 10  2  0  0  0  0
 10 11  1  0  0  0  0
 11 12  2  0  0  0  0
 11 39  1  0  0  0  0
 12 13  1  0  0  0  0
 13 17  1  0  0  0  0
 13 14  2  0  0  0  0
 14 15  1  0  0  0  0
 15 16  2  0  0  0  0
 16 17  1  0  0  0  0
 16 40  1  0  0  0  0
 17 18  1  0  0  0  0
 18 19  1  0  0  0  0
 18 41  1  0  0  0  0
 18 42  1  0  0  0  0
 19 24  1  0  0  0  0
 19 20  1  0  0  0  0
 19 22  1  0  0  0  0
 20 21  1  0  0  0  0
 20 43  1  0  0  0  0
 20 44  1  0  0  0  0
 21 45  1  0  0  0  0
 22 23  1  0  0  0  0
 22 46  1  0  0  0  0
 22 47  1  0  0  0  0
 23 24  1  0  0  0  0
 24 48  1  0  0  0  0
 24 49  1  0  0  0  0
 25 26  1  0  0  0  0
 25 27  1  0  0  0  0
 25 50  1  0  0  0  0
 26 51  1  0  0  0  0
 26 52  1  0  0  0  0
 26 53  1  0  0  0  0
 27 54  1  0  0  0  0
 27 55  1  0  0  0  0
M  CHG  1   5   1
M  END
> <s_m_source_file>
AV-unprocessed.smi

> <i_m_source_file_index>
79

> <i_lp_mmshare_version>
43012

> <i_f3d_flags>
0

> <s_epik_input>
W0NIM11bQ0BIXShbT0hdKVtDSDJdTjFbQ0gyXVtDSDJdTihbQ0BASF0oW0NIM10pW0NIMl0xKWMobltjSF1uMiljKGMyMyluW2NIXW4zW0NIMl1DNChbQ0gyXVtPSF0pW0NIMl1PW0NIMl00

> <s_epik_cmdline>
J2VwaWtfcHl0aG9uJywgJy1waCcsICc3LjAnLCAnLXRuJywgJzgnLCAnLW1hJywgJzIwMCcsICctbWV0YWxfYmluZGluZycsICctaW1hZScsICc8aW5maWxlLm1hZT4nLCAnLW9tYWUnLCAnPG91dGZpbGUubWFlPic=

> <r_lp_tautomer_probability>
1

> <r_epik_Ionization_Penalty>
0.00515943

> <r_epik_Ionization_Penalty_Charging>
0.00509693

> <r_epik_Ionization_Penalty_Neutral>
6.25007e-05

> <r_epik_State_Penalty>
-0

> <r_epik_Charging_Adjusted_Penalty>
0.00509693

> <i_epik_Tot_Q>
1

> <i_epik_Tot_abs_Q>
1

> <r_epik_Metal_State_Penalty>
-0

> <b_epik_Metal_Only>
0

> <s_lp_Force_Field>
OPLS_2005

> <r_lp_Energy>
50.7064

> <b_lp_Chiralities_Consistent>
1

> <s_lp_Variant>
AV-unprocessed.smi:79-3

> <Gold.Version>
5.8.1

> <Gold.Id.Protein>
6NUR|6NUR_protein|mol2

> <Gold.PLP.Fitness>
53.7186

> <Gold.PLP.PLP>
-36.7564

> <Gold.PLP.part.hbond>
-6.5382

> <Gold.PLP.part.metal>
0.0000

> <Gold.PLP.part.buried>
-3.8753

> <Gold.PLP.part.nonpolar>
-26.7880

> <Gold.PLP.part.repulsive>
0.1236

> <Gold.PLP.ligand.clash>
0.0000

> <Gold.PLP.ligand.torsion>
0.5655

> <Gold.PLP.Chemscore.Hbond>
5.8560

> <Gold.PLP.Chemscore.CHOScore>
0.0000

> <Gold.PLP.Chemscore.Metal>
0.0000

> <Gold.Chemscore.Hbonds>
donor molecule, donor type, donor heavy atom, donor atom, acceptor molecule, acceptor atom, score
      L1  H     3    32       P1 10186  0.67
      L1  H     5    56       P1  7948  2.00
      P1  H  6896  6909       L1    12  1.00
      P1  H  6931  6943       L1    21  0.87
      P1  H  6934  6947       L1    21  0.94

> <Gold.PLP.Chemscore.Internal.Correction>
0.5252

> <Gold.Rescore>
     Score         DG    S(hbond)    S(metal)    S(lipo)     H(rot)  DE(clash)    DE(int)     intcor
     14.58     -17.58       3.69        0.00      79.52       3.72       0.63       2.37       ----

> <Gold.Chemscore.Fitness>
14.5765

> <Gold.Chemscore.DG>
-17.5816

> <Gold.Chemscore.ZeroCoef>
-5.4800

> <Gold.Chemscore.Hbond>
3.6909

> <Gold.Chemscore.Metal>
0.0000

> <Gold.Chemscore.Lipo>
79.5188

> <Gold.Chemscore.Internal_Hbond>
0.0000

> <Gold.Chemscore.DEClash>
0.6343

> <Gold.Chemscore.DEInternal>
2.3708

> <Gold.Chemscore.Rot>
3.7226

> <Gold.Chemscore.Internal.Correction>
   9.000000E+99

> <Gold.Chemscore.Hbonds>
donor molecule, donor type, donor heavy atom, donor atom, acceptor molecule, acceptor atom, score
      L1  H     3    32       P1 10186  0.65
      L1  H     5    56       P1  7948  0.81
      P1  H  6896  6909       L1    12  0.91
      P1  H  6931  6943       L1    21  0.36
      P1  H  6934  6947       L1    21  0.40

> <Gold.Chemscore.Hbond.Weighted>
-12.3276

> <Gold.Chemscore.Metal.Weighted>
-0.0000

> <Gold.Chemscore.Lipo.Weighted>
-9.3037

> <Gold.Chemscore.Internal_Hbond.Weighted>
0.0000

> <Gold.Chemscore.DEClash.Weighted>
0.6343

> <Gold.Chemscore.DEInternal.Weighted>
2.3708

> <Gold.Chemscore.Rot.Weighted>
9.5298

> <Gold.Chemscore.Internal.Correction.Weighted>
   9.000000E+99

> <Gold.Protein.RotatedTorsions>
[ 6907 6896 6895 6894 ] final   -6.07 input  -60.11 | X-H torsion
[ 7974 7965 7964 7962 ] final  129.82 input  175.53 | X-H torsion
[ 8008 7997 7996 7995 ] final  -73.96 input   59.86 | X-H torsion
[ 10167 10162 10161 10158 ] final -114.06 input  -65.29 | X-H torsion
[ 10718 10713 10712 10709 ] final   35.60 input   66.30 | X-H torsion
[ 10763 10752 10751 10750 ] final  170.06 input  -60.55 | X-H torsion
[ 11005 11000 10999 10996 ] final  -84.60 input  -57.11 | X-H torsion

> <Gold.Protein.ActiveResidues>
 VAL166  LYS551  ARG553  GLY616  TRP617  ASP618  TYR619  PRO620  LYS621  CYS622 
 ASP623  PHE694  ASN695  SER759  ASP760  ASP761  ALA762  ILE779  LEU786  VAL792 
 PHE793  MET794  SER795  GLU796  ALA797  LYS798  CYS799  TRP800  GLU811  SER814 

> <Gold.Protein.RotatedAtoms>
  151.4714  135.1046  159.9752 H   0  0  0  0  0  0  0  0  0  0  0  0  # atno 6907 bound_to 6896
  152.4815  133.8262  159.7090 H   0  0  0  0  0  0  0  0  0  0  0  0  # atno 6908 bound_to 6896
  150.8890  133.7207  159.2937 H   0  0  0  0  0  0  0  0  0  0  0  0  # atno 6909 bound_to 6896
  145.0245  139.4101  143.5180 H   0  0  0  0  0  0  0  0  0  0  0  0  # atno 7974 bound_to 7965
  154.5291  140.0770  156.8312 H   0  0  0  0  0  0  0  0  0  0  0  0  # atno 8008 bound_to 7997
  155.3413  140.3407  155.4221 H   0  0  0  0  0  0  0  0  0  0  0  0  # atno 8009 bound_to 7997
  156.1762  140.1636  156.8344 H   0  0  0  0  0  0  0  0  0  0  0  0  # atno 8010 bound_to 7997
  140.1051  143.4578  152.1788 H   0  0  0  0  0  0  0  0  0  0  0  0  # atno 10167 bound_to 10162
  157.3247  130.7466  149.6808 H   0  0  0  0  0  0  0  0  0  0  0  0  # atno 10718 bound_to 10713
  154.3922  135.2754  155.2148 H   0  0  0  0  0  0  0  0  0  0  0  0  # atno 10763 bound_to 10752
  154.4209  135.6000  153.6013 H   0  0  0  0  0  0  0  0  0  0  0  0  # atno 10764 bound_to 10752
  152.9832  135.5972  154.4178 H   0  0  0  0  0  0  0  0  0  0  0  0  # atno 10765 bound_to 10752
  141.1649  133.7355  156.8892 H   0  0  0  0  0  0  0  0  0  0  0  0  # atno 11005 bound_to 11000
  146.3490  139.9761  142.8701 LP  0  0  0  0  0  0  0  0  0  0  0  0  # atno 17320 bound_to 7965
  145.1851  140.9785  143.4243 LP  0  0  0  0  0  0  0  0  0  0  0  0  # atno 17321 bound_to 7965
  139.5650  144.7429  151.4049 LP  0  0  0  0  0  0  0  0  0  0  0  0  # atno 17342 bound_to 10162
  140.6956  143.7756  150.7322 LP  0  0  0  0  0  0  0  0  0  0  0  0  # atno 17343 bound_to 10162
  155.9689  130.4213  150.4462 LP  0  0  0  0  0  0  0  0  0  0  0  0  # atno 17370 bound_to 10713
  157.2483  131.0541  151.2395 LP  0  0  0  0  0  0  0  0  0  0  0  0  # atno 17371 bound_to 10713
  140.1660  134.9132  157.2775 LP  0  0  0  0  0  0  0  0  0  0  0  0  # atno 17394 bound_to 11000
  140.2556  134.3631  155.7425 LP  0  0  0  0  0  0  0  0  0  0  0  0  # atno 17395 bound_to 11000

$$$$
