AV-unprocessed.smi:54|AV-procd|sdf|531|dock8
  -GOLD-   2262016403D 1   1.00000     0.00000
 Structure written by MMmdl.
 44 46  0  0  0  0  0  0  0  0  1 V2000
  157.5420  138.2813  161.1372 C   0  0  0  0  0  0  0  0  0  0  0  0
  157.6110  139.0159  159.7886 C   0  0  0  0  0  0  0  0  0  0  0  0
  158.6579  140.1412  159.8191 C   0  0  0  0  0  0  0  0  0  0  0  0
  156.2349  139.5713  159.4049 C   0  0  0  0  0  0  0  0  0  0  0  0
  155.5972  139.1304  158.4477 O   0  0  0  0  0  0  0  0  0  0  0  0
  155.7449  140.6541  160.2397 N   0  0  0  0  0  0  0  0  0  0  0  0
  154.5578  141.2944  160.1323 C   0  0  0  0  0  0  0  0  0  0  0  0
  153.8106  141.2448  159.0400 N   0  0  0  0  0  0  0  0  0  0  0  0
  152.6336  141.9350  159.1124 C   0  0  0  0  0  0  0  0  0  0  0  0
  152.1775  142.6522  160.1998 C   0  0  0  0  0  0  0  0  0  0  0  0
  150.9419  143.2205  159.9159 N   0  0  0  0  0  0  0  0  0  0  0  0
  150.6909  142.8355  158.6965 C   0  0  0  0  0  0  0  0  0  0  0  0
  151.6715  142.0589  158.1265 N   0  0  0  0  0  0  0  0  0  0  0  0
  151.6578  141.4534  156.7549 C   0  0  2  0  0  0  0  0  0  0  0  0
  150.4737  141.8352  156.1175 O   0  0  0  0  0  0  0  0  0  0  0  0
  149.6458  140.7015  155.8635 C   0  0  1  0  0  0  0  0  0  0  0  0
  148.7449  140.9313  154.6368 C   0  0  0  0  0  0  0  0  0  0  0  0
  149.5343  141.2079  153.4993 O   0  0  0  0  0  0  0  0  0  0  0  0
  150.6494  139.5472  155.7462 C   0  0  1  0  0  0  0  0  0  0  0  0
  151.1888  139.4906  154.4342 O   0  0  0  0  0  0  0  0  0  0  0  0
  151.6941  139.9171  156.7968 C   0  0  1  0  0  0  0  0  0  0  0  0
  152.9668  139.3789  156.4916 O   0  0  0  0  0  0  0  0  0  0  0  0
  152.9710  142.7137  161.3939 C   0  0  0  0  0  0  0  0  0  0  0  0
  152.7210  143.3001  162.4449 O   0  0  0  0  0  0  0  0  0  0  0  0
  154.1652  141.9917  161.2738 N   0  0  0  0  0  0  0  0  0  0  0  0
  152.5087  141.8981  156.2370 H   0  0  0  0  0  0  0  0  0  0  0  0
  149.0196  140.5131  156.7339 H   0  0  0  0  0  0  0  0  0  0  0  0
  150.1833  138.5856  155.9637 H   0  0  0  0  0  0  0  0  0  0  0  0
  151.3732  139.5564  157.7738 H   0  0  0  0  0  0  0  0  0  0  0  0
  156.7977  137.4847  161.1173 H   0  0  0  0  0  0  0  0  0  0  0  0
  157.2836  138.9597  161.9514 H   0  0  0  0  0  0  0  0  0  0  0  0
  158.5017  137.8246  161.3810 H   0  0  0  0  0  0  0  0  0  0  0  0
  157.9126  138.2959  159.0264 H   0  0  0  0  0  0  0  0  0  0  0  0
  158.7036  140.6664  158.8641 H   0  0  0  0  0  0  0  0  0  0  0  0
  159.6522  139.7420  160.0200 H   0  0  0  0  0  0  0  0  0  0  0  0
  158.4351  140.8765  160.5936 H   0  0  0  0  0  0  0  0  0  0  0  0
  156.3717  140.9758  160.9624 H   0  0  0  0  0  0  0  0  0  0  0  0
  149.7825  143.1097  158.1800 H   0  0  0  0  0  0  0  0  0  0  0  0
  148.0986  140.0734  154.4487 H   0  0  0  0  0  0  0  0  0  0  0  0
  148.1009  141.7957  154.8018 H   0  0  0  0  0  0  0  0  0  0  0  0
  149.4934  140.4644  152.9175 H   0  0  0  0  0  0  0  0  0  0  0  0
  150.6777  138.8783  153.9274 H   0  0  0  0  0  0  0  0  0  0  0  0
  153.0328  138.5241  156.8893 H   0  0  0  0  0  0  0  0  0  0  0  0
  154.7738  141.9885  162.0789 H   0  0  0  0  0  0  0  0  0  0  0  0
  1  2  1  0  0  0  0
  1 30  1  0  0  0  0
  1 31  1  0  0  0  0
  1 32  1  0  0  0  0
  2  3  1  0  0  0  0
  2  4  1  0  0  0  0
  2 33  1  0  0  0  0
  3 34  1  0  0  0  0
  3 35  1  0  0  0  0
  3 36  1  0  0  0  0
  4  5  2  0  0  0  0
  4  6  1  0  0  0  0
  6 37  1  0  0  0  0
  6  7  1  0  0  0  0
  7 25  1  0  0  0  0
  7  8  2  0  0  0  0
  8  9  1  0  0  0  0
  9 13  1  0  0  0  0
  9 10  2  0  0  0  0
 10 11  1  0  0  0  0
 10 23  1  0  0  0  0
 11 12  2  0  0  0  0
 12 13  1  0  0  0  0
 12 38  1  0  0  0  0
 13 14  1  0  0  0  0
 14 26  1  0  0  0  0
 14 21  1  0  0  0  0
 14 15  1  0  0  0  0
 15 16  1  0  0  0  0
 16 27  1  0  0  0  0
 16 17  1  0  0  0  0
 16 19  1  0  0  0  0
 17 18  1  0  0  0  0
 17 39  1  0  0  0  0
 17 40  1  0  0  0  0
 18 41  1  0  0  0  0
 19 28  1  0  0  0  0
 19 20  1  0  0  0  0
 19 21  1  0  0  0  0
 20 42  1  0  0  0  0
 21 29  1  0  0  0  0
 21 22  1  0  0  0  0
 22 43  1  0  0  0  0
 23 24  2  0  0  0  0
 23 25  1  0  0  0  0
 25 44  1  0  0  0  0
M  END
> <s_m_source_file>
AV-unprocessed.smi

> <i_m_source_file_index>
54

> <i_lp_mmshare_version>
43012

> <i_f3d_flags>
0

> <s_epik_input>
W0NIM11bQ0hdKFtDSDNdKUMoPU8pW05IXWMobjEpW25IXWMoPU8pYyhjMTIpbltjSF1uMltDQEBIXTNPW0NASF0oW0NIMl1bT0hdKVtDQEBIXShbT0hdKVtDQEhdM1tPSF0=

> <s_epik_cmdline>
J2VwaWtfcHl0aG9uJywgJy1waCcsICc3LjAnLCAnLXRuJywgJzgnLCAnLW1hJywgJzIwMCcsICctbWV0YWxfYmluZGluZycsICctaW1hZScsICc8aW5maWxlLm1hZT4nLCAnLW9tYWUnLCAnPG91dGZpbGUubWFlPic=

> <r_lp_tautomer_probability>
0.85571

> <r_epik_Ionization_Penalty>
0.0316551

> <r_epik_Ionization_Penalty_Charging>
0.0316043

> <r_epik_Ionization_Penalty_Neutral>
5.07097e-05

> <r_epik_State_Penalty>
3.15494e-07

> <r_epik_Charging_Adjusted_Penalty>
0.0316047

> <i_epik_Tot_Q>
0

> <i_epik_Tot_abs_Q>
0

> <r_epik_Metal_State_Penalty>
0.421206

> <b_epik_Metal_Only>
0

> <s_epik_Chemistry_Notes>
This compound contains an acetal/aminal-like group ( X-CH(R)-Y where X, Y are N, S, or O) that may be acid/base labile, releasing an aldehyde.

> <s_lp_Force_Field>
OPLS_2005

> <r_lp_Energy>
45.4171

> <b_lp_Chiralities_Consistent>
1

> <s_lp_Variant>
AV-unprocessed.smi:54-3

> <Gold.Version>
5.8.1

> <Gold.Id.Protein>
6NUR|6NUR_protein|mol2

> <Gold.PLP.Fitness>
51.1963

> <Gold.PLP.PLP>
-37.0824

> <Gold.PLP.part.hbond>
-8.4727

> <Gold.PLP.part.metal>
0.0000

> <Gold.PLP.part.buried>
-3.7176

> <Gold.PLP.part.nonpolar>
-24.9004

> <Gold.PLP.part.repulsive>
0.3771

> <Gold.PLP.ligand.clash>
0.0000

> <Gold.PLP.ligand.torsion>
0.1575

> <Gold.PLP.Chemscore.Hbond>
4.8000

> <Gold.PLP.Chemscore.CHOScore>
0.0000

> <Gold.PLP.Chemscore.Metal>
0.0000

> <Gold.Chemscore.Hbonds>
donor molecule, donor type, donor heavy atom, donor atom, acceptor molecule, acceptor atom, score
      L1  H    18    41       P1  7957  0.82
      P1  H  7989  7998       L1    20  1.00
      P1  H  7997  8008       L1    22  1.00
      P1  H  7997  8010       L1     5  0.76
      P1  H  8011  8017       L1    18  0.89

> <Gold.PLP.Chemscore.Internal.Correction>
0.0290

> <Gold.Rescore>
     Score         DG    S(hbond)    S(metal)    S(lipo)     H(rot)  DE(clash)    DE(int)     intcor
      9.99     -12.66       3.77        0.00      42.35       4.05       0.96       1.72       ----

> <Gold.Chemscore.Fitness>
9.9892

> <Gold.Chemscore.DG>
-12.6616

> <Gold.Chemscore.ZeroCoef>
-5.4800

> <Gold.Chemscore.Hbond>
3.7705

> <Gold.Chemscore.Metal>
0.0000

> <Gold.Chemscore.Lipo>
42.3452

> <Gold.Chemscore.Internal_Hbond>
0.0000

> <Gold.Chemscore.DEClash>
0.9555

> <Gold.Chemscore.DEInternal>
1.7169

> <Gold.Chemscore.Rot>
4.0493

> <Gold.Chemscore.Internal.Correction>
   9.000000E+99

> <Gold.Chemscore.Hbonds>
donor molecule, donor type, donor heavy atom, donor atom, acceptor molecule, acceptor atom, score
      L1  H    18    41       P1  7957  0.81
      P1  H  7989  7998       L1    20  0.78
      P1  H  7997  8008       L1    22  0.90
      P1  H  7997  8010       L1     5  0.63
      P1  H  8011  8017       L1    18  0.17

> <Gold.Chemscore.Hbond.Weighted>
-12.5934

> <Gold.Chemscore.Metal.Weighted>
-0.0000

> <Gold.Chemscore.Lipo.Weighted>
-4.9544

> <Gold.Chemscore.Internal_Hbond.Weighted>
0.0000

> <Gold.Chemscore.DEClash.Weighted>
0.9555

> <Gold.Chemscore.DEInternal.Weighted>
1.7169

> <Gold.Chemscore.Rot.Weighted>
10.3662

> <Gold.Chemscore.Internal.Correction.Weighted>
   9.000000E+99

> <Gold.Protein.RotatedTorsions>
[ 6907 6896 6895 6894 ] final   60.38 input  -60.11 | X-H torsion
[ 7974 7965 7964 7962 ] final   11.69 input  175.53 | X-H torsion
[ 8008 7997 7996 7995 ] final  -30.04 input   59.86 | X-H torsion
[ 10167 10162 10161 10158 ] final -101.09 input  -65.29 | X-H torsion
[ 10718 10713 10712 10709 ] final  165.99 input   66.30 | X-H torsion
[ 10763 10752 10751 10750 ] final -163.00 input  -60.55 | X-H torsion
[ 11005 11000 10999 10996 ] final  119.62 input  -57.11 | X-H torsion

> <Gold.Protein.ActiveResidues>
 VAL166  LYS551  ARG553  GLY616  TRP617  ASP618  TYR619  PRO620  LYS621  CYS622 
 ASP623  PHE694  ASN695  SER759  ASP760  ASP761  ALA762  ILE779  LEU786  VAL792 
 PHE793  MET794  SER795  GLU796  ALA797  LYS798  CYS799  TRP800  GLU811  SER814 

> <Gold.Protein.RotatedAtoms>
  152.3998  134.6305  160.0074 H   0  0  0  0  0  0  0  0  0  0  0  0  # atno 6907 bound_to 6896
  151.6514  133.3315  159.3161 H   0  0  0  0  0  0  0  0  0  0  0  0  # atno 6908 bound_to 6896
  150.7900  134.6958  159.6567 H   0  0  0  0  0  0  0  0  0  0  0  0  # atno 6909 bound_to 6896
  146.2366  139.9448  142.8478 H   0  0  0  0  0  0  0  0  0  0  0  0  # atno 7974 bound_to 7965
  154.4266  140.1802  156.1344 H   0  0  0  0  0  0  0  0  0  0  0  0  # atno 8008 bound_to 7997
  156.0042  140.3357  155.6851 H   0  0  0  0  0  0  0  0  0  0  0  0  # atno 8009 bound_to 7997
  155.6201  140.0659  157.2671 H   0  0  0  0  0  0  0  0  0  0  0  0  # atno 8010 bound_to 7997
  140.2449  143.3512  152.0767 H   0  0  0  0  0  0  0  0  0  0  0  0  # atno 10167 bound_to 10162
  157.0723  131.0369  151.2607 H   0  0  0  0  0  0  0  0  0  0  0  0  # atno 10718 bound_to 10713
  154.7163  135.3016  154.9119 H   0  0  0  0  0  0  0  0  0  0  0  0  # atno 10763 bound_to 10752
  154.0005  135.6707  153.4763 H   0  0  0  0  0  0  0  0  0  0  0  0  # atno 10764 bound_to 10752
  153.0796  135.5016  154.8391 H   0  0  0  0  0  0  0  0  0  0  0  0  # atno 10765 bound_to 10752
  139.9153  134.9629  156.7683 H   0  0  0  0  0  0  0  0  0  0  0  0  # atno 11005 bound_to 11000
  145.1918  140.9815  143.4206 LP  0  0  0  0  0  0  0  0  0  0  0  0  # atno 17320 bound_to 7965
  144.9850  139.3745  143.6243 LP  0  0  0  0  0  0  0  0  0  0  0  0  # atno 17321 bound_to 7965
  139.5065  144.6814  151.5998 LP  0  0  0  0  0  0  0  0  0  0  0  0  # atno 17342 bound_to 10162
  140.6085  143.9480  150.6436 LP  0  0  0  0  0  0  0  0  0  0  0  0  # atno 17343 bound_to 10162
  157.4868  130.7798  149.7468 LP  0  0  0  0  0  0  0  0  0  0  0  0  # atno 17370 bound_to 10713
  155.9947  130.3916  150.2849 LP  0  0  0  0  0  0  0  0  0  0  0  0  # atno 17371 bound_to 10713
  140.6642  133.9618  155.7821 LP  0  0  0  0  0  0  0  0  0  0  0  0  # atno 17394 bound_to 11000
  141.0623  134.0328  157.3642 LP  0  0  0  0  0  0  0  0  0  0  0  0  # atno 17395 bound_to 11000

$$$$
