#       Name:                AV-unprocessed.smi:155
#       Creating user name   scv26
#       Creation time:       Thu Mar 26 18:55:58 2020


#       File generated by GOLD software.
#

@<TRIPOS>MOLECULE
AV-unprocessed.smi:155
    71    74     1
SMALL
NO_CHARGES


@<TRIPOS>ATOM
      1 ****        -6.8530   0.7420   0.6901 C.3            1 S1                 0.0000
      2 ****        -5.7580   0.7041  -0.3068 N.4            1 S1                 1.0000
      3 ****        -5.5661   2.0221  -0.9520 C.3            1 S1                 0.0000
      4 ****        -4.4872   0.1589   0.2353 C.3            1 S1                 0.0000
      5 ****        -4.5758  -1.3467   0.5654 C.3            1 S1                 0.0000
      6 ****        -3.2432  -1.9859   0.7355 N.4            1 S1                 1.0000
      7 ****        -3.3172  -3.4713   0.7383 C.3            1 S1                 0.0000
      8 ****        -2.1673  -4.0699  -0.0887 C.3            1 S1                 0.0000
      9 ****        -0.7890  -4.0100   0.5870 C.3            1 S1                 0.0000
     10 ****        -0.4437  -2.6575   1.0292 N.pl3          1 S1                 0.0000
     11 ****         0.7910  -2.1486   0.7787 C.ar           1 S1                 0.0000
     12 ****         1.8375  -2.9918   0.5737 N.ar           1 S1                 0.0000
     13 ****         3.0613  -2.5095   0.3386 C.ar           1 S1                 0.0000
     14 ****         3.4564  -1.2375   0.2663 N.ar           1 S1                 0.0000
     15 ****         2.4115  -0.3849   0.4657 C.ar           1 S1                 0.0000
     16 ****         1.0601  -0.7504   0.7256 C.ar           1 S1                 0.0000
     17 ****         0.2813   0.3941   0.8609 N.2            1 S1                 0.0000
     18 ****         1.1254   1.3771   0.7015 C.2            1 S1                 0.0000
     19 ****         2.4252   0.9977   0.4574 N.pl3          1 S1                 0.0000
     20 ****         3.5645   1.8707   0.2361 C.3            1 S1                 0.0000
     21 ****         3.9314   1.9895  -1.2589 C.3            1 S1                 0.0000
     22 ****         2.8183   2.5370  -1.9403 O.3            1 S1                 0.0000
     23 ****         5.1418   2.9099  -1.5135 C.3            1 S1                 0.0000
     24 ****         6.3955   2.5571  -0.7084 C.3            1 S1                 0.0000
     25 ****         7.5380   3.0966  -1.5543 C.3            1 S1                 0.0000
     26 ****         6.8994   3.3394  -2.9230 C.3            1 S1                 0.0000
     27 ****         5.6172   2.7347  -2.8400 O.3            1 S1                 0.0000
     28 ****        -1.1481  -2.1433   2.2026 C.3            1 S1                 0.0000
     29 ****        -2.4714  -1.4196   1.8771 C.3            1 S1                 0.0000
     30 ****        -6.5899   1.3760   1.5379 H              1 S1                 0.0000
     31 ****        -7.0846  -0.2545   1.0650 H              1 S1                 0.0000
     32 ****        -7.7658   1.1371   0.2425 H              1 S1                 0.0000
     33 ****        -5.2340   2.7674  -0.2279 H              1 S1                 0.0000
     34 ****        -6.4970   2.3721  -1.4000 H              1 S1                 0.0000
     35 ****        -4.8220   1.9615  -1.7470 H              1 S1                 0.0000
     36 ****        -3.7084   0.2994  -0.5162 H              1 S1                 0.0000
     37 ****        -4.1867   0.7377   1.1098 H              1 S1                 0.0000
     38 ****        -5.1785  -1.5193   1.4579 H              1 S1                 0.0000
     39 ****        -5.0895  -1.8380  -0.2624 H              1 S1                 0.0000
     40 ****        -3.3380  -3.8682   1.7543 H              1 S1                 0.0000
     41 ****        -4.2489  -3.8002   0.2766 H              1 S1                 0.0000
     42 ****        -2.3936  -5.1153  -0.3015 H              1 S1                 0.0000
     43 ****        -2.1205  -3.5739  -1.0592 H              1 S1                 0.0000
     44 ****        -0.7703  -4.6768   1.4498 H              1 S1                 0.0000
     45 ****        -0.0567  -4.4042  -0.1178 H              1 S1                 0.0000
     46 ****         3.8348  -3.2485   0.1882 H              1 S1                 0.0000
     47 ****         0.8212   2.4126   0.7513 H              1 S1                 0.0000
     48 ****         3.3414   2.8529   0.6553 H              1 S1                 0.0000
     49 ****         4.4015   1.4711   0.8093 H              1 S1                 0.0000
     50 ****         4.1360   0.9958  -1.6601 H              1 S1                 0.0000
     51 ****         2.6879   3.4226  -1.6380 H              1 S1                 0.0000
     52 ****         4.8810   3.9578  -1.3493 H              1 S1                 0.0000
     53 ****         6.3825   2.9763   0.2981 H              1 S1                 0.0000
     54 ****         6.4921   1.4739  -0.6202 H              1 S1                 0.0000
     55 ****         7.9359   4.0263  -1.1460 H              1 S1                 0.0000
     56 ****         8.3544   2.3760  -1.6109 H              1 S1                 0.0000
     57 ****         6.7818   4.4081  -3.1077 H              1 S1                 0.0000
     58 ****         7.4819   2.9139  -3.7403 H              1 S1                 0.0000
     59 ****        -1.3655  -2.9904   2.8542 H              1 S1                 0.0000
     60 ****        -0.5067  -1.4923   2.7983 H              1 S1                 0.0000
     61 ****        -2.2388  -0.3815   1.6446 H              1 S1                 0.0000
     62 ****        -3.0939  -1.4001   2.7726 H              1 S1                 0.0000
     63 ****        -6.0550   0.0767  -1.0409 H              1 S1                 0.0000
     64 ****        -2.7207  -1.7553  -0.0978 H              1 S1                 0.0000
     65 ****         1.6903  -3.9806   0.5990 LP             1 S1                 0.0000
     66 ****         4.3967  -0.9471   0.0889 LP             1 S1                 0.0000
     67 ****        -0.7010   0.4509   1.0395 LP             1 S1                 0.0000
     68 ****         2.0028   1.9912  -1.7476 LP             1 S1                 0.0000
     69 ****         2.9930   2.5389  -2.9249 LP             1 S1                 0.0000
     70 ****         4.9919   3.1721  -3.4864 LP             1 S1                 0.0000
     71 ****         5.6862   1.7596  -3.0510 LP             1 S1                 0.0000
@<TRIPOS>BOND
    1    1    2 1     
    2    1   30 1     
    3    1   31 1     
    4    1   32 1     
    5    2    3 1     
    6    2    4 1     
    7    2   63 1     
    8    3   33 1     
    9    3   34 1     
   10    3   35 1     
   11    4    5 1     
   12    4   36 1     
   13    4   37 1     
   14    5    6 1     
   15    5   38 1     
   16    5   39 1     
   17    6   29 1     
   18    6    7 1     
   19    6   64 1     
   20    7    8 1     
   21    7   40 1     
   22    7   41 1     
   23    8    9 1     
   24    8   42 1     
   25    8   43 1     
   26    9   10 1     
   27    9   44 1     
   28    9   45 1     
   29   10   11 1     
   30   10   28 1     
   31   11   16 ar    
   32   11   12 ar    
   33   12   13 ar    
   34   13   14 ar    
   35   13   46 1     
   36   14   15 ar    
   37   15   19 1     
   38   15   16 ar    
   39   16   17 1     
   40   17   18 2     
   41   18   19 1     
   42   18   47 1     
   43   19   20 1     
   44   20   21 1     
   45   20   48 1     
   46   20   49 1     
   47   21   22 1     
   48   21   23 1     
   49   21   50 1     
   50   22   51 1     
   51   23   27 1     
   52   23   24 1     
   53   23   52 1     
   54   24   25 1     
   55   24   53 1     
   56   24   54 1     
   57   25   26 1     
   58   25   55 1     
   59   25   56 1     
   60   26   27 1     
   61   26   57 1     
   62   26   58 1     
   63   28   29 1     
   64   28   59 1     
   65   28   60 1     
   66   29   61 1     
   67   29   62 1     
   68   12   65 1     
   69   14   66 1     
   70   17   67 1     
   71   22   68 1     
   72   22   69 1     
   73   27   70 1     
   74   27   71 1     
@<TRIPOS>SUBSTRUCTURE
      1 S1             1
@<TRIPOS>SET
LONE_PAIRS      STATIC     ATOMS    <user>   **** ""
7 65 66 67 68 69 70 71
DONOR_HYDROGENS      STATIC     ATOMS    <user>   **** ""
3 63 64 51
ATOM$BLUE        STATIC     ATOMS    COLORGROUP SYSTEM
7 65 66 67 68 69 70 71
ATOM$RED        STATIC     ATOMS    COLORGROUP SYSTEM
3 63 64 51
