AV-unprocessed.smi:2131|AV-procd|sdf|8687|dock6
  -GOLD-   2272011443D 1   1.00000     0.00000
 Structure written by MMmdl.
 40 42  0  0  0  0  0  0  0  0  1 V2000
  156.2830  131.3937  162.6618 N   0  0  0  0  0  0  0  0  0  0  0  0
  156.0174  132.2575  163.3843 C   0  0  0  0  0  0  0  0  0  0  0  0
  155.6801  133.3559  164.3026 C   0  0  0  0  0  0  0  0  0  0  0  0
  155.2022  134.5889  163.5641 C   0  0  0  0  0  0  0  0  0  0  0  0
  154.6571  135.6755  164.2752 C   0  0  0  0  0  0  0  0  0  0  0  0
  154.2162  136.8210  163.5850 C   0  0  0  0  0  0  0  0  0  0  0  0
  154.3109  136.9001  162.1802 C   0  0  0  0  0  0  0  0  0  0  0  0
  153.8590  138.0593  161.5863 O   0  0  0  0  0  0  0  0  0  0  0  0
  153.7567  138.0928  160.1684 C   0  0  0  0  0  0  0  0  0  0  0  0
  153.4446  139.5275  159.7180 C   0  0  2  0  0  0  0  0  0  0  0  0
  153.5540  139.5860  158.3092 O   0  0  0  0  0  0  0  0  0  0  0  0
  154.3875  140.5655  160.3576 C   0  0  0  0  0  0  0  0  0  0  0  0
  153.6675  141.6767  160.9546 N   0  0  0  0  0  0  0  0  0  0  0  0
  153.5604  141.9587  162.2672 C   0  0  0  0  0  0  0  0  0  0  0  0
  152.8509  143.0316  162.6046 N   0  0  0  0  0  0  0  0  0  0  0  0
  152.4509  143.5029  161.3659 C   0  0  0  0  0  0  0  0  0  0  0  0
  151.6638  144.6254  161.0220 C   0  0  0  0  0  0  0  0  0  0  0  0
  151.3800  144.9119  159.6705 C   0  0  0  0  0  0  0  0  0  0  0  0
  151.8765  144.0822  158.6440 C   0  0  0  0  0  0  0  0  0  0  0  0
  152.6628  142.9581  158.9619 C   0  0  0  0  0  0  0  0  0  0  0  0
  152.9452  142.6766  160.3116 C   0  0  0  0  0  0  0  0  0  0  0  0
  154.8562  135.8001  161.4707 C   0  0  0  0  0  0  0  0  0  0  0  0
  155.2989  134.6544  162.1603 C   0  0  0  0  0  0  0  0  0  0  0  0
  154.9097  133.0070  164.9907 H   0  0  0  0  0  0  0  0  0  0  0  0
  156.5642  133.5947  164.8945 H   0  0  0  0  0  0  0  0  0  0  0  0
  154.5758  135.6337  165.3515 H   0  0  0  0  0  0  0  0  0  0  0  0
  153.8014  137.6493  164.1404 H   0  0  0  0  0  0  0  0  0  0  0  0
  154.6836  137.7498  159.7052 H   0  0  0  0  0  0  0  0  0  0  0  0
  152.9521  137.4271  159.8505 H   0  0  0  0  0  0  0  0  0  0  0  0
  152.4115  139.7638  159.9764 H   0  0  0  0  0  0  0  0  0  0  0  0
  152.6893  139.4971  157.9380 H   0  0  0  0  0  0  0  0  0  0  0  0
  154.9922  140.0973  161.1355 H   0  0  0  0  0  0  0  0  0  0  0  0
  155.0860  140.9575  159.6173 H   0  0  0  0  0  0  0  0  0  0  0  0
  154.0296  141.3390  163.0177 H   0  0  0  0  0  0  0  0  0  0  0  0
  151.2772  145.2676  161.7995 H   0  0  0  0  0  0  0  0  0  0  0  0
  150.7775  145.7726  159.4196 H   0  0  0  0  0  0  0  0  0  0  0  0
  151.6527  144.3091  157.6119 H   0  0  0  0  0  0  0  0  0  0  0  0
  153.0425  142.3193  158.1783 H   0  0  0  0  0  0  0  0  0  0  0  0
  154.9462  135.8095  160.3952 H   0  0  0  0  0  0  0  0  0  0  0  0
  155.7133  133.8240  161.6077 H   0  0  0  0  0  0  0  0  0  0  0  0
  1  2  3  0  0  0  0
  2  3  1  0  0  0  0
  3  4  1  0  0  0  0
  3 24  1  0  0  0  0
  3 25  1  0  0  0  0
  4 23  1  0  0  0  0
  4  5  2  0  0  0  0
  5  6  1  0  0  0  0
  5 26  1  0  0  0  0
  6  7  2  0  0  0  0
  6 27  1  0  0  0  0
  7  8  1  0  0  0  0
  7 22  1  0  0  0  0
  8  9  1  0  0  0  0
  9 10  1  0  0  0  0
  9 28  1  0  0  0  0
  9 29  1  0  0  0  0
 10 11  1  0  0  0  0
 10 12  1  0  0  0  0
 10 30  1  0  0  0  0
 11 31  1  0  0  0  0
 12 13  1  0  0  0  0
 12 32  1  0  0  0  0
 12 33  1  0  0  0  0
 13 21  1  0  0  0  0
 13 14  1  0  0  0  0
 14 15  2  0  0  0  0
 14 34  1  0  0  0  0
 15 16  1  0  0  0  0
 16 21  2  0  0  0  0
 16 17  1  0  0  0  0
 17 18  2  0  0  0  0
 17 35  1  0  0  0  0
 18 19  1  0  0  0  0
 18 36  1  0  0  0  0
 19 20  2  0  0  0  0
 19 37  1  0  0  0  0
 20 21  1  0  0  0  0
 20 38  1  0  0  0  0
 22 23  2  0  0  0  0
 22 39  1  0  0  0  0
 23 40  1  0  0  0  0
M  END
> <s_m_source_file>
AV-unprocessed.smi

> <i_m_source_file_index>
2131

> <i_lp_mmshare_version>
43012

> <i_f3d_flags>
0

> <s_epik_input>
TiNDW0NIMl1jMVtjSF1bY0hdYyhbY0hdW2NIXTEpT1tDSDJdW0NASF0oW09IXSlbQ0gyXW4oW2NIXW4yKWMoYzIzKVtjSF1bY0hdW2NIXVtjSF0z

> <s_epik_cmdline>
J2VwaWtfcHl0aG9uJywgJy1waCcsICc3LjAnLCAnLXRuJywgJzgnLCAnLW1hJywgJzIwMCcsICctbWV0YWxfYmluZGluZycsICctaW1hZScsICc8aW5maWxlLm1hZT4nLCAnLW9tYWUnLCAnPG91dGZpbGUubWFlPic=

> <r_lp_tautomer_probability>
1

> <r_epik_Ionization_Penalty>
0.0609831

> <r_epik_Ionization_Penalty_Charging>
0

> <r_epik_Ionization_Penalty_Neutral>
0.0609831

> <r_epik_State_Penalty>
0.0529032

> <r_epik_Charging_Adjusted_Penalty>
0.0529032

> <i_epik_Tot_Q>
0

> <i_epik_Tot_abs_Q>
0

> <r_epik_Metal_State_Penalty>
5.53344e-05

> <b_epik_Metal_Only>
0

> <s_lp_Force_Field>
OPLS_2005

> <r_lp_Energy>
15.4123

> <b_lp_Chiralities_Consistent>
1

> <s_lp_Variant>
AV-unprocessed.smi:2131-1

> <Gold.Version>
5.8.1

> <Gold.Id.Protein>
6NUR|6NUR_protein|mol2

> <Gold.PLP.Fitness>
57.9951

> <Gold.PLP.PLP>
-56.9036

> <Gold.PLP.part.hbond>
-1.0000

> <Gold.PLP.part.metal>
0.0000

> <Gold.PLP.part.buried>
-4.9479

> <Gold.PLP.part.nonpolar>
-50.9029

> <Gold.PLP.part.repulsive>
0.1362

> <Gold.PLP.ligand.clash>
0.0000

> <Gold.PLP.ligand.torsion>
0.9940

> <Gold.PLP.Chemscore.Hbond>
1.0000

> <Gold.PLP.Chemscore.CHOScore>
0.0000

> <Gold.PLP.Chemscore.Metal>
0.0000

> <Gold.Chemscore.Hbonds>
donor molecule, donor type, donor heavy atom, donor atom, acceptor molecule, acceptor atom, score
      P1  H  7997  8008       L1    11  1.00

> <Gold.PLP.Chemscore.Internal.Correction>
0.0796

> <Gold.Rescore>
     Score         DG    S(hbond)    S(metal)    S(lipo)     H(rot)  DE(clash)    DE(int)     intcor
     17.62     -18.61       0.95        0.00     144.47       2.72       0.18       0.81       ----

> <Gold.Chemscore.Fitness>
17.6206

> <Gold.Chemscore.DG>
-18.6134

> <Gold.Chemscore.ZeroCoef>
-5.4800

> <Gold.Chemscore.Hbond>
0.9549

> <Gold.Chemscore.Metal>
0.0000

> <Gold.Chemscore.Lipo>
144.4686

> <Gold.Chemscore.Internal_Hbond>
0.0000

> <Gold.Chemscore.DEClash>
0.1797

> <Gold.Chemscore.DEInternal>
0.8131

> <Gold.Chemscore.Rot>
2.7183

> <Gold.Chemscore.Internal.Correction>
   9.000000E+99

> <Gold.Chemscore.Hbonds>
donor molecule, donor type, donor heavy atom, donor atom, acceptor molecule, acceptor atom, score
      P1  H  7997  8008       L1    11  0.65

> <Gold.Chemscore.Hbond.Weighted>
-3.1894

> <Gold.Chemscore.Metal.Weighted>
-0.0000

> <Gold.Chemscore.Lipo.Weighted>
-16.9028

> <Gold.Chemscore.Internal_Hbond.Weighted>
0.0000

> <Gold.Chemscore.DEClash.Weighted>
0.1797

> <Gold.Chemscore.DEInternal.Weighted>
0.8131

> <Gold.Chemscore.Rot.Weighted>
6.9588

> <Gold.Chemscore.Internal.Correction.Weighted>
   9.000000E+99

> <Gold.Protein.RotatedTorsions>
[ 6907 6896 6895 6894 ] final  109.58 input  -60.11 | X-H torsion
[ 7974 7965 7964 7962 ] final  138.88 input  175.53 | X-H torsion
[ 8008 7997 7996 7995 ] final  -87.59 input   59.86 | X-H torsion
[ 10167 10162 10161 10158 ] final   89.34 input  -65.29 | X-H torsion
[ 10718 10713 10712 10709 ] final   61.95 input   66.30 | X-H torsion
[ 10763 10752 10751 10750 ] final  -51.52 input  -60.55 | X-H torsion
[ 11005 11000 10999 10996 ] final -103.38 input  -57.11 | X-H torsion

> <Gold.Protein.ActiveResidues>
 VAL166  LYS551  ARG553  GLY616  TRP617  ASP618  TYR619  PRO620  LYS621  CYS622 
 ASP623  PHE694  ASN695  SER759  ASP760  ASP761  ALA762  ILE779  LEU786  VAL792 
 PHE793  MET794  SER795  GLU796  ALA797  LYS798  CYS799  TRP800  GLU811  SER814 

> <Gold.Protein.RotatedAtoms>
  152.5061  133.8924  159.7400 H   0  0  0  0  0  0  0  0  0  0  0  0  # atno 6907 bound_to 6896
  150.9359  133.6703  159.2807 H   0  0  0  0  0  0  0  0  0  0  0  0  # atno 6908 bound_to 6896
  151.4031  135.0979  159.9615 H   0  0  0  0  0  0  0  0  0  0  0  0  # atno 6909 bound_to 6896
  144.9331  139.5022  143.5608 H   0  0  0  0  0  0  0  0  0  0  0  0  # atno 7974 bound_to 7965
  154.6650  140.0564  157.0103 H   0  0  0  0  0  0  0  0  0  0  0  0  # atno 8008 bound_to 7997
  155.1173  140.3244  155.4488 H   0  0  0  0  0  0  0  0  0  0  0  0  # atno 8009 bound_to 7997
  156.2634  140.2004  156.6295 H   0  0  0  0  0  0  0  0  0  0  0  0  # atno 8010 bound_to 7997
  139.8583  144.6557  150.9088 H   0  0  0  0  0  0  0  0  0  0  0  0  # atno 10167 bound_to 10162
  157.5865  130.9023  149.9525 H   0  0  0  0  0  0  0  0  0  0  0  0  # atno 10718 bound_to 10713
  154.1279  135.6524  153.4916 H   0  0  0  0  0  0  0  0  0  0  0  0  # atno 10763 bound_to 10752
  153.0204  135.5286  154.7031 H   0  0  0  0  0  0  0  0  0  0  0  0  # atno 10764 bound_to 10752
  154.6257  135.2970  155.0245 H   0  0  0  0  0  0  0  0  0  0  0  0  # atno 10765 bound_to 10752
  141.1148  133.8636  157.1479 H   0  0  0  0  0  0  0  0  0  0  0  0  # atno 11005 bound_to 11000
  146.3255  139.8296  142.8911 LP  0  0  0  0  0  0  0  0  0  0  0  0  # atno 17320 bound_to 7965
  145.3110  141.0220  143.3554 LP  0  0  0  0  0  0  0  0  0  0  0  0  # atno 17321 bound_to 7965
  140.7778  143.3767  151.1551 LP  0  0  0  0  0  0  0  0  0  0  0  0  # atno 17342 bound_to 10162
  139.7398  143.8941  152.3046 LP  0  0  0  0  0  0  0  0  0  0  0  0  # atno 17343 bound_to 10162
  156.0915  130.3663  150.0387 LP  0  0  0  0  0  0  0  0  0  0  0  0  # atno 17370 bound_to 10713
  156.8517  130.9461  151.3625 LP  0  0  0  0  0  0  0  0  0  0  0  0  # atno 17371 bound_to 10713
  140.0063  135.0007  157.0300 LP  0  0  0  0  0  0  0  0  0  0  0  0  # atno 17394 bound_to 11000
  140.4676  134.1419  155.7199 LP  0  0  0  0  0  0  0  0  0  0  0  0  # atno 17395 bound_to 11000

$$$$
