AV-unprocessed.smi:1828|AV-procd|sdf|7425|dock2
  -GOLD-   22720 9103D 1   1.00000     0.00000
 Structure written by MMmdl.
 39 41  0  0  0  0  0  0  0  0  1 V2000
  153.8837  138.8678  158.2661 O   0  0  0  0  0  0  0  0  0  0  0  0
  152.6039  139.1178  158.8081 C   0  0  0  0  0  0  0  0  0  0  0  0
  152.3064  140.5841  158.9417 C   0  0  0  0  0  0  0  0  0  0  0  0
  153.0445  141.3646  159.7333 N   0  0  0  0  0  0  0  0  0  0  0  0
  152.4499  142.6013  159.5901 C   0  0  0  0  0  0  0  0  0  0  0  0
  152.7660  143.8463  160.1794 C   0  0  0  0  0  0  0  0  0  0  0  0
  152.0020  144.9928  159.8786 C   0  0  0  0  0  0  0  0  0  0  0  0
  150.9135  144.9108  158.9866 C   0  0  0  0  0  0  0  0  0  0  0  0
  150.5825  143.6797  158.3882 C   0  0  0  0  0  0  0  0  0  0  0  0
  151.3491  142.5382  158.6914 C   0  0  0  0  0  0  0  0  0  0  0  0
  151.2908  141.2080  158.2855 N   0  0  0  0  0  0  0  0  0  0  0  0
  150.3126  140.6575  157.3542 C   0  0  0  0  0  0  0  0  0  0  0  0
  150.5111  141.1808  155.9171 C   0  0  1  0  0  0  0  0  0  0  0  0
  151.5744  140.4617  155.3265 O   0  0  0  0  0  0  0  0  0  0  0  0
  149.2350  141.1179  155.0886 C   0  0  0  0  0  0  0  0  0  0  0  0
  149.1675  140.3309  153.9181 C   0  0  0  0  0  0  0  0  0  0  0  0
  147.9731  140.2672  153.1762 C   0  0  0  0  0  0  0  0  0  0  0  0
  146.8381  140.9826  153.6026 C   0  0  0  0  0  0  0  0  0  0  0  0
  146.8893  141.7649  154.7765 C   0  0  0  0  0  0  0  0  0  0  0  0
  145.6650  142.5370  155.2448 C   0  0  0  0  0  0  0  0  0  0  0  0
  145.3185  143.4605  154.3474 F   0  0  0  0  0  0  0  0  0  0  0  0
  144.6485  141.6905  155.4047 F   0  0  0  0  0  0  0  0  0  0  0  0
  145.8992  143.1508  156.4053 F   0  0  0  0  0  0  0  0  0  0  0  0
  148.0941  141.8352  155.5082 C   0  0  0  0  0  0  0  0  0  0  0  0
  154.4955  138.7611  158.9781 H   0  0  0  0  0  0  0  0  0  0  0  0
  151.8523  138.6667  158.1601 H   0  0  0  0  0  0  0  0  0  0  0  0
  152.5465  138.6037  159.7639 H   0  0  0  0  0  0  0  0  0  0  0  0
  153.5972  143.9185  160.8650 H   0  0  0  0  0  0  0  0  0  0  0  0
  152.2521  145.9393  160.3352 H   0  0  0  0  0  0  0  0  0  0  0  0
  150.3328  145.7936  158.7617 H   0  0  0  0  0  0  0  0  0  0  0  0
  149.7485  143.6138  157.7054 H   0  0  0  0  0  0  0  0  0  0  0  0
  150.4301  139.5731  157.3644 H   0  0  0  0  0  0  0  0  0  0  0  0
  149.3000  140.8394  157.7110 H   0  0  0  0  0  0  0  0  0  0  0  0
  150.8383  142.2206  155.9628 H   0  0  0  0  0  0  0  0  0  0  0  0
  152.0794  140.0559  156.0146 H   0  0  0  0  0  0  0  0  0  0  0  0
  150.0283  139.7683  153.5878 H   0  0  0  0  0  0  0  0  0  0  0  0
  147.9257  139.6657  152.2806 H   0  0  0  0  0  0  0  0  0  0  0  0
  145.9277  140.9254  153.0247 H   0  0  0  0  0  0  0  0  0  0  0  0
  148.1408  142.4329  156.4069 H   0  0  0  0  0  0  0  0  0  0  0  0
  1  2  1  0  0  0  0
  1 25  1  0  0  0  0
  2  3  1  0  0  0  0
  2 26  1  0  0  0  0
  2 27  1  0  0  0  0
  3 11  1  0  0  0  0
  3  4  2  0  0  0  0
  4  5  1  0  0  0  0
  5 10  2  0  0  0  0
  5  6  1  0  0  0  0
  6  7  2  0  0  0  0
  6 28  1  0  0  0  0
  7  8  1  0  0  0  0
  7 29  1  0  0  0  0
  8  9  2  0  0  0  0
  8 30  1  0  0  0  0
  9 10  1  0  0  0  0
  9 31  1  0  0  0  0
 10 11  1  0  0  0  0
 11 12  1  0  0  0  0
 12 13  1  0  0  0  0
 12 32  1  0  0  0  0
 12 33  1  0  0  0  0
 13 14  1  0  0  0  0
 13 15  1  0  0  0  0
 13 34  1  0  0  0  0
 14 35  1  0  0  0  0
 15 24  1  0  0  0  0
 15 16  2  0  0  0  0
 16 17  1  0  0  0  0
 16 36  1  0  0  0  0
 17 18  2  0  0  0  0
 17 37  1  0  0  0  0
 18 19  1  0  0  0  0
 18 38  1  0  0  0  0
 19 20  1  0  0  0  0
 19 24  2  0  0  0  0
 20 21  1  0  0  0  0
 20 22  1  0  0  0  0
 20 23  1  0  0  0  0
 24 39  1  0  0  0  0
M  END
> <s_m_source_file>
AV-unprocessed.smi

> <i_m_source_file_index>
1828

> <i_lp_mmshare_version>
43012

> <i_f3d_flags>
0

> <s_epik_input>
W2NIXTFbY0hdW2NIXVtjSF1jKGMxMiluKGMobjIpW0NIMl1bT0hdKVtDSDJdW0NASF0oW09IXSljM1tjSF1bY0hdW2NIXWMoQyhGKShGKUYpW2NIXTM=

> <s_epik_cmdline>
J2VwaWtfcHl0aG9uJywgJy1waCcsICc3LjAnLCAnLXRuJywgJzgnLCAnLW1hJywgJzIwMCcsICctbWV0YWxfYmluZGluZycsICctaW1hZScsICc8aW5maWxlLm1hZT4nLCAnLW9tYWUnLCAnPG91dGZpbGUubWFlPic=

> <r_epik_Ionization_Penalty>
0.0634719

> <r_epik_Ionization_Penalty_Charging>
0

> <r_epik_Ionization_Penalty_Neutral>
0.0634719

> <r_epik_State_Penalty>
0.0551572

> <r_epik_Charging_Adjusted_Penalty>
0.0551572

> <i_epik_Tot_Q>
0

> <i_epik_Tot_abs_Q>
0

> <r_epik_Metal_State_Penalty>
5.78034e-05

> <b_epik_Metal_Only>
0

> <s_lp_Force_Field>
OPLS_2005

> <r_lp_Energy>
14.211

> <b_lp_Chiralities_Consistent>
1

> <s_lp_Variant>
AV-unprocessed.smi:1828-2

> <Gold.Version>
5.8.1

> <Gold.Id.Protein>
6NUR|6NUR_protein|mol2

> <Gold.PLP.Fitness>
50.9950

> <Gold.PLP.PLP>
-46.2237

> <Gold.PLP.part.hbond>
-2.0000

> <Gold.PLP.part.metal>
0.0000

> <Gold.PLP.part.buried>
0.6347

> <Gold.PLP.part.nonpolar>
-45.1257

> <Gold.PLP.part.repulsive>
0.0000

> <Gold.PLP.ligand.clash>
1.3846

> <Gold.PLP.ligand.torsion>
0.3412

> <Gold.PLP.Chemscore.Hbond>
1.8800

> <Gold.PLP.Chemscore.CHOScore>
0.0000

> <Gold.PLP.Chemscore.Metal>
0.0000

> <Gold.Chemscore.Hbonds>
donor molecule, donor type, donor heavy atom, donor atom, acceptor molecule, acceptor atom, score
      P1  H  7989  7998       L1    14  0.83
      P1  H  7997  8008       L1     1  1.00

> <Gold.PLP.Chemscore.Internal.Correction>
1.1983

> <Gold.Rescore>
     Score         DG    S(hbond)    S(metal)    S(lipo)     H(rot)  DE(clash)    DE(int)     intcor
     17.14     -17.75       1.72        0.00     119.40       2.91       0.24       0.36       ----

> <Gold.Chemscore.Fitness>
17.1448

> <Gold.Chemscore.DG>
-17.7465

> <Gold.Chemscore.ZeroCoef>
-5.4800

> <Gold.Chemscore.Hbond>
1.7237

> <Gold.Chemscore.Metal>
0.0000

> <Gold.Chemscore.Lipo>
119.3957

> <Gold.Chemscore.Internal_Hbond>
0.0000

> <Gold.Chemscore.DEClash>
0.2449

> <Gold.Chemscore.DEInternal>
0.3568

> <Gold.Chemscore.Rot>
2.9141

> <Gold.Chemscore.Internal.Correction>
   9.000000E+99

> <Gold.Chemscore.Hbonds>
donor molecule, donor type, donor heavy atom, donor atom, acceptor molecule, acceptor atom, score
      P1  H  7989  7998       L1    14  0.58
      P1  H  7997  8008       L1     1  0.50

> <Gold.Chemscore.Hbond.Weighted>
-5.7572

> <Gold.Chemscore.Metal.Weighted>
-0.0000

> <Gold.Chemscore.Lipo.Weighted>
-13.9693

> <Gold.Chemscore.Internal_Hbond.Weighted>
0.0000

> <Gold.Chemscore.DEClash.Weighted>
0.2449

> <Gold.Chemscore.DEInternal.Weighted>
0.3568

> <Gold.Chemscore.Rot.Weighted>
7.4600

> <Gold.Chemscore.Internal.Correction.Weighted>
   9.000000E+99

> <Gold.Protein.RotatedTorsions>
[ 6907 6896 6895 6894 ] final  108.70 input  -60.11 | X-H torsion
[ 7974 7965 7964 7962 ] final  -38.48 input  175.53 | X-H torsion
[ 8008 7997 7996 7995 ] final  -93.47 input   59.86 | X-H torsion
[ 10167 10162 10161 10158 ] final  -83.03 input  -65.29 | X-H torsion
[ 10718 10713 10712 10709 ] final  -89.99 input   66.30 | X-H torsion
[ 10763 10752 10751 10750 ] final  170.74 input  -60.55 | X-H torsion
[ 11005 11000 10999 10996 ] final   -1.64 input  -57.11 | X-H torsion

> <Gold.Protein.ActiveResidues>
 VAL166  LYS551  ARG553  GLY616  TRP617  ASP618  TYR619  PRO620  LYS621  CYS622 
 ASP623  PHE694  ASN695  SER759  ASP760  ASP761  ALA762  ILE779  LEU786  VAL792 
 PHE793  MET794  SER795  GLU796  ALA797  LYS798  CYS799  TRP800  GLU811  SER814 

> <Gold.Protein.RotatedAtoms>
  152.5101  133.9051  159.7459 H   0  0  0  0  0  0  0  0  0  0  0  0  # atno 6907 bound_to 6896
  150.9458  133.6596  159.2788 H   0  0  0  0  0  0  0  0  0  0  0  0  # atno 6908 bound_to 6896
  151.3892  135.0958  159.9573 H   0  0  0  0  0  0  0  0  0  0  0  0  # atno 6909 bound_to 6896
  146.0483  140.6516  142.9054 H   0  0  0  0  0  0  0  0  0  0  0  0  # atno 7974 bound_to 7965
  154.7360  140.0498  157.0769 H   0  0  0  0  0  0  0  0  0  0  0  0  # atno 8008 bound_to 7997
  155.0239  140.3150  155.4764 H   0  0  0  0  0  0  0  0  0  0  0  0  # atno 8009 bound_to 7997
  156.2853  140.2162  156.5358 H   0  0  0  0  0  0  0  0  0  0  0  0  # atno 8010 bound_to 7997
  140.4264  143.2565  151.8820 H   0  0  0  0  0  0  0  0  0  0  0  0  # atno 10167 bound_to 10162
  155.9986  130.4893  150.5255 H   0  0  0  0  0  0  0  0  0  0  0  0  # atno 10718 bound_to 10713
  154.4019  135.2755  155.2091 H   0  0  0  0  0  0  0  0  0  0  0  0  # atno 10763 bound_to 10752
  154.4113  135.6022  153.5958 H   0  0  0  0  0  0  0  0  0  0  0  0  # atno 10764 bound_to 10752
  152.9831  135.5950  154.4289 H   0  0  0  0  0  0  0  0  0  0  0  0  # atno 10765 bound_to 10752
  140.6495  133.9417  155.8372 H   0  0  0  0  0  0  0  0  0  0  0  0  # atno 11005 bound_to 11000
  144.7109  140.4035  143.7081 LP  0  0  0  0  0  0  0  0  0  0  0  0  # atno 17320 bound_to 7965
  145.6768  139.1610  143.2723 LP  0  0  0  0  0  0  0  0  0  0  0  0  # atno 17321 bound_to 7965
  139.4783  144.5382  151.8567 LP  0  0  0  0  0  0  0  0  0  0  0  0  # atno 17342 bound_to 10162
  140.4476  144.1900  150.5895 LP  0  0  0  0  0  0  0  0  0  0  0  0  # atno 17343 bound_to 10162
  157.3210  131.0682  151.1931 LP  0  0  0  0  0  0  0  0  0  0  0  0  # atno 17370 bound_to 10713
  157.2844  130.6766  149.6082 LP  0  0  0  0  0  0  0  0  0  0  0  0  # atno 17371 bound_to 10713
  141.0547  134.0434  157.3738 LP  0  0  0  0  0  0  0  0  0  0  0  0  # atno 17394 bound_to 11000
  139.9051  135.0177  156.7448 LP  0  0  0  0  0  0  0  0  0  0  0  0  # atno 17395 bound_to 11000

$$$$
