AV-unprocessed.smi:2059|AV-procd|sdf|8352|dock4
  -GOLD-   2272011 23D 1   1.00000     0.00000
 Structure written by MMmdl.
 29 30  0  0  0  0  0  0  0  0  2 V2000
  153.5819  143.5960  163.5664 C   0  0  0  0  0  0  0  0  0  0  0  0
  153.4438  142.6582  162.4164 C   0  0  0  0  0  0  0  0  0  0  0  0
  152.4763  142.4860  161.4672 C   0  0  0  0  0  0  0  0  0  0  0  0
  152.9801  141.4164  160.6786 C   0  0  0  0  0  0  0  0  0  0  0  0
  152.2316  140.9404  159.5637 N   0  0  0  0  0  0  0  0  0  0  0  0
  152.5804  140.1610  158.5172 C   0  0  0  0  0  0  0  0  0  0  0  0
  153.7576  139.7865  158.5155 O   0  0  0  0  0  0  0  0  0  0  0  0
  151.6305  139.8643  157.5832 N   0  5  0  0  0  0  0  0  0  0  0  0
  150.8073  138.6529  157.5677 C   0  0  2  0  0  0  0  0  0  0  0  0
  149.3109  139.0118  157.4805 C   0  0  0  0  0  0  0  0  0  0  0  0
  148.4848  137.7620  157.8178 C   0  0  0  0  0  0  0  0  0  0  0  0
  149.4858  136.8145  159.0290 S   0  0  0  0  0  0  0  0  0  0  0  0
  148.9383  137.0106  160.3806 O   0  0  0  0  0  0  0  0  0  0  0  0
  149.7179  135.4606  158.5012 O   0  0  0  0  0  0  0  0  0  0  0  0
  151.0093  137.8221  158.8448 C   0  0  0  0  0  0  0  0  0  0  0  0
  154.1555  140.9810  161.1109 N   0  0  0  0  0  0  0  0  0  0  0  0
  154.4577  141.7725  162.2250 O   0  0  0  0  0  0  0  0  0  0  0  0
  152.6693  144.1750  163.7090 H   0  0  0  0  0  0  0  0  0  0  0  0
  154.4027  144.2934  163.3989 H   0  0  0  0  0  0  0  0  0  0  0  0
  153.7828  143.0501  164.4884 H   0  0  0  0  0  0  0  0  0  0  0  0
  151.5543  143.0371  161.3566 H   0  0  0  0  0  0  0  0  0  0  0  0
  151.2665  141.2351  159.5561 H   0  0  0  0  0  0  0  0  0  0  0  0
  151.0367  138.0157  156.7119 H   0  0  0  0  0  0  0  0  0  0  0  0
  149.0809  139.7886  158.2118 H   0  0  0  0  0  0  0  0  0  0  0  0
  149.0464  139.4103  156.5004 H   0  0  0  0  0  0  0  0  0  0  0  0
  147.5103  138.0031  158.2421 H   0  0  0  0  0  0  0  0  0  0  0  0
  148.3343  137.1367  156.9364 H   0  0  0  0  0  0  0  0  0  0  0  0
  151.8867  137.1771  158.7969 H   0  0  0  0  0  0  0  0  0  0  0  0
  151.0933  138.4614  159.7244 H   0  0  0  0  0  0  0  0  0  0  0  0
  1  2  1  0  0  0  0
  1 18  1  0  0  0  0
  1 19  1  0  0  0  0
  1 20  1  0  0  0  0
  2 17  1  0  0  0  0
  2  3  2  0  0  0  0
  3  4  1  0  0  0  0
  3 21  1  0  0  0  0
  4  5  1  0  0  0  0
  4 16  2  0  0  0  0
  5  6  1  0  0  0  0
  5 22  1  0  0  0  0
  6  7  2  0  0  0  0
  6  8  1  0  0  0  0
  8  9  1  0  0  0  0
  9 15  1  0  0  0  0
  9 10  1  0  0  0  0
  9 23  1  0  0  0  0
 10 11  1  0  0  0  0
 10 24  1  0  0  0  0
 10 25  1  0  0  0  0
 11 12  1  0  0  0  0
 11 26  1  0  0  0  0
 11 27  1  0  0  0  0
 12 13  2  0  0  0  0
 12 14  2  0  0  0  0
 12 15  1  0  0  0  0
 15 28  1  0  0  0  0
 15 29  1  0  0  0  0
 16 17  1  0  0  0  0
M  CHG  1   8  -1
M  END
> <s_m_source_file>
AV-unprocessed.smi

> <i_m_source_file_index>
2059

> <i_lp_mmshare_version>
43012

> <i_f3d_flags>
0

> <s_epik_input>
W0NIM11jMVtjSF1jKG5vMSlbTkhdQyg9TylbTkhdW0NAQEhdKFtDSDJdMilbQ0gyXVtDSDJdUzIoPU8pPU8=

> <s_epik_cmdline>
J2VwaWtfcHl0aG9uJywgJy1waCcsICc3LjAnLCAnLXRuJywgJzgnLCAnLW1hJywgJzIwMCcsICctbWV0YWxfYmluZGluZycsICctaW1hZScsICc8aW5maWxlLm1hZT4nLCAnLW9tYWUnLCAnPG91dGZpbGUubWFlPic=

> <r_lp_tautomer_probability>
1

> <r_epik_Ionization_Penalty>
6.6071

> <r_epik_Ionization_Penalty_Charging>
6.60709

> <r_epik_Ionization_Penalty_Neutral>
5.42629e-06

> <r_epik_State_Penalty>
6.6352

> <r_epik_Charging_Adjusted_Penalty>
13.2423

> <i_epik_Tot_Q>
-1

> <i_epik_Tot_abs_Q>
1

> <r_epik_Metal_State_Penalty>
2.57602

> <b_epik_Metal_Only>
1

> <s_lp_Force_Field>
OPLS_2005

> <r_lp_Energy>
11.3724

> <b_lp_Chiralities_Consistent>
1

> <s_lp_Variant>
AV-unprocessed.smi:2059-5

> <Gold.Version>
5.8.1

> <Gold.Id.Protein>
6NUR|6NUR_protein|mol2

> <Gold.PLP.Fitness>
34.9614

> <Gold.PLP.PLP>
-28.4585

> <Gold.PLP.part.hbond>
-4.9657

> <Gold.PLP.part.metal>
0.0000

> <Gold.PLP.part.buried>
-5.2414

> <Gold.PLP.part.nonpolar>
-17.8500

> <Gold.PLP.part.repulsive>
0.1469

> <Gold.PLP.ligand.clash>
0.0000

> <Gold.PLP.ligand.torsion>
0.8468

> <Gold.PLP.Chemscore.Hbond>
2.7314

> <Gold.PLP.Chemscore.CHOScore>
0.0000

> <Gold.PLP.Chemscore.Metal>
0.0000

> <Gold.Chemscore.Hbonds>
donor molecule, donor type, donor heavy atom, donor atom, acceptor molecule, acceptor atom, score
      P1  H  6896  6908       L1    14  1.00
      P1  H  6931  6943       L1    13  0.67
      P1  H  7997  8009       L1     7  1.00

> <Gold.PLP.Chemscore.Internal.Correction>
0.0023

> <Gold.Rescore>
     Score         DG    S(hbond)    S(metal)    S(lipo)     H(rot)  DE(clash)    DE(int)     intcor
     15.64     -18.31       2.99        0.00      46.25       1.00       0.49       2.18       ----

> <Gold.Chemscore.Fitness>
15.6386

> <Gold.Chemscore.DG>
-18.3080

> <Gold.Chemscore.ZeroCoef>
-5.4800

> <Gold.Chemscore.Hbond>
2.9870

> <Gold.Chemscore.Metal>
0.0000

> <Gold.Chemscore.Lipo>
46.2501

> <Gold.Chemscore.Internal_Hbond>
0.0000

> <Gold.Chemscore.DEClash>
0.4928

> <Gold.Chemscore.DEInternal>
2.1765

> <Gold.Chemscore.Rot>
1.0000

> <Gold.Chemscore.Internal.Correction>
   9.000000E+99

> <Gold.Chemscore.Hbonds>
donor molecule, donor type, donor heavy atom, donor atom, acceptor molecule, acceptor atom, score
      P1  H  6896  6908       L1    14  0.87
      P1  H  6931  6943       L1    13  0.65
      P1  H  7997  8009       L1     7  0.99

> <Gold.Chemscore.Hbond.Weighted>
-9.9767

> <Gold.Chemscore.Metal.Weighted>
-0.0000

> <Gold.Chemscore.Lipo.Weighted>
-5.4113

> <Gold.Chemscore.Internal_Hbond.Weighted>
0.0000

> <Gold.Chemscore.DEClash.Weighted>
0.4928

> <Gold.Chemscore.DEInternal.Weighted>
2.1765

> <Gold.Chemscore.Rot.Weighted>
2.5600

> <Gold.Chemscore.Internal.Correction.Weighted>
   9.000000E+99

> <Gold.Protein.RotatedTorsions>
[ 6907 6896 6895 6894 ] final  163.38 input  -60.11 | X-H torsion
[ 7974 7965 7964 7962 ] final -126.52 input  175.53 | X-H torsion
[ 8008 7997 7996 7995 ] final  137.03 input   59.86 | X-H torsion
[ 10167 10162 10161 10158 ] final -165.59 input  -65.29 | X-H torsion
[ 10718 10713 10712 10709 ] final -109.83 input   66.30 | X-H torsion
[ 10763 10752 10751 10750 ] final  -93.13 input  -60.55 | X-H torsion
[ 11005 11000 10999 10996 ] final   48.59 input  -57.11 | X-H torsion

> <Gold.Protein.ActiveResidues>
 VAL166  LYS551  ARG553  GLY616  TRP617  ASP618  TYR619  PRO620  LYS621  CYS622 
 ASP623  PHE694  ASN695  SER759  ASP760  ASP761  ALA762  ILE779  LEU786  VAL792 
 PHE793  MET794  SER795  GLU796  ALA797  LYS798  CYS799  TRP800  GLU811  SER814 

> <Gold.Protein.RotatedAtoms>
  151.9260  133.3598  159.3913 H   0  0  0  0  0  0  0  0  0  0  0  0  # atno 6907 bound_to 6896
  150.7027  134.4586  159.5379 H   0  0  0  0  0  0  0  0  0  0  0  0  # atno 6908 bound_to 6896
  152.2218  134.8405  160.0536 H   0  0  0  0  0  0  0  0  0  0  0  0  # atno 6909 bound_to 6896
  144.9864  140.7690  143.4581 H   0  0  0  0  0  0  0  0  0  0  0  0  # atno 7974 bound_to 7965
  156.3003  140.2430  156.3842 H   0  0  0  0  0  0  0  0  0  0  0  0  # atno 8008 bound_to 7997
  154.8673  140.0417  157.1722 H   0  0  0  0  0  0  0  0  0  0  0  0  # atno 8009 bound_to 7997
  154.8833  140.2952  155.5416 H   0  0  0  0  0  0  0  0  0  0  0  0  # atno 8010 bound_to 7997
  139.6172  144.0697  152.1898 H   0  0  0  0  0  0  0  0  0  0  0  0  # atno 10167 bound_to 10162
  156.0558  130.5784  150.8153 H   0  0  0  0  0  0  0  0  0  0  0  0  # atno 10718 bound_to 10713
  154.6929  135.5205  153.8418 H   0  0  0  0  0  0  0  0  0  0  0  0  # atno 10763 bound_to 10752
  153.0646  135.6580  154.0394 H   0  0  0  0  0  0  0  0  0  0  0  0  # atno 10764 bound_to 10752
  154.0265  135.2989  155.3354 H   0  0  0  0  0  0  0  0  0  0  0  0  # atno 10765 bound_to 10752
  140.1177  134.4870  155.8623 H   0  0  0  0  0  0  0  0  0  0  0  0  # atno 11005 bound_to 11000
  145.2348  139.2099  143.5024 LP  0  0  0  0  0  0  0  0  0  0  0  0  # atno 17320 bound_to 7965
  146.3421  140.2232  142.8592 LP  0  0  0  0  0  0  0  0  0  0  0  0  # atno 17321 bound_to 7965
  140.0330  144.6066  150.7472 LP  0  0  0  0  0  0  0  0  0  0  0  0  # atno 17342 bound_to 10162
  140.7358  143.2745  151.3783 LP  0  0  0  0  0  0  0  0  0  0  0  0  # atno 17343 bound_to 10162
  157.5526  131.0944  150.9674 LP  0  0  0  0  0  0  0  0  0  0  0  0  # atno 17370 bound_to 10713
  156.9931  130.5571  149.5305 LP  0  0  0  0  0  0  0  0  0  0  0  0  # atno 17371 bound_to 10713
  141.2145  133.6749  156.6829 LP  0  0  0  0  0  0  0  0  0  0  0  0  # atno 17394 bound_to 11000
  140.3006  134.8167  157.4094 LP  0  0  0  0  0  0  0  0  0  0  0  0  # atno 17395 bound_to 11000

$$$$
