#       Name:                AV-unprocessed.smi:3303
#       Creating user name   scv26
#       Creation time:       Fri Mar 27 19:00:27 2020


#       File generated by GOLD software.
#

@<TRIPOS>MOLECULE
AV-unprocessed.smi:3303
    46    47     1
SMALL
NO_CHARGES


@<TRIPOS>ATOM
      1 ****        -0.8448  -1.6296   2.6955 C.3            1 S1                 0.0000
      2 ****        -1.1243  -1.8483   1.1977 C.3            1 S1                 0.0000
      3 ****        -2.6392  -2.0372   0.9667 C.3            1 S1                 0.0000
      4 ****        -2.9543  -2.2463  -0.4687 N.4            1 S1                 1.0000
      5 ****        -4.3654  -2.6339  -0.6967 C.3            1 S1                 0.0000
      6 ****        -2.4756  -1.1392  -1.3441 C.3            1 S1                 0.0000
      7 ****        -3.2704   0.1741  -1.1765 C.3            1 S1                 0.0000
      8 ****        -0.9598  -0.9345  -1.1513 C.3            1 S1                 0.0000
      9 ****        -0.5736  -0.6959   0.3250 C.3            1 S1                 0.0000
     10 ****         0.8975  -0.5907   0.4717 N.4            1 S1                 1.0000
     11 ****         1.4840   0.6952   0.0402 C.3            1 S1                 0.0000
     12 ****         2.9949   0.7273   0.3072 C.3            1 S1                 0.0000
     13 ****         3.6232   2.0355  -0.1330 C.ar           1 S1                 0.0000
     14 ****         3.9261   3.0436   0.8068 C.ar           1 S1                 0.0000
     15 ****         4.4990   4.2433   0.3415 C.ar           1 S1                 0.0000
     16 ****         4.7438   4.3875  -1.0376 C.ar           1 S1                 0.0000
     17 ****         4.4035   3.3220  -1.8944 C.ar           1 S1                 0.0000
     18 ****         3.8526   2.1680  -1.4587 N.ar           1 S1                 0.0000
     19 ****        -1.2997  -0.7054   3.0537 H              1 S1                 0.0000
     20 ****         0.2239  -1.5771   2.9047 H              1 S1                 0.0000
     21 ****        -1.2475  -2.4486   3.2923 H              1 S1                 0.0000
     22 ****        -0.6259  -2.7723   0.8989 H              1 S1                 0.0000
     23 ****        -2.9825  -2.9055   1.5312 H              1 S1                 0.0000
     24 ****        -3.1968  -1.1819   1.3505 H              1 S1                 0.0000
     25 ****        -5.0554  -1.8690  -0.3391 H              1 S1                 0.0000
     26 ****        -4.5931  -3.5606  -0.1691 H              1 S1                 0.0000
     27 ****        -4.5554  -2.8029  -1.7572 H              1 S1                 0.0000
     28 ****        -2.6218  -1.4670  -2.3745 H              1 S1                 0.0000
     29 ****        -2.8723   0.9493  -1.8317 H              1 S1                 0.0000
     30 ****        -3.2300   0.5606  -0.1587 H              1 S1                 0.0000
     31 ****        -4.3197   0.0486  -1.4424 H              1 S1                 0.0000
     32 ****        -0.4353  -1.8177  -1.5199 H              1 S1                 0.0000
     33 ****        -0.6274  -0.1066  -1.7777 H              1 S1                 0.0000
     34 ****        -1.0173   0.2389   0.6714 H              1 S1                 0.0000
     35 ****         1.1149  -0.7005   1.4521 H              1 S1                 0.0000
     36 ****         1.2958   0.8487  -1.0223 H              1 S1                 0.0000
     37 ****         0.9982   1.5118   0.5761 H              1 S1                 0.0000
     38 ****         3.1910   0.5742   1.3694 H              1 S1                 0.0000
     39 ****         3.4864  -0.0937  -0.2174 H              1 S1                 0.0000
     40 ****         3.7257   2.9054   1.8593 H              1 S1                 0.0000
     41 ****         4.7458   5.0383   1.0297 H              1 S1                 0.0000
     42 ****         5.1820   5.2934  -1.4300 H              1 S1                 0.0000
     43 ****         4.5769   3.3989  -2.9578 H              1 S1                 0.0000
     44 ****         1.3366  -1.3444  -0.0379 H              1 S1                 0.0000
     45 ****        -2.4150  -3.0540  -0.7464 H              1 S1                 0.0000
     46 ****         3.6215   1.4340  -2.0974 LP             1 S1                 0.0000
@<TRIPOS>BOND
    1    1    2 1     
    2    1   19 1     
    3    1   20 1     
    4    1   21 1     
    5    2    9 1     
    6    2    3 1     
    7    2   22 1     
    8    3    4 1     
    9    3   23 1     
   10    3   24 1     
   11    4    5 1     
   12    4    6 1     
   13    4   45 1     
   14    5   25 1     
   15    5   26 1     
   16    5   27 1     
   17    6    7 1     
   18    6    8 1     
   19    6   28 1     
   20    7   29 1     
   21    7   30 1     
   22    7   31 1     
   23    8    9 1     
   24    8   32 1     
   25    8   33 1     
   26    9   10 1     
   27    9   34 1     
   28   10   11 1     
   29   10   35 1     
   30   10   44 1     
   31   11   12 1     
   32   11   36 1     
   33   11   37 1     
   34   12   13 1     
   35   12   38 1     
   36   12   39 1     
   37   13   18 ar    
   38   13   14 ar    
   39   14   15 ar    
   40   14   40 1     
   41   15   16 ar    
   42   15   41 1     
   43   16   17 ar    
   44   16   42 1     
   45   17   18 ar    
   46   17   43 1     
   47   18   46 1     
@<TRIPOS>SUBSTRUCTURE
      1 S1             1
@<TRIPOS>SET
LONE_PAIRS      STATIC     ATOMS    <user>   **** ""
1 46
DONOR_HYDROGENS      STATIC     ATOMS    <user>   **** ""
3 45 35 44
ATOM$BLUE        STATIC     ATOMS    COLORGROUP SYSTEM
1 46
ATOM$RED        STATIC     ATOMS    COLORGROUP SYSTEM
3 45 35 44
