AV-unprocessed.smi:2881|AV-procd|sdf|11063|dock6
  -GOLD-   2272015533D 1   1.00000     0.00000
 Structure written by MMmdl.
 40 42  0  0  0  0  0  0  0  0  1 V2000
  152.6726  143.5454  162.4279 C   0  0  0  0  0  0  0  0  0  0  0  0
  152.5609  143.2148  160.9686 C   0  0  0  0  0  0  0  0  0  0  0  0
  151.7953  143.8858  159.9703 C   0  0  0  0  0  0  0  0  0  0  0  0
  152.0477  143.1863  158.8233 C   0  0  0  0  0  0  0  0  0  0  0  0
  151.5580  143.3742  157.4236 C   0  0  0  0  0  0  0  0  0  0  0  0
  150.8211  142.1274  156.9361 C   0  0  0  0  0  0  0  0  0  0  0  0
  151.3993  141.0411  156.9194 O   0  0  0  0  0  0  0  0  0  0  0  0
  149.5529  142.3017  156.5342 N   0  0  0  0  0  0  0  0  0  0  0  0
  148.6758  141.2533  156.0179 C   0  0  2  0  0  0  0  0  0  0  0  0
  148.9743  140.9934  154.5246 C   0  0  1  0  0  0  0  0  0  0  0  0
  148.3403  139.6507  154.1198 C   0  0  0  0  0  0  0  0  0  0  0  0
  146.8371  139.9861  154.1017 C   0  0  0  0  0  0  0  0  0  0  0  0
  146.8089  141.4762  154.5067 C   0  0  2  0  0  0  0  0  0  0  0  0
  148.0638  141.9908  153.8139 C   0  0  0  0  0  0  0  0  0  0  0  0
  147.1838  141.6783  155.9948 C   0  0  1  0  0  0  0  0  0  0  0  0
  146.2782  140.9329  156.9949 C   0  0  0  0  0  0  0  0  0  0  0  0
  146.6684  141.2230  158.3196 O   0  0  0  0  0  0  0  0  0  0  0  0
  152.9103  142.1728  159.1753 N   0  0  0  0  0  0  0  0  0  0  0  0
  153.2306  142.1802  160.4824 N   0  0  0  0  0  0  0  0  0  0  0  0
  153.2876  141.4830  158.5407 H   0  0  0  0  0  0  0  0  0  0  0  0
  152.3444  144.5661  162.6259 H   0  0  0  0  0  0  0  0  0  0  0  0
  153.7018  143.4560  162.7774 H   0  0  0  0  0  0  0  0  0  0  0  0
  152.0564  142.8757  163.0281 H   0  0  0  0  0  0  0  0  0  0  0  0
  151.1596  144.7519  160.0805 H   0  0  0  0  0  0  0  0  0  0  0  0
  152.3948  143.5941  156.7591 H   0  0  0  0  0  0  0  0  0  0  0  0
  150.8872  144.2327  157.3713 H   0  0  0  0  0  0  0  0  0  0  0  0
  149.1664  143.2333  156.5810 H   0  0  0  0  0  0  0  0  0  0  0  0
  148.8264  140.3356  156.5899 H   0  0  0  0  0  0  0  0  0  0  0  0
  150.0308  141.0640  154.2626 H   0  0  0  0  0  0  0  0  0  0  0  0
  148.6765  139.3452  153.1283 H   0  0  0  0  0  0  0  0  0  0  0  0
  148.5821  138.8467  154.8161 H   0  0  0  0  0  0  0  0  0  0  0  0
  146.4362  139.8585  153.0952 H   0  0  0  0  0  0  0  0  0  0  0  0
  146.2545  139.3460  154.7633 H   0  0  0  0  0  0  0  0  0  0  0  0
  145.8902  141.9878  154.2182 H   0  0  0  0  0  0  0  0  0  0  0  0
  148.2934  143.0323  154.0462 H   0  0  0  0  0  0  0  0  0  0  0  0
  148.0450  141.8641  152.7298 H   0  0  0  0  0  0  0  0  0  0  0  0
  147.1011  142.7478  156.1998 H   0  0  0  0  0  0  0  0  0  0  0  0
  145.2405  141.2430  156.8698 H   0  0  0  0  0  0  0  0  0  0  0  0
  146.3170  139.8541  156.8454 H   0  0  0  0  0  0  0  0  0  0  0  0
  146.1778  141.9723  158.6213 H   0  0  0  0  0  0  0  0  0  0  0  0
  1 21  1  0  0  0  0
  1 22  1  0  0  0  0
  1 23  1  0  0  0  0
  1  2  1  0  0  0  0
  2 19  2  0  0  0  0
  2  3  1  0  0  0  0
  3  4  2  0  0  0  0
  3 24  1  0  0  0  0
  4 18  1  0  0  0  0
  4  5  1  0  0  0  0
  5  6  1  0  0  0  0
  5 25  1  0  0  0  0
  5 26  1  0  0  0  0
  6  7  2  0  0  0  0
  6  8  1  0  0  0  0
  8  9  1  0  0  0  0
  8 27  1  0  0  0  0
  9 15  1  0  0  0  0
  9 10  1  0  0  0  0
  9 28  1  0  0  0  0
 10 14  1  0  0  0  0
 10 11  1  0  0  0  0
 10 29  1  0  0  0  0
 11 12  1  0  0  0  0
 11 30  1  0  0  0  0
 11 31  1  0  0  0  0
 12 13  1  0  0  0  0
 12 32  1  0  0  0  0
 12 33  1  0  0  0  0
 13 14  1  0  0  0  0
 13 15  1  0  0  0  0
 13 34  1  0  0  0  0
 14 35  1  0  0  0  0
 14 36  1  0  0  0  0
 15 16  1  0  0  0  0
 15 37  1  0  0  0  0
 16 17  1  0  0  0  0
 16 38  1  0  0  0  0
 16 39  1  0  0  0  0
 17 40  1  0  0  0  0
 18 19  1  0  0  0  0
 18 20  1  0  0  0  0
M  END
> <s_m_source_file>
AV-unprocessed.smi

> <i_m_source_file_index>
2881

> <i_lp_mmshare_version>
43012

> <i_f3d_flags>
0

> <s_epik_input>
W0NIM11jMVtjSF1jKG5bbkhdMSlbQ0gyXUMoPU8pW05IXVtDQEhdKFtDQEBIXTIzKVtDQEhdKFtDSDJdW09IXSlbQ0BASF0oW0NIMl0zKVtDSDJdW0NIMl0y

> <s_epik_cmdline>
J2VwaWtfcHl0aG9uJywgJy1waCcsICc3LjAnLCAnLXRuJywgJzgnLCAnLW1hJywgJzIwMCcsICctbWV0YWxfYmluZGluZycsICctaW1hZScsICc8aW5maWxlLm1hZT4nLCAnLW9tYWUnLCAnPG91dGZpbGUubWFlPic=

> <r_lp_tautomer_probability>
0.5

> <r_epik_Ionization_Penalty>
0.00013396

> <r_epik_Ionization_Penalty_Charging>
0

> <r_epik_Ionization_Penalty_Neutral>
0.00013396

> <r_epik_State_Penalty>
0.41068

> <r_epik_Charging_Adjusted_Penalty>
0.41068

> <i_epik_Tot_Q>
0

> <i_epik_Tot_abs_Q>
0

> <r_epik_Metal_State_Penalty>
0.41066

> <b_epik_Metal_Only>
0

> <s_lp_Force_Field>
OPLS_2005

> <r_lp_Energy>
47.2043

> <b_lp_Chiralities_Consistent>
1

> <s_lp_Variant>
AV-unprocessed.smi:2881-9

> <Gold.Version>
5.8.1

> <Gold.Id.Protein>
6NUR|6NUR_protein|mol2

> <Gold.PLP.Fitness>
37.7380

> <Gold.PLP.PLP>
-35.5264

> <Gold.PLP.part.hbond>
-2.0000

> <Gold.PLP.part.metal>
0.0000

> <Gold.PLP.part.buried>
-4.6643

> <Gold.PLP.part.nonpolar>
-28.2216

> <Gold.PLP.part.repulsive>
0.1356

> <Gold.PLP.ligand.clash>
0.0000

> <Gold.PLP.ligand.torsion>
0.2574

> <Gold.PLP.Chemscore.Hbond>
0.8991

> <Gold.PLP.Chemscore.CHOScore>
0.0000

> <Gold.PLP.Chemscore.Metal>
0.0000

> <Gold.Chemscore.Hbonds>
donor molecule, donor type, donor heavy atom, donor atom, acceptor molecule, acceptor atom, score
      L1  H     8    27       P1  8028  0.90

> <Gold.PLP.Chemscore.Internal.Correction>
0.0290

> <Gold.Rescore>
     Score         DG    S(hbond)    S(metal)    S(lipo)     H(rot)  DE(clash)    DE(int)     intcor
     13.65     -14.53       0.98        0.00      99.10       2.28       0.60       0.28       ----

> <Gold.Chemscore.Fitness>
13.6512

> <Gold.Chemscore.DG>
-14.5260

> <Gold.Chemscore.ZeroCoef>
-5.4800

> <Gold.Chemscore.Hbond>
0.9809

> <Gold.Chemscore.Metal>
0.0000

> <Gold.Chemscore.Lipo>
99.1026

> <Gold.Chemscore.Internal_Hbond>
0.0000

> <Gold.Chemscore.DEClash>
0.5982

> <Gold.Chemscore.DEInternal>
0.2766

> <Gold.Chemscore.Rot>
2.2755

> <Gold.Chemscore.Internal.Correction>
   9.000000E+99

> <Gold.Chemscore.Hbonds>
donor molecule, donor type, donor heavy atom, donor atom, acceptor molecule, acceptor atom, score
      L1  H     8    27       P1  8028  0.87

> <Gold.Chemscore.Hbond.Weighted>
-3.2762

> <Gold.Chemscore.Metal.Weighted>
-0.0000

> <Gold.Chemscore.Lipo.Weighted>
-11.5950

> <Gold.Chemscore.Internal_Hbond.Weighted>
0.0000

> <Gold.Chemscore.DEClash.Weighted>
0.5982

> <Gold.Chemscore.DEInternal.Weighted>
0.2766

> <Gold.Chemscore.Rot.Weighted>
5.8252

> <Gold.Chemscore.Internal.Correction.Weighted>
   9.000000E+99

> <Gold.Protein.RotatedTorsions>
[ 6907 6896 6895 6894 ] final -161.58 input  -60.11 | X-H torsion
[ 7974 7965 7964 7962 ] final   90.88 input  175.53 | X-H torsion
[ 8008 7997 7996 7995 ] final  -35.68 input   59.86 | X-H torsion
[ 10167 10162 10161 10158 ] final    0.24 input  -65.29 | X-H torsion
[ 10718 10713 10712 10709 ] final  -71.39 input   66.30 | X-H torsion
[ 10763 10752 10751 10750 ] final -102.65 input  -60.55 | X-H torsion
[ 11005 11000 10999 10996 ] final -101.55 input  -57.11 | X-H torsion

> <Gold.Protein.ActiveResidues>
 VAL166  LYS551  ARG553  GLY616  TRP617  ASP618  TYR619  PRO620  LYS621  CYS622 
 ASP623  PHE694  ASN695  SER759  ASP760  ASP761  ALA762  ILE779  LEU786  VAL792 
 PHE793  MET794  SER795  GLU796  ALA797  LYS798  CYS799  TRP800  GLU811  SER814 

> <Gold.Protein.RotatedAtoms>
  151.3669  133.3869  159.2695 H   0  0  0  0  0  0  0  0  0  0  0  0  # atno 6907 bound_to 6896
  150.9681  134.9060  159.7782 H   0  0  0  0  0  0  0  0  0  0  0  0  # atno 6908 bound_to 6896
  152.5174  134.3630  159.9344 H   0  0  0  0  0  0  0  0  0  0  0  0  # atno 6909 bound_to 6896
  145.5131  139.2277  143.2713 H   0  0  0  0  0  0  0  0  0  0  0  0  # atno 7974 bound_to 7965
  154.4090  140.1651  156.2250 H   0  0  0  0  0  0  0  0  0  0  0  0  # atno 8008 bound_to 7997
  155.9331  140.3413  155.6242 H   0  0  0  0  0  0  0  0  0  0  0  0  # atno 8009 bound_to 7997
  155.7082  140.0753  157.2373 H   0  0  0  0  0  0  0  0  0  0  0  0  # atno 8010 bound_to 7997
  140.6737  143.6975  150.7978 H   0  0  0  0  0  0  0  0  0  0  0  0  # atno 10167 bound_to 10162
  156.0365  130.4350  150.2437 H   0  0  0  0  0  0  0  0  0  0  0  0  # atno 10718 bound_to 10713
  154.7750  135.4852  153.9725 H   0  0  0  0  0  0  0  0  0  0  0  0  # atno 10763 bound_to 10752
  153.1417  135.6774  153.9025 H   0  0  0  0  0  0  0  0  0  0  0  0  # atno 10764 bound_to 10752
  153.8697  135.3145  155.3420 H   0  0  0  0  0  0  0  0  0  0  0  0  # atno 10765 bound_to 10752
  141.1226  133.8487  157.1246 H   0  0  0  0  0  0  0  0  0  0  0  0  # atno 11005 bound_to 11000
  146.2154  140.5939  142.9041 LP  0  0  0  0  0  0  0  0  0  0  0  0  # atno 17320 bound_to 7965
  144.7717  140.5651  143.6666 LP  0  0  0  0  0  0  0  0  0  0  0  0  # atno 17321 bound_to 7965
  140.0665  143.5103  152.2601 LP  0  0  0  0  0  0  0  0  0  0  0  0  # atno 17342 bound_to 10162
  139.6019  144.7585  151.3152 LP  0  0  0  0  0  0  0  0  0  0  0  0  # atno 17343 bound_to 10162
  157.0535  131.0069  151.3246 LP  0  0  0  0  0  0  0  0  0  0  0  0  # atno 17370 bound_to 10713
  157.5123  130.7946  149.7718 LP  0  0  0  0  0  0  0  0  0  0  0  0  # atno 17371 bound_to 10713
  140.0196  134.9952  157.0565 LP  0  0  0  0  0  0  0  0  0  0  0  0  # atno 17394 bound_to 11000
  140.4462  134.1630  155.7177 LP  0  0  0  0  0  0  0  0  0  0  0  0  # atno 17395 bound_to 11000

$$$$
