AV-unprocessed.smi:1790|AV-procd|sdf|7216|dock9
  -GOLD-   22720 8453D 1   1.00000     0.00000
 Structure written by MMmdl.
 33 34  0  0  0  0  0  0  0  0  1 V2000
  149.1725  140.1582  158.0476 O   0  0  0  0  0  0  0  0  0  0  0  0
  149.7827  139.2507  158.6107 C   0  0  0  0  0  0  0  0  0  0  0  0
  149.1487  137.8620  158.6816 C   0  0  0  0  0  0  0  0  0  0  0  0
  148.9106  137.5270  160.0398 O   0  0  0  0  0  0  0  0  0  0  0  0
  147.9735  136.4751  160.1863 C   0  0  0  0  0  0  0  0  0  0  0  0
  147.7902  136.1857  161.6605 C   0  0  0  0  0  0  0  0  0  0  0  0
  146.5725  135.4358  162.1520 C   0  0  0  0  0  0  0  0  0  0  0  0
  146.7235  136.9050  162.4545 C   0  0  0  0  0  0  0  0  0  0  0  0
  151.0088  139.3576  159.1610 N   0  0  0  0  0  0  0  0  0  0  0  0
  151.8515  140.4768  159.2709 C   0  0  0  0  0  0  0  0  0  0  0  0
  151.4466  141.7712  159.1866 C   0  0  0  0  0  0  0  0  0  0  0  0
  152.3766  142.8807  159.3149 C   0  0  0  0  0  0  0  0  0  0  0  0
  151.9010  144.3247  159.2733 C   0  0  0  0  0  0  0  0  0  0  0  0
  152.1988  144.9676  160.4031 F   0  0  0  0  0  0  0  0  0  0  0  0
  152.4876  144.9659  158.2636 F   0  0  0  0  0  0  0  0  0  0  0  0
  150.5816  144.3866  159.0923 F   0  0  0  0  0  0  0  0  0  0  0  0
  153.6624  142.5621  159.5520 C   0  0  0  0  0  0  0  0  0  0  0  0
  154.0873  141.2348  159.6398 N   0  0  0  0  0  0  0  0  0  0  0  0
  153.2693  140.1654  159.5184 C   0  0  0  0  0  0  0  0  0  0  0  0
  153.7212  139.0249  159.6153 O   0  0  0  0  0  0  0  0  0  0  0  0
  155.0700  141.0780  159.8106 H   0  0  0  0  0  0  0  0  0  0  0  0
  148.2135  137.8513  158.1186 H   0  0  0  0  0  0  0  0  0  0  0  0
  149.8251  137.1395  158.2223 H   0  0  0  0  0  0  0  0  0  0  0  0
  147.0119  136.7599  159.7567 H   0  0  0  0  0  0  0  0  0  0  0  0
  148.3197  135.5764  159.6727 H   0  0  0  0  0  0  0  0  0  0  0  0
  148.7213  135.9916  162.1895 H   0  0  0  0  0  0  0  0  0  0  0  0
  145.8225  135.1488  161.4177 H   0  0  0  0  0  0  0  0  0  0  0  0
  146.7133  134.7348  162.9721 H   0  0  0  0  0  0  0  0  0  0  0  0
  146.9634  137.1853  163.4783 H   0  0  0  0  0  0  0  0  0  0  0  0
  146.0735  137.5963  161.9219 H   0  0  0  0  0  0  0  0  0  0  0  0
  151.3989  138.5031  159.5330 H   0  0  0  0  0  0  0  0  0  0  0  0
  150.4107  142.0228  159.0311 H   0  0  0  0  0  0  0  0  0  0  0  0
  154.4525  143.2842  159.6956 H   0  0  0  0  0  0  0  0  0  0  0  0
  1  2  2  0  0  0  0
  2  3  1  0  0  0  0
  2  9  1  0  0  0  0
  3  4  1  0  0  0  0
  3 22  1  0  0  0  0
  3 23  1  0  0  0  0
  4  5  1  0  0  0  0
  5  6  1  0  0  0  0
  5 24  1  0  0  0  0
  5 25  1  0  0  0  0
  6  8  1  0  0  0  0
  6  7  1  0  0  0  0
  6 26  1  0  0  0  0
  7  8  1  0  0  0  0
  7 27  1  0  0  0  0
  7 28  1  0  0  0  0
  8 29  1  0  0  0  0
  8 30  1  0  0  0  0
  9 10  1  0  0  0  0
  9 31  1  0  0  0  0
 10 19  1  0  0  0  0
 10 11  2  0  0  0  0
 11 12  1  0  0  0  0
 11 32  1  0  0  0  0
 12 13  1  0  0  0  0
 12 17  2  0  0  0  0
 13 14  1  0  0  0  0
 13 15  1  0  0  0  0
 13 16  1  0  0  0  0
 17 18  1  0  0  0  0
 17 33  1  0  0  0  0
 18 21  1  0  0  0  0
 18 19  1  0  0  0  0
 19 20  2  0  0  0  0
M  END
> <s_m_source_file>
AV-unprocessed.smi

> <i_m_source_file_index>
1790

> <i_lp_mmshare_version>
43012

> <i_f3d_flags>
0

> <s_epik_input>
W0NIMl0xW0NIMl1bQ0hdMVtDSDJdT1tDSDJdQyg9TylbTkhdYzJbY0hdYyhDKEYpKEYpRilbY0hdW25IXWMyPU8=

> <s_epik_cmdline>
J2VwaWtfcHl0aG9uJywgJy1waCcsICc3LjAnLCAnLXRuJywgJzgnLCAnLW1hJywgJzIwMCcsICctbWV0YWxfYmluZGluZycsICctaW1hZScsICc8aW5maWxlLm1hZT4nLCAnLW9tYWUnLCAnPG91dGZpbGUubWFlPic=

> <r_lp_tautomer_probability>
0.999

> <r_epik_Ionization_Penalty>
0.00811055

> <r_epik_Ionization_Penalty_Charging>
0.00811046

> <r_epik_Ionization_Penalty_Neutral>
9.25705e-08

> <r_epik_State_Penalty>
0.00609496

> <r_epik_Charging_Adjusted_Penalty>
0.0142054

> <i_epik_Tot_Q>
0

> <i_epik_Tot_abs_Q>
0

> <r_epik_Metal_State_Penalty>
0.317593

> <b_epik_Metal_Only>
0

> <s_lp_Force_Field>
OPLS_2005

> <r_lp_Energy>
26.3792

> <b_lp_Chiralities_Consistent>
1

> <s_lp_Variant>
AV-unprocessed.smi:1790-1

> <Gold.Version>
5.8.1

> <Gold.Id.Protein>
6NUR|6NUR_protein|mol2

> <Gold.PLP.Fitness>
45.1897

> <Gold.PLP.PLP>
-44.2772

> <Gold.PLP.part.hbond>
-1.0152

> <Gold.PLP.part.metal>
0.0000

> <Gold.PLP.part.buried>
-7.0573

> <Gold.PLP.part.nonpolar>
-37.2004

> <Gold.PLP.part.repulsive>
0.2571

> <Gold.PLP.ligand.clash>
0.0000

> <Gold.PLP.ligand.torsion>
0.4793

> <Gold.PLP.Chemscore.Hbond>
0.4282

> <Gold.PLP.Chemscore.CHOScore>
0.0000

> <Gold.PLP.Chemscore.Metal>
0.0000

> <Gold.Chemscore.Hbonds>
donor molecule, donor type, donor heavy atom, donor atom, acceptor molecule, acceptor atom, score
      P1  H  6931  6943       L1     4  0.35

> <Gold.PLP.Chemscore.Internal.Correction>
0.5865

> <Gold.Rescore>
     Score         DG    S(hbond)    S(metal)    S(lipo)     H(rot)  DE(clash)    DE(int)     intcor
     11.73     -12.49       0.63        0.00      82.77       1.87       0.07       0.69       ----

> <Gold.Chemscore.Fitness>
11.7301

> <Gold.Chemscore.DG>
-12.4900

> <Gold.Chemscore.ZeroCoef>
-5.4800

> <Gold.Chemscore.Hbond>
0.6299

> <Gold.Chemscore.Metal>
0.0000

> <Gold.Chemscore.Lipo>
82.7698

> <Gold.Chemscore.Internal_Hbond>
0.0000

> <Gold.Chemscore.DEClash>
0.0670

> <Gold.Chemscore.DEInternal>
0.6929

> <Gold.Chemscore.Rot>
1.8664

> <Gold.Chemscore.Internal.Correction>
   9.000000E+99

> <Gold.Chemscore.Hbonds>
donor molecule, donor type, donor heavy atom, donor atom, acceptor molecule, acceptor atom, score
      P1  H  6931  6943       L1     4  0.16

> <Gold.Chemscore.Hbond.Weighted>
-2.1039

> <Gold.Chemscore.Metal.Weighted>
-0.0000

> <Gold.Chemscore.Lipo.Weighted>
-9.6841

> <Gold.Chemscore.Internal_Hbond.Weighted>
0.0000

> <Gold.Chemscore.DEClash.Weighted>
0.0670

> <Gold.Chemscore.DEInternal.Weighted>
0.6929

> <Gold.Chemscore.Rot.Weighted>
4.7780

> <Gold.Chemscore.Internal.Correction.Weighted>
   9.000000E+99

> <Gold.Protein.RotatedTorsions>
[ 6907 6896 6895 6894 ] final  142.61 input  -60.11 | X-H torsion
[ 7974 7965 7964 7962 ] final -161.56 input  175.53 | X-H torsion
[ 8008 7997 7996 7995 ] final    9.37 input   59.86 | X-H torsion
[ 10167 10162 10161 10158 ] final  131.37 input  -65.29 | X-H torsion
[ 10718 10713 10712 10709 ] final  -79.41 input   66.30 | X-H torsion
[ 10763 10752 10751 10750 ] final   83.92 input  -60.55 | X-H torsion
[ 11005 11000 10999 10996 ] final -104.66 input  -57.11 | X-H torsion

> <Gold.Protein.ActiveResidues>
 VAL166  LYS551  ARG553  GLY616  TRP617  ASP618  TYR619  PRO620  LYS621  CYS622 
 ASP623  PHE694  ASN695  SER759  ASP760  ASP761  ALA762  ILE779  LEU786  VAL792 
 PHE793  MET794  SER795  GLU796  ALA797  LYS798  CYS799  TRP800  GLU811  SER814 

> <Gold.Protein.RotatedAtoms>
  152.2166  133.4951  159.5139 H   0  0  0  0  0  0  0  0  0  0  0  0  # atno 6907 bound_to 6896
  150.7002  134.1397  159.4109 H   0  0  0  0  0  0  0  0  0  0  0  0  # atno 6908 bound_to 6896
  151.9317  135.0253  160.0580 H   0  0  0  0  0  0  0  0  0  0  0  0  # atno 6909 bound_to 6896
  144.7387  140.3380  143.6140 H   0  0  0  0  0  0  0  0  0  0  0  0  # atno 7974 bound_to 7965
  154.7792  140.2816  155.6077 H   0  0  0  0  0  0  0  0  0  0  0  0  # atno 8008 bound_to 7997
  156.2947  140.2626  156.2541 H   0  0  0  0  0  0  0  0  0  0  0  0  # atno 8009 bound_to 7997
  154.9805  140.0375  157.2265 H   0  0  0  0  0  0  0  0  0  0  0  0  # atno 8010 bound_to 7997
  139.5387  144.6709  151.4698 H   0  0  0  0  0  0  0  0  0  0  0  0  # atno 10167 bound_to 10162
  156.0093  130.4545  150.3644 H   0  0  0  0  0  0  0  0  0  0  0  0  # atno 10718 bound_to 10713
  153.1335  135.4673  154.9385 H   0  0  0  0  0  0  0  0  0  0  0  0  # atno 10763 bound_to 10752
  154.7685  135.3152  154.8240 H   0  0  0  0  0  0  0  0  0  0  0  0  # atno 10764 bound_to 10752
  153.8778  135.6897  153.4823 H   0  0  0  0  0  0  0  0  0  0  0  0  # atno 10765 bound_to 10752
  141.1090  133.8742  157.1638 H   0  0  0  0  0  0  0  0  0  0  0  0  # atno 11005 bound_to 11000
  145.7404  139.1762  143.2379 LP  0  0  0  0  0  0  0  0  0  0  0  0  # atno 17320 bound_to 7965
  146.1138  140.7395  142.9490 LP  0  0  0  0  0  0  0  0  0  0  0  0  # atno 17321 bound_to 7965
  140.6606  143.8505  150.6884 LP  0  0  0  0  0  0  0  0  0  0  0  0  # atno 17342 bound_to 10162
  140.1899  143.4045  152.1871 LP  0  0  0  0  0  0  0  0  0  0  0  0  # atno 17343 bound_to 10162
  157.1731  131.0374  151.2785 LP  0  0  0  0  0  0  0  0  0  0  0  0  # atno 17370 bound_to 10713
  157.4211  130.7438  149.6914 LP  0  0  0  0  0  0  0  0  0  0  0  0  # atno 17371 bound_to 10713
  139.9974  135.0041  157.0114 LP  0  0  0  0  0  0  0  0  0  0  0  0  # atno 17394 bound_to 11000
  140.4826  134.1274  155.7219 LP  0  0  0  0  0  0  0  0  0  0  0  0  # atno 17395 bound_to 11000

$$$$
