AV-unprocessed.smi:2618|AV-procd|sdf|10219|dock1
  -GOLD-   2272014223D 1   1.00000     0.00000
 Structure written by MMmdl.
 39 40  0  0  0  0  0  0  0  0  1 V2000
  155.6023  138.2375  153.7618 C   0  0  0  0  0  0  0  0  0  0  0  0
  154.2660  137.7871  153.8962 O   0  0  0  0  0  0  0  0  0  0  0  0
  153.6317  138.2989  155.0582 C   0  0  0  0  0  0  0  0  0  0  0  0
  152.2038  138.7617  154.7113 C   0  0  0  0  0  0  0  0  0  0  0  0
  151.6787  139.8628  155.6009 C   0  0  0  0  0  0  0  0  0  0  0  0
  152.2431  140.2555  156.6831 N   0  0  0  0  0  0  0  0  0  0  0  0
  151.5536  141.2440  157.2519 N   0  0  0  0  0  0  0  0  0  0  0  0
  151.9851  141.9087  158.4058 C   0  0  0  0  0  0  0  0  0  0  0  0
  152.7363  141.2289  159.2815 N   0  0  0  0  0  0  0  0  0  0  0  0
  153.1452  141.8741  160.3947 C   0  0  0  0  0  0  0  0  0  0  0  0
  153.9965  141.0823  161.3641 C   0  0  0  0  0  0  0  0  0  0  0  0
  152.7949  143.2158  160.6457 C   0  0  0  0  0  0  0  0  0  0  0  0
  151.9971  143.8387  159.6651 C   0  0  0  0  0  0  0  0  0  0  0  0
  151.5439  145.2760  159.8059 C   0  0  0  0  0  0  0  0  0  0  0  0
  151.5977  143.1847  158.5532 N   0  0  0  0  0  0  0  0  0  0  0  0
  150.3018  141.5161  156.5297 C   0  0  2  0  0  0  0  0  0  0  0  0
  150.1329  142.8473  156.0698 O   0  0  0  0  0  0  0  0  0  0  0  0
  149.0404  141.1087  157.3432 C   0  0  0  0  0  0  0  0  0  0  0  0
  147.9561  141.1570  156.5673 F   0  0  0  0  0  0  0  0  0  0  0  0
  149.1347  139.8761  157.8396 F   0  0  0  0  0  0  0  0  0  0  0  0
  148.8573  141.9553  158.3580 F   0  0  0  0  0  0  0  0  0  0  0  0
  150.4532  140.6389  155.2795 C   0  0  0  0  0  0  0  0  0  0  0  0
  156.0375  137.8248  152.8518 H   0  0  0  0  0  0  0  0  0  0  0  0
  156.2136  137.9117  154.6045 H   0  0  0  0  0  0  0  0  0  0  0  0
  155.6477  139.3252  153.6947 H   0  0  0  0  0  0  0  0  0  0  0  0
  153.6148  137.5523  155.8544 H   0  0  0  0  0  0  0  0  0  0  0  0
  154.2060  139.1480  155.4323 H   0  0  0  0  0  0  0  0  0  0  0  0
  152.1804  139.1069  153.6775 H   0  0  0  0  0  0  0  0  0  0  0  0
  151.5304  137.9057  154.7614 H   0  0  0  0  0  0  0  0  0  0  0  0
  154.4595  141.7355  162.1042 H   0  0  0  0  0  0  0  0  0  0  0  0
  154.7898  140.5540  160.8339 H   0  0  0  0  0  0  0  0  0  0  0  0
  153.3854  140.3480  161.8893 H   0  0  0  0  0  0  0  0  0  0  0  0
  153.1174  143.7345  161.5367 H   0  0  0  0  0  0  0  0  0  0  0  0
  151.8902  145.7087  160.7449 H   0  0  0  0  0  0  0  0  0  0  0  0
  150.4554  145.3345  159.7850 H   0  0  0  0  0  0  0  0  0  0  0  0
  151.9369  145.8787  158.9867 H   0  0  0  0  0  0  0  0  0  0  0  0
  149.3037  143.1700  156.3873 H   0  0  0  0  0  0  0  0  0  0  0  0
  150.6113  141.2172  154.3677 H   0  0  0  0  0  0  0  0  0  0  0  0
  149.6016  139.9773  155.1180 H   0  0  0  0  0  0  0  0  0  0  0  0
  1  2  1  0  0  0  0
  1 23  1  0  0  0  0
  1 24  1  0  0  0  0
  1 25  1  0  0  0  0
  2  3  1  0  0  0  0
  3  4  1  0  0  0  0
  3 26  1  0  0  0  0
  3 27  1  0  0  0  0
  4  5  1  0  0  0  0
  4 28  1  0  0  0  0
  4 29  1  0  0  0  0
  5 22  1  0  0  0  0
  5  6  2  0  0  0  0
  6  7  1  0  0  0  0
  7  8  1  0  0  0  0
  7 16  1  0  0  0  0
  8 15  1  0  0  0  0
  8  9  2  0  0  0  0
  9 10  1  0  0  0  0
 10 11  1  0  0  0  0
 10 12  2  0  0  0  0
 11 30  1  0  0  0  0
 11 31  1  0  0  0  0
 11 32  1  0  0  0  0
 12 13  1  0  0  0  0
 12 33  1  0  0  0  0
 13 14  1  0  0  0  0
 13 15  2  0  0  0  0
 14 34  1  0  0  0  0
 14 35  1  0  0  0  0
 14 36  1  0  0  0  0
 16 17  1  0  0  0  0
 16 18  1  0  0  0  0
 16 22  1  0  0  0  0
 17 37  1  0  0  0  0
 18 19  1  0  0  0  0
 18 20  1  0  0  0  0
 18 21  1  0  0  0  0
 22 38  1  0  0  0  0
 22 39  1  0  0  0  0
M  END
> <s_m_source_file>
AV-unprocessed.smi

> <i_m_source_file_index>
2618

> <i_lp_mmshare_version>
43012

> <i_f3d_flags>
0

> <s_epik_input>
W0NIM11PW0NIMl1bQ0gyXUMoW0NIMl0xKT1OTihbQ0BAXTEoW09IXSlDKEYpKEYpRiljMm5jKFtDSDNdKVtjSF1jKG4yKVtDSDNd

> <s_epik_cmdline>
J2VwaWtfcHl0aG9uJywgJy1waCcsICc3LjAnLCAnLXRuJywgJzgnLCAnLW1hJywgJzIwMCcsICctbWV0YWxfYmluZGluZycsICctaW1hZScsICc8aW5maWxlLm1hZT4nLCAnLW9tYWUnLCAnPG91dGZpbGUubWFlPic=

> <r_lp_tautomer_probability>
1

> <r_epik_Ionization_Penalty>
0.0648608

> <r_epik_Ionization_Penalty_Charging>
0

> <r_epik_Ionization_Penalty_Neutral>
0.0648608

> <r_epik_State_Penalty>
0.0551477

> <r_epik_Charging_Adjusted_Penalty>
0.0551477

> <i_epik_Tot_Q>
0

> <i_epik_Tot_abs_Q>
0

> <r_epik_Metal_State_Penalty>
0.0550619

> <b_epik_Metal_Only>
0

> <s_epik_Chemistry_Notes>
This compound has an imine and may undergo hydrolysis.

> <s_lp_Force_Field>
OPLS_2005

> <r_lp_Energy>
16.3005

> <b_lp_Chiralities_Consistent>
1

> <s_lp_Variant>
AV-unprocessed.smi:2618-2

> <Gold.Version>
5.8.1

> <Gold.Id.Protein>
6NUR|6NUR_protein|mol2

> <Gold.PLP.Fitness>
45.9075

> <Gold.PLP.PLP>
-43.5472

> <Gold.PLP.part.hbond>
-2.5439

> <Gold.PLP.part.metal>
0.0000

> <Gold.PLP.part.buried>
-0.2774

> <Gold.PLP.part.nonpolar>
-39.9916

> <Gold.PLP.part.repulsive>
0.0659

> <Gold.PLP.ligand.clash>
0.0000

> <Gold.PLP.ligand.torsion>
1.0794

> <Gold.PLP.Chemscore.Hbond>
1.4736

> <Gold.PLP.Chemscore.CHOScore>
0.0000

> <Gold.PLP.Chemscore.Metal>
0.0000

> <Gold.Chemscore.Hbonds>
donor molecule, donor type, donor heavy atom, donor atom, acceptor molecule, acceptor atom, score
      L1  H    17    37       P1  8028  0.24
      P1  H  7997  8009       L1     6  0.78
      P1  H 10752 10765       L1     2  0.09

> <Gold.PLP.Chemscore.Internal.Correction>
0.0984

> <Gold.Rescore>
     Score         DG    S(hbond)    S(metal)    S(lipo)     H(rot)  DE(clash)    DE(int)     intcor
     13.87     -16.94       1.33        0.00     104.59       2.03       1.74       1.33       ----

> <Gold.Chemscore.Fitness>
13.8675

> <Gold.Chemscore.DG>
-16.9380

> <Gold.Chemscore.ZeroCoef>
-5.4800

> <Gold.Chemscore.Hbond>
1.3259

> <Gold.Chemscore.Metal>
0.0000

> <Gold.Chemscore.Lipo>
104.5863

> <Gold.Chemscore.Internal_Hbond>
0.0000

> <Gold.Chemscore.DEClash>
1.7445

> <Gold.Chemscore.DEInternal>
1.3261

> <Gold.Chemscore.Rot>
2.0340

> <Gold.Chemscore.Internal.Correction>
   9.000000E+99

> <Gold.Chemscore.Hbonds>
donor molecule, donor type, donor heavy atom, donor atom, acceptor molecule, acceptor atom, score
      L1  H    17    37       P1  8028  0.24
      P1  H  7997  8009       L1     6  0.40
      P1  H 10752 10765       L1     2  0.03

> <Gold.Chemscore.Hbond.Weighted>
-4.4286

> <Gold.Chemscore.Metal.Weighted>
-0.0000

> <Gold.Chemscore.Lipo.Weighted>
-12.2366

> <Gold.Chemscore.Internal_Hbond.Weighted>
0.0000

> <Gold.Chemscore.DEClash.Weighted>
1.7445

> <Gold.Chemscore.DEInternal.Weighted>
1.3261

> <Gold.Chemscore.Rot.Weighted>
5.2071

> <Gold.Chemscore.Internal.Correction.Weighted>
   9.000000E+99

> <Gold.Protein.RotatedTorsions>
[ 6907 6896 6895 6894 ] final  149.60 input  -60.11 | X-H torsion
[ 7974 7965 7964 7962 ] final   11.04 input  175.53 | X-H torsion
[ 8008 7997 7996 7995 ] final -161.41 input   59.86 | X-H torsion
[ 10167 10162 10161 10158 ] final   84.23 input  -65.29 | X-H torsion
[ 10718 10713 10712 10709 ] final   94.37 input   66.30 | X-H torsion
[ 10763 10752 10751 10750 ] final   44.96 input  -60.55 | X-H torsion
[ 11005 11000 10999 10996 ] final  -49.44 input  -57.11 | X-H torsion

> <Gold.Protein.ActiveResidues>
 VAL166  LYS551  ARG553  GLY616  TRP617  ASP618  TYR619  PRO620  LYS621  CYS622 
 ASP623  PHE694  ASN695  SER759  ASP760  ASP761  ALA762  ILE779  LEU786  VAL792 
 PHE793  MET794  SER795  GLU796  ALA797  LYS798  CYS799  TRP800  GLU811  SER814 

> <Gold.Protein.RotatedAtoms>
  152.1258  133.4379  159.4696 H   0  0  0  0  0  0  0  0  0  0  0  0  # atno 6907 bound_to 6896
  150.6875  134.2480  159.4508 H   0  0  0  0  0  0  0  0  0  0  0  0  # atno 6908 bound_to 6896
  152.0360  134.9739  160.0624 H   0  0  0  0  0  0  0  0  0  0  0  0  # atno 6909 bound_to 6896
  146.2378  139.9544  142.8466 H   0  0  0  0  0  0  0  0  0  0  0  0  # atno 7974 bound_to 7965
  155.7917  140.0879  157.2005 H   0  0  0  0  0  0  0  0  0  0  0  0  # atno 8008 bound_to 7997
  154.3985  140.1489  156.3229 H   0  0  0  0  0  0  0  0  0  0  0  0  # atno 8009 bound_to 7997
  155.8552  140.3433  155.5722 H   0  0  0  0  0  0  0  0  0  0  0  0  # atno 8010 bound_to 7997
  139.9102  144.6277  150.8546 H   0  0  0  0  0  0  0  0  0  0  0  0  # atno 10167 bound_to 10162
  157.6948  131.0510  150.4176 H   0  0  0  0  0  0  0  0  0  0  0  0  # atno 10718 bound_to 10713
  152.9832  135.6054  154.3359 H   0  0  0  0  0  0  0  0  0  0  0  0  # atno 10763 bound_to 10752
  154.3060  135.2772  155.2591 H   0  0  0  0  0  0  0  0  0  0  0  0  # atno 10764 bound_to 10752
  154.4822  135.5914  153.6453 H   0  0  0  0  0  0  0  0  0  0  0  0  # atno 10765 bound_to 10752
  141.0759  133.6666  156.3586 H   0  0  0  0  0  0  0  0  0  0  0  0  # atno 11005 bound_to 11000
  145.1830  140.9776  143.4255 LP  0  0  0  0  0  0  0  0  0  0  0  0  # atno 17320 bound_to 7965
  144.9925  139.3676  143.6208 LP  0  0  0  0  0  0  0  0  0  0  0  0  # atno 17321 bound_to 7965
  140.7687  143.3372  151.2285 LP  0  0  0  0  0  0  0  0  0  0  0  0  # atno 17342 bound_to 10162
  139.6949  143.9629  152.2878 LP  0  0  0  0  0  0  0  0  0  0  0  0  # atno 17343 bound_to 10162
  156.4554  130.4020  149.6609 LP  0  0  0  0  0  0  0  0  0  0  0  0  # atno 17370 bound_to 10713
  156.3743  130.7547  151.2533 LP  0  0  0  0  0  0  0  0  0  0  0  0  # atno 17371 bound_to 10713
  140.5574  134.5968  157.5424 LP  0  0  0  0  0  0  0  0  0  0  0  0  # atno 17394 bound_to 11000
  139.9571  134.7515  156.0317 LP  0  0  0  0  0  0  0  0  0  0  0  0  # atno 17395 bound_to 11000

$$$$
