#       Name:                AV-unprocessed.smi:1795
#       Creating user name   scv26
#       Creation time:       Fri Mar 27 08:50:16 2020


#       File generated by GOLD software.
#

@<TRIPOS>MOLECULE
AV-unprocessed.smi:1795
    54    55     1
SMALL
NO_CHARGES


@<TRIPOS>ATOM
      1 ****        -3.1715  -0.6490   3.7774 C.3            1 S1                 0.0000
      2 ****        -3.6669  -1.2584   2.4536 C.3            1 S1                 0.0000
      3 ****        -3.0265  -0.6248   1.2046 C.3            1 S1                 0.0000
      4 ****        -1.6054  -1.0363   1.0465 N.4            1 S1                 1.0000
      5 ****        -0.9268  -0.3226  -0.0848 C.3            1 S1                 0.0000
      6 ****        -0.5480   1.1079   0.3609 C.3            1 S1                 0.0000
      7 ****         0.3099  -1.0735  -0.6533 C.3            1 S1                 0.0000
      8 ****         0.9362  -0.3695  -1.7694 N.am           1 S1                 0.0000
      9 ****         2.0717   0.3429  -1.7037 C.2            1 S1                 0.0000
     10 ****         2.7352   0.4643  -0.6734 O.2            1 S1                 0.0000
     11 ****         2.5255   1.0143  -3.0067 C.3            1 S1                 0.0000
     12 ****         3.1391   2.3337  -2.7833 N.am           1 S1                 0.0000
     13 ****         4.5462   2.4043  -2.8163 C.2            1 S1                 0.0000
     14 ****         5.2034   3.5590  -2.6250 C.2            1 S1                 0.0000
     15 ****         4.4294   4.7530  -2.3812 C.2            1 S1                 0.0000
     16 ****         3.0832   4.6960  -2.3435 C.2            1 S1                 0.0000
     17 ****         2.3606   3.4352  -2.5478 C.2            1 S1                 0.0000
     18 ****         1.1311   3.3721  -2.5088 O.2            1 S1                 0.0000
     19 ****        -1.5225  -2.5216   1.0332 C.3            1 S1                 0.0000
     20 ****        -2.1660  -3.1200   2.2983 C.3            1 S1                 0.0000
     21 ****        -2.1795  -4.6524   2.2649 C.3            1 S1                 0.0000
     22 ****        -3.5130  -2.6749   2.4125 O.3            1 S1                 0.0000
     23 ****        -3.4341   0.4073   3.8378 H              1 S1                 0.0000
     24 ****        -2.0897  -0.7190   3.8880 H              1 S1                 0.0000
     25 ****        -3.6287  -1.1502   4.6309 H              1 S1                 0.0000
     26 ****        -4.7404  -1.0730   2.4052 H              1 S1                 0.0000
     27 ****        -3.5837  -0.9345   0.3187 H              1 S1                 0.0000
     28 ****        -3.1254   0.4578   1.2653 H              1 S1                 0.0000
     29 ****        -1.6458  -0.2439  -0.9021 H              1 S1                 0.0000
     30 ****        -0.1608   1.7004  -0.4675 H              1 S1                 0.0000
     31 ****         0.2178   1.0860   1.1368 H              1 S1                 0.0000
     32 ****        -1.3960   1.6650   0.7547 H              1 S1                 0.0000
     33 ****         1.0356  -1.2684   0.1384 H              1 S1                 0.0000
     34 ****         0.0168  -2.0442  -1.0532 H              1 S1                 0.0000
     35 ****         0.4628  -0.4178  -2.6603 H              1 S1                 0.0000
     36 ****         3.2228   0.3421  -3.5080 H              1 S1                 0.0000
     37 ****         1.6799   1.1111  -3.6904 H              1 S1                 0.0000
     38 ****         5.0513   1.4669  -2.9984 H              1 S1                 0.0000
     39 ****         6.2827   3.5936  -2.6495 H              1 S1                 0.0000
     40 ****         4.9323   5.6964  -2.2274 H              1 S1                 0.0000
     41 ****         2.5207   5.5995  -2.1596 H              1 S1                 0.0000
     42 ****        -2.0098  -2.9073   0.1361 H              1 S1                 0.0000
     43 ****        -0.4851  -2.8535   1.0127 H              1 S1                 0.0000
     44 ****        -1.6007  -2.8093   3.1771 H              1 S1                 0.0000
     45 ****        -1.1681  -5.0535   2.1957 H              1 S1                 0.0000
     46 ****        -2.7464  -5.0246   1.4111 H              1 S1                 0.0000
     47 ****        -2.6349  -5.0578   3.1688 H              1 S1                 0.0000
     48 ****        -1.1208  -0.7467   1.8842 H              1 S1                 0.0000
     49 ****         2.4345   0.0196   0.1703 LP             1 S1                 0.0000
     50 ****         3.5748   1.0075  -0.6804 LP             1 S1                 0.0000
     51 ****         0.6707   2.4960  -2.6516 LP             1 S1                 0.0000
     52 ****         0.5934   4.1969  -2.3343 LP             1 S1                 0.0000
     53 ****        -4.0241  -3.0218   1.6261 LP             1 S1                 0.0000
     54 ****        -3.8971  -3.0552   3.2538 LP             1 S1                 0.0000
@<TRIPOS>BOND
    1    1    2 1     
    2    1   23 1     
    3    1   24 1     
    4    1   25 1     
    5    2   22 1     
    6    2    3 1     
    7    2   26 1     
    8    3    4 1     
    9    3   27 1     
   10    3   28 1     
   11    4    5 1     
   12    4   19 1     
   13    4   48 1     
   14    5    6 1     
   15    5    7 1     
   16    5   29 1     
   17    6   30 1     
   18    6   31 1     
   19    6   32 1     
   20    7    8 1     
   21    7   33 1     
   22    7   34 1     
   23    8    9 am    
   24    8   35 1     
   25    9   10 2     
   26    9   11 1     
   27   11   12 1     
   28   11   36 1     
   29   11   37 1     
   30   12   17 am    
   31   12   13 1     
   32   13   14 2     
   33   13   38 1     
   34   14   15 1     
   35   14   39 1     
   36   15   16 2     
   37   15   40 1     
   38   16   17 1     
   39   16   41 1     
   40   17   18 2     
   41   19   20 1     
   42   19   42 1     
   43   19   43 1     
   44   20   21 1     
   45   20   22 1     
   46   20   44 1     
   47   21   45 1     
   48   21   46 1     
   49   21   47 1     
   50   10   49 1     
   51   10   50 1     
   52   18   51 1     
   53   18   52 1     
   54   22   53 1     
   55   22   54 1     
@<TRIPOS>SUBSTRUCTURE
      1 S1             1
@<TRIPOS>SET
LONE_PAIRS      STATIC     ATOMS    <user>   **** ""
6 49 50 51 52 53 54
DONOR_HYDROGENS      STATIC     ATOMS    <user>   **** ""
2 48 35
ATOM$BLUE        STATIC     ATOMS    COLORGROUP SYSTEM
6 49 50 51 52 53 54
ATOM$RED        STATIC     ATOMS    COLORGROUP SYSTEM
2 48 35
