AV-unprocessed.smi:2727|AV-procd|sdf|10524|dock10
  -GOLD-   2272014563D 1   1.00000     0.00000
 Structure written by MMmdl.
 39 40  0  0  0  0  0  0  0  0  2 V2000
  148.3686  138.0359  158.3702 O   0  0  0  0  0  0  0  0  0  0  0  0
  149.3417  137.4331  158.8292 C   0  0  0  0  0  0  0  0  0  0  0  0
  150.5712  137.9444  158.6826 N   0  0  0  0  0  0  0  0  0  0  0  0
  150.8864  139.1986  158.0053 C   0  0  0  0  0  0  0  0  0  0  0  0
  151.8299  140.0788  158.8495 C   0  0  0  0  0  0  0  0  0  0  0  0
  151.4985  141.5848  158.8197 C   0  0  0  0  0  0  0  0  0  0  0  0
  150.3943  141.9431  158.4062 O   0  0  0  0  0  0  0  0  0  0  0  0
  152.4251  142.4785  159.2463 N   0  0  0  0  0  0  0  0  0  0  0  0
  153.7022  142.0394  159.8225 C   0  0  0  0  0  0  0  0  0  0  0  0
  153.5658  141.6715  161.3142 C   0  0  0  0  0  0  0  0  0  0  0  0
  152.5685  142.5236  162.1308 C   0  0  0  0  0  0  0  0  0  0  0  0
  152.5849  144.0347  161.8240 C   0  0  0  0  0  0  0  0  0  0  0  0
  151.7160  144.4320  160.6112 C   0  0  0  0  0  0  0  0  0  0  0  0
  152.2510  143.9376  159.2537 C   0  0  0  0  0  0  0  0  0  0  0  0
  149.3160  136.2580  159.4977 N   0  5  0  0  0  0  0  0  0  0  0  0
  148.4648  136.0908  160.5227 C   0  0  0  0  0  0  0  0  0  0  0  0
  147.9512  134.9336  160.9442 N   0  0  0  0  0  0  0  0  0  0  0  0
  147.1272  135.2515  162.0128 C   0  0  0  0  0  0  0  0  0  0  0  0
  147.1730  136.6075  162.1894 C   0  0  0  0  0  0  0  0  0  0  0  0
  148.0101  137.1484  161.2530 O   0  0  0  0  0  0  0  0  0  0  0  0
  151.3438  137.4199  159.0659 H   0  0  0  0  0  0  0  0  0  0  0  0
  151.3258  138.9902  157.0283 H   0  0  0  0  0  0  0  0  0  0  0  0
  149.9582  139.7410  157.8200 H   0  0  0  0  0  0  0  0  0  0  0  0
  151.7977  139.7486  159.8880 H   0  0  0  0  0  0  0  0  0  0  0  0
  152.8459  139.9059  158.4970 H   0  0  0  0  0  0  0  0  0  0  0  0
  154.1148  141.1969  159.2648 H   0  0  0  0  0  0  0  0  0  0  0  0
  154.4525  142.8245  159.7245 H   0  0  0  0  0  0  0  0  0  0  0  0
  153.2666  140.6260  161.3989 H   0  0  0  0  0  0  0  0  0  0  0  0
  154.5528  141.7312  161.7735 H   0  0  0  0  0  0  0  0  0  0  0  0
  151.5569  142.1401  161.9898 H   0  0  0  0  0  0  0  0  0  0  0  0
  152.7873  142.3736  163.1884 H   0  0  0  0  0  0  0  0  0  0  0  0
  152.1920  144.5594  162.6954 H   0  0  0  0  0  0  0  0  0  0  0  0
  153.6086  144.3898  161.6999 H   0  0  0  0  0  0  0  0  0  0  0  0
  150.6984  144.0719  160.7646 H   0  0  0  0  0  0  0  0  0  0  0  0
  151.6410  145.5194  160.5756 H   0  0  0  0  0  0  0  0  0  0  0  0
  153.1981  144.4334  159.0381 H   0  0  0  0  0  0  0  0  0  0  0  0
  151.5933  144.2654  158.4487 H   0  0  0  0  0  0  0  0  0  0  0  0
  146.5784  134.4961  162.5553 H   0  0  0  0  0  0  0  0  0  0  0  0
  146.7059  137.2936  162.8798 H   0  0  0  0  0  0  0  0  0  0  0  0
  1  2  2  0  0  0  0
  2  3  1  0  0  0  0
  2 15  1  0  0  0  0
  3  4  1  0  0  0  0
  3 21  1  0  0  0  0
  4  5  1  0  0  0  0
  4 22  1  0  0  0  0
  4 23  1  0  0  0  0
  5  6  1  0  0  0  0
  5 24  1  0  0  0  0
  5 25  1  0  0  0  0
  6  7  2  0  0  0  0
  6  8  1  0  0  0  0
  8 14  1  0  0  0  0
  8  9  1  0  0  0  0
  9 10  1  0  0  0  0
  9 26  1  0  0  0  0
  9 27  1  0  0  0  0
 10 11  1  0  0  0  0
 10 28  1  0  0  0  0
 10 29  1  0  0  0  0
 11 12  1  0  0  0  0
 11 30  1  0  0  0  0
 11 31  1  0  0  0  0
 12 13  1  0  0  0  0
 12 32  1  0  0  0  0
 12 33  1  0  0  0  0
 13 14  1  0  0  0  0
 13 34  1  0  0  0  0
 13 35  1  0  0  0  0
 14 36  1  0  0  0  0
 14 37  1  0  0  0  0
 15 16  1  0  0  0  0
 16 20  1  0  0  0  0
 16 17  2  0  0  0  0
 17 18  1  0  0  0  0
 18 19  2  0  0  0  0
 18 38  1  0  0  0  0
 19 20  1  0  0  0  0
 19 39  1  0  0  0  0
M  CHG  1  15  -1
M  END
> <s_m_source_file>
AV-unprocessed.smi

> <i_m_source_file_index>
2727

> <i_lp_mmshare_version>
43012

> <i_f3d_flags>
0

> <s_epik_input>
bzFbY0hdW2NIXW5jMVtOSF1DKD1PKVtOSF1bQ0gyXVtDSDJdQyg9TylOMltDSDJdW0NIMl1bQ0gyXVtDSDJdW0NIMl1bQ0gyXTI=

> <s_epik_cmdline>
J2VwaWtfcHl0aG9uJywgJy1waCcsICc3LjAnLCAnLXRuJywgJzgnLCAnLW1hJywgJzIwMCcsICctbWV0YWxfYmluZGluZycsICctaW1hZScsICc8aW5maWxlLm1hZT4nLCAnLW9tYWUnLCAnPG91dGZpbGUubWFlPic=

> <r_lp_tautomer_probability>
0.785861

> <r_epik_Ionization_Penalty>
9.14426

> <r_epik_Ionization_Penalty_Charging>
6.65642

> <r_epik_Ionization_Penalty_Neutral>
2.48784

> <r_epik_State_Penalty>
6.67734

> <r_epik_Charging_Adjusted_Penalty>
13.3338

> <i_epik_Tot_Q>
-1

> <i_epik_Tot_abs_Q>
1

> <r_epik_Metal_State_Penalty>
2.58025

> <b_epik_Metal_Only>
1

> <s_lp_Force_Field>
OPLS_2005

> <r_lp_Energy>
17.6318

> <b_lp_Chiralities_Consistent>
1

> <s_lp_Variant>
AV-unprocessed.smi:2727-4

> <Gold.Version>
5.8.1

> <Gold.Id.Protein>
6NUR|6NUR_protein|mol2

> <Gold.PLP.Fitness>
54.4650

> <Gold.PLP.PLP>
-45.6117

> <Gold.PLP.part.hbond>
-3.0000

> <Gold.PLP.part.metal>
0.0000

> <Gold.PLP.part.buried>
-5.7918

> <Gold.PLP.part.nonpolar>
-36.9884

> <Gold.PLP.part.repulsive>
0.1986

> <Gold.PLP.ligand.clash>
0.0000

> <Gold.PLP.ligand.torsion>
1.1410

> <Gold.PLP.Chemscore.Hbond>
3.6978

> <Gold.PLP.Chemscore.CHOScore>
0.0000

> <Gold.PLP.Chemscore.Metal>
0.0000

> <Gold.Chemscore.Hbonds>
donor molecule, donor type, donor heavy atom, donor atom, acceptor molecule, acceptor atom, score
      P1  H  6896  6909       L1    15  1.82
      P1  H  6931  6943       L1    20  1.00
      P1  H  6934  6947       L1    20  0.64

> <Gold.PLP.Chemscore.Internal.Correction>
0.0416

> <Gold.Rescore>
     Score         DG    S(hbond)    S(metal)    S(lipo)     H(rot)  DE(clash)    DE(int)     intcor
     18.06     -19.28       2.03        0.00      96.68       1.67       0.00       1.22       ----

> <Gold.Chemscore.Fitness>
18.0593

> <Gold.Chemscore.DG>
-19.2789

> <Gold.Chemscore.ZeroCoef>
-5.4800

> <Gold.Chemscore.Hbond>
2.0283

> <Gold.Chemscore.Metal>
0.0000

> <Gold.Chemscore.Lipo>
96.6768

> <Gold.Chemscore.Internal_Hbond>
0.0000

> <Gold.Chemscore.DEClash>
0.0038

> <Gold.Chemscore.DEInternal>
1.2159

> <Gold.Chemscore.Rot>
1.6745

> <Gold.Chemscore.Internal.Correction>
   9.000000E+99

> <Gold.Chemscore.Hbonds>
donor molecule, donor type, donor heavy atom, donor atom, acceptor molecule, acceptor atom, score
      P1  H  6896  6909       L1    15  0.53
      P1  H  6931  6943       L1    20  0.78
      P1  H  6934  6947       L1    20  0.24

> <Gold.Chemscore.Hbond.Weighted>
-6.7744

> <Gold.Chemscore.Metal.Weighted>
-0.0000

> <Gold.Chemscore.Lipo.Weighted>
-11.3112

> <Gold.Chemscore.Internal_Hbond.Weighted>
0.0000

> <Gold.Chemscore.DEClash.Weighted>
0.0038

> <Gold.Chemscore.DEInternal.Weighted>
1.2159

> <Gold.Chemscore.Rot.Weighted>
4.2866

> <Gold.Chemscore.Internal.Correction.Weighted>
   9.000000E+99

> <Gold.Protein.RotatedTorsions>
[ 6907 6896 6895 6894 ] final   70.55 input  -60.11 | X-H torsion
[ 7974 7965 7964 7962 ] final -147.90 input  175.53 | X-H torsion
[ 8008 7997 7996 7995 ] final  171.43 input   59.86 | X-H torsion
[ 10167 10162 10161 10158 ] final   17.19 input  -65.29 | X-H torsion
[ 10718 10713 10712 10709 ] final  169.81 input   66.30 | X-H torsion
[ 10763 10752 10751 10750 ] final  175.73 input  -60.55 | X-H torsion
[ 11005 11000 10999 10996 ] final  -22.24 input  -57.11 | X-H torsion

> <Gold.Protein.ActiveResidues>
 VAL166  LYS551  ARG553  GLY616  TRP617  ASP618  TYR619  PRO620  LYS621  CYS622 
 ASP623  PHE694  ASN695  SER759  ASP760  ASP761  ALA762  ILE779  LEU786  VAL792 
 PHE793  MET794  SER795  GLU796  ALA797  LYS798  CYS799  TRP800  GLU811  SER814 

> <Gold.Protein.RotatedAtoms>
  152.4756  134.4852  159.9677 H   0  0  0  0  0  0  0  0  0  0  0  0  # atno 6907 bound_to 6896
  151.4869  133.3527  159.2855 H   0  0  0  0  0  0  0  0  0  0  0  0  # atno 6908 bound_to 6896
  150.8792  134.8207  159.7274 H   0  0  0  0  0  0  0  0  0  0  0  0  # atno 6909 bound_to 6896
  144.8063  140.5266  143.5672 H   0  0  0  0  0  0  0  0  0  0  0  0  # atno 7974 bound_to 7965
  156.1272  140.1512  156.9119 H   0  0  0  0  0  0  0  0  0  0  0  0  # atno 8008 bound_to 7997
  154.4880  140.0859  156.7572 H   0  0  0  0  0  0  0  0  0  0  0  0  # atno 8009 bound_to 7997
  155.4322  140.3427  155.4283 H   0  0  0  0  0  0  0  0  0  0  0  0  # atno 8010 bound_to 7997
  140.5744  143.9101  150.6738 H   0  0  0  0  0  0  0  0  0  0  0  0  # atno 10167 bound_to 10162
  157.0172  131.0221  151.2785 H   0  0  0  0  0  0  0  0  0  0  0  0  # atno 10718 bound_to 10713
  154.4715  135.2771  155.1639 H   0  0  0  0  0  0  0  0  0  0  0  0  # atno 10763 bound_to 10752
  154.3386  135.6175  153.5589 H   0  0  0  0  0  0  0  0  0  0  0  0  # atno 10764 bound_to 10752
  152.9865  135.5783  154.5097 H   0  0  0  0  0  0  0  0  0  0  0  0  # atno 10765 bound_to 10752
  140.8638  133.7769  156.0106 H   0  0  0  0  0  0  0  0  0  0  0  0  # atno 11005 bound_to 11000
  145.5429  139.1475  143.3437 LP  0  0  0  0  0  0  0  0  0  0  0  0  # atno 17320 bound_to 7965
  146.2355  140.5569  142.8956 LP  0  0  0  0  0  0  0  0  0  0  0  0  # atno 17321 bound_to 7965
  140.2584  143.3541  152.1344 LP  0  0  0  0  0  0  0  0  0  0  0  0  # atno 17342 bound_to 10162
  139.5134  144.6932  151.5701 LP  0  0  0  0  0  0  0  0  0  0  0  0  # atno 17343 bound_to 10162
  157.5276  130.8038  149.7880 LP  0  0  0  0  0  0  0  0  0  0  0  0  # atno 17370 bound_to 10713
  156.0115  130.3831  150.2250 LP  0  0  0  0  0  0  0  0  0  0  0  0  # atno 17371 bound_to 10713
  140.8652  134.2792  157.5216 LP  0  0  0  0  0  0  0  0  0  0  0  0  # atno 17394 bound_to 11000
  139.8708  134.9539  156.4159 LP  0  0  0  0  0  0  0  0  0  0  0  0  # atno 17395 bound_to 11000

$$$$
