AV-unprocessed.smi:2758|AV-procd|sdf|10623|dock8
  -GOLD-   2272015 73D 1   1.00000     0.00000
 Structure written by MMmdl.
 32 33  0  0  0  0  0  0  0  0  1 V2000
  149.1411  139.5894  154.2986 C   0  0  0  0  0  0  0  0  0  0  0  0
  150.4922  140.0163  154.3026 O   0  0  0  0  0  0  0  0  0  0  0  0
  151.3565  139.0829  154.9296 C   0  0  0  0  0  0  0  0  0  0  0  0
  152.0190  139.7436  156.1495 C   0  0  2  0  0  0  0  0  0  0  0  0
  153.2821  139.1412  156.3560 O   0  0  0  0  0  0  0  0  0  0  0  0
  151.1643  139.5799  157.4232 C   0  0  0  0  0  0  0  0  0  0  0  0
  151.6686  140.3540  158.5504 N   0  0  0  0  0  0  0  0  0  0  0  0
  152.3650  139.9061  159.6237 C   0  0  0  0  0  0  0  0  0  0  0  0
  152.7272  138.4637  159.7841 C   0  0  0  0  0  0  0  0  0  0  0  0
  152.7109  140.8299  160.5205 N   0  0  0  0  0  0  0  0  0  0  0  0
  152.1925  141.9892  159.9759 C   0  0  0  0  0  0  0  0  0  0  0  0
  152.2257  143.3206  160.4490 C   0  0  0  0  0  0  0  0  0  0  0  0
  151.6202  144.3567  159.7081 C   0  0  0  0  0  0  0  0  0  0  0  0
  150.9737  144.0770  158.4867 C   0  0  0  0  0  0  0  0  0  0  0  0
  150.9287  142.7573  157.9974 C   0  0  0  0  0  0  0  0  0  0  0  0
  151.5350  141.7265  158.7403 C   0  0  0  0  0  0  0  0  0  0  0  0
  152.1666  140.8054  155.9516 H   0  0  0  0  0  0  0  0  0  0  0  0
  148.5219  140.3377  153.8041 H   0  0  0  0  0  0  0  0  0  0  0  0
  148.7649  139.4590  155.3141 H   0  0  0  0  0  0  0  0  0  0  0  0
  149.0270  138.6487  153.7585 H   0  0  0  0  0  0  0  0  0  0  0  0
  150.7561  138.2318  155.2553 H   0  0  0  0  0  0  0  0  0  0  0  0
  152.1047  138.7004  154.2325 H   0  0  0  0  0  0  0  0  0  0  0  0
  153.5020  138.6330  155.5905 H   0  0  0  0  0  0  0  0  0  0  0  0
  150.1341  139.8790  157.2283 H   0  0  0  0  0  0  0  0  0  0  0  0
  151.1204  138.5301  157.7156 H   0  0  0  0  0  0  0  0  0  0  0  0
  153.2510  138.3041  160.7271 H   0  0  0  0  0  0  0  0  0  0  0  0
  153.3809  138.1468  158.9714 H   0  0  0  0  0  0  0  0  0  0  0  0
  151.8320  137.8427  159.7820 H   0  0  0  0  0  0  0  0  0  0  0  0
  152.7176  143.5451  161.3838 H   0  0  0  0  0  0  0  0  0  0  0  0
  151.6512  145.3706  160.0791 H   0  0  0  0  0  0  0  0  0  0  0  0
  150.5115  144.8762  157.9260 H   0  0  0  0  0  0  0  0  0  0  0  0
  150.4324  142.5405  157.0635 H   0  0  0  0  0  0  0  0  0  0  0  0
  1  2  1  0  0  0  0
  1 18  1  0  0  0  0
  1 19  1  0  0  0  0
  1 20  1  0  0  0  0
  2  3  1  0  0  0  0
  3  4  1  0  0  0  0
  3 21  1  0  0  0  0
  3 22  1  0  0  0  0
  4 17  1  0  0  0  0
  4  5  1  0  0  0  0
  4  6  1  0  0  0  0
  5 23  1  0  0  0  0
  6  7  1  0  0  0  0
  6 24  1  0  0  0  0
  6 25  1  0  0  0  0
  7 16  1  0  0  0  0
  7  8  1  0  0  0  0
  8  9  1  0  0  0  0
  8 10  2  0  0  0  0
  9 26  1  0  0  0  0
  9 27  1  0  0  0  0
  9 28  1  0  0  0  0
 10 11  1  0  0  0  0
 11 16  2  0  0  0  0
 11 12  1  0  0  0  0
 12 13  2  0  0  0  0
 12 29  1  0  0  0  0
 13 14  1  0  0  0  0
 13 30  1  0  0  0  0
 14 15  2  0  0  0  0
 14 31  1  0  0  0  0
 15 16  1  0  0  0  0
 15 32  1  0  0  0  0
M  END
> <s_m_source_file>
AV-unprocessed.smi

> <i_m_source_file_index>
2758

> <i_lp_mmshare_version>
43012

> <i_f3d_flags>
0

> <s_epik_input>
W0NIM11PW0NIMl1bQ0BASF0oW09IXSlbQ0gyXW4oYyhuMSlbQ0gzXSljKGMxMilbY0hdW2NIXVtjSF1bY0hdMg==

> <s_epik_cmdline>
J2VwaWtfcHl0aG9uJywgJy1waCcsICc3LjAnLCAnLXRuJywgJzgnLCAnLW1hJywgJzIwMCcsICctbWV0YWxfYmluZGluZycsICctaW1hZScsICc8aW5maWxlLm1hZT4nLCAnLW9tYWUnLCAnPG91dGZpbGUubWFlPic=

> <r_epik_Ionization_Penalty>
0.126985

> <r_epik_Ionization_Penalty_Charging>
0

> <r_epik_Ionization_Penalty_Neutral>
0.126985

> <r_epik_State_Penalty>
0.116428

> <r_epik_Charging_Adjusted_Penalty>
0.116428

> <i_epik_Tot_Q>
0

> <i_epik_Tot_abs_Q>
0

> <r_epik_Metal_State_Penalty>
0.000128642

> <b_epik_Metal_Only>
0

> <s_lp_Force_Field>
OPLS_2005

> <r_lp_Energy>
9.16729

> <b_lp_Chiralities_Consistent>
1

> <s_lp_Variant>
AV-unprocessed.smi:2758-2

> <Gold.Version>
5.8.1

> <Gold.Id.Protein>
6NUR|6NUR_protein|mol2

> <Gold.PLP.Fitness>
42.9500

> <Gold.PLP.PLP>
-38.8803

> <Gold.PLP.part.hbond>
-1.9959

> <Gold.PLP.part.metal>
0.0000

> <Gold.PLP.part.buried>
-5.8367

> <Gold.PLP.part.nonpolar>
-32.1246

> <Gold.PLP.part.repulsive>
0.1315

> <Gold.PLP.ligand.clash>
0.0000

> <Gold.PLP.ligand.torsion>
0.9763

> <Gold.PLP.Chemscore.Hbond>
2.0000

> <Gold.PLP.Chemscore.CHOScore>
0.0000

> <Gold.PLP.Chemscore.Metal>
0.0000

> <Gold.Chemscore.Hbonds>
donor molecule, donor type, donor heavy atom, donor atom, acceptor molecule, acceptor atom, score
      P1  H  7989  7998       L1     2  0.90
      P1  H  7997  8009       L1     5  0.76

> <Gold.PLP.Chemscore.Internal.Correction>
0.0223

> <Gold.Rescore>
     Score         DG    S(hbond)    S(metal)    S(lipo)     H(rot)  DE(clash)    DE(int)     intcor
     16.78     -18.16       1.81        0.00     101.71       2.05       0.07       1.30       ----

> <Gold.Chemscore.Fitness>
16.7813

> <Gold.Chemscore.DG>
-18.1589

> <Gold.Chemscore.ZeroCoef>
-5.4800

> <Gold.Chemscore.Hbond>
1.8056

> <Gold.Chemscore.Metal>
0.0000

> <Gold.Chemscore.Lipo>
101.7071

> <Gold.Chemscore.Internal_Hbond>
0.0000

> <Gold.Chemscore.DEClash>
0.0746

> <Gold.Chemscore.DEInternal>
1.3030

> <Gold.Chemscore.Rot>
2.0513

> <Gold.Chemscore.Internal.Correction>
   9.000000E+99

> <Gold.Chemscore.Hbonds>
donor molecule, donor type, donor heavy atom, donor atom, acceptor molecule, acceptor atom, score
      P1  H  7989  7998       L1     2  0.18
      P1  H  7997  8009       L1     5  0.38

> <Gold.Chemscore.Hbond.Weighted>
-6.0306

> <Gold.Chemscore.Metal.Weighted>
-0.0000

> <Gold.Chemscore.Lipo.Weighted>
-11.8997

> <Gold.Chemscore.Internal_Hbond.Weighted>
0.0000

> <Gold.Chemscore.DEClash.Weighted>
0.0746

> <Gold.Chemscore.DEInternal.Weighted>
1.3030

> <Gold.Chemscore.Rot.Weighted>
5.2514

> <Gold.Chemscore.Internal.Correction.Weighted>
   9.000000E+99

> <Gold.Protein.RotatedTorsions>
[ 6907 6896 6895 6894 ] final   40.64 input  -60.11 | X-H torsion
[ 7974 7965 7964 7962 ] final -178.85 input  175.53 | X-H torsion
[ 8008 7997 7996 7995 ] final -174.76 input   59.86 | X-H torsion
[ 10167 10162 10161 10158 ] final   75.07 input  -65.29 | X-H torsion
[ 10718 10713 10712 10709 ] final  -10.33 input   66.30 | X-H torsion
[ 10763 10752 10751 10750 ] final    9.99 input  -60.55 | X-H torsion
[ 11005 11000 10999 10996 ] final   77.48 input  -57.11 | X-H torsion

> <Gold.Protein.ActiveResidues>
 VAL166  LYS551  ARG553  GLY616  TRP617  ASP618  TYR619  PRO620  LYS621  CYS622 
 ASP623  PHE694  ASN695  SER759  ASP760  ASP761  ALA762  ILE779  LEU786  VAL792 
 PHE793  MET794  SER795  GLU796  ALA797  LYS798  CYS799  TRP800  GLU811  SER814 

> <Gold.Protein.RotatedAtoms>
  152.1851  134.8720  160.0522 H   0  0  0  0  0  0  0  0  0  0  0  0  # atno 6907 bound_to 6896
  151.9630  133.3696  159.4050 H   0  0  0  0  0  0  0  0  0  0  0  0  # atno 6908 bound_to 6896
  150.6924  134.4144  159.5220 H   0  0  0  0  0  0  0  0  0  0  0  0  # atno 6909 bound_to 6896
  144.7133  140.0806  143.6426 H   0  0  0  0  0  0  0  0  0  0  0  0  # atno 7974 bound_to 7965
  155.9741  140.1169  157.0785 H   0  0  0  0  0  0  0  0  0  0  0  0  # atno 8008 bound_to 7997
  154.4164  140.1157  156.5414 H   0  0  0  0  0  0  0  0  0  0  0  0  # atno 8009 bound_to 7997
  155.6557  140.3473  155.4766 H   0  0  0  0  0  0  0  0  0  0  0  0  # atno 8010 bound_to 7997
  140.0069  144.5644  150.7690 H   0  0  0  0  0  0  0  0  0  0  0  0  # atno 10167 bound_to 10162
  156.6751  130.5020  149.5988 H   0  0  0  0  0  0  0  0  0  0  0  0  # atno 10718 bound_to 10713
  153.2080  135.6865  153.8149 H   0  0  0  0  0  0  0  0  0  0  0  0  # atno 10763 bound_to 10752
  153.7391  135.3241  155.3302 H   0  0  0  0  0  0  0  0  0  0  0  0  # atno 10764 bound_to 10752
  154.8207  135.4654  154.0875 H   0  0  0  0  0  0  0  0  0  0  0  0  # atno 10765 bound_to 10752
  139.9253  134.7686  156.1527 H   0  0  0  0  0  0  0  0  0  0  0  0  # atno 11005 bound_to 11000
  145.9705  139.2866  143.1101 LP  0  0  0  0  0  0  0  0  0  0  0  0  # atno 17320 bound_to 7965
  145.9121  140.9173  143.0448 LP  0  0  0  0  0  0  0  0  0  0  0  0  # atno 17321 bound_to 7965
  140.7397  143.2794  151.3643 LP  0  0  0  0  0  0  0  0  0  0  0  0  # atno 17342 bound_to 10162
  139.6232  144.0865  152.2410 LP  0  0  0  0  0  0  0  0  0  0  0  0  # atno 17343 bound_to 10162
  156.1910  130.6559  151.1061 LP  0  0  0  0  0  0  0  0  0  0  0  0  # atno 17370 bound_to 10713
  157.7063  131.0754  150.6654 LP  0  0  0  0  0  0  0  0  0  0  0  0  # atno 17371 bound_to 10713
  141.0805  133.6756  156.2327 LP  0  0  0  0  0  0  0  0  0  0  0  0  # atno 17394 bound_to 11000
  140.6355  134.5220  157.5564 LP  0  0  0  0  0  0  0  0  0  0  0  0  # atno 17395 bound_to 11000

$$$$
