AV-unprocessed.smi:3222|AV-procd|sdf|12306|dock1
  -GOLD-   2272018153D 1   1.00000     0.00000
 Structure written by MMmdl.
 41 42  0  0  0  0  0  0  0  0  2 V2000
  148.0421  141.6034  153.8042 C   0  0  0  0  0  0  0  0  0  0  0  0
  149.1369  141.2216  154.8135 C   0  0  1  0  0  0  0  0  0  0  0  0
  148.9794  142.0324  156.0430 N   0  3  0  0  0  0  0  0  0  0  0  0
  149.7206  141.5373  157.2187 C   0  0  0  0  0  0  0  0  0  0  0  0
  151.2359  141.5983  156.9727 C   0  0  0  0  0  0  0  0  0  0  0  0
  151.9877  141.6014  158.2246 N   0  0  0  0  0  0  0  0  0  0  0  0
  151.8581  142.7005  159.1663 C   0  0  0  0  0  0  0  0  0  0  0  0
  152.9165  142.4286  160.2449 C   0  0  0  0  0  0  0  0  0  0  0  0
  153.3684  140.9797  160.0309 C   0  0  0  0  0  0  0  0  0  0  0  0
  152.7915  140.6288  158.6701 C   0  0  0  0  0  0  0  0  0  0  0  0
  153.0502  139.5784  158.0845 O   0  0  0  0  0  0  0  0  0  0  0  0
  149.1532  139.7043  155.1355 C   0  0  1  0  0  0  0  0  0  0  0  0
  147.8830  138.9758  154.6565 C   0  0  0  0  0  0  0  0  0  0  0  0
  150.3684  139.0353  154.6797 N   0  0  0  0  0  0  0  0  0  0  0  0
  150.4764  137.8388  154.0001 C   0  0  0  0  0  0  0  0  0  0  0  0
  151.8055  137.5971  153.8026 C   0  0  0  0  0  0  0  0  0  0  0  0
  152.4457  138.7138  154.4075 C   0  0  0  0  0  0  0  0  0  0  0  0
  151.5852  139.5686  154.9360 N   0  0  0  0  0  0  0  0  0  0  0  0
  148.1288  141.0150  152.8903 H   0  0  0  0  0  0  0  0  0  0  0  0
  148.1187  142.6546  153.5247 H   0  0  0  0  0  0  0  0  0  0  0  0
  147.0426  141.4431  154.2097 H   0  0  0  0  0  0  0  0  0  0  0  0
  150.0952  141.4649  154.3508 H   0  0  0  0  0  0  0  0  0  0  0  0
  149.2780  142.9766  155.8453 H   0  0  0  0  0  0  0  0  0  0  0  0
  149.4527  142.1422  158.0859 H   0  0  0  0  0  0  0  0  0  0  0  0
  149.4149  140.5116  157.4299 H   0  0  0  0  0  0  0  0  0  0  0  0
  151.5490  140.7472  156.3661 H   0  0  0  0  0  0  0  0  0  0  0  0
  151.4894  142.4929  156.4013 H   0  0  0  0  0  0  0  0  0  0  0  0
  152.0159  143.6634  158.6787 H   0  0  0  0  0  0  0  0  0  0  0  0
  150.8543  142.6931  159.5935 H   0  0  0  0  0  0  0  0  0  0  0  0
  153.7638  143.1037  160.1175 H   0  0  0  0  0  0  0  0  0  0  0  0
  152.5189  142.5877  161.2479 H   0  0  0  0  0  0  0  0  0  0  0  0
  154.4542  140.8805  160.0418 H   0  0  0  0  0  0  0  0  0  0  0  0
  152.9473  140.3155  160.7863 H   0  0  0  0  0  0  0  0  0  0  0  0
  149.1533  139.6184  156.2233 H   0  0  0  0  0  0  0  0  0  0  0  0
  146.9881  139.4351  155.0770 H   0  0  0  0  0  0  0  0  0  0  0  0
  147.8917  137.9309  154.9685 H   0  0  0  0  0  0  0  0  0  0  0  0
  147.7837  138.9949  153.5709 H   0  0  0  0  0  0  0  0  0  0  0  0
  149.6072  137.2632  153.7172 H   0  0  0  0  0  0  0  0  0  0  0  0
  152.2529  136.7506  153.3030 H   0  0  0  0  0  0  0  0  0  0  0  0
  153.5023  138.9254  154.4813 H   0  0  0  0  0  0  0  0  0  0  0  0
  147.9957  142.0541  156.2740 H   0  0  0  0  0  0  0  0  0  0  0  0
  1  2  1  0  0  0  0
  1 19  1  0  0  0  0
  1 20  1  0  0  0  0
  1 21  1  0  0  0  0
  2  3  1  0  0  0  0
  2 12  1  0  0  0  0
  2 22  1  0  0  0  0
  3  4  1  0  0  0  0
  3 23  1  0  0  0  0
  3 41  1  0  0  0  0
  4  5  1  0  0  0  0
  4 24  1  0  0  0  0
  4 25  1  0  0  0  0
  5  6  1  0  0  0  0
  5 26  1  0  0  0  0
  5 27  1  0  0  0  0
  6 10  1  0  0  0  0
  6  7  1  0  0  0  0
  7  8  1  0  0  0  0
  7 28  1  0  0  0  0
  7 29  1  0  0  0  0
  8  9  1  0  0  0  0
  8 30  1  0  0  0  0
  8 31  1  0  0  0  0
  9 10  1  0  0  0  0
  9 32  1  0  0  0  0
  9 33  1  0  0  0  0
 10 11  2  0  0  0  0
 12 13  1  0  0  0  0
 12 14  1  0  0  0  0
 12 34  1  0  0  0  0
 13 35  1  0  0  0  0
 13 36  1  0  0  0  0
 13 37  1  0  0  0  0
 14 18  1  0  0  0  0
 14 15  1  0  0  0  0
 15 16  2  0  0  0  0
 15 38  1  0  0  0  0
 16 17  1  0  0  0  0
 16 39  1  0  0  0  0
 17 18  2  0  0  0  0
 17 40  1  0  0  0  0
M  CHG  1   3   1
M  END
> <s_m_source_file>
AV-unprocessed.smi

> <i_m_source_file_index>
3222

> <i_lp_mmshare_version>
43012

> <i_f3d_flags>
0

> <s_epik_input>
bjFbY0hdW2NIXVtjSF1uMVtDQEBIXShbQ0gzXSlbQ0BIXShbQ0gzXSlbTkhdW0NIMl1bQ0gyXU4yW0NIMl1bQ0gyXVtDSDJdQzI9Tw==

> <s_epik_cmdline>
J2VwaWtfcHl0aG9uJywgJy1waCcsICc3LjAnLCAnLXRuJywgJzgnLCAnLW1hJywgJzIwMCcsICctbWV0YWxfYmluZGluZycsICctaW1hZScsICc8aW5maWxlLm1hZT4nLCAnLW9tYWUnLCAnPG91dGZpbGUubWFlPic=

> <r_lp_tautomer_probability>
1

> <r_epik_Ionization_Penalty>
0.0064019

> <r_epik_Ionization_Penalty_Charging>
0.00639164

> <r_epik_Ionization_Penalty_Neutral>
1.02567e-05

> <r_epik_State_Penalty>
0.00472531

> <r_epik_Charging_Adjusted_Penalty>
0.011117

> <i_epik_Tot_Q>
1

> <i_epik_Tot_abs_Q>
1

> <r_epik_Metal_State_Penalty>
-0

> <b_epik_Metal_Only>
0

> <s_lp_Force_Field>
OPLS_2005

> <r_lp_Energy>
25.7217

> <b_lp_Chiralities_Consistent>
1

> <s_lp_Variant>
AV-unprocessed.smi:3222-4

> <Gold.Version>
5.8.1

> <Gold.Id.Protein>
6NUR|6NUR_protein|mol2

> <Gold.PLP.Fitness>
49.4783

> <Gold.PLP.PLP>
-38.9173

> <Gold.PLP.part.hbond>
-3.0000

> <Gold.PLP.part.metal>
0.0000

> <Gold.PLP.part.buried>
-3.5499

> <Gold.PLP.part.nonpolar>
-33.0763

> <Gold.PLP.part.repulsive>
0.1050

> <Gold.PLP.ligand.clash>
0.0000

> <Gold.PLP.ligand.torsion>
1.8938

> <Gold.PLP.Chemscore.Hbond>
3.6800

> <Gold.PLP.Chemscore.CHOScore>
0.9963

> <Gold.PLP.Chemscore.Metal>
0.0000

> <Gold.Chemscore.Hbonds>
donor molecule, donor type, donor heavy atom, donor atom, acceptor molecule, acceptor atom, score
      L1  H     3    23       P1  8028  1.98
      P1  H  7989  7998       L1    18  0.76
      P1  H  7997  8010       L1    11  1.00
      L1  C    15    38       P1  7948  1.00

> <Gold.PLP.Chemscore.Internal.Correction>
0.3197

> <Gold.Rescore>
     Score         DG    S(hbond)    S(metal)    S(lipo)     H(rot)  DE(clash)    DE(int)     intcor
     15.97     -17.70       2.00        0.00      91.07       1.99       0.07       1.65       ----

> <Gold.Chemscore.Fitness>
15.9742

> <Gold.Chemscore.DG>
-17.6994

> <Gold.Chemscore.ZeroCoef>
-5.4800

> <Gold.Chemscore.Hbond>
1.9953

> <Gold.Chemscore.Metal>
0.0000

> <Gold.Chemscore.Lipo>
91.0711

> <Gold.Chemscore.Internal_Hbond>
0.0000

> <Gold.Chemscore.DEClash>
0.0718

> <Gold.Chemscore.DEInternal>
1.6533

> <Gold.Chemscore.Rot>
1.9922

> <Gold.Chemscore.Internal.Correction>
   9.000000E+99

> <Gold.Chemscore.Hbonds>
donor molecule, donor type, donor heavy atom, donor atom, acceptor molecule, acceptor atom, score
      L1  H     3    23       P1  8028  0.93
      P1  H  7989  7998       L1    18  0.03
      P1  H  7997  8010       L1    11  0.44

> <Gold.Chemscore.Hbond.Weighted>
-6.6642

> <Gold.Chemscore.Metal.Weighted>
-0.0000

> <Gold.Chemscore.Lipo.Weighted>
-10.6553

> <Gold.Chemscore.Internal_Hbond.Weighted>
0.0000

> <Gold.Chemscore.DEClash.Weighted>
0.0718

> <Gold.Chemscore.DEInternal.Weighted>
1.6533

> <Gold.Chemscore.Rot.Weighted>
5.1002

> <Gold.Chemscore.Internal.Correction.Weighted>
   9.000000E+99

> <Gold.Protein.RotatedTorsions>
[ 6907 6896 6895 6894 ] final  -73.74 input  -60.11 | X-H torsion
[ 7974 7965 7964 7962 ] final  -94.22 input  175.53 | X-H torsion
[ 8008 7997 7996 7995 ] final   45.97 input   59.86 | X-H torsion
[ 10167 10162 10161 10158 ] final  -82.59 input  -65.29 | X-H torsion
[ 10718 10713 10712 10709 ] final -164.40 input   66.30 | X-H torsion
[ 10763 10752 10751 10750 ] final  -29.22 input  -60.55 | X-H torsion
[ 11005 11000 10999 10996 ] final  127.37 input  -57.11 | X-H torsion

> <Gold.Protein.ActiveResidues>
 VAL166  LYS551  ARG553  GLY616  TRP617  ASP618  TYR619  PRO620  LYS621  CYS622 
 ASP623  PHE694  ASN695  SER759  ASP760  ASP761  ALA762  ILE779  LEU786  VAL792 
 PHE793  MET794  SER795  GLU796  ALA797  LYS798  CYS799  TRP800  GLU811  SER814 

> <Gold.Protein.RotatedAtoms>
  150.7119  134.4971  159.5543 H   0  0  0  0  0  0  0  0  0  0  0  0  # atno 6907 bound_to 6896
  152.2577  134.8064  160.0445 H   0  0  0  0  0  0  0  0  0  0  0  0  # atno 6908 bound_to 6896
  151.8789  133.3456  159.3796 H   0  0  0  0  0  0  0  0  0  0  0  0  # atno 6909 bound_to 6896
  145.3762  140.9512  143.2419 H   0  0  0  0  0  0  0  0  0  0  0  0  # atno 7974 bound_to 7965
  155.3446  140.3410  155.4239 H   0  0  0  0  0  0  0  0  0  0  0  0  # atno 8008 bound_to 7997
  156.1795  140.1659  156.8336 H   0  0  0  0  0  0  0  0  0  0  0  0  # atno 8009 bound_to 7997
  154.5318  140.0743  156.8341 H   0  0  0  0  0  0  0  0  0  0  0  0  # atno 8010 bound_to 7997
  140.4305  143.2550  151.8765 H   0  0  0  0  0  0  0  0  0  0  0  0  # atno 10167 bound_to 10162
  156.6386  130.8959  151.2991 H   0  0  0  0  0  0  0  0  0  0  0  0  # atno 10718 bound_to 10713
  153.7612  135.6919  153.4925 H   0  0  0  0  0  0  0  0  0  0  0  0  # atno 10763 bound_to 10752
  153.1937  135.4461  155.0180 H   0  0  0  0  0  0  0  0  0  0  0  0  # atno 10764 bound_to 10752
  154.8152  135.3396  154.7127 H   0  0  0  0  0  0  0  0  0  0  0  0  # atno 10765 bound_to 10752
  139.9504  134.9623  156.8845 H   0  0  0  0  0  0  0  0  0  0  0  0  # atno 11005 bound_to 11000
  144.8541  139.5277  143.6843 LP  0  0  0  0  0  0  0  0  0  0  0  0  # atno 17320 bound_to 7965
  146.2863  139.7013  142.9193 LP  0  0  0  0  0  0  0  0  0  0  0  0  # atno 17321 bound_to 7965
  139.4785  144.5339  151.8626 LP  0  0  0  0  0  0  0  0  0  0  0  0  # atno 17342 bound_to 10162
  140.4432  144.1958  150.5892 LP  0  0  0  0  0  0  0  0  0  0  0  0  # atno 17343 bound_to 10162
  157.7178  130.9519  150.1321 LP  0  0  0  0  0  0  0  0  0  0  0  0  # atno 17370 bound_to 10713
  156.2177  130.3671  149.8593 LP  0  0  0  0  0  0  0  0  0  0  0  0  # atno 17371 bound_to 10713
  140.5733  134.0422  155.7438 LP  0  0  0  0  0  0  0  0  0  0  0  0  # atno 17394 bound_to 11000
  141.1165  133.9531  157.2812 LP  0  0  0  0  0  0  0  0  0  0  0  0  # atno 17395 bound_to 11000

$$$$
