#       Name:                AV-unprocessed.smi:1855
#       Creating user name   scv26
#       Creation time:       Fri Mar 27 09:24:18 2020


#       File generated by GOLD software.
#

@<TRIPOS>MOLECULE
AV-unprocessed.smi:1855
    50    52     1
SMALL
NO_CHARGES


@<TRIPOS>ATOM
      1 ****        -4.1252   0.8240   0.8314 C.3            1 S1                 0.0000
      2 ****        -2.7114   0.8877   0.9404 O.3            1 S1                 0.0000
      3 ****        -2.1156   2.1287   1.0365 C.ar           1 S1                 0.0000
      4 ****        -2.8359   3.3499   1.0468 C.ar           1 S1                 0.0000
      5 ****        -2.1564   4.5779   1.1466 C.ar           1 S1                 0.0000
      6 ****        -0.7540   4.6002   1.2367 C.ar           1 S1                 0.0000
      7 ****        -0.0295   3.3946   1.2267 C.ar           1 S1                 0.0000
      8 ****        -0.7050   2.1527   1.1264 C.ar           1 S1                 0.0000
      9 ****        -0.0650   0.9328   1.1121 O.3            1 S1                 0.0000
     10 ****         1.3548   0.8996   1.1197 C.3            1 S1                 0.0000
     11 ****         1.8121  -0.5623   1.0150 C.3            1 S1                 0.0000
     12 ****         1.3130  -1.2048  -0.1936 N.pl3          1 S1                 0.0000
     13 ****         1.9177  -1.3037  -1.4046 C.2            1 S1                 0.0000
     14 ****         3.2791  -0.7303  -1.6715 C.3            1 S1                 0.0000
     15 ****         4.2955  -1.6362  -1.1454 N.am           1 S1                 0.0000
     16 ****         4.7687  -2.7182  -1.7802 C.2            1 S1                 0.0000
     17 ****         4.4101  -3.0827  -2.8987 O.2            1 S1                 0.0000
     18 ****         1.2240  -1.9403  -2.3490 N.2            1 S1                 0.0000
     19 ****         0.0604  -2.2866  -1.6909 C.ar           1 S1                 0.0000
     20 ****        -1.0830  -2.9782  -2.1509 C.ar           1 S1                 0.0000
     21 ****        -2.1723  -3.2112  -1.2859 C.ar           1 S1                 0.0000
     22 ****        -2.1332  -2.7588   0.0487 C.ar           1 S1                 0.0000
     23 ****        -1.0009  -2.0731   0.5285 C.ar           1 S1                 0.0000
     24 ****         0.0832  -1.8409  -0.3393 C.ar           1 S1                 0.0000
     25 ****        -4.4312  -0.2194   0.7572 H              1 S1                 0.0000
     26 ****        -4.4800   1.3357  -0.0640 H              1 S1                 0.0000
     27 ****        -4.6124   1.2492   1.7098 H              1 S1                 0.0000
     28 ****        -3.9129   3.3715   0.9798 H              1 S1                 0.0000
     29 ****        -2.7126   5.5037   1.1549 H              1 S1                 0.0000
     30 ****        -0.2324   5.5428   1.3144 H              1 S1                 0.0000
     31 ****         1.0459   3.4483   1.2998 H              1 S1                 0.0000
     32 ****         1.7539   1.4714   0.2806 H              1 S1                 0.0000
     33 ****         1.7370   1.3386   2.0422 H              1 S1                 0.0000
     34 ****         2.8995  -0.6233   1.0419 H              1 S1                 0.0000
     35 ****         1.4554  -1.1262   1.8775 H              1 S1                 0.0000
     36 ****         3.4131  -0.5723  -2.7431 H              1 S1                 0.0000
     37 ****         3.3739   0.2454  -1.1951 H              1 S1                 0.0000
     38 ****         4.6596  -1.4286  -0.2270 H              1 S1                 0.0000
     39 ****         5.5211  -3.2352  -1.1649 H              1 S1                 0.0000
     40 ****        -1.1231  -3.3265  -3.1724 H              1 S1                 0.0000
     41 ****        -3.0426  -3.7378  -1.6489 H              1 S1                 0.0000
     42 ****        -2.9732  -2.9367   0.7040 H              1 S1                 0.0000
     43 ****        -0.9704  -1.7208   1.5488 H              1 S1                 0.0000
     44 ****        -2.3320   0.4395   0.1309 LP             1 S1                 0.0000
     45 ****        -2.4544   0.3723   1.7579 LP             1 S1                 0.0000
     46 ****        -0.3648   0.4543   0.2867 LP             1 S1                 0.0000
     47 ****        -0.3741   0.4303   1.9195 LP             1 S1                 0.0000
     48 ****         3.7195  -2.5592  -3.3977 LP             1 S1                 0.0000
     49 ****         4.8091  -3.9027  -3.3092 LP             1 S1                 0.0000
     50 ****         1.4822  -2.1218  -3.2979 LP             1 S1                 0.0000
@<TRIPOS>BOND
    1    1    2 1     
    2    1   25 1     
    3    1   26 1     
    4    1   27 1     
    5    2    3 1     
    6    3    8 ar    
    7    3    4 ar    
    8    4    5 ar    
    9    4   28 1     
   10    5    6 ar    
   11    5   29 1     
   12    6    7 ar    
   13    6   30 1     
   14    7    8 ar    
   15    7   31 1     
   16    8    9 1     
   17    9   10 1     
   18   10   11 1     
   19   10   32 1     
   20   10   33 1     
   21   11   12 1     
   22   11   34 1     
   23   11   35 1     
   24   12   24 1     
   25   12   13 1     
   26   13   14 1     
   27   13   18 2     
   28   14   15 1     
   29   14   36 1     
   30   14   37 1     
   31   15   16 am    
   32   15   38 1     
   33   16   17 2     
   34   16   39 1     
   35   18   19 1     
   36   19   24 ar    
   37   19   20 ar    
   38   20   21 ar    
   39   20   40 1     
   40   21   22 ar    
   41   21   41 1     
   42   22   23 ar    
   43   22   42 1     
   44   23   24 ar    
   45   23   43 1     
   46    2   44 1     
   47    2   45 1     
   48    9   46 1     
   49    9   47 1     
   50   17   48 1     
   51   17   49 1     
   52   18   50 1     
@<TRIPOS>SUBSTRUCTURE
      1 S1             1
@<TRIPOS>SET
LONE_PAIRS      STATIC     ATOMS    <user>   **** ""
7 44 45 46 47 48 49 50
DONOR_HYDROGENS      STATIC     ATOMS    <user>   **** ""
1 38
ATOM$BLUE        STATIC     ATOMS    COLORGROUP SYSTEM
7 44 45 46 47 48 49 50
ATOM$RED        STATIC     ATOMS    COLORGROUP SYSTEM
1 38
