AV-unprocessed.smi:21|AV-procd|sdf|138|dock3
  -GOLD-   2262015333D 1   1.00000     0.00000
 Structure written by MMmdl.
 62 65  0  0  0  0  0  0  0  0  2 V2000
  146.2934  132.3714  150.9568 C   0  0  0  0  0  0  0  0  0  0  0  0
  145.0419  132.5411  151.6038 O   0  0  0  0  0  0  0  0  0  0  0  0
  144.3809  133.7538  151.2659 C   0  0  2  0  0  0  0  0  0  0  0  0
  145.1050  134.9133  151.9375 C   0  0  0  0  0  0  0  0  0  0  0  0
  144.5666  134.9130  153.3749 C   0  0  1  0  0  0  0  0  0  0  0  0
  144.6789  136.2837  154.0883 C   0  0  0  0  0  0  0  0  0  0  0  0
  145.9395  136.9683  153.7952 N   0  0  0  0  0  0  0  0  0  0  0  0
  146.0395  137.7432  152.5651 C   0  0  0  0  0  0  0  0  0  0  0  0
  146.8268  137.1922  154.8027 C   0  0  0  0  0  0  0  0  0  0  0  0
  146.5779  136.6203  156.0102 N   0  0  0  0  0  0  0  0  0  0  0  0
  147.4122  136.8031  157.0369 C   0  0  0  0  0  0  0  0  0  0  0  0
  148.5368  137.5173  157.0789 N   0  0  0  0  0  0  0  0  0  0  0  0
  148.7936  138.1040  155.8756 C   0  0  0  0  0  0  0  0  0  0  0  0
  148.0026  137.9956  154.6947 C   0  0  0  0  0  0  0  0  0  0  0  0
  148.5828  138.7490  153.6789 N   0  0  0  0  0  0  0  0  0  0  0  0
  149.6556  139.2567  154.2201 C   0  0  0  0  0  0  0  0  0  0  0  0
  149.8603  138.9178  155.5367 N   0  0  0  0  0  0  0  0  0  0  0  0
  150.9661  139.3430  156.3763 C   0  0  0  0  0  0  0  0  0  0  0  0
  150.7531  140.7287  157.0408 C   0  0  2  0  0  0  0  0  0  0  0  0
  150.5367  141.8556  155.9982 C   0  0  0  0  0  0  0  0  0  0  0  0
  149.1984  141.9079  155.5482 O   0  0  0  0  0  0  0  0  0  0  0  0
  151.9385  141.0663  157.9824 C   0  0  2  0  0  0  0  0  0  0  0  0
  152.0979  140.1392  159.1767 C   0  0  0  0  0  0  0  0  0  0  0  0
  152.9694  140.9690  160.1095 C   0  0  0  0  0  0  0  0  0  0  0  0
  152.5275  142.3072  159.9288 O   0  0  0  0  0  0  0  0  0  0  0  0
  151.8304  142.4247  158.6916 C   0  0  0  0  0  0  0  0  0  0  0  0
  143.1942  134.3333  153.2885 N   0  3  1  0  0  0  0  0  0  0  0  0
  142.0631  135.1582  153.7749 C   0  0  0  0  0  0  0  0  0  0  0  0
  142.9934  133.8243  151.9114 C   0  0  0  0  0  0  0  0  0  0  0  0
  144.3479  133.8887  150.1832 H   0  0  0  0  0  0  0  0  0  0  0  0
  145.1432  134.1830  153.9449 H   0  0  0  0  0  0  0  0  0  0  0  0
  146.7344  131.4224  151.2614 H   0  0  0  0  0  0  0  0  0  0  0  0
  146.9889  133.1653  151.2317 H   0  0  0  0  0  0  0  0  0  0  0  0
  146.1918  132.3579  149.8716 H   0  0  0  0  0  0  0  0  0  0  0  0
  146.1905  134.8186  151.8897 H   0  0  0  0  0  0  0  0  0  0  0  0
  144.8318  135.8443  151.4386 H   0  0  0  0  0  0  0  0  0  0  0  0
  143.8213  136.9119  153.8475 H   0  0  0  0  0  0  0  0  0  0  0  0
  144.6444  136.1381  155.1681 H   0  0  0  0  0  0  0  0  0  0  0  0
  147.0769  137.8262  152.2394 H   0  0  0  0  0  0  0  0  0  0  0  0
  145.6331  138.7451  152.7046 H   0  0  0  0  0  0  0  0  0  0  0  0
  145.4799  137.2623  151.7624 H   0  0  0  0  0  0  0  0  0  0  0  0
  147.1397  136.3053  157.9560 H   0  0  0  0  0  0  0  0  0  0  0  0
  150.3332  139.8944  153.6710 H   0  0  0  0  0  0  0  0  0  0  0  0
  151.1071  138.5716  157.1331 H   0  0  0  0  0  0  0  0  0  0  0  0
  151.8763  139.3517  155.7757 H   0  0  0  0  0  0  0  0  0  0  0  0
  149.8575  140.6695  157.6617 H   0  0  0  0  0  0  0  0  0  0  0  0
  150.7544  142.8353  156.4209 H   0  0  0  0  0  0  0  0  0  0  0  0
  151.2055  141.7289  155.1464 H   0  0  0  0  0  0  0  0  0  0  0  0
  149.0017  142.7967  155.2939 H   0  0  0  0  0  0  0  0  0  0  0  0
  152.8686  141.0473  157.4119 H   0  0  0  0  0  0  0  0  0  0  0  0
  151.1310  139.9435  159.6427 H   0  0  0  0  0  0  0  0  0  0  0  0
  152.5580  139.1833  158.9245 H   0  0  0  0  0  0  0  0  0  0  0  0
  152.8893  140.6568  161.1510 H   0  0  0  0  0  0  0  0  0  0  0  0
  154.0169  140.9017  159.8124 H   0  0  0  0  0  0  0  0  0  0  0  0
  152.2468  143.2359  158.0938 H   0  0  0  0  0  0  0  0  0  0  0  0
  150.7907  142.6698  158.9114 H   0  0  0  0  0  0  0  0  0  0  0  0
  141.9778  136.0903  153.2148 H   0  0  0  0  0  0  0  0  0  0  0  0
  142.1705  135.3908  154.8342 H   0  0  0  0  0  0  0  0  0  0  0  0
  141.1270  134.6107  153.6596 H   0  0  0  0  0  0  0  0  0  0  0  0
  142.3849  134.5341  151.3481 H   0  0  0  0  0  0  0  0  0  0  0  0
  142.4618  132.8731  151.9134 H   0  0  0  0  0  0  0  0  0  0  0  0
  143.2174  133.5177  153.8843 H   0  0  0  0  0  0  0  0  0  0  0  0
  1  2  1  0  0  0  0
  1 32  1  0  0  0  0
  1 33  1  0  0  0  0
  1 34  1  0  0  0  0
  2  3  1  0  0  0  0
  3 30  1  0  0  0  0
  3 29  1  0  0  0  0
  3  4  1  0  0  0  0
  4  5  1  0  0  0  0
  4 35  1  0  0  0  0
  4 36  1  0  0  0  0
  5 31  1  0  0  0  0
  5  6  1  0  0  0  0
  5 27  1  0  0  0  0
  6  7  1  0  0  0  0
  6 37  1  0  0  0  0
  6 38  1  0  0  0  0
  7  8  1  0  0  0  0
  7  9  1  0  0  0  0
  8 39  1  0  0  0  0
  8 40  1  0  0  0  0
  8 41  1  0  0  0  0
  9 14  1  0  0  0  0
  9 10  2  0  0  0  0
 10 11  1  0  0  0  0
 11 12  2  0  0  0  0
 11 42  1  0  0  0  0
 12 13  1  0  0  0  0
 13 17  1  0  0  0  0
 13 14  2  0  0  0  0
 14 15  1  0  0  0  0
 15 16  2  0  0  0  0
 16 17  1  0  0  0  0
 16 43  1  0  0  0  0
 17 18  1  0  0  0  0
 18 19  1  0  0  0  0
 18 44  1  0  0  0  0
 18 45  1  0  0  0  0
 19 20  1  0  0  0  0
 19 22  1  0  0  0  0
 19 46  1  0  0  0  0
 20 21  1  0  0  0  0
 20 47  1  0  0  0  0
 20 48  1  0  0  0  0
 21 49  1  0  0  0  0
 22 26  1  0  0  0  0
 22 23  1  0  0  0  0
 22 50  1  0  0  0  0
 23 24  1  0  0  0  0
 23 51  1  0  0  0  0
 23 52  1  0  0  0  0
 24 25  1  0  0  0  0
 24 53  1  0  0  0  0
 24 54  1  0  0  0  0
 25 26  1  0  0  0  0
 26 55  1  0  0  0  0
 26 56  1  0  0  0  0
 27 28  1  0  0  0  0
 27 29  1  0  0  0  0
 27 62  1  0  0  0  0
 28 57  1  0  0  0  0
 28 58  1  0  0  0  0
 28 59  1  0  0  0  0
 29 60  1  0  0  0  0
 29 61  1  0  0  0  0
M  CHG  1  27   1
M  END
> <s_m_source_file>
AV-unprocessed.smi

> <i_m_source_file_index>
21

> <i_lp_mmshare_version>
43012

> <i_f3d_flags>
0

> <s_epik_input>
W0NIM11PW0NASF0xW0NIMl1bQ0BIXShOKFtDSDNdKVtDSDJdMSlbQ0gyXU4oW0NIM10pYyhuW2NIXW4yKWMoYzIzKW5bY0hdbjNbQ0gyXVtDQEhdKFtDSDJdW09IXSlbQ0BASF00W0NIMl1bQ0gyXU9bQ0gyXTQ=

> <s_epik_cmdline>
J2VwaWtfcHl0aG9uJywgJy1waCcsICc3LjAnLCAnLXRuJywgJzgnLCAnLW1hJywgJzIwMCcsICctbWV0YWxfYmluZGluZycsICctaW1hZScsICc8aW5maWxlLm1hZT4nLCAnLW9tYWUnLCAnPG91dGZpbGUubWFlPic=

> <r_lp_tautomer_probability>
1

> <r_epik_Ionization_Penalty>
0.0157465

> <r_epik_Ionization_Penalty_Charging>
0.015354

> <r_epik_Ionization_Penalty_Neutral>
0.000392529

> <r_epik_State_Penalty>
0.0120612

> <r_epik_Charging_Adjusted_Penalty>
0.0274152

> <i_epik_Tot_Q>
1

> <i_epik_Tot_abs_Q>
1

> <r_epik_Metal_State_Penalty>
0.0121253

> <b_epik_Metal_Only>
0

> <s_lp_Force_Field>
OPLS_2005

> <r_lp_Energy>
61.8504

> <b_lp_Chiralities_Consistent>
1

> <s_lp_Variant>
AV-unprocessed.smi:21-18

> <Gold.Version>
5.8.1

> <Gold.Id.Protein>
6NUR|6NUR_protein|mol2

> <Gold.PLP.Fitness>
43.6880

> <Gold.PLP.PLP>
-34.2835

> <Gold.PLP.part.hbond>
-2.0000

> <Gold.PLP.part.metal>
0.0000

> <Gold.PLP.part.buried>
-6.0511

> <Gold.PLP.part.nonpolar>
-28.4614

> <Gold.PLP.part.repulsive>
1.4625

> <Gold.PLP.ligand.clash>
0.0000

> <Gold.PLP.ligand.torsion>
1.0717

> <Gold.PLP.Chemscore.Hbond>
3.0000

> <Gold.PLP.Chemscore.CHOScore>
0.6345

> <Gold.PLP.Chemscore.Metal>
0.0000

> <Gold.Chemscore.Hbonds>
donor molecule, donor type, donor heavy atom, donor atom, acceptor molecule, acceptor atom, score
      L1  H    21    49       P1  8028  1.00
      L1  H    27    62       P1 10957  1.92
      L1  C    16    43       P1  7957  0.49

> <Gold.PLP.Chemscore.Internal.Correction>
0.6443

> <Gold.Rescore>
     Score         DG    S(hbond)    S(metal)    S(lipo)     H(rot)  DE(clash)    DE(int)     intcor
     11.94     -14.65       1.94        0.00      90.18       3.08       0.26       2.45       ----

> <Gold.Chemscore.Fitness>
11.9372

> <Gold.Chemscore.DG>
-14.6468

> <Gold.Chemscore.ZeroCoef>
-5.4800

> <Gold.Chemscore.Hbond>
1.9432

> <Gold.Chemscore.Metal>
0.0000

> <Gold.Chemscore.Lipo>
90.1751

> <Gold.Chemscore.Internal_Hbond>
0.0000

> <Gold.Chemscore.DEClash>
0.2591

> <Gold.Chemscore.DEInternal>
2.4504

> <Gold.Chemscore.Rot>
3.0758

> <Gold.Chemscore.Internal.Correction>
   9.000000E+99

> <Gold.Chemscore.Hbonds>
donor molecule, donor type, donor heavy atom, donor atom, acceptor molecule, acceptor atom, score
      L1  H    21    49       P1  8028  0.96
      L1  H    27    62       P1 10957  0.91

> <Gold.Chemscore.Hbond.Weighted>
-6.4904

> <Gold.Chemscore.Metal.Weighted>
-0.0000

> <Gold.Chemscore.Lipo.Weighted>
-10.5505

> <Gold.Chemscore.Internal_Hbond.Weighted>
0.0000

> <Gold.Chemscore.DEClash.Weighted>
0.2591

> <Gold.Chemscore.DEInternal.Weighted>
2.4504

> <Gold.Chemscore.Rot.Weighted>
7.8741

> <Gold.Chemscore.Internal.Correction.Weighted>
   9.000000E+99

> <Gold.Protein.RotatedTorsions>
[ 6907 6896 6895 6894 ] final -157.37 input  -60.11 | X-H torsion
[ 7974 7965 7964 7962 ] final    3.67 input  175.53 | X-H torsion
[ 8008 7997 7996 7995 ] final  -34.78 input   59.86 | X-H torsion
[ 10167 10162 10161 10158 ] final   25.36 input  -65.29 | X-H torsion
[ 10718 10713 10712 10709 ] final   98.71 input   66.30 | X-H torsion
[ 10763 10752 10751 10750 ] final   13.78 input  -60.55 | X-H torsion
[ 11005 11000 10999 10996 ] final  -76.17 input  -57.11 | X-H torsion

> <Gold.Protein.ActiveResidues>
 VAL166  LYS551  ARG553  GLY616  TRP617  ASP618  TYR619  PRO620  LYS621  CYS622 
 ASP623  PHE694  ASN695  SER759  ASP760  ASP761  ALA762  ILE779  LEU786  VAL792 
 PHE793  MET794  SER795  GLU796  ALA797  LYS798  CYS799  TRP800  GLU811  SER814 

> <Gold.Protein.RotatedAtoms>
  151.3018  133.4119  159.2640 H   0  0  0  0  0  0  0  0  0  0  0  0  # atno 6907 bound_to 6896
  151.0189  134.9454  159.8059 H   0  0  0  0  0  0  0  0  0  0  0  0  # atno 6908 bound_to 6896
  152.5319  134.2981  159.9120 H   0  0  0  0  0  0  0  0  0  0  0  0  # atno 6909 bound_to 6896
  146.2445  140.0651  142.8366 H   0  0  0  0  0  0  0  0  0  0  0  0  # atno 7974 bound_to 7965
  154.4112  140.1675  156.2105 H   0  0  0  0  0  0  0  0  0  0  0  0  # atno 8008 bound_to 7997
  155.9448  140.3405  155.6334 H   0  0  0  0  0  0  0  0  0  0  0  0  # atno 8009 bound_to 7997
  155.6944  140.0737  157.2426 H   0  0  0  0  0  0  0  0  0  0  0  0  # atno 8010 bound_to 7997
  140.5112  144.0157  150.6373 H   0  0  0  0  0  0  0  0  0  0  0  0  # atno 10167 bound_to 10162
  157.6890  131.0648  150.4838 H   0  0  0  0  0  0  0  0  0  0  0  0  # atno 10718 bound_to 10713
  153.1687  135.6808  153.8639 H   0  0  0  0  0  0  0  0  0  0  0  0  # atno 10763 bound_to 10752
  153.8010  135.3156  155.3391 H   0  0  0  0  0  0  0  0  0  0  0  0  # atno 10764 bound_to 10752
  154.7983  135.4793  154.0305 H   0  0  0  0  0  0  0  0  0  0  0  0  # atno 10765 bound_to 10752
  141.1652  133.6973  156.7628 H   0  0  0  0  0  0  0  0  0  0  0  0  # atno 11005 bound_to 11000
  145.0866  140.9256  143.4794 LP  0  0  0  0  0  0  0  0  0  0  0  0  # atno 17320 bound_to 7965
  145.0814  139.2957  143.5781 LP  0  0  0  0  0  0  0  0  0  0  0  0  # atno 17321 bound_to 7965
  140.3480  143.2980  152.0518 LP  0  0  0  0  0  0  0  0  0  0  0  0  # atno 17342 bound_to 10162
  139.4897  144.6395  151.6907 LP  0  0  0  0  0  0  0  0  0  0  0  0  # atno 17343 bound_to 10162
  156.5168  130.4152  149.6272 LP  0  0  0  0  0  0  0  0  0  0  0  0  # atno 17370 bound_to 10713
  156.3190  130.7270  151.2178 LP  0  0  0  0  0  0  0  0  0  0  0  0  # atno 17371 bound_to 10713
  140.2521  134.8532  157.3678 LP  0  0  0  0  0  0  0  0  0  0  0  0  # atno 17394 bound_to 11000
  140.1692  134.4630  155.7843 LP  0  0  0  0  0  0  0  0  0  0  0  0  # atno 17395 bound_to 11000

$$$$
