AV-unprocessed.smi:1897|AV-procd|sdf|7686|dock10
  -GOLD-   22720 9423D 1   1.00000     0.00000
 Structure written by MMmdl.
 39 41  0  0  0  0  0  0  0  0  2 V2000
  137.0246  137.2037  154.5645 C   0  0  0  0  0  0  0  0  0  0  0  0
  138.3311  137.8125  154.1848 C   0  0  0  0  0  0  0  0  0  0  0  0
  138.5195  139.1357  154.1202 N   0  0  0  0  0  0  0  0  0  0  0  0
  139.8144  139.4645  153.7464 N   0  0  0  0  0  0  0  0  0  0  0  0
  140.5728  138.3770  153.5446 C   0  0  0  0  0  0  0  0  0  0  0  0
  141.9413  138.4048  153.1445 N   0  0  0  0  0  0  0  0  0  0  0  0
  142.8226  137.4153  152.8851 C   0  0  0  0  0  0  0  0  0  0  0  0
  142.4944  136.2340  152.9793 O   0  0  0  0  0  0  0  0  0  0  0  0
  144.0591  137.7957  152.5242 N   0  0  0  0  0  0  0  0  0  0  0  0
  145.1608  136.9003  152.1873 C   0  0  2  0  0  0  0  0  0  0  0  0
  144.7028  135.6644  151.3925 C   0  0  0  0  0  0  0  0  0  0  0  0
  145.5560  134.4963  151.9252 C   0  0  0  0  0  0  0  0  0  0  0  0
  146.4972  135.1049  152.8847 N   0  3  2  0  0  0  0  0  0  0  0  0
  147.0520  134.2245  153.9360 C   0  0  0  0  0  0  0  0  0  0  0  0
  148.0709  135.0180  154.7784 C   0  0  0  0  0  0  0  0  0  0  0  0
  147.4643  136.3262  155.3255 C   0  0  0  0  0  0  0  0  0  0  0  0
  146.8198  137.1559  154.1982 C   0  0  0  0  0  0  0  0  0  0  0  0
  145.8104  136.2859  153.4298 C   0  0  1  0  0  0  0  0  0  0  0  0
  139.7478  136.8466  153.7912 S   0  0  0  0  0  0  0  0  0  0  0  0
  136.2009  137.7745  154.1347 H   0  0  0  0  0  0  0  0  0  0  0  0
  136.9183  137.1959  155.6493 H   0  0  0  0  0  0  0  0  0  0  0  0
  136.9640  136.1783  154.1989 H   0  0  0  0  0  0  0  0  0  0  0  0
  142.3273  139.3344  153.0626 H   0  0  0  0  0  0  0  0  0  0  0  0
  144.2460  138.7874  152.4741 H   0  0  0  0  0  0  0  0  0  0  0  0
  145.9179  137.4249  151.6004 H   0  0  0  0  0  0  0  0  0  0  0  0
  143.6453  135.4527  151.5590 H   0  0  0  0  0  0  0  0  0  0  0  0
  144.8414  135.8131  150.3210 H   0  0  0  0  0  0  0  0  0  0  0  0
  144.9191  133.7698  152.4323 H   0  0  0  0  0  0  0  0  0  0  0  0
  146.0946  133.9787  151.1310 H   0  0  0  0  0  0  0  0  0  0  0  0
  146.2469  133.8455  154.5675 H   0  0  0  0  0  0  0  0  0  0  0  0
  147.5352  133.3626  153.4748 H   0  0  0  0  0  0  0  0  0  0  0  0
  148.4361  134.4027  155.6014 H   0  0  0  0  0  0  0  0  0  0  0  0
  148.9400  135.2553  154.1631 H   0  0  0  0  0  0  0  0  0  0  0  0
  146.7100  136.0887  156.0768 H   0  0  0  0  0  0  0  0  0  0  0  0
  148.2310  136.9128  155.8327 H   0  0  0  0  0  0  0  0  0  0  0  0
  146.3252  138.0310  154.6196 H   0  0  0  0  0  0  0  0  0  0  0  0
  147.5905  137.5262  153.5209 H   0  0  0  0  0  0  0  0  0  0  0  0
  145.0276  135.9482  154.1135 H   0  0  0  0  0  0  0  0  0  0  0  0
  147.2747  135.4535  152.3423 H   0  0  0  0  0  0  0  0  0  0  0  0
  1  2  1  0  0  0  0
  1 20  1  0  0  0  0
  1 21  1  0  0  0  0
  1 22  1  0  0  0  0
  2 19  1  0  0  0  0
  2  3  2  0  0  0  0
  3  4  1  0  0  0  0
  4  5  2  0  0  0  0
  5  6  1  0  0  0  0
  5 19  1  0  0  0  0
  6  7  1  0  0  0  0
  6 23  1  0  0  0  0
  7  8  2  0  0  0  0
  7  9  1  0  0  0  0
  9 10  1  0  0  0  0
  9 24  1  0  0  0  0
 10 18  1  0  0  0  0
 10 11  1  0  0  0  0
 10 25  1  0  0  0  0
 11 12  1  0  0  0  0
 11 26  1  0  0  0  0
 11 27  1  0  0  0  0
 12 13  1  0  0  0  0
 12 28  1  0  0  0  0
 12 29  1  0  0  0  0
 13 18  1  0  0  0  0
 13 14  1  0  0  0  0
 13 39  1  0  0  0  0
 14 15  1  0  0  0  0
 14 30  1  0  0  0  0
 14 31  1  0  0  0  0
 15 16  1  0  0  0  0
 15 32  1  0  0  0  0
 15 33  1  0  0  0  0
 16 17  1  0  0  0  0
 16 34  1  0  0  0  0
 16 35  1  0  0  0  0
 17 18  1  0  0  0  0
 17 36  1  0  0  0  0
 17 37  1  0  0  0  0
 18 38  1  0  0  0  0
M  CHG  1  13   1
M  END
> <s_m_source_file>
AV-unprocessed.smi

> <i_m_source_file_index>
1897

> <i_lp_mmshare_version>
43012

> <i_f3d_flags>
0

> <s_epik_input>
W0NIM11jMW5uYyhzMSlbTkhdQyg9TylbTkhdW0NASF0oW0NIMl1bQ0gyXTIpW0NAQEhdKE4yMylbQ0gyXVtDSDJdW0NIMl1bQ0gyXTM=

> <s_epik_cmdline>
J2VwaWtfcHl0aG9uJywgJy1waCcsICc3LjAnLCAnLXRuJywgJzgnLCAnLW1hJywgJzIwMCcsICctbWV0YWxfYmluZGluZycsICctaW1hZScsICc8aW5maWxlLm1hZT4nLCAnLW9tYWUnLCAnPG91dGZpbGUubWFlPic=

> <r_lp_tautomer_probability>
1

> <r_epik_Ionization_Penalty>
0.00228891

> <r_epik_Ionization_Penalty_Charging>
0.00107044

> <r_epik_Ionization_Penalty_Neutral>
0.00121847

> <r_epik_State_Penalty>
-0

> <r_epik_Charging_Adjusted_Penalty>
0.00107044

> <i_epik_Tot_Q>
1

> <i_epik_Tot_abs_Q>
1

> <r_epik_Metal_State_Penalty>
0.304057

> <b_epik_Metal_Only>
0

> <s_lp_Force_Field>
OPLS_2005

> <r_lp_Energy>
35.6377

> <b_lp_Chiralities_Consistent>
1

> <s_lp_Variant>
AV-unprocessed.smi:1897-3

> <Gold.Version>
5.8.1

> <Gold.Id.Protein>
6NUR|6NUR_protein|mol2

> <Gold.PLP.Fitness>
38.0586

> <Gold.PLP.PLP>
-26.6186

> <Gold.PLP.part.hbond>
-4.0000

> <Gold.PLP.part.metal>
0.0000

> <Gold.PLP.part.buried>
-4.4148

> <Gold.PLP.part.nonpolar>
-18.6296

> <Gold.PLP.part.repulsive>
0.4549

> <Gold.PLP.ligand.clash>
0.0000

> <Gold.PLP.ligand.torsion>
0.2728

> <Gold.PLP.Chemscore.Hbond>
3.9920

> <Gold.PLP.Chemscore.CHOScore>
0.0000

> <Gold.PLP.Chemscore.Metal>
0.0000

> <Gold.Chemscore.Hbonds>
donor molecule, donor type, donor heavy atom, donor atom, acceptor molecule, acceptor atom, score
      L1  H     6    23       P1 10175  1.00
      L1  H     9    24       P1 10175  0.99
      L1  H    13    39       P1  7948  2.00

> <Gold.PLP.Chemscore.Internal.Correction>
0.0097

> <Gold.Rescore>
     Score         DG    S(hbond)    S(metal)    S(lipo)     H(rot)  DE(clash)    DE(int)     intcor
     15.54     -18.49       2.92        0.00      49.86       1.00       0.01       2.93       ----

> <Gold.Chemscore.Fitness>
15.5425

> <Gold.Chemscore.DG>
-18.4898

> <Gold.Chemscore.ZeroCoef>
-5.4800

> <Gold.Chemscore.Hbond>
2.9151

> <Gold.Chemscore.Metal>
0.0000

> <Gold.Chemscore.Lipo>
49.8579

> <Gold.Chemscore.Internal_Hbond>
0.0000

> <Gold.Chemscore.DEClash>
0.0139

> <Gold.Chemscore.DEInternal>
2.9334

> <Gold.Chemscore.Rot>
1.0000

> <Gold.Chemscore.Internal.Correction>
   9.000000E+99

> <Gold.Chemscore.Hbonds>
donor molecule, donor type, donor heavy atom, donor atom, acceptor molecule, acceptor atom, score
      L1  H     6    23       P1 10175  0.94
      L1  H     9    24       P1 10175  0.93
      L1  H    13    39       P1  7948  1.00

> <Gold.Chemscore.Hbond.Weighted>
-9.7364

> <Gold.Chemscore.Metal.Weighted>
-0.0000

> <Gold.Chemscore.Lipo.Weighted>
-5.8334

> <Gold.Chemscore.Internal_Hbond.Weighted>
0.0000

> <Gold.Chemscore.DEClash.Weighted>
0.0139

> <Gold.Chemscore.DEInternal.Weighted>
2.9334

> <Gold.Chemscore.Rot.Weighted>
2.5600

> <Gold.Chemscore.Internal.Correction.Weighted>
   9.000000E+99

> <Gold.Protein.RotatedTorsions>
[ 6907 6896 6895 6894 ] final  -55.02 input  -60.11 | X-H torsion
[ 7974 7965 7964 7962 ] final   41.53 input  175.53 | X-H torsion
[ 8008 7997 7996 7995 ] final   -3.07 input   59.86 | X-H torsion
[ 10167 10162 10161 10158 ] final  -72.44 input  -65.29 | X-H torsion
[ 10718 10713 10712 10709 ] final   14.86 input   66.30 | X-H torsion
[ 10763 10752 10751 10750 ] final -138.63 input  -60.55 | X-H torsion
[ 11005 11000 10999 10996 ] final  175.81 input  -57.11 | X-H torsion

> <Gold.Protein.ActiveResidues>
 VAL166  LYS551  ARG553  GLY616  TRP617  ASP618  TYR619  PRO620  LYS621  CYS622 
 ASP623  PHE694  ASN695  SER759  ASP760  ASP761  ALA762  ILE779  LEU786  VAL792 
 PHE793  MET794  SER795  GLU796  ALA797  LYS798  CYS799  TRP800  GLU811  SER814 

> <Gold.Protein.RotatedAtoms>
  150.8287  134.7530  159.6834 H   0  0  0  0  0  0  0  0  0  0  0  0  # atno 6907 bound_to 6896
  152.4395  134.5617  159.9906 H   0  0  0  0  0  0  0  0  0  0  0  0  # atno 6908 bound_to 6896
  151.5783  133.3343  159.3039 H   0  0  0  0  0  0  0  0  0  0  0  0  # atno 6909 bound_to 6896
  146.0816  139.5405  142.9533 H   0  0  0  0  0  0  0  0  0  0  0  0  # atno 7974 bound_to 7965
  154.6289  140.2518  155.7458 H   0  0  0  0  0  0  0  0  0  0  0  0  # atno 8008 bound_to 7997
  156.2468  140.2911  156.0551 H   0  0  0  0  0  0  0  0  0  0  0  0  # atno 8009 bound_to 7997
  155.1777  140.0388  157.2866 H   0  0  0  0  0  0  0  0  0  0  0  0  # atno 8010 bound_to 7997
  140.5192  143.2334  151.7460 H   0  0  0  0  0  0  0  0  0  0  0  0  # atno 10167 bound_to 10162
  157.0453  130.6247  149.5758 H   0  0  0  0  0  0  0  0  0  0  0  0  # atno 10718 bound_to 10713
  154.8632  135.3606  154.5415 H   0  0  0  0  0  0  0  0  0  0  0  0  # atno 10763 bound_to 10752
  153.6037  135.7012  153.5379 H   0  0  0  0  0  0  0  0  0  0  0  0  # atno 10764 bound_to 10752
  153.3269  135.4135  155.1424 H   0  0  0  0  0  0  0  0  0  0  0  0  # atno 10765 bound_to 10752
  140.3663  134.7069  157.4363 H   0  0  0  0  0  0  0  0  0  0  0  0  # atno 11005 bound_to 11000
  145.6207  141.0323  143.1916 LP  0  0  0  0  0  0  0  0  0  0  0  0  # atno 17320 bound_to 7965
  144.7297  139.7764  143.7352 LP  0  0  0  0  0  0  0  0  0  0  0  0  # atno 17321 bound_to 7965
  139.4918  144.4280  151.9904 LP  0  0  0  0  0  0  0  0  0  0  0  0  # atno 17342 bound_to 10162
  140.3375  144.3242  150.5974 LP  0  0  0  0  0  0  0  0  0  0  0  0  # atno 17343 bound_to 10162
  156.0025  130.5106  150.7714 LP  0  0  0  0  0  0  0  0  0  0  0  0  # atno 17370 bound_to 10713
  157.5073  131.0923  151.0241 LP  0  0  0  0  0  0  0  0  0  0  0  0  # atno 17371 bound_to 10713
  140.0587  134.6027  155.8775 LP  0  0  0  0  0  0  0  0  0  0  0  0  # atno 17394 bound_to 11000
  141.1968  133.6593  156.5712 LP  0  0  0  0  0  0  0  0  0  0  0  0  # atno 17395 bound_to 11000

$$$$
