#       Name:                AV-unprocessed.smi:72
#       Creating user name   scv26
#       Creation time:       Thu Mar 26 17:00:00 2020


#       File generated by GOLD software.
#

@<TRIPOS>MOLECULE
AV-unprocessed.smi:72
    41    42     1
SMALL
NO_CHARGES


@<TRIPOS>ATOM
      1 ****        -2.4543   4.4494   0.9356 N.2            1 S1                 0.0000
      2 ****        -1.9202   3.3264   0.6127 C.2            1 S1                 0.0000
      3 ****        -0.5780   2.9754   0.8226 N.2            1 S1                 0.0000
      4 ****        -0.1756   1.8037   0.4370 C.2            1 S1                 0.0000
      5 ****        -1.0669   0.8510  -0.2074 N.am           1 S1                 0.0000
      6 ****        -0.5627  -0.5064  -0.6504 C.3            1 S1                 0.0000
      7 ****         0.7265  -0.3537  -1.1584 O.3            1 S1                 0.0000
      8 ****         1.4958  -1.4992  -0.8237 C.3            1 S1                 0.0000
      9 ****         2.9924  -1.1555  -0.8687 C.3            1 S1                 0.0000
     10 ****         3.4661  -1.2269  -2.1966 O.3            1 S1                 0.0000
     11 ****         0.9890  -1.8461   0.5797 C.3            1 S1                 0.0000
     12 ****         1.2077  -3.2134   0.8621 O.3            1 S1                 0.0000
     13 ****        -0.5029  -1.5473   0.4911 C.3            1 S1                 0.0000
     14 ****        -0.9998  -1.0917   1.7368 O.3            1 S1                 0.0000
     15 ****        -2.4290   1.1817  -0.4076 C.2            1 S1                 0.0000
     16 ****        -3.2335   0.4006  -0.9148 O.2            1 S1                 0.0000
     17 ****        -2.7943   2.4140   0.0072 N.am           1 S1                 0.0000
     18 ****        -1.2035  -0.8295  -1.4720 H              1 S1                 0.0000
     19 ****         1.2519  -2.3071  -1.5171 H              1 S1                 0.0000
     20 ****         1.4724  -1.2122   1.3253 H              1 S1                 0.0000
     21 ****        -1.0654  -2.4247   0.1683 H              1 S1                 0.0000
     22 ****        -3.4316   4.4535   0.6809 H              1 S1                 0.0000
     23 ****         0.8490   1.4547   0.5740 H              1 S1                 0.0000
     24 ****         3.1867  -0.1690  -0.4467 H              1 S1                 0.0000
     25 ****         3.5603  -1.8770  -0.2807 H              1 S1                 0.0000
     26 ****         4.3912  -1.0339  -2.1968 H              1 S1                 0.0000
     27 ****         0.8376  -3.4045   1.7104 H              1 S1                 0.0000
     28 ****        -1.9184  -0.8935   1.6370 H              1 S1                 0.0000
     29 ****        -3.7576   2.6859  -0.1233 H              1 S1                 0.0000
     30 ****        -1.9730   5.2080   1.3746 LP             1 S1                 0.0000
     31 ****         0.0548   3.6144   1.2599 LP             1 S1                 0.0000
     32 ****         1.1487   0.4611  -0.7612 LP             1 S1                 0.0000
     33 ****         0.6854  -0.2567  -2.1529 LP             1 S1                 0.0000
     34 ****         2.9825  -0.5599  -2.7633 LP             1 S1                 0.0000
     35 ****         3.3135  -2.1460  -2.5600 LP             1 S1                 0.0000
     36 ****         2.1893  -3.4040   0.8708 LP             1 S1                 0.0000
     37 ****         0.7649  -3.7776   0.1652 LP             1 S1                 0.0000
     38 ****        -0.5053  -0.2690   2.0172 LP             1 S1                 0.0000
     39 ****        -0.8812  -1.8040   2.4286 LP             1 S1                 0.0000
     40 ****        -2.9335  -0.5085  -1.2039 LP             1 S1                 0.0000
     41 ****        -4.1872   0.6750  -1.0379 LP             1 S1                 0.0000
@<TRIPOS>BOND
    1    1    2 2     
    2    1   22 1     
    3    2   17 1     
    4    2    3 1     
    5    3    4 2     
    6    4    5 1     
    7    4   23 1     
    8    5    6 1     
    9    5   15 am    
   10    6   18 1     
   11    6   13 1     
   12    6    7 1     
   13    7    8 1     
   14    8   19 1     
   15    8    9 1     
   16    8   11 1     
   17    9   10 1     
   18    9   24 1     
   19    9   25 1     
   20   10   26 1     
   21   11   20 1     
   22   11   12 1     
   23   11   13 1     
   24   12   27 1     
   25   13   21 1     
   26   13   14 1     
   27   14   28 1     
   28   15   16 2     
   29   15   17 am    
   30   17   29 1     
   31    1   30 1     
   32    3   31 1     
   33    7   32 1     
   34    7   33 1     
   35   10   34 1     
   36   10   35 1     
   37   12   36 1     
   38   12   37 1     
   39   14   38 1     
   40   14   39 1     
   41   16   40 1     
   42   16   41 1     
@<TRIPOS>SUBSTRUCTURE
      1 S1             1
@<TRIPOS>SET
LONE_PAIRS      STATIC     ATOMS    <user>   **** ""
12 30 31 32 33 34 35 36 37 38 39 40 41
DONOR_HYDROGENS      STATIC     ATOMS    <user>   **** ""
5 22 26 27 28 29
ATOM$BLUE        STATIC     ATOMS    COLORGROUP SYSTEM
12 30 31 32 33 34 35 36 37 38 39 40 41
ATOM$RED        STATIC     ATOMS    COLORGROUP SYSTEM
5 22 26 27 28 29
