#       Name:                AV-unprocessed.smi:444
#       Creating user name   scv26
#       Creation time:       Thu Mar 26 22:57:56 2020


#       File generated by GOLD software.
#

@<TRIPOS>MOLECULE
AV-unprocessed.smi:444
    53    54     1
SMALL
NO_CHARGES


@<TRIPOS>ATOM
      1 ****        -6.3892  -0.5716   0.3625 C.3            1 S1                 0.0000
      2 ****        -5.3767   0.5525   0.2847 C.ar           1 S1                 0.0000
      3 ****        -5.7742   1.8836   0.5147 C.ar           1 S1                 0.0000
      4 ****        -4.8278   2.9214   0.4428 C.ar           1 S1                 0.0000
      5 ****        -3.4799   2.6358   0.1413 C.ar           1 S1                 0.0000
      6 ****        -2.4724   3.7678   0.0678 C.3            1 S1                 0.0000
      7 ****        -3.0666   1.3034  -0.0912 C.ar           1 S1                 0.0000
      8 ****        -1.7338   1.0931  -0.3808 O.3            1 S1                 0.0000
      9 ****        -1.2936  -0.2352  -0.6314 C.3            1 S1                 0.0000
     10 ****         0.2133  -0.2084  -0.9412 C.3            1 S1                 0.0000
     11 ****         0.3464   0.1707  -2.2974 O.3            1 S1                 0.0000
     12 ****         0.8633  -1.5990  -0.7640 C.3            1 S1                 0.0000
     13 ****         2.3071  -1.5017  -0.5146 N.am           1 S1                 0.0000
     14 ****         2.6375  -1.3272   0.8156 N.2            1 S1                 0.0000
     15 ****         3.8683  -1.2206   1.1956 C.2            1 S1                 0.0000
     16 ****         4.1072  -1.0318   2.6695 C.3            1 S1                 0.0000
     17 ****         4.9385  -1.2873   0.2057 C.2            1 S1                 0.0000
     18 ****         6.3692  -1.1607   0.7109 C.3            1 S1                 0.0000
     19 ****         4.6008  -1.4502  -1.0980 C.2            1 S1                 0.0000
     20 ****         5.5779  -1.5199  -2.1363 C.1            1 S1                 0.0000
     21 ****         6.3851  -1.5741  -2.9643 N.1            1 S1                 0.0000
     22 ****         3.2079  -1.5649  -1.5360 C.2            1 S1                 0.0000
     23 ****         2.8689  -1.7014  -2.7123 O.2            1 S1                 0.0000
     24 ****        -4.0298   0.2648  -0.0151 C.ar           1 S1                 0.0000
     25 ****        -7.4094  -0.1889   0.3192 H              1 S1                 0.0000
     26 ****        -6.2688  -1.1223   1.2956 H              1 S1                 0.0000
     27 ****        -6.2538  -1.2662  -0.4670 H              1 S1                 0.0000
     28 ****        -6.8039   2.1136   0.7466 H              1 S1                 0.0000
     29 ****        -5.1422   3.9395   0.6206 H              1 S1                 0.0000
     30 ****        -2.0042   3.7953  -0.9167 H              1 S1                 0.0000
     31 ****        -1.6919   3.6279   0.8164 H              1 S1                 0.0000
     32 ****        -2.9433   4.7353   0.2458 H              1 S1                 0.0000
     33 ****        -1.4706  -0.8233   0.2704 H              1 S1                 0.0000
     34 ****        -1.8500  -0.6999  -1.4477 H              1 S1                 0.0000
     35 ****         0.7044   0.5223  -0.2967 H              1 S1                 0.0000
     36 ****         1.2650   0.1765  -2.5200 H              1 S1                 0.0000
     37 ****         0.4180  -2.0998   0.0977 H              1 S1                 0.0000
     38 ****         0.6338  -2.2530  -1.6078 H              1 S1                 0.0000
     39 ****         4.6932  -0.1314   2.8557 H              1 S1                 0.0000
     40 ****         4.6497  -1.8815   3.0846 H              1 S1                 0.0000
     41 ****         3.1723  -0.9349   3.2241 H              1 S1                 0.0000
     42 ****         7.1015  -1.2974  -0.0844 H              1 S1                 0.0000
     43 ****         6.5762  -1.9110   1.4749 H              1 S1                 0.0000
     44 ****         6.5337  -0.1735   1.1441 H              1 S1                 0.0000
     45 ****        -3.7579  -0.7661  -0.1830 H              1 S1                 0.0000
     46 ****        -1.2055   1.4373   0.3954 LP             1 S1                 0.0000
     47 ****        -1.5202   1.6330  -1.1950 LP             1 S1                 0.0000
     48 ****        -0.0385   1.0839  -2.4313 LP             1 S1                 0.0000
     49 ****        -0.1371  -0.4834  -2.8791 LP             1 S1                 0.0000
     50 ****         1.9088  -1.2824   1.4989 LP             1 S1                 0.0000
     51 ****         7.0824  -1.6209  -3.6796 LP             1 S1                 0.0000
     52 ****         1.8997  -1.7705  -2.9485 LP             1 S1                 0.0000
     53 ****         3.5629  -1.7431  -3.4311 LP             1 S1                 0.0000
@<TRIPOS>BOND
    1    1    2 1     
    2    1   25 1     
    3    1   26 1     
    4    1   27 1     
    5    2   24 ar    
    6    2    3 ar    
    7    3    4 ar    
    8    3   28 1     
    9    4    5 ar    
   10    4   29 1     
   11    5    6 1     
   12    5    7 ar    
   13    6   30 1     
   14    6   31 1     
   15    6   32 1     
   16    7    8 1     
   17    7   24 ar    
   18    8    9 1     
   19    9   10 1     
   20    9   33 1     
   21    9   34 1     
   22   10   11 1     
   23   10   12 1     
   24   10   35 1     
   25   11   36 1     
   26   12   13 1     
   27   12   37 1     
   28   12   38 1     
   29   13   22 am    
   30   13   14 1     
   31   14   15 2     
   32   15   16 1     
   33   15   17 1     
   34   16   39 1     
   35   16   40 1     
   36   16   41 1     
   37   17   18 1     
   38   17   19 2     
   39   18   42 1     
   40   18   43 1     
   41   18   44 1     
   42   19   20 1     
   43   19   22 1     
   44   20   21 3     
   45   22   23 2     
   46   24   45 1     
   47    8   46 1     
   48    8   47 1     
   49   11   48 1     
   50   11   49 1     
   51   14   50 1     
   52   21   51 1     
   53   23   52 1     
   54   23   53 1     
@<TRIPOS>SUBSTRUCTURE
      1 S1             1
@<TRIPOS>SET
LONE_PAIRS      STATIC     ATOMS    <user>   **** ""
8 46 47 48 49 50 51 52 53
DONOR_HYDROGENS      STATIC     ATOMS    <user>   **** ""
1 36
ATOM$BLUE        STATIC     ATOMS    COLORGROUP SYSTEM
8 46 47 48 49 50 51 52 53
ATOM$RED        STATIC     ATOMS    COLORGROUP SYSTEM
1 36
