AV-unprocessed.smi:72|AV-procd|sdf|751|dock10
  -GOLD-   2262017 83D 1   1.00000     0.00000
 Structure written by MMmdl.
 29 30  0  0  0  0  0  0  0  0  1 V2000
  152.2694  138.4532  159.2482 N   0  0  0  0  0  0  0  0  0  0  0  0
  151.6884  138.9181  158.0867 C   0  0  0  0  0  0  0  0  0  0  0  0
  150.2915  139.0369  158.0925 N   0  0  0  0  0  0  0  0  0  0  0  0
  149.7429  139.4800  157.0057 C   0  0  0  0  0  0  0  0  0  0  0  0
  150.5444  139.8405  155.8498 N   0  0  0  0  0  0  0  0  0  0  0  0
  149.9009  140.3571  154.5793 C   0  0  2  0  0  0  0  0  0  0  0  0
  148.9907  141.3574  154.9125 O   0  0  0  0  0  0  0  0  0  0  0  0
  147.9418  141.3525  153.9568 C   0  0  2  0  0  0  0  0  0  0  0  0
  146.7052  142.0609  154.5310 C   0  0  0  0  0  0  0  0  0  0  0  0
  146.9484  142.4617  155.8626 O   0  0  0  0  0  0  0  0  0  0  0  0
  147.7274  139.8564  153.7022 C   0  0  1  0  0  0  0  0  0  0  0  0
  147.1726  139.6537  152.4175 O   0  0  0  0  0  0  0  0  0  0  0  0
  149.1363  139.2746  153.7830 C   0  0  2  0  0  0  0  0  0  0  0  0
  149.1151  137.9973  154.3949 O   0  0  0  0  0  0  0  0  0  0  0  0
  151.9549  139.6744  155.9049 C   0  0  0  0  0  0  0  0  0  0  0  0
  152.6498  139.9376  154.9234 O   0  0  0  0  0  0  0  0  0  0  0  0
  152.4970  139.1967  157.1043 N   0  0  0  0  0  0  0  0  0  0  0  0
  150.6932  140.8243  153.9924 H   0  0  0  0  0  0  0  0  0  0  0  0
  148.2908  141.8395  153.0433 H   0  0  0  0  0  0  0  0  0  0  0  0
  147.0829  139.4303  154.4733 H   0  0  0  0  0  0  0  0  0  0  0  0
  149.5997  139.1984  152.7982 H   0  0  0  0  0  0  0  0  0  0  0  0
  153.2648  138.3261  159.3591 H   0  0  0  0  0  0  0  0  0  0  0  0
  151.7430  138.2043  160.0730 H   0  0  0  0  0  0  0  0  0  0  0  0
  148.6656  139.6040  156.8859 H   0  0  0  0  0  0  0  0  0  0  0  0
  146.4876  142.9609  153.9551 H   0  0  0  0  0  0  0  0  0  0  0  0
  145.8228  141.4226  154.4795 H   0  0  0  0  0  0  0  0  0  0  0  0
  147.4887  143.2368  155.8490 H   0  0  0  0  0  0  0  0  0  0  0  0
  147.8791  139.5599  151.7972 H   0  0  0  0  0  0  0  0  0  0  0  0
  149.0457  137.3415  153.7178 H   0  0  0  0  0  0  0  0  0  0  0  0
  1  2  1  0  0  0  0
  1 22  1  0  0  0  0
  1 23  1  0  0  0  0
  2 17  2  0  0  0  0
  2  3  1  0  0  0  0
  3  4  2  0  0  0  0
  4  5  1  0  0  0  0
  4 24  1  0  0  0  0
  5  6  1  0  0  0  0
  5 15  1  0  0  0  0
  6 18  1  0  0  0  0
  6 13  1  0  0  0  0
  6  7  1  0  0  0  0
  7  8  1  0  0  0  0
  8 19  1  0  0  0  0
  8  9  1  0  0  0  0
  8 11  1  0  0  0  0
  9 10  1  0  0  0  0
  9 25  1  0  0  0  0
  9 26  1  0  0  0  0
 10 27  1  0  0  0  0
 11 20  1  0  0  0  0
 11 12  1  0  0  0  0
 11 13  1  0  0  0  0
 12 28  1  0  0  0  0
 13 21  1  0  0  0  0
 13 14  1  0  0  0  0
 14 29  1  0  0  0  0
 15 16  2  0  0  0  0
 15 17  1  0  0  0  0
M  END
> <s_m_source_file>
AV-unprocessed.smi

> <i_m_source_file_index>
72

> <i_lp_mmshare_version>
43012

> <i_f3d_flags>
0

> <s_epik_input>
W05IMl1jMW5bY0hdbihjKD1PKW4xKVtDQEBIXTJPW0NASF0oW0NIMl1bT0hdKVtDQEBIXShbT0hdKVtDQEhdMltPSF0=

> <s_epik_cmdline>
J2VwaWtfcHl0aG9uJywgJy1waCcsICc3LjAnLCAnLXRuJywgJzgnLCAnLW1hJywgJzIwMCcsICctbWV0YWxfYmluZGluZycsICctaW1hZScsICc8aW5maWxlLm1hZT4nLCAnLW9tYWUnLCAnPG91dGZpbGUubWFlPic=

> <r_lp_tautomer_probability>
4.77166e-05

> <r_epik_Ionization_Penalty>
1.3546

> <r_epik_Ionization_Penalty_Charging>
1.46833e-10

> <r_epik_Ionization_Penalty_Neutral>
1.3546

> <r_epik_State_Penalty>
3.51908

> <r_epik_Charging_Adjusted_Penalty>
3.51908

> <i_epik_Tot_Q>
0

> <i_epik_Tot_abs_Q>
0

> <r_epik_Metal_State_Penalty>
3.44088

> <b_epik_Metal_Only>
1

> <s_epik_Chemistry_Notes>
This compound contains an acetal/aminal-like group ( X-CH(R)-Y where X, Y are N, S, or O) that may be acid/base labile, releasing an aldehyde.

> <s_lp_Force_Field>
OPLS_2005

> <r_lp_Energy>
32.6436

> <b_lp_Chiralities_Consistent>
1

> <s_lp_Variant>
AV-unprocessed.smi:72-89

> <Gold.Version>
5.8.1

> <Gold.Id.Protein>
6NUR|6NUR_protein|mol2

> <Gold.PLP.Fitness>
34.4222

> <Gold.PLP.PLP>
-23.1435

> <Gold.PLP.part.hbond>
-5.9474

> <Gold.PLP.part.metal>
0.0000

> <Gold.PLP.part.buried>
0.6387

> <Gold.PLP.part.nonpolar>
-19.0055

> <Gold.PLP.part.repulsive>
0.2510

> <Gold.PLP.ligand.clash>
0.0000

> <Gold.PLP.ligand.torsion>
1.0059

> <Gold.PLP.Chemscore.Hbond>
4.3369

> <Gold.PLP.Chemscore.CHOScore>
0.0000

> <Gold.PLP.Chemscore.Metal>
0.0000

> <Gold.Chemscore.Hbonds>
donor molecule, donor type, donor heavy atom, donor atom, acceptor molecule, acceptor atom, score
      L1  H    10    27       P1  8028  0.70
      L1  H    12    28       P1  7957  1.00
      L1  H    14    29       P1  7948  0.71
      P1  H  7989  7998       L1    16  0.51
      P1  H  7997  8009       L1    16  0.86

> <Gold.PLP.Chemscore.Internal.Correction>
0.2798

> <Gold.Rescore>
     Score         DG    S(hbond)    S(metal)    S(lipo)     H(rot)  DE(clash)    DE(int)     intcor
      6.09      -8.65       3.12        0.00      26.77       4.06       1.48       1.08       ----

> <Gold.Chemscore.Fitness>
6.0862

> <Gold.Chemscore.DG>
-8.6454

> <Gold.Chemscore.ZeroCoef>
-5.4800

> <Gold.Chemscore.Hbond>
3.1218

> <Gold.Chemscore.Metal>
0.0000

> <Gold.Chemscore.Lipo>
26.7701

> <Gold.Chemscore.Internal_Hbond>
0.0000

> <Gold.Chemscore.DEClash>
1.4751

> <Gold.Chemscore.DEInternal>
1.0841

> <Gold.Chemscore.Rot>
4.0600

> <Gold.Chemscore.Internal.Correction>
   9.000000E+99

> <Gold.Chemscore.Hbonds>
donor molecule, donor type, donor heavy atom, donor atom, acceptor molecule, acceptor atom, score
      L1  H    10    27       P1  8028  0.07
      L1  H    12    28       P1  7957  0.96
      L1  H    14    29       P1  7948  0.71
      P1  H  7989  7998       L1    16  0.44
      P1  H  7997  8009       L1    16  0.37

> <Gold.Chemscore.Hbond.Weighted>
-10.4269

> <Gold.Chemscore.Metal.Weighted>
-0.0000

> <Gold.Chemscore.Lipo.Weighted>
-3.1321

> <Gold.Chemscore.Internal_Hbond.Weighted>
0.0000

> <Gold.Chemscore.DEClash.Weighted>
1.4751

> <Gold.Chemscore.DEInternal.Weighted>
1.0841

> <Gold.Chemscore.Rot.Weighted>
10.3936

> <Gold.Chemscore.Internal.Correction.Weighted>
   9.000000E+99

> <Gold.Protein.RotatedTorsions>
[ 6907 6896 6895 6894 ] final  -12.21 input  -60.11 | X-H torsion
[ 7974 7965 7964 7962 ] final   27.93 input  175.53 | X-H torsion
[ 8008 7997 7996 7995 ] final -124.15 input   59.86 | X-H torsion
[ 10167 10162 10161 10158 ] final  121.52 input  -65.29 | X-H torsion
[ 10718 10713 10712 10709 ] final  -78.93 input   66.30 | X-H torsion
[ 10763 10752 10751 10750 ] final   32.51 input  -60.55 | X-H torsion
[ 11005 11000 10999 10996 ] final  110.59 input  -57.11 | X-H torsion

> <Gold.Protein.ActiveResidues>
 VAL166  LYS551  ARG553  GLY616  TRP617  ASP618  TYR619  PRO620  LYS621  CYS622 
 ASP623  PHE694  ASN695  SER759  ASP760  ASP761  ALA762  ILE779  LEU786  VAL792 
 PHE793  MET794  SER795  GLU796  ALA797  LYS798  CYS799  TRP800  GLU811  SER814 

> <Gold.Protein.RotatedAtoms>
  151.3741  135.0928  159.9474 H   0  0  0  0  0  0  0  0  0  0  0  0  # atno 6907 bound_to 6896
  152.5127  133.9136  159.7510 H   0  0  0  0  0  0  0  0  0  0  0  0  # atno 6908 bound_to 6896
  150.9556  133.6446  159.2793 H   0  0  0  0  0  0  0  0  0  0  0  0  # atno 6909 bound_to 6896
  146.1757  139.7124  142.8936 H   0  0  0  0  0  0  0  0  0  0  0  0  # atno 7974 bound_to 7965
  155.1922  140.0413  157.2902 H   0  0  0  0  0  0  0  0  0  0  0  0  # atno 8008 bound_to 7997
  154.6131  140.2482  155.7616 H   0  0  0  0  0  0  0  0  0  0  0  0  # atno 8009 bound_to 7997
  156.2390  140.2910  156.0403 H   0  0  0  0  0  0  0  0  0  0  0  0  # atno 8010 bound_to 7997
  139.5914  144.7026  151.3281 H   0  0  0  0  0  0  0  0  0  0  0  0  # atno 10167 bound_to 10162
  156.0105  130.4532  150.3572 H   0  0  0  0  0  0  0  0  0  0  0  0  # atno 10718 bound_to 10713
  153.0259  135.6411  154.1366 H   0  0  0  0  0  0  0  0  0  0  0  0  # atno 10763 bound_to 10752
  154.1095  135.2854  155.3235 H   0  0  0  0  0  0  0  0  0  0  0  0  # atno 10764 bound_to 10752
  154.6342  135.5482  153.7777 H   0  0  0  0  0  0  0  0  0  0  0  0  # atno 10765 bound_to 10752
  139.8885  134.9487  156.6302 H   0  0  0  0  0  0  0  0  0  0  0  0  # atno 11005 bound_to 11000
  145.4218  141.0407  143.2959 LP  0  0  0  0  0  0  0  0  0  0  0  0  # atno 17320 bound_to 7965
  144.8232  139.5755  143.6977 LP  0  0  0  0  0  0  0  0  0  0  0  0  # atno 17321 bound_to 7965
  140.7176  143.7223  150.7686 LP  0  0  0  0  0  0  0  0  0  0  0  0  # atno 17342 bound_to 10162
  140.0780  143.4996  152.2545 LP  0  0  0  0  0  0  0  0  0  0  0  0  # atno 17343 bound_to 10162
  157.1662  131.0357  151.2817 LP  0  0  0  0  0  0  0  0  0  0  0  0  # atno 17370 bound_to 10713
  157.4269  130.7468  149.6958 LP  0  0  0  0  0  0  0  0  0  0  0  0  # atno 17371 bound_to 10713
  140.7673  133.8768  155.8464 LP  0  0  0  0  0  0  0  0  0  0  0  0  # atno 17394 bound_to 11000
  140.9872  134.1327  157.4441 LP  0  0  0  0  0  0  0  0  0  0  0  0  # atno 17395 bound_to 11000

$$$$
