AV-unprocessed.smi:1088|AV-procd|sdf|4733|dock6
  -GOLD-   22720 3273D 1   1.00000     0.00000
 Structure written by MMmdl.
 47 48  0  0  0  0  0  0  0  0  1 V2000
  144.3812  132.2109  148.8680 C   0  0  0  0  0  0  0  0  0  0  0  0
  144.8278  131.8716  150.1687 O   0  0  0  0  0  0  0  0  0  0  0  0
  144.2683  132.7050  151.1708 C   0  0  0  0  0  0  0  0  0  0  0  0
  145.1519  133.9433  151.3897 C   0  0  0  0  0  0  0  0  0  0  0  0
  144.4300  135.1787  151.7040 N   0  0  0  0  0  0  0  0  0  0  0  0
  143.3235  134.9715  152.6232 C   0  0  0  0  0  0  0  0  0  0  0  0
  142.9658  136.3466  153.1891 C   0  0  0  0  0  0  0  0  0  0  0  0
  144.2203  137.1890  152.9309 C   0  0  0  0  0  0  0  0  0  0  0  0
  145.2440  136.1909  152.3715 C   0  0  2  0  0  0  0  0  0  0  0  0
  146.2973  136.8923  151.4880 C   0  0  0  0  0  0  0  0  0  0  0  0
  146.7624  138.1323  152.0992 N   0  0  0  0  0  0  0  0  0  0  0  0
  147.1428  138.2769  153.3768 C   0  0  0  0  0  0  0  0  0  0  0  0
  147.1966  137.3453  154.1804 O   0  0  0  0  0  0  0  0  0  0  0  0
  147.5319  139.6977  153.8048 C   0  0  0  0  0  0  0  0  0  0  0  0
  148.8781  139.7642  154.3871 N   0  0  0  0  0  0  0  0  0  0  0  0
  149.7599  138.7161  154.1968 C   0  0  0  0  0  0  0  0  0  0  0  0
  151.0074  138.6892  154.7143 C   0  0  0  0  0  0  0  0  0  0  0  0
  151.5072  139.7952  155.5220 C   0  0  0  0  0  0  0  0  0  0  0  0
  152.6282  139.8010  156.0319 O   0  0  0  0  0  0  0  0  0  0  0  0
  150.5919  140.8625  155.6862 N   0  0  0  0  0  0  0  0  0  0  0  0
  150.9951  141.9966  156.4919 C   0  0  0  0  0  0  0  0  0  0  0  0
  149.2821  140.8775  155.1558 C   0  0  0  0  0  0  0  0  0  0  0  0
  148.5080  141.8173  155.3551 O   0  0  0  0  0  0  0  0  0  0  0  0
  144.8446  131.5479  148.1374 H   0  0  0  0  0  0  0  0  0  0  0  0
  144.6520  133.2359  148.6117 H   0  0  0  0  0  0  0  0  0  0  0  0
  143.2995  132.1016  148.7827 H   0  0  0  0  0  0  0  0  0  0  0  0
  143.2761  133.0262  150.8499 H   0  0  0  0  0  0  0  0  0  0  0  0
  144.1439  132.1587  152.1072 H   0  0  0  0  0  0  0  0  0  0  0  0
  145.9048  133.7348  152.1511 H   0  0  0  0  0  0  0  0  0  0  0  0
  145.6963  134.0903  150.4598 H   0  0  0  0  0  0  0  0  0  0  0  0
  142.4720  134.5041  152.1281 H   0  0  0  0  0  0  0  0  0  0  0  0
  143.6343  134.3173  153.4399 H   0  0  0  0  0  0  0  0  0  0  0  0
  142.1067  136.7727  152.6697 H   0  0  0  0  0  0  0  0  0  0  0  0
  142.7224  136.2857  154.2501 H   0  0  0  0  0  0  0  0  0  0  0  0
  143.9945  137.9635  152.1959 H   0  0  0  0  0  0  0  0  0  0  0  0
  144.5827  137.6825  153.8332 H   0  0  0  0  0  0  0  0  0  0  0  0
  145.7440  135.7352  153.2288 H   0  0  0  0  0  0  0  0  0  0  0  0
  147.1148  136.2065  151.2583 H   0  0  0  0  0  0  0  0  0  0  0  0
  145.8503  137.1682  150.5323 H   0  0  0  0  0  0  0  0  0  0  0  0
  146.7569  138.9547  151.5135 H   0  0  0  0  0  0  0  0  0  0  0  0
  147.4690  140.3449  152.9291 H   0  0  0  0  0  0  0  0  0  0  0  0
  146.8013  140.0899  154.5149 H   0  0  0  0  0  0  0  0  0  0  0  0
  149.4350  137.8695  153.6097 H   0  0  0  0  0  0  0  0  0  0  0  0
  151.6432  137.8352  154.5321 H   0  0  0  0  0  0  0  0  0  0  0  0
  150.5930  142.9078  156.0456 H   0  0  0  0  0  0  0  0  0  0  0  0
  152.0822  142.0807  156.5081 H   0  0  0  0  0  0  0  0  0  0  0  0
  150.5950  141.8314  157.4933 H   0  0  0  0  0  0  0  0  0  0  0  0
  1  2  1  0  0  0  0
  1 24  1  0  0  0  0
  1 25  1  0  0  0  0
  1 26  1  0  0  0  0
  2  3  1  0  0  0  0
  3  4  1  0  0  0  0
  3 27  1  0  0  0  0
  3 28  1  0  0  0  0
  4  5  1  0  0  0  0
  4 29  1  0  0  0  0
  4 30  1  0  0  0  0
  5  9  1  0  0  0  0
  5  6  1  0  0  0  0
  6  7  1  0  0  0  0
  6 31  1  0  0  0  0
  6 32  1  0  0  0  0
  7  8  1  0  0  0  0
  7 33  1  0  0  0  0
  7 34  1  0  0  0  0
  8  9  1  0  0  0  0
  8 35  1  0  0  0  0
  8 36  1  0  0  0  0
  9 10  1  0  0  0  0
  9 37  1  0  0  0  0
 10 11  1  0  0  0  0
 10 38  1  0  0  0  0
 10 39  1  0  0  0  0
 11 12  1  0  0  0  0
 11 40  1  0  0  0  0
 12 13  2  0  0  0  0
 12 14  1  0  0  0  0
 14 15  1  0  0  0  0
 14 41  1  0  0  0  0
 14 42  1  0  0  0  0
 15 22  1  0  0  0  0
 15 16  1  0  0  0  0
 16 17  2  0  0  0  0
 16 43  1  0  0  0  0
 17 18  1  0  0  0  0
 17 44  1  0  0  0  0
 18 19  2  0  0  0  0
 18 20  1  0  0  0  0
 20 21  1  0  0  0  0
 20 22  1  0  0  0  0
 21 45  1  0  0  0  0
 21 46  1  0  0  0  0
 21 47  1  0  0  0  0
 22 23  2  0  0  0  0
M  END
> <s_m_source_file>
AV-unprocessed.smi

> <i_m_source_file_index>
1088

> <i_lp_mmshare_version>
43012

> <i_f3d_flags>
0

> <s_epik_input>
W0NIM11PW0NIMl1bQ0gyXU4xW0NIMl1bQ0gyXVtDSDJdW0NASF0xW0NIMl1bTkhdQyg9TylbQ0gyXW4yW2NIXVtjSF1jKD1PKW4oW0NIM10pYzI9Tw==

> <s_epik_cmdline>
J2VwaWtfcHl0aG9uJywgJy1waCcsICc3LjAnLCAnLXRuJywgJzgnLCAnLW1hJywgJzIwMCcsICctbWV0YWxfYmluZGluZycsICctaW1hZScsICc8aW5maWxlLm1hZT4nLCAnLW9tYWUnLCAnPG91dGZpbGUubWFlPic=

> <r_lp_tautomer_probability>
1

> <r_epik_Ionization_Penalty>
2.28131

> <r_epik_Ionization_Penalty_Charging>
1.22971e-08

> <r_epik_Ionization_Penalty_Neutral>
2.28131

> <r_epik_State_Penalty>
2.43063

> <r_epik_Charging_Adjusted_Penalty>
2.43063

> <i_epik_Tot_Q>
0

> <i_epik_Tot_abs_Q>
0

> <r_epik_Metal_State_Penalty>
2.43056

> <b_epik_Metal_Only>
0

> <s_lp_Force_Field>
OPLS_2005

> <r_lp_Energy>
54.0247

> <b_lp_Chiralities_Consistent>
1

> <s_lp_Variant>
AV-unprocessed.smi:1088-6

> <Gold.Version>
5.8.1

> <Gold.Id.Protein>
6NUR|6NUR_protein|mol2

> <Gold.PLP.Fitness>
44.8596

> <Gold.PLP.PLP>
-40.9093

> <Gold.PLP.part.hbond>
-1.3971

> <Gold.PLP.part.metal>
0.0000

> <Gold.PLP.part.buried>
-3.3295

> <Gold.PLP.part.nonpolar>
-36.8063

> <Gold.PLP.part.repulsive>
1.2681

> <Gold.PLP.ligand.clash>
0.0000

> <Gold.PLP.ligand.torsion>
1.0600

> <Gold.PLP.Chemscore.Hbond>
1.0000

> <Gold.PLP.Chemscore.CHOScore>
1.0000

> <Gold.PLP.Chemscore.Metal>
0.0000

> <Gold.Chemscore.Hbonds>
donor molecule, donor type, donor heavy atom, donor atom, acceptor molecule, acceptor atom, score
      P1  H  7997  8008       L1    19  1.00
      L1  C    16    43       P1  7948  1.00

> <Gold.PLP.Chemscore.Internal.Correction>
0.0702

> <Gold.Rescore>
     Score         DG    S(hbond)    S(metal)    S(lipo)     H(rot)  DE(clash)    DE(int)     intcor
      8.56     -11.49       1.00        0.00      77.39       2.49       0.51       2.41       ----

> <Gold.Chemscore.Fitness>
8.5645

> <Gold.Chemscore.DG>
-11.4909

> <Gold.Chemscore.ZeroCoef>
-5.4800

> <Gold.Chemscore.Hbond>
1.0000

> <Gold.Chemscore.Metal>
0.0000

> <Gold.Chemscore.Lipo>
77.3936

> <Gold.Chemscore.Internal_Hbond>
0.0000

> <Gold.Chemscore.DEClash>
0.5134

> <Gold.Chemscore.DEInternal>
2.4130

> <Gold.Chemscore.Rot>
2.4938

> <Gold.Chemscore.Internal.Correction>
   9.000000E+99

> <Gold.Chemscore.Hbonds>
donor molecule, donor type, donor heavy atom, donor atom, acceptor molecule, acceptor atom, score
      P1  H  7997  8008       L1    19  1.00

> <Gold.Chemscore.Hbond.Weighted>
-3.3399

> <Gold.Chemscore.Metal.Weighted>
-0.0000

> <Gold.Chemscore.Lipo.Weighted>
-9.0551

> <Gold.Chemscore.Internal_Hbond.Weighted>
0.0000

> <Gold.Chemscore.DEClash.Weighted>
0.5134

> <Gold.Chemscore.DEInternal.Weighted>
2.4130

> <Gold.Chemscore.Rot.Weighted>
6.3841

> <Gold.Chemscore.Internal.Correction.Weighted>
   9.000000E+99

> <Gold.Protein.RotatedTorsions>
[ 6907 6896 6895 6894 ] final -103.66 input  -60.11 | X-H torsion
[ 7974 7965 7964 7962 ] final  141.09 input  175.53 | X-H torsion
[ 8008 7997 7996 7995 ] final  -30.85 input   59.86 | X-H torsion
[ 10167 10162 10161 10158 ] final  -18.44 input  -65.29 | X-H torsion
[ 10718 10713 10712 10709 ] final  -95.29 input   66.30 | X-H torsion
[ 10763 10752 10751 10750 ] final  -84.75 input  -60.55 | X-H torsion
[ 11005 11000 10999 10996 ] final   61.33 input  -57.11 | X-H torsion

> <Gold.Protein.ActiveResidues>
 VAL166  LYS551  ARG553  GLY616  TRP617  ASP618  TYR619  PRO620  LYS621  CYS622 
 ASP623  PHE694  ASN695  SER759  ASP760  ASP761  ALA762  ILE779  LEU786  VAL792 
 PHE793  MET794  SER795  GLU796  ALA797  LYS798  CYS799  TRP800  GLU811  SER814 

> <Gold.Protein.RotatedAtoms>
  150.7250  134.0396  159.3760 H   0  0  0  0  0  0  0  0  0  0  0  0  # atno 6907 bound_to 6896
  151.8369  135.0601  160.0453 H   0  0  0  0  0  0  0  0  0  0  0  0  # atno 6908 bound_to 6896
  152.2892  133.5508  159.5583 H   0  0  0  0  0  0  0  0  0  0  0  0  # atno 6909 bound_to 6896
  144.9128  139.5270  143.5700 H   0  0  0  0  0  0  0  0  0  0  0  0  # atno 7974 bound_to 7965
  154.4235  140.1780  156.1473 H   0  0  0  0  0  0  0  0  0  0  0  0  # atno 8008 bound_to 7997
  155.9943  140.3366  155.6759 H   0  0  0  0  0  0  0  0  0  0  0  0  # atno 8009 bound_to 7997
  155.6330  140.0672  157.2634 H   0  0  0  0  0  0  0  0  0  0  0  0  # atno 8010 bound_to 7997
  140.7258  143.4916  150.9985 H   0  0  0  0  0  0  0  0  0  0  0  0  # atno 10167 bound_to 10162
  156.0041  130.5103  150.6055 H   0  0  0  0  0  0  0  0  0  0  0  0  # atno 10718 bound_to 10713
  154.6031  135.5509  153.7395 H   0  0  0  0  0  0  0  0  0  0  0  0  # atno 10763 bound_to 10752
  153.0163  135.6371  154.1686 H   0  0  0  0  0  0  0  0  0  0  0  0  # atno 10764 bound_to 10752
  154.1625  135.2896  155.3084 H   0  0  0  0  0  0  0  0  0  0  0  0  # atno 10765 bound_to 10752
  140.0169  134.6211  155.9697 H   0  0  0  0  0  0  0  0  0  0  0  0  # atno 11005 bound_to 11000
  146.3167  139.7947  142.8978 LP  0  0  0  0  0  0  0  0  0  0  0  0  # atno 17320 bound_to 7965
  145.3426  141.0291  143.3384 LP  0  0  0  0  0  0  0  0  0  0  0  0  # atno 17321 bound_to 7965
  139.8620  143.7302  152.3172 LP  0  0  0  0  0  0  0  0  0  0  0  0  # atno 17342 bound_to 10162
  139.7521  144.7531  151.0491 LP  0  0  0  0  0  0  0  0  0  0  0  0  # atno 17343 bound_to 10162
  157.3896  131.0793  151.1405 LP  0  0  0  0  0  0  0  0  0  0  0  0  # atno 17370 bound_to 10713
  157.2101  130.6434  149.5771 LP  0  0  0  0  0  0  0  0  0  0  0  0  # atno 17371 bound_to 10713
  141.1748  133.6539  156.4789 LP  0  0  0  0  0  0  0  0  0  0  0  0  # atno 17394 bound_to 11000
  140.4455  134.6976  157.5013 LP  0  0  0  0  0  0  0  0  0  0  0  0  # atno 17395 bound_to 11000

$$$$
