AV-unprocessed.smi:2451|AV-procd|sdf|9672|dock7
  -GOLD-   2272013313D 1   1.00000     0.00000
 Structure written by MMmdl.
 38 39  0  0  0  0  0  0  0  0  1 V2000
  152.0601  143.5040  161.0425 C   0  0  0  0  0  0  0  0  0  0  0  0
  153.0875  143.1859  159.9363 C   0  0  1  0  0  0  0  0  0  0  0  0
  153.7314  141.8005  160.1453 C   0  0  0  0  0  0  0  0  0  0  0  0
  152.7568  140.6553  159.8296 C   0  0  0  0  0  0  0  0  0  0  0  0
  152.2111  140.7760  158.4005 C   0  0  0  0  0  0  0  0  0  0  0  0
  151.5671  142.1519  158.1435 C   0  0  2  0  0  0  0  0  0  0  0  0
  151.1748  142.2278  156.7329 N   0  0  0  0  0  0  0  0  0  0  0  0
  150.3441  140.8905  156.0294 S   0  0  0  0  0  0  0  0  0  0  0  0
  151.2408  140.2878  155.0314 O   0  0  0  0  0  0  0  0  0  0  0  0
  149.8104  140.0699  157.1279 O   0  0  0  0  0  0  0  0  0  0  0  0
  148.9351  141.7056  155.1671 C   0  0  0  0  0  0  0  0  0  0  0  0
  148.2429  140.7100  154.2811 C   0  0  0  0  0  0  0  0  0  0  0  0
  148.5318  139.3275  154.1114 C   0  0  0  0  0  0  0  0  0  0  0  0
  147.6009  138.9168  153.2014 C   0  0  0  0  0  0  0  0  0  0  0  0
  146.8007  139.9518  152.8408 O   0  0  0  0  0  0  0  0  0  0  0  0
  147.2175  141.0923  153.5366 N   0  0  0  0  0  0  0  0  0  0  0  0
  152.5298  143.3152  158.4926 C   0  0  1  0  0  0  0  0  0  0  0  0
  151.9027  144.7000  158.2359 C   0  0  0  0  0  0  0  0  0  0  0  0
  151.1780  142.8674  160.9809 H   0  0  0  0  0  0  0  0  0  0  0  0
  151.7243  144.5395  160.9929 H   0  0  0  0  0  0  0  0  0  0  0  0
  152.4975  143.3619  162.0310 H   0  0  0  0  0  0  0  0  0  0  0  0
  153.8854  143.9220  160.0430 H   0  0  0  0  0  0  0  0  0  0  0  0
  154.6065  141.7103  159.5004 H   0  0  0  0  0  0  0  0  0  0  0  0
  154.1004  141.7056  161.1672 H   0  0  0  0  0  0  0  0  0  0  0  0
  153.2623  139.6970  159.9513 H   0  0  0  0  0  0  0  0  0  0  0  0
  151.9316  140.6566  160.5422 H   0  0  0  0  0  0  0  0  0  0  0  0
  153.0278  140.6150  157.6950 H   0  0  0  0  0  0  0  0  0  0  0  0
  151.4856  139.9826  158.2164 H   0  0  0  0  0  0  0  0  0  0  0  0
  150.6728  142.2369  158.7619 H   0  0  0  0  0  0  0  0  0  0  0  0
  151.9527  142.5320  156.1480 H   0  0  0  0  0  0  0  0  0  0  0  0
  148.2513  142.0947  155.9212 H   0  0  0  0  0  0  0  0  0  0  0  0
  149.3203  142.5518  154.5976 H   0  0  0  0  0  0  0  0  0  0  0  0
  149.3028  138.7337  154.5796 H   0  0  0  0  0  0  0  0  0  0  0  0
  147.3883  137.9665  152.7342 H   0  0  0  0  0  0  0  0  0  0  0  0
  153.3873  143.2347  157.8222 H   0  0  0  0  0  0  0  0  0  0  0  0
  150.9645  144.8238  158.7774 H   0  0  0  0  0  0  0  0  0  0  0  0
  151.6865  144.8493  157.1779 H   0  0  0  0  0  0  0  0  0  0  0  0
  152.5764  145.5002  158.5428 H   0  0  0  0  0  0  0  0  0  0  0  0
  1  2  1  0  0  0  0
  1 19  1  0  0  0  0
  1 20  1  0  0  0  0
  1 21  1  0  0  0  0
  2 17  1  0  0  0  0
  2  3  1  0  0  0  0
  2 22  1  0  0  0  0
  3  4  1  0  0  0  0
  3 23  1  0  0  0  0
  3 24  1  0  0  0  0
  4  5  1  0  0  0  0
  4 25  1  0  0  0  0
  4 26  1  0  0  0  0
  5  6  1  0  0  0  0
  5 27  1  0  0  0  0
  5 28  1  0  0  0  0
  6  7  1  0  0  0  0
  6 17  1  0  0  0  0
  6 29  1  0  0  0  0
  7  8  1  0  0  0  0
  7 30  1  0  0  0  0
  8  9  2  0  0  0  0
  8 10  2  0  0  0  0
  8 11  1  0  0  0  0
 11 12  1  0  0  0  0
 11 31  1  0  0  0  0
 11 32  1  0  0  0  0
 12 16  2  0  0  0  0
 12 13  1  0  0  0  0
 13 14  2  0  0  0  0
 13 33  1  0  0  0  0
 14 15  1  0  0  0  0
 14 34  1  0  0  0  0
 15 16  1  0  0  0  0
 17 18  1  0  0  0  0
 17 35  1  0  0  0  0
 18 36  1  0  0  0  0
 18 37  1  0  0  0  0
 18 38  1  0  0  0  0
M  END
> <s_m_source_file>
AV-unprocessed.smi

> <i_m_source_file_index>
2451

> <i_lp_mmshare_version>
43012

> <i_f3d_flags>
0

> <s_epik_input>
W0NIM11bQ0BASF0xW0NIMl1bQ0gyXVtDSDJdW0NASF0oW0NASF0xW0NIM10pW05IXVMoPU8pKD1PKVtDSDJdYzJbY0hdW2NIXW9uMg==

> <s_epik_cmdline>
J2VwaWtfcHl0aG9uJywgJy1waCcsICc3LjAnLCAnLXRuJywgJzgnLCAnLW1hJywgJzIwMCcsICctbWV0YWxfYmluZGluZycsICctaW1hZScsICc8aW5maWxlLm1hZT4nLCAnLW9tYWUnLCAnPG91dGZpbGUubWFlPic=

> <r_lp_tautomer_probability>
1

> <r_epik_Ionization_Penalty>
8.73668e-05

> <r_epik_Ionization_Penalty_Charging>
0

> <r_epik_Ionization_Penalty_Neutral>
8.73668e-05

> <r_epik_State_Penalty>
-0

> <r_epik_Charging_Adjusted_Penalty>
0

> <i_epik_Tot_Q>
0

> <i_epik_Tot_abs_Q>
0

> <r_epik_Metal_State_Penalty>
0.0716439

> <b_epik_Metal_Only>
0

> <s_lp_Force_Field>
OPLS_2005

> <r_lp_Energy>
8.38809

> <b_lp_Chiralities_Consistent>
1

> <s_lp_Variant>
AV-unprocessed.smi:2451-4

> <Gold.Version>
5.8.1

> <Gold.Id.Protein>
6NUR|6NUR_protein|mol2

> <Gold.PLP.Fitness>
41.7850

> <Gold.PLP.PLP>
-36.5823

> <Gold.PLP.part.hbond>
-1.0000

> <Gold.PLP.part.metal>
0.0000

> <Gold.PLP.part.buried>
-1.2382

> <Gold.PLP.part.nonpolar>
-33.9379

> <Gold.PLP.part.repulsive>
0.4733

> <Gold.PLP.ligand.clash>
0.0000

> <Gold.PLP.ligand.torsion>
0.4667

> <Gold.PLP.Chemscore.Hbond>
1.0000

> <Gold.PLP.Chemscore.CHOScore>
0.9997

> <Gold.PLP.Chemscore.Metal>
0.0000

> <Gold.Chemscore.Hbonds>
donor molecule, donor type, donor heavy atom, donor atom, acceptor molecule, acceptor atom, score
      P1  H  7989  7998       L1     9  1.00
      L1  C    14    34       P1  7948  0.99

> <Gold.PLP.Chemscore.Internal.Correction>
0.1368

> <Gold.Rescore>
     Score         DG    S(hbond)    S(metal)    S(lipo)     H(rot)  DE(clash)    DE(int)     intcor
     15.50     -17.38       0.97        0.00     110.17       1.66       0.02       1.85       ----

> <Gold.Chemscore.Fitness>
15.5025

> <Gold.Chemscore.DG>
-17.3779

> <Gold.Chemscore.ZeroCoef>
-5.4800

> <Gold.Chemscore.Hbond>
0.9744

> <Gold.Chemscore.Metal>
0.0000

> <Gold.Chemscore.Lipo>
110.1723

> <Gold.Chemscore.Internal_Hbond>
0.0000

> <Gold.Chemscore.DEClash>
0.0237

> <Gold.Chemscore.DEInternal>
1.8518

> <Gold.Chemscore.Rot>
1.6588

> <Gold.Chemscore.Internal.Correction>
   9.000000E+99

> <Gold.Chemscore.Hbonds>
donor molecule, donor type, donor heavy atom, donor atom, acceptor molecule, acceptor atom, score
      P1  H  7989  7998       L1     9  0.97

> <Gold.Chemscore.Hbond.Weighted>
-3.2543

> <Gold.Chemscore.Metal.Weighted>
-0.0000

> <Gold.Chemscore.Lipo.Weighted>
-12.8902

> <Gold.Chemscore.Internal_Hbond.Weighted>
0.0000

> <Gold.Chemscore.DEClash.Weighted>
0.0237

> <Gold.Chemscore.DEInternal.Weighted>
1.8518

> <Gold.Chemscore.Rot.Weighted>
4.2466

> <Gold.Chemscore.Internal.Correction.Weighted>
   9.000000E+99

> <Gold.Protein.RotatedTorsions>
[ 6907 6896 6895 6894 ] final  -25.18 input  -60.11 | X-H torsion
[ 7974 7965 7964 7962 ] final -144.78 input  175.53 | X-H torsion
[ 8008 7997 7996 7995 ] final   90.68 input   59.86 | X-H torsion
[ 10167 10162 10161 10158 ] final  172.01 input  -65.29 | X-H torsion
[ 10718 10713 10712 10709 ] final -139.84 input   66.30 | X-H torsion
[ 10763 10752 10751 10750 ] final   -3.37 input  -60.55 | X-H torsion
[ 11005 11000 10999 10996 ] final   40.93 input  -57.11 | X-H torsion

> <Gold.Protein.ActiveResidues>
 VAL166  LYS551  ARG553  GLY616  TRP617  ASP618  TYR619  PRO620  LYS621  CYS622 
 ASP623  PHE694  ASN695  SER759  ASP760  ASP761  ALA762  ILE779  LEU786  VAL792 
 PHE793  MET794  SER795  GLU796  ALA797  LYS798  CYS799  TRP800  GLU811  SER814 

> <Gold.Protein.RotatedAtoms>
  151.1788  135.0351  159.8783 H   0  0  0  0  0  0  0  0  0  0  0  0  # atno 6907 bound_to 6896
  152.5446  134.1086  159.8359 H   0  0  0  0  0  0  0  0  0  0  0  0  # atno 6908 bound_to 6896
  151.1201  133.5063  159.2634 H   0  0  0  0  0  0  0  0  0  0  0  0  # atno 6909 bound_to 6896
  144.8273  140.5666  143.5538 H   0  0  0  0  0  0  0  0  0  0  0  0  # atno 7974 bound_to 7965
  156.0148  140.3346  155.6978 H   0  0  0  0  0  0  0  0  0  0  0  0  # atno 8008 bound_to 7997
  155.6106  140.0665  157.2725 H   0  0  0  0  0  0  0  0  0  0  0  0  # atno 8009 bound_to 7997
  154.4294  140.1794  156.1256 H   0  0  0  0  0  0  0  0  0  0  0  0  # atno 8010 bound_to 7997
  139.5063  144.3422  152.0007 H   0  0  0  0  0  0  0  0  0  0  0  0  # atno 10167 bound_to 10162
  156.3154  130.7505  151.1590 H   0  0  0  0  0  0  0  0  0  0  0  0  # atno 10718 bound_to 10713
  153.3705  135.6994  153.6641 H   0  0  0  0  0  0  0  0  0  0  0  0  # atno 10763 bound_to 10752
  153.5293  135.3595  155.2669 H   0  0  0  0  0  0  0  0  0  0  0  0  # atno 10764 bound_to 10752
  154.8680  135.4177  154.2982 H   0  0  0  0  0  0  0  0  0  0  0  0  # atno 10765 bound_to 10752
  140.1883  134.4018  155.8161 H   0  0  0  0  0  0  0  0  0  0  0  0  # atno 11005 bound_to 11000
  145.4972  139.1485  143.3677 LP  0  0  0  0  0  0  0  0  0  0  0  0  # atno 17320 bound_to 7965
  146.2578  140.5111  142.8866 LP  0  0  0  0  0  0  0  0  0  0  0  0  # atno 17321 bound_to 7965
  140.2860  144.3807  150.6104 LP  0  0  0  0  0  0  0  0  0  0  0  0  # atno 17342 bound_to 10162
  140.5983  143.2167  151.7122 LP  0  0  0  0  0  0  0  0  0  0  0  0  # atno 17343 bound_to 10162
  157.7400  131.0522  150.5193 LP  0  0  0  0  0  0  0  0  0  0  0  0  # atno 17370 bound_to 10713
  156.5338  130.4191  149.6188 LP  0  0  0  0  0  0  0  0  0  0  0  0  # atno 17371 bound_to 10713
  141.2225  133.7034  156.8051 LP  0  0  0  0  0  0  0  0  0  0  0  0  # atno 17394 bound_to 11000
  140.2189  134.8772  157.3355 LP  0  0  0  0  0  0  0  0  0  0  0  0  # atno 17395 bound_to 11000

$$$$
