#       Name:                AV-unprocessed.smi:47
#       Creating user name   scv26
#       Creation time:       Thu Mar 26 16:30:51 2020


#       File generated by GOLD software.
#

@<TRIPOS>MOLECULE
AV-unprocessed.smi:47
    36    38     1
SMALL
NO_CHARGES


@<TRIPOS>ATOM
      1 ****        -4.5665  -0.7064   1.8713 O.3            1 S1                 0.0000
      2 ****        -4.0339  -0.7749   0.5658 C.3            1 S1                 0.0000
      3 ****        -3.7119   0.6025  -0.0067 C.3            1 S1                 0.0000
      4 ****        -2.7009   0.3775  -1.0375 N.3            1 S1                 0.0000
      5 ****        -2.0880  -0.9363  -0.8013 C.3            1 S1                 0.0000
      6 ****        -0.5907  -0.9121  -0.7890 C.2            1 S1                 0.0000
      7 ****         0.1084  -1.9579  -1.2182 N.2            1 S1                 0.0000
      8 ****         1.3761  -1.5495  -1.0054 N.pl3          1 S1                 0.0000
      9 ****         1.3862  -0.3265  -0.4601 C.2            1 S1                 0.0000
     10 ****         2.5959   0.4158  -0.0988 C.ar           1 S1                 0.0000
     11 ****         3.8742  -0.0994  -0.4159 C.ar           1 S1                 0.0000
     12 ****         5.0381   0.6137  -0.0686 C.ar           1 S1                 0.0000
     13 ****         4.9365   1.8475   0.6008 C.ar           1 S1                 0.0000
     14 ****         3.6691   2.3679   0.9225 C.ar           1 S1                 0.0000
     15 ****         2.5044   1.6562   0.5746 C.ar           1 S1                 0.0000
     16 ****         0.1442   0.1266  -0.2882 N.2            1 S1                 0.0000
     17 ****        -2.6788  -1.4645   0.5127 C.3            1 S1                 0.0000
     18 ****        -4.7394  -1.2926  -0.0857 H              1 S1                 0.0000
     19 ****        -2.4091  -1.6029  -1.6032 H              1 S1                 0.0000
     20 ****         2.1789  -2.1190  -1.2312 H              1 S1                 0.0000
     21 ****        -5.3843  -0.2339   1.8377 H              1 S1                 0.0000
     22 ****        -4.5922   1.1093  -0.4031 H              1 S1                 0.0000
     23 ****        -3.2905   1.2359   0.7753 H              1 S1                 0.0000
     24 ****        -3.1610   0.3577  -1.9417 H              1 S1                 0.0000
     25 ****         3.9758  -1.0438  -0.9299 H              1 S1                 0.0000
     26 ****         6.0101   0.2133  -0.3165 H              1 S1                 0.0000
     27 ****         5.8292   2.3942   0.8670 H              1 S1                 0.0000
     28 ****         3.5890   3.3139   1.4372 H              1 S1                 0.0000
     29 ****         1.5416   2.0732   0.8315 H              1 S1                 0.0000
     30 ****        -2.0701  -1.1344   1.3568 H              1 S1                 0.0000
     31 ****        -2.7394  -2.5526   0.5480 H              1 S1                 0.0000
     32 ****        -3.9256  -0.2288   2.4723 LP             1 S1                 0.0000
     33 ****        -4.7250  -1.6302   2.2197 LP             1 S1                 0.0000
     34 ****        -2.0094   1.0995  -1.0139 LP             1 S1                 0.0000
     35 ****        -0.2199  -2.8221  -1.5995 LP             1 S1                 0.0000
     36 ****        -0.1665   0.9933   0.1021 LP             1 S1                 0.0000
@<TRIPOS>BOND
    1    1    2 1     
    2    1   21 1     
    3    2   18 1     
    4    2   17 1     
    5    2    3 1     
    6    3    4 1     
    7    3   22 1     
    8    3   23 1     
    9    4    5 1     
   10    4   24 1     
   11    5   19 1     
   12    5    6 1     
   13    5   17 1     
   14    6   16 1     
   15    6    7 2     
   16    7    8 1     
   17    8   20 1     
   18    8    9 1     
   19    9   10 1     
   20    9   16 2     
   21   10   15 ar    
   22   10   11 ar    
   23   11   12 ar    
   24   11   25 1     
   25   12   13 ar    
   26   12   26 1     
   27   13   14 ar    
   28   13   27 1     
   29   14   15 ar    
   30   14   28 1     
   31   15   29 1     
   32   17   30 1     
   33   17   31 1     
   34    1   32 1     
   35    1   33 1     
   36    4   34 1     
   37    7   35 1     
   38   16   36 1     
@<TRIPOS>SUBSTRUCTURE
      1 S1             1
@<TRIPOS>SET
LONE_PAIRS      STATIC     ATOMS    <user>   **** ""
5 32 33 34 35 36
DONOR_HYDROGENS      STATIC     ATOMS    <user>   **** ""
3 21 24 20
ATOM$BLUE        STATIC     ATOMS    COLORGROUP SYSTEM
5 32 33 34 35 36
ATOM$RED        STATIC     ATOMS    COLORGROUP SYSTEM
3 21 24 20
