AV-unprocessed.smi:59|AV-procd|sdf|588|dock3
  -GOLD-   2262016483D 1   1.00000     0.00000
 Structure written by MMmdl.
 29 30  0  0  0  0  0  0  0  0  2 V2000
  150.0273  142.1791  157.2654 C   0  0  0  0  0  0  0  0  0  0  0  0
  150.1284  140.9251  156.5232 N   0  0  0  0  0  0  0  0  0  0  0  0
  149.8560  140.7903  155.2190 C   0  0  0  0  0  0  0  0  0  0  0  0
  149.5836  141.7022  154.4372 O   0  0  0  0  0  0  0  0  0  0  0  0
  149.8815  139.3222  154.8123 C   0  0  1  0  0  0  0  0  0  0  0  0
  150.4616  139.1592  153.5279 O   0  0  0  0  0  0  0  0  0  0  0  0
  150.5990  138.6419  156.0080 C   0  0  1  0  0  0  0  0  0  0  0  0
  152.0953  138.3593  155.7216 C   0  0  0  0  0  0  0  0  0  0  0  0
  152.5034  137.1789  155.8099 O   0  0  0  0  0  0  0  0  0  0  0  0
  152.8017  139.3415  155.4046 O   0  5  0  0  0  0  0  0  0  0  0  0
  150.3535  139.6380  157.1836 C   0  0  1  0  0  0  0  0  0  0  0  0
  151.4254  139.6503  158.2613 C   0  0  0  0  0  0  0  0  0  0  0  0
  151.9199  138.5273  158.9849 C   0  0  0  0  0  0  0  0  0  0  0  0
  152.8607  138.8449  159.8593 N   0  0  0  0  0  0  0  0  0  0  0  0
  153.0128  140.1767  159.7164 N   0  0  0  0  0  0  0  0  0  0  0  0
  153.9897  140.8748  160.5239 C   0  0  0  0  0  0  0  0  0  0  0  0
  152.1619  140.6895  158.7625 C   0  0  0  0  0  0  0  0  0  0  0  0
  148.8501  138.9719  154.7609 H   0  0  0  0  0  0  0  0  0  0  0  0
  150.1259  137.6858  156.2376 H   0  0  0  0  0  0  0  0  0  0  0  0
  149.3993  139.3731  157.6422 H   0  0  0  0  0  0  0  0  0  0  0  0
  150.9245  142.7796  157.1147 H   0  0  0  0  0  0  0  0  0  0  0  0
  149.9111  141.9982  158.3342 H   0  0  0  0  0  0  0  0  0  0  0  0
  149.1663  142.7629  156.9371 H   0  0  0  0  0  0  0  0  0  0  0  0
  149.8174  139.3950  152.8783 H   0  0  0  0  0  0  0  0  0  0  0  0
  151.6201  137.4932  158.9005 H   0  0  0  0  0  0  0  0  0  0  0  0
  154.0263  141.9267  160.2394 H   0  0  0  0  0  0  0  0  0  0  0  0
  154.9758  140.4339  160.3749 H   0  0  0  0  0  0  0  0  0  0  0  0
  153.7174  140.8006  161.5771 H   0  0  0  0  0  0  0  0  0  0  0  0
  152.1548  141.7402  158.5129 H   0  0  0  0  0  0  0  0  0  0  0  0
  1  2  1  0  0  0  0
  1 21  1  0  0  0  0
  1 22  1  0  0  0  0
  1 23  1  0  0  0  0
  2 11  1  0  0  0  0
  2  3  1  0  0  0  0
  3  4  2  0  0  0  0
  3  5  1  0  0  0  0
  5 18  1  0  0  0  0
  5  6  1  0  0  0  0
  5  7  1  0  0  0  0
  6 24  1  0  0  0  0
  7 19  1  0  0  0  0
  7  8  1  0  0  0  0
  7 11  1  0  0  0  0
  8  9  2  0  0  0  0
  8 10  1  0  0  0  0
 11 20  1  0  0  0  0
 11 12  1  0  0  0  0
 12 17  2  0  0  0  0
 12 13  1  0  0  0  0
 13 14  2  0  0  0  0
 13 25  1  0  0  0  0
 14 15  1  0  0  0  0
 15 16  1  0  0  0  0
 15 17  1  0  0  0  0
 16 26  1  0  0  0  0
 16 27  1  0  0  0  0
 16 28  1  0  0  0  0
 17 29  1  0  0  0  0
M  CHG  1  10  -1
M  END
> <s_m_source_file>
AV-unprocessed.smi

> <i_m_source_file_index>
59

> <i_lp_mmshare_version>
43012

> <i_f3d_flags>
0

> <s_epik_input>
W0NIM11OMUMoPU8pW0NASF0oW09IXSlbQ0BIXShDKD1PKVtPSF0pW0NASF0xYzJbY0hdbm4oW0NIM10pW2NIXTI=

> <s_epik_cmdline>
J2VwaWtfcHl0aG9uJywgJy1waCcsICc3LjAnLCAnLXRuJywgJzgnLCAnLW1hJywgJzIwMCcsICctbWV0YWxfYmluZGluZycsICctaW1hZScsICc8aW5maWxlLm1hZT4nLCAnLW9tYWUnLCAnPG91dGZpbGUubWFlPic=

> <r_lp_tautomer_probability>
1

> <r_epik_Ionization_Penalty>
0.00173515

> <r_epik_Ionization_Penalty_Charging>
0.00120567

> <r_epik_Ionization_Penalty_Neutral>
0.000529476

> <r_epik_State_Penalty>
-0

> <r_epik_Charging_Adjusted_Penalty>
0.00120567

> <i_epik_Tot_Q>
-1

> <i_epik_Tot_abs_Q>
1

> <r_epik_Metal_State_Penalty>
-0

> <b_epik_Metal_Only>
0

> <s_lp_Force_Field>
OPLS_2005

> <r_lp_Energy>
6.9214

> <b_lp_Chiralities_Consistent>
1

> <s_lp_Variant>
AV-unprocessed.smi:59-4

> <Gold.Version>
5.8.1

> <Gold.Id.Protein>
6NUR|6NUR_protein|mol2

> <Gold.PLP.Fitness>
41.4668

> <Gold.PLP.PLP>
-25.2739

> <Gold.PLP.part.hbond>
-6.0000

> <Gold.PLP.part.metal>
0.0000

> <Gold.PLP.part.buried>
-0.4234

> <Gold.PLP.part.nonpolar>
-19.1265

> <Gold.PLP.part.repulsive>
0.2061

> <Gold.PLP.ligand.clash>
0.0000

> <Gold.PLP.ligand.torsion>
0.0650

> <Gold.PLP.Chemscore.Hbond>
5.4362

> <Gold.PLP.Chemscore.CHOScore>
0.0000

> <Gold.PLP.Chemscore.Metal>
0.0000

> <Gold.Chemscore.Hbonds>
donor molecule, donor type, donor heavy atom, donor atom, acceptor molecule, acceptor atom, score
      L1  H     6    24       P1  7957  0.86
      P1  H  7989  7998       L1     6  0.77
      P1  H  7997  8008       L1    10  2.00
      P1  H  8011  8017       L1     4  0.24
      P1  H 10752 10765       L1     9  1.54

> <Gold.PLP.Chemscore.Internal.Correction>
0.0144

> <Gold.Rescore>
     Score         DG    S(hbond)    S(metal)    S(lipo)     H(rot)  DE(clash)    DE(int)     intcor
     13.93     -15.69       3.04        0.00      45.50       2.06       0.30       1.46       ----

> <Gold.Chemscore.Fitness>
13.9274

> <Gold.Chemscore.DG>
-15.6885

> <Gold.Chemscore.ZeroCoef>
-5.4800

> <Gold.Chemscore.Hbond>
3.0445

> <Gold.Chemscore.Metal>
0.0000

> <Gold.Chemscore.Lipo>
45.4998

> <Gold.Chemscore.Internal_Hbond>
0.0000

> <Gold.Chemscore.DEClash>
0.2989

> <Gold.Chemscore.DEInternal>
1.4622

> <Gold.Chemscore.Rot>
2.0639

> <Gold.Chemscore.Internal.Correction>
   9.000000E+99

> <Gold.Chemscore.Hbonds>
donor molecule, donor type, donor heavy atom, donor atom, acceptor molecule, acceptor atom, score
      L1  H     6    24       P1  7957  0.84
      P1  H  7989  7998       L1     6  0.04
      P1  H  7997  8008       L1    10  1.00
      P1  H  8011  8017       L1     4  0.24
      P1  H 10752 10765       L1     9  0.77

> <Gold.Chemscore.Hbond.Weighted>
-10.1687

> <Gold.Chemscore.Metal.Weighted>
-0.0000

> <Gold.Chemscore.Lipo.Weighted>
-5.3235

> <Gold.Chemscore.Internal_Hbond.Weighted>
0.0000

> <Gold.Chemscore.DEClash.Weighted>
0.2989

> <Gold.Chemscore.DEInternal.Weighted>
1.4622

> <Gold.Chemscore.Rot.Weighted>
5.2837

> <Gold.Chemscore.Internal.Correction.Weighted>
   9.000000E+99

> <Gold.Protein.RotatedTorsions>
[ 6907 6896 6895 6894 ] final  -54.17 input  -60.11 | X-H torsion
[ 7974 7965 7964 7962 ] final   56.83 input  175.53 | X-H torsion
[ 8008 7997 7996 7995 ] final  -25.91 input   59.86 | X-H torsion
[ 10167 10162 10161 10158 ] final -122.26 input  -65.29 | X-H torsion
[ 10718 10713 10712 10709 ] final  -87.78 input   66.30 | X-H torsion
[ 10763 10752 10751 10750 ] final -155.38 input  -60.55 | X-H torsion
[ 11005 11000 10999 10996 ] final  -23.75 input  -57.11 | X-H torsion

> <Gold.Protein.ActiveResidues>
 VAL166  LYS551  ARG553  GLY616  TRP617  ASP618  TYR619  PRO620  LYS621  CYS622 
 ASP623  PHE694  ASN695  SER759  ASP760  ASP761  ALA762  ILE779  LEU786  VAL792 
 PHE793  MET794  SER795  GLU796  ALA797  LYS798  CYS799  TRP800  GLU811  SER814 

> <Gold.Protein.RotatedAtoms>
  150.8361  134.7635  159.6893 H   0  0  0  0  0  0  0  0  0  0  0  0  # atno 6907 bound_to 6896
  152.4458  134.5495  159.9872 H   0  0  0  0  0  0  0  0  0  0  0  0  # atno 6908 bound_to 6896
  151.5645  133.3361  159.3013 H   0  0  0  0  0  0  0  0  0  0  0  0  # atno 6909 bound_to 6896
  145.9355  139.3844  143.0395 H   0  0  0  0  0  0  0  0  0  0  0  0  # atno 7974 bound_to 7965
  154.4451  140.1913  156.0693 H   0  0  0  0  0  0  0  0  0  0  0  0  # atno 8008 bound_to 7997
  156.0523  140.3307  155.7339 H   0  0  0  0  0  0  0  0  0  0  0  0  # atno 8009 bound_to 7997
  155.5538  140.0597  157.2835 H   0  0  0  0  0  0  0  0  0  0  0  0  # atno 8010 bound_to 7997
  140.0162  143.5391  152.2241 H   0  0  0  0  0  0  0  0  0  0  0  0  # atno 10167 bound_to 10162
  155.9984  130.4812  150.4918 H   0  0  0  0  0  0  0  0  0  0  0  0  # atno 10718 bound_to 10713
  154.7791  135.3169  154.8028 H   0  0  0  0  0  0  0  0  0  0  0  0  # atno 10763 bound_to 10752
  153.8744  135.6841  153.4776 H   0  0  0  0  0  0  0  0  0  0  0  0  # atno 10764 bound_to 10752
  153.1423  135.4734  154.9450 H   0  0  0  0  0  0  0  0  0  0  0  0  # atno 10765 bound_to 10752
  140.8781  133.7673  156.0268 H   0  0  0  0  0  0  0  0  0  0  0  0  # atno 11005 bound_to 11000
  145.8369  140.9601  143.0820 LP  0  0  0  0  0  0  0  0  0  0  0  0  # atno 17320 bound_to 7965
  144.6771  140.0234  143.7483 LP  0  0  0  0  0  0  0  0  0  0  0  0  # atno 17321 bound_to 7965
  139.6171  144.7621  151.2822 LP  0  0  0  0  0  0  0  0  0  0  0  0  # atno 17342 bound_to 10162
  140.7361  143.6717  150.8076 LP  0  0  0  0  0  0  0  0  0  0  0  0  # atno 17343 bound_to 10162
  157.2913  131.0626  151.2132 LP  0  0  0  0  0  0  0  0  0  0  0  0  # atno 17370 bound_to 10713
  157.3144  130.6906  149.6233 LP  0  0  0  0  0  0  0  0  0  0  0  0  # atno 17371 bound_to 10713
  140.8494  134.2972  157.5281 LP  0  0  0  0  0  0  0  0  0  0  0  0  # atno 17394 bound_to 11000
  139.8717  134.9460  156.3925 LP  0  0  0  0  0  0  0  0  0  0  0  0  # atno 17395 bound_to 11000

$$$$
