AV-unprocessed.smi:943|AV-procd|sdf|4230|dock9
  -GOLD-   22720 2133D 1   1.00000     0.00000
 Structure written by MMmdl.
 43 44  0  0  0  0  0  0  0  0  1 V2000
  150.9573  139.6708  156.3891 C   0  0  0  0  0  0  0  0  0  0  0  0
  151.8163  138.9547  157.4453 C   0  0  1  0  0  0  0  0  0  0  0  0
  151.8752  139.7785  158.7547 C   0  0  0  0  0  0  0  0  0  0  0  0
  152.0115  141.3126  158.5993 C   0  0  0  0  0  0  0  0  0  0  0  0
  152.6204  141.9291  159.8760 C   0  0  0  0  0  0  0  0  0  0  0  0
  152.7824  143.4530  159.7575 C   0  0  0  0  0  0  0  0  0  0  0  0
  151.4450  144.1289  159.4222 C   0  0  0  0  0  0  0  0  0  0  0  0
  150.8300  143.5297  158.1491 C   0  0  0  0  0  0  0  0  0  0  0  0
  150.6706  142.0049  158.2679 C   0  0  0  0  0  0  0  0  0  0  0  0
  151.2849  137.5329  157.6788 C   0  0  0  0  0  0  0  0  0  0  0  0
  151.4455  136.6607  156.8244 O   0  0  0  0  0  0  0  0  0  0  0  0
  150.6451  137.3172  158.8369 N   0  0  0  0  0  0  0  0  0  0  0  0
  150.0556  136.0445  159.2269 C   0  0  0  0  0  0  0  0  0  0  0  0
  148.9154  136.2622  160.2307 C   0  0  0  0  0  0  0  0  0  0  0  0
  149.2090  135.6457  161.5651 C   0  0  0  0  0  0  0  0  0  0  0  0
  149.4802  134.3223  161.8185 C   0  0  0  0  0  0  0  0  0  0  0  0
  149.7725  134.0257  163.5117 S   0  0  0  0  0  0  0  0  0  0  0  0
  149.5108  135.7363  163.8071 C   0  0  0  0  0  0  0  0  0  0  0  0
  149.2295  136.4452  162.7133 N   0  0  0  0  0  0  0  0  0  0  0  0
  150.9068  139.0978  155.4624 H   0  0  0  0  0  0  0  0  0  0  0  0
  151.3751  140.6478  156.1447 H   0  0  0  0  0  0  0  0  0  0  0  0
  149.9365  139.8280  156.7397 H   0  0  0  0  0  0  0  0  0  0  0  0
  152.8243  138.8823  157.0357 H   0  0  0  0  0  0  0  0  0  0  0  0
  150.9793  139.5663  159.3397 H   0  0  0  0  0  0  0  0  0  0  0  0
  152.7081  139.4137  159.3581 H   0  0  0  0  0  0  0  0  0  0  0  0
  152.7061  141.5185  157.7840 H   0  0  0  0  0  0  0  0  0  0  0  0
  151.9884  141.6981  160.7347 H   0  0  0  0  0  0  0  0  0  0  0  0
  153.5921  141.4784  160.0806 H   0  0  0  0  0  0  0  0  0  0  0  0
  153.1798  143.8574  160.6889 H   0  0  0  0  0  0  0  0  0  0  0  0
  153.5143  143.6840  158.9827 H   0  0  0  0  0  0  0  0  0  0  0  0
  150.7528  144.0058  160.2562 H   0  0  0  0  0  0  0  0  0  0  0  0
  151.5914  145.2020  159.2962 H   0  0  0  0  0  0  0  0  0  0  0  0
  149.8619  143.9907  157.9517 H   0  0  0  0  0  0  0  0  0  0  0  0
  151.4635  143.7642  157.2927 H   0  0  0  0  0  0  0  0  0  0  0  0
  150.2663  141.6243  157.3303 H   0  0  0  0  0  0  0  0  0  0  0  0
  149.9347  141.7736  159.0393 H   0  0  0  0  0  0  0  0  0  0  0  0
  150.5560  138.0857  159.4855 H   0  0  0  0  0  0  0  0  0  0  0  0
  149.6789  135.5338  158.3391 H   0  0  0  0  0  0  0  0  0  0  0  0
  150.8267  135.4083  159.6646 H   0  0  0  0  0  0  0  0  0  0  0  0
  148.7342  137.3313  160.3494 H   0  0  0  0  0  0  0  0  0  0  0  0
  147.9918  135.8460  159.8257 H   0  0  0  0  0  0  0  0  0  0  0  0
  149.5275  133.5063  161.1125 H   0  0  0  0  0  0  0  0  0  0  0  0
  149.5637  136.2133  164.7747 H   0  0  0  0  0  0  0  0  0  0  0  0
  1  2  1  0  0  0  0
  1 20  1  0  0  0  0
  1 21  1  0  0  0  0
  1 22  1  0  0  0  0
  2  3  1  0  0  0  0
  2 10  1  0  0  0  0
  2 23  1  0  0  0  0
  3  4  1  0  0  0  0
  3 24  1  0  0  0  0
  3 25  1  0  0  0  0
  4  9  1  0  0  0  0
  4  5  1  0  0  0  0
  4 26  1  0  0  0  0
  5  6  1  0  0  0  0
  5 27  1  0  0  0  0
  5 28  1  0  0  0  0
  6  7  1  0  0  0  0
  6 29  1  0  0  0  0
  6 30  1  0  0  0  0
  7  8  1  0  0  0  0
  7 31  1  0  0  0  0
  7 32  1  0  0  0  0
  8  9  1  0  0  0  0
  8 33  1  0  0  0  0
  8 34  1  0  0  0  0
  9 35  1  0  0  0  0
  9 36  1  0  0  0  0
 10 11  2  0  0  0  0
 10 12  1  0  0  0  0
 12 13  1  0  0  0  0
 12 37  1  0  0  0  0
 13 14  1  0  0  0  0
 13 38  1  0  0  0  0
 13 39  1  0  0  0  0
 14 15  1  0  0  0  0
 14 40  1  0  0  0  0
 14 41  1  0  0  0  0
 15 19  1  0  0  0  0
 15 16  2  0  0  0  0
 16 17  1  0  0  0  0
 16 42  1  0  0  0  0
 17 18  1  0  0  0  0
 18 19  2  0  0  0  0
 18 43  1  0  0  0  0
M  END
> <s_m_source_file>
AV-unprocessed.smi

> <i_m_source_file_index>
943

> <i_lp_mmshare_version>
43012

> <i_f3d_flags>
0

> <s_epik_input>
W0NIMl0xW0NIMl1bQ0gyXVtDSDJdW0NIMl1bQ0hdMVtDSDJdW0NAQEhdKFtDSDNdKUMoPU8pW05IXVtDSDJdW0NIMl1jMltjSF1zW2NIXW4y

> <s_epik_cmdline>
J2VwaWtfcHl0aG9uJywgJy1waCcsICc3LjAnLCAnLXRuJywgJzgnLCAnLW1hJywgJzIwMCcsICctbWV0YWxfYmluZGluZycsICctaW1hZScsICc8aW5maWxlLm1hZT4nLCAnLW9tYWUnLCAnPG91dGZpbGUubWFlPic=

> <r_lp_tautomer_probability>
1

> <r_epik_Ionization_Penalty>
0.000194757

> <r_epik_Ionization_Penalty_Charging>
0

> <r_epik_Ionization_Penalty_Neutral>
0.000194757

> <r_epik_State_Penalty>
-0

> <r_epik_Charging_Adjusted_Penalty>
0

> <i_epik_Tot_Q>
0

> <i_epik_Tot_abs_Q>
0

> <r_epik_Metal_State_Penalty>
-0

> <b_epik_Metal_Only>
0

> <s_lp_Force_Field>
OPLS_2005

> <r_lp_Energy>
6.44142

> <b_lp_Chiralities_Consistent>
1

> <s_lp_Variant>
AV-unprocessed.smi:943-2

> <Gold.Version>
5.8.1

> <Gold.Id.Protein>
6NUR|6NUR_protein|mol2

> <Gold.PLP.Fitness>
45.4287

> <Gold.PLP.PLP>
-42.6135

> <Gold.PLP.part.hbond>
-2.0000

> <Gold.PLP.part.metal>
0.0000

> <Gold.PLP.part.buried>
-5.2326

> <Gold.PLP.part.nonpolar>
-35.9374

> <Gold.PLP.part.repulsive>
0.1365

> <Gold.PLP.ligand.clash>
0.0000

> <Gold.PLP.ligand.torsion>
1.2672

> <Gold.PLP.Chemscore.Hbond>
1.7440

> <Gold.PLP.Chemscore.CHOScore>
0.0000

> <Gold.PLP.Chemscore.Metal>
0.0000

> <Gold.Chemscore.Hbonds>
donor molecule, donor type, donor heavy atom, donor atom, acceptor molecule, acceptor atom, score
      P1  H  6931  6943       L1    19  0.83

> <Gold.PLP.Chemscore.Internal.Correction>
0.1175

> <Gold.Rescore>
     Score         DG    S(hbond)    S(metal)    S(lipo)     H(rot)  DE(clash)    DE(int)     intcor
     17.49     -18.89       1.18        0.00     115.57       1.58       0.15       1.26       ----

> <Gold.Chemscore.Fitness>
17.4866

> <Gold.Chemscore.DG>
-18.8915

> <Gold.Chemscore.ZeroCoef>
-5.4800

> <Gold.Chemscore.Hbond>
1.1772

> <Gold.Chemscore.Metal>
0.0000

> <Gold.Chemscore.Lipo>
115.5675

> <Gold.Chemscore.Internal_Hbond>
0.0000

> <Gold.Chemscore.DEClash>
0.1494

> <Gold.Chemscore.DEInternal>
1.2555

> <Gold.Chemscore.Rot>
1.5789

> <Gold.Chemscore.Internal.Correction>
   9.000000E+99

> <Gold.Chemscore.Hbonds>
donor molecule, donor type, donor heavy atom, donor atom, acceptor molecule, acceptor atom, score
      P1  H  6931  6943       L1    19  0.28

> <Gold.Chemscore.Hbond.Weighted>
-3.9320

> <Gold.Chemscore.Metal.Weighted>
-0.0000

> <Gold.Chemscore.Lipo.Weighted>
-13.5214

> <Gold.Chemscore.Internal_Hbond.Weighted>
0.0000

> <Gold.Chemscore.DEClash.Weighted>
0.1494

> <Gold.Chemscore.DEInternal.Weighted>
1.2555

> <Gold.Chemscore.Rot.Weighted>
4.0419

> <Gold.Chemscore.Internal.Correction.Weighted>
   9.000000E+99

> <Gold.Protein.RotatedTorsions>
[ 6907 6896 6895 6894 ] final  105.77 input  -60.11 | X-H torsion
[ 7974 7965 7964 7962 ] final  -54.89 input  175.53 | X-H torsion
[ 8008 7997 7996 7995 ] final  105.22 input   59.86 | X-H torsion
[ 10167 10162 10161 10158 ] final  100.20 input  -65.29 | X-H torsion
[ 10718 10713 10712 10709 ] final  -23.34 input   66.30 | X-H torsion
[ 10763 10752 10751 10750 ] final   -7.77 input  -60.55 | X-H torsion
[ 11005 11000 10999 10996 ] final -156.76 input  -57.11 | X-H torsion

> <Gold.Protein.ActiveResidues>
 VAL166  LYS551  ARG553  GLY616  TRP617  ASP618  TYR619  PRO620  LYS621  CYS622 
 ASP623  PHE694  ASN695  SER759  ASP760  ASP761  ALA762  ILE779  LEU786  VAL792 
 PHE793  MET794  SER795  GLU796  ALA797  LYS798  CYS799  TRP800  GLU811  SER814 

> <Gold.Protein.RotatedAtoms>
  152.5218  133.9479  159.7657 H   0  0  0  0  0  0  0  0  0  0  0  0  # atno 6907 bound_to 6896
  150.9795  133.6252  159.2732 H   0  0  0  0  0  0  0  0  0  0  0  0  # atno 6908 bound_to 6896
  151.3434  135.0874  159.9432 H   0  0  0  0  0  0  0  0  0  0  0  0  # atno 6909 bound_to 6896
  145.8804  140.8149  142.9843 H   0  0  0  0  0  0  0  0  0  0  0  0  # atno 7974 bound_to 7965
  156.1641  140.3134  155.8857 H   0  0  0  0  0  0  0  0  0  0  0  0  # atno 8008 bound_to 7997
  155.3723  140.0483  157.3062 H   0  0  0  0  0  0  0  0  0  0  0  0  # atno 8009 bound_to 7997
  154.5175  140.2186  155.9049 H   0  0  0  0  0  0  0  0  0  0  0  0  # atno 8010 bound_to 7997
  139.7549  144.6973  151.0378 H   0  0  0  0  0  0  0  0  0  0  0  0  # atno 10167 bound_to 10162
  156.4923  130.4569  149.6748 H   0  0  0  0  0  0  0  0  0  0  0  0  # atno 10718 bound_to 10713
  153.4311  135.7012  153.6230 H   0  0  0  0  0  0  0  0  0  0  0  0  # atno 10763 bound_to 10752
  153.4645  135.3729  155.2357 H   0  0  0  0  0  0  0  0  0  0  0  0  # atno 10764 bound_to 10752
  154.8725  135.4028  154.3695 H   0  0  0  0  0  0  0  0  0  0  0  0  # atno 10765 bound_to 10752
  140.6721  134.4236  157.5231 H   0  0  0  0  0  0  0  0  0  0  0  0  # atno 11005 bound_to 11000
  144.6727  140.1374  143.7439 LP  0  0  0  0  0  0  0  0  0  0  0  0  # atno 17320 bound_to 7965
  145.9031  139.2442  143.1482 LP  0  0  0  0  0  0  0  0  0  0  0  0  # atno 17321 bound_to 7965
  140.7801  143.4765  151.0075 LP  0  0  0  0  0  0  0  0  0  0  0  0  # atno 17342 bound_to 10162
  139.8452  143.7510  152.3179 LP  0  0  0  0  0  0  0  0  0  0  0  0  # atno 17343 bound_to 10162
  156.3414  130.7384  151.2330 LP  0  0  0  0  0  0  0  0  0  0  0  0  # atno 17370 bound_to 10713
  157.7472  131.0402  150.4589 LP  0  0  0  0  0  0  0  0  0  0  0  0  # atno 17371 bound_to 10713
  139.8978  134.8627  156.2027 LP  0  0  0  0  0  0  0  0  0  0  0  0  # atno 17394 bound_to 11000
  141.0384  133.6951  156.1554 LP  0  0  0  0  0  0  0  0  0  0  0  0  # atno 17395 bound_to 11000

$$$$
