AV-unprocessed.smi:3066|AV-procd|sdf|11693|dock6
  -GOLD-   2272017 93D 1   1.00000     0.00000
 Structure written by MMmdl.
 35 36  0  0  0  0  0  0  0  0  1 V2000
  150.0955  134.2058  157.6519 N   0  0  0  0  0  0  0  0  0  0  0  0
  150.2608  135.0938  156.9283 C   0  0  0  0  0  0  0  0  0  0  0  0
  150.4681  136.2082  156.0193 C   0  0  0  0  0  0  0  0  0  0  0  0
  151.0426  136.0318  154.7939 N   0  0  0  0  0  0  0  0  0  0  0  0
  151.0150  137.2897  154.3705 C   0  0  0  0  0  0  0  0  0  0  0  0
  150.4785  138.1462  155.2464 N   0  0  0  0  0  0  0  0  0  0  0  0
  150.2847  139.5824  155.1625 C   0  0  0  0  0  0  0  0  0  0  0  0
  151.3629  140.3284  155.9492 C   0  0  0  0  0  0  0  0  0  0  0  0
  152.5470  140.0222  155.8115 O   0  0  0  0  0  0  0  0  0  0  0  0
  150.9369  141.3029  156.7687 N   0  0  0  0  0  0  0  0  0  0  0  0
  151.7826  142.1190  157.6358 C   0  0  0  0  0  0  0  0  0  0  0  0
  152.2791  141.2300  158.7915 C   0  0  0  0  0  0  0  0  0  0  0  0
  153.1735  141.9360  159.8251 C   0  0  0  0  0  0  0  0  0  0  0  0
  152.3820  142.8628  160.7620 C   0  0  0  0  0  0  0  0  0  0  0  0
  152.1545  144.2924  160.2408 C   0  0  0  0  0  0  0  0  0  0  0  0
  151.9088  144.4444  158.7293 C   0  0  0  0  0  0  0  0  0  0  0  0
  151.0065  143.3750  158.0909 C   0  0  0  0  0  0  0  0  0  0  0  0
  150.1085  137.4474  156.3478 N   0  0  0  0  0  0  0  0  0  0  0  0
  151.3971  137.5942  153.4070 H   0  0  0  0  0  0  0  0  0  0  0  0
  150.3139  139.8783  154.1130 H   0  0  0  0  0  0  0  0  0  0  0  0
  149.2956  139.8418  155.5438 H   0  0  0  0  0  0  0  0  0  0  0  0
  149.9434  141.4807  156.8091 H   0  0  0  0  0  0  0  0  0  0  0  0
  152.6564  142.4360  157.0632 H   0  0  0  0  0  0  0  0  0  0  0  0
  151.4299  140.7712  159.3004 H   0  0  0  0  0  0  0  0  0  0  0  0
  152.8455  140.4009  158.3644 H   0  0  0  0  0  0  0  0  0  0  0  0
  153.6412  141.1637  160.4369 H   0  0  0  0  0  0  0  0  0  0  0  0
  153.9935  142.4688  159.3420 H   0  0  0  0  0  0  0  0  0  0  0  0
  151.4211  142.4037  160.9974 H   0  0  0  0  0  0  0  0  0  0  0  0
  152.9052  142.9340  161.7162 H   0  0  0  0  0  0  0  0  0  0  0  0
  151.3126  144.7216  160.7850 H   0  0  0  0  0  0  0  0  0  0  0  0
  153.0153  144.9079  160.5045 H   0  0  0  0  0  0  0  0  0  0  0  0
  151.4632  145.4260  158.5633 H   0  0  0  0  0  0  0  0  0  0  0  0
  152.8639  144.4740  158.2035 H   0  0  0  0  0  0  0  0  0  0  0  0
  150.5414  143.8272  157.2138 H   0  0  0  0  0  0  0  0  0  0  0  0
  150.1848  143.1104  158.7578 H   0  0  0  0  0  0  0  0  0  0  0  0
  1  2  3  0  0  0  0
  2  3  1  0  0  0  0
  3 18  2  0  0  0  0
  3  4  1  0  0  0  0
  4  5  2  0  0  0  0
  5  6  1  0  0  0  0
  5 19  1  0  0  0  0
  6  7  1  0  0  0  0
  6 18  1  0  0  0  0
  7  8  1  0  0  0  0
  7 20  1  0  0  0  0
  7 21  1  0  0  0  0
  8  9  2  0  0  0  0
  8 10  1  0  0  0  0
 10 11  1  0  0  0  0
 10 22  1  0  0  0  0
 11 17  1  0  0  0  0
 11 12  1  0  0  0  0
 11 23  1  0  0  0  0
 12 13  1  0  0  0  0
 12 24  1  0  0  0  0
 12 25  1  0  0  0  0
 13 14  1  0  0  0  0
 13 26  1  0  0  0  0
 13 27  1  0  0  0  0
 14 15  1  0  0  0  0
 14 28  1  0  0  0  0
 14 29  1  0  0  0  0
 15 16  1  0  0  0  0
 15 30  1  0  0  0  0
 15 31  1  0  0  0  0
 16 17  1  0  0  0  0
 16 32  1  0  0  0  0
 16 33  1  0  0  0  0
 17 34  1  0  0  0  0
 17 35  1  0  0  0  0
M  END
> <s_m_source_file>
AV-unprocessed.smi

> <i_m_source_file_index>
3066

> <i_lp_mmshare_version>
43012

> <i_f3d_flags>
0

> <s_epik_input>
TiNDYzFuW2NIXW4objEpW0NIMl1DKD1PKVtOSF1bQ0hdMltDSDJdW0NIMl1bQ0gyXVtDSDJdW0NIMl1bQ0gyXTI=

> <s_epik_cmdline>
J2VwaWtfcHl0aG9uJywgJy1waCcsICc3LjAnLCAnLXRuJywgJzgnLCAnLW1hJywgJzIwMCcsICctbWV0YWxfYmluZGluZycsICctaW1hZScsICc8aW5maWxlLm1hZT4nLCAnLW9tYWUnLCAnPG91dGZpbGUubWFlPic=

> <r_lp_tautomer_probability>
1

> <r_epik_Ionization_Penalty>
4.79211e-08

> <r_epik_Ionization_Penalty_Charging>
0

> <r_epik_Ionization_Penalty_Neutral>
4.79211e-08

> <r_epik_State_Penalty>
-0

> <r_epik_Charging_Adjusted_Penalty>
0

> <i_epik_Tot_Q>
0

> <i_epik_Tot_abs_Q>
0

> <r_epik_Metal_State_Penalty>
-0

> <b_epik_Metal_Only>
0

> <s_lp_Force_Field>
OPLS_2005

> <r_lp_Energy>
17.6035

> <b_lp_Chiralities_Consistent>
1

> <s_lp_Variant>
AV-unprocessed.smi:3066-1

> <Gold.Version>
5.8.1

> <Gold.Id.Protein>
6NUR|6NUR_protein|mol2

> <Gold.PLP.Fitness>
44.8130

> <Gold.PLP.PLP>
-34.7411

> <Gold.PLP.part.hbond>
-3.0000

> <Gold.PLP.part.metal>
0.0000

> <Gold.PLP.part.buried>
-3.2059

> <Gold.PLP.part.nonpolar>
-29.4929

> <Gold.PLP.part.repulsive>
0.2656

> <Gold.PLP.ligand.clash>
0.0000

> <Gold.PLP.ligand.torsion>
0.5734

> <Gold.PLP.Chemscore.Hbond>
2.9920

> <Gold.PLP.Chemscore.CHOScore>
0.7428

> <Gold.PLP.Chemscore.Metal>
0.0000

> <Gold.Chemscore.Hbonds>
donor molecule, donor type, donor heavy atom, donor atom, acceptor molecule, acceptor atom, score
      P1  H  6896  6907       L1     1  0.91
      P1  H  7997  8008       L1     9  1.00
      P1  H 10752 10764       L1     4  1.00
      L1  C     5    19       P1  7949  0.77

> <Gold.PLP.Chemscore.Internal.Correction>
0.0142

> <Gold.Rescore>
     Score         DG    S(hbond)    S(metal)    S(lipo)     H(rot)  DE(clash)    DE(int)     intcor
     17.10     -17.71       2.41        0.00      78.45       1.95       0.07       0.55       ----

> <Gold.Chemscore.Fitness>
17.0971

> <Gold.Chemscore.DG>
-17.7124

> <Gold.Chemscore.ZeroCoef>
-5.4800

> <Gold.Chemscore.Hbond>
2.4068

> <Gold.Chemscore.Metal>
0.0000

> <Gold.Chemscore.Lipo>
78.4511

> <Gold.Chemscore.Internal_Hbond>
0.0000

> <Gold.Chemscore.DEClash>
0.0650

> <Gold.Chemscore.DEInternal>
0.5502

> <Gold.Chemscore.Rot>
1.9474

> <Gold.Chemscore.Internal.Correction>
   9.000000E+99

> <Gold.Chemscore.Hbonds>
donor molecule, donor type, donor heavy atom, donor atom, acceptor molecule, acceptor atom, score
      P1  H  6896  6907       L1     1  0.88
      P1  H  7997  8008       L1     9  1.00
      P1  H 10752 10764       L1     4  0.30

> <Gold.Chemscore.Hbond.Weighted>
-8.0388

> <Gold.Chemscore.Metal.Weighted>
-0.0000

> <Gold.Chemscore.Lipo.Weighted>
-9.1788

> <Gold.Chemscore.Internal_Hbond.Weighted>
0.0000

> <Gold.Chemscore.DEClash.Weighted>
0.0650

> <Gold.Chemscore.DEInternal.Weighted>
0.5502

> <Gold.Chemscore.Rot.Weighted>
4.9852

> <Gold.Chemscore.Internal.Correction.Weighted>
   9.000000E+99

> <Gold.Protein.RotatedTorsions>
[ 6907 6896 6895 6894 ] final -107.07 input  -60.11 | X-H torsion
[ 7974 7965 7964 7962 ] final   72.42 input  175.53 | X-H torsion
[ 8008 7997 7996 7995 ] final  -25.96 input   59.86 | X-H torsion
[ 10167 10162 10161 10158 ] final -130.53 input  -65.29 | X-H torsion
[ 10718 10713 10712 10709 ] final  -90.74 input   66.30 | X-H torsion
[ 10763 10752 10751 10750 ] final  -64.46 input  -60.55 | X-H torsion
[ 11005 11000 10999 10996 ] final  143.96 input  -57.11 | X-H torsion

> <Gold.Protein.ActiveResidues>
 VAL166  LYS551  ARG553  GLY616  TRP617  ASP618  TYR619  PRO620  LYS621  CYS622 
 ASP623  PHE694  ASN695  SER759  ASP760  ASP761  ALA762  ILE779  LEU786  VAL792 
 PHE793  MET794  SER795  GLU796  ALA797  LYS798  CYS799  TRP800  GLU811  SER814 

> <Gold.Protein.RotatedAtoms>
  150.7424  133.9881  159.3597 H   0  0  0  0  0  0  0  0  0  0  0  0  # atno 6907 bound_to 6896
  151.7827  135.0755  160.0385 H   0  0  0  0  0  0  0  0  0  0  0  0  # atno 6908 bound_to 6896
  152.3263  133.5871  159.5815 H   0  0  0  0  0  0  0  0  0  0  0  0  # atno 6909 bound_to 6896
  145.7536  139.2770  143.1417 H   0  0  0  0  0  0  0  0  0  0  0  0  # atno 7974 bound_to 7965
  154.4449  140.1912  156.0700 H   0  0  0  0  0  0  0  0  0  0  0  0  # atno 8008 bound_to 7997
  156.0518  140.3307  155.7333 H   0  0  0  0  0  0  0  0  0  0  0  0  # atno 8009 bound_to 7997
  155.5545  140.0598  157.2833 H   0  0  0  0  0  0  0  0  0  0  0  0  # atno 8010 bound_to 7997
  139.9283  143.6301  152.2536 H   0  0  0  0  0  0  0  0  0  0  0  0  # atno 10167 bound_to 10162
  155.9989  130.4921  150.5369 H   0  0  0  0  0  0  0  0  0  0  0  0  # atno 10718 bound_to 10713
  154.3305  135.6177  153.5549 H   0  0  0  0  0  0  0  0  0  0  0  0  # atno 10763 bound_to 10752
  152.9812  135.5745  154.4967 H   0  0  0  0  0  0  0  0  0  0  0  0  # atno 10764 bound_to 10752
  154.4653  135.2857  155.1660 H   0  0  0  0  0  0  0  0  0  0  0  0  # atno 10765 bound_to 10752
  140.0594  134.9213  157.1158 H   0  0  0  0  0  0  0  0  0  0  0  0  # atno 11005 bound_to 11000
  146.0332  140.8237  142.9865 LP  0  0  0  0  0  0  0  0  0  0  0  0  # atno 17320 bound_to 7965
  144.6844  140.2800  143.7293 LP  0  0  0  0  0  0  0  0  0  0  0  0  # atno 17321 bound_to 7965
  139.6803  144.7656  151.1620 LP  0  0  0  0  0  0  0  0  0  0  0  0  # atno 17342 bound_to 10162
  140.7644  143.5734  150.8971 LP  0  0  0  0  0  0  0  0  0  0  0  0  # atno 17343 bound_to 10162
  157.3310  131.0699  151.1861 LP  0  0  0  0  0  0  0  0  0  0  0  0  # atno 17370 bound_to 10713
  157.2741  130.6718  149.6034 LP  0  0  0  0  0  0  0  0  0  0  0  0  # atno 17371 bound_to 10713
  140.3793  134.2305  155.7172 LP  0  0  0  0  0  0  0  0  0  0  0  0  # atno 17394 bound_to 11000
  141.1966  133.8077  157.0662 LP  0  0  0  0  0  0  0  0  0  0  0  0  # atno 17395 bound_to 11000

$$$$
