#       Name:                AV-unprocessed.smi:1027
#       Creating user name   scv26
#       Creation time:       Fri Mar 27 02:44:52 2020


#       File generated by GOLD software.
#

@<TRIPOS>MOLECULE
AV-unprocessed.smi:1027
    39    40     1
SMALL
NO_CHARGES


@<TRIPOS>ATOM
      1 ****        -3.8905   0.8312   0.0595 C.3            1 S1                 0.0000
      2 ****        -3.2716   2.0530   0.7667 C.3            1 S1                 0.0000
      3 ****        -3.9650   3.3355   0.2721 C.3            1 S1                 0.0000
      4 ****        -1.7299   2.1101   0.5980 C.3            1 S1                 0.0000
      5 ****        -1.0759   3.2744   1.3664 C.3            1 S1                 0.0000
      6 ****        -1.1284   0.8528   1.0447 N.am           1 S1                 0.0000
      7 ****        -0.0102   0.2885   0.5650 C.2            1 S1                 0.0000
      8 ****         0.6253   0.8440  -0.3340 O.2            1 S1                 0.0000
      9 ****         0.3021  -0.8866   1.1575 N.pl3          1 S1                -1.0000
     10 ****         1.3986  -1.5609   0.7739 C.2            1 S1                 0.0000
     11 ****         2.5532  -1.5013   1.4522 N.2            1 S1                 0.0000
     12 ****         3.5574  -2.2733   0.8865 N.2            1 S1                 0.0000
     13 ****         3.1437  -2.9131  -0.2100 C.2            1 S1                 0.0000
     14 ****         4.0411  -3.8042  -1.0020 C.3            1 S1                 0.0000
     15 ****         5.1309  -3.2246  -1.8745 C.3            1 S1                 0.0000
     16 ****         3.9387  -3.8936  -2.5089 C.3            1 S1                 0.0000
     17 ****         1.4645  -2.6203  -0.6341 S.3            1 S1                 0.0000
     18 ****        -3.6675   0.8393  -1.0078 H              1 S1                 0.0000
     19 ****        -4.9750   0.8200   0.1715 H              1 S1                 0.0000
     20 ****        -3.5201  -0.1087   0.4692 H              1 S1                 0.0000
     21 ****        -3.4908   1.9544   1.8309 H              1 S1                 0.0000
     22 ****        -3.7321   3.5328  -0.7747 H              1 S1                 0.0000
     23 ****        -3.6681   4.2078   0.8531 H              1 S1                 0.0000
     24 ****        -5.0487   3.2539   0.3599 H              1 S1                 0.0000
     25 ****        -1.5177   2.2419  -0.4647 H              1 S1                 0.0000
     26 ****        -1.3989   4.2430   0.9862 H              1 S1                 0.0000
     27 ****         0.0102   3.2472   1.2720 H              1 S1                 0.0000
     28 ****        -1.3157   3.2322   2.4294 H              1 S1                 0.0000
     29 ****        -1.6102   0.3587   1.7812 H              1 S1                 0.0000
     30 ****         4.2585  -4.7177  -0.4522 H              1 S1                 0.0000
     31 ****         5.1961  -2.1408  -1.9486 H              1 S1                 0.0000
     32 ****         6.0814  -3.7529  -1.9062 H              1 S1                 0.0000
     33 ****         4.0936  -4.8695  -2.9644 H              1 S1                 0.0000
     34 ****         3.2205  -3.2520  -3.0153 H              1 S1                 0.0000
     35 ****         0.3071   1.7159  -0.7060 LP             1 S1                 0.0000
     36 ****         1.4589   0.4225  -0.6910 LP             1 S1                 0.0000
     37 ****        -0.2831  -1.2532   1.8809 LP             1 S1                 0.0000
     38 ****         2.6779  -0.9562   2.2812 LP             1 S1                 0.0000
     39 ****         4.4837  -2.3426   1.2570 LP             1 S1                 0.0000
@<TRIPOS>BOND
    1    1    2 1     
    2    1   18 1     
    3    1   19 1     
    4    1   20 1     
    5    2    3 1     
    6    2    4 1     
    7    2   21 1     
    8    3   22 1     
    9    3   23 1     
   10    3   24 1     
   11    4    5 1     
   12    4    6 1     
   13    4   25 1     
   14    5   26 1     
   15    5   27 1     
   16    5   28 1     
   17    6    7 am    
   18    6   29 1     
   19    7    8 2     
   20    7    9 1     
   21    9   10 1     
   22   10   17 1     
   23   10   11 2     
   24   11   12 1     
   25   12   13 2     
   26   13   14 1     
   27   13   17 1     
   28   14   16 1     
   29   14   15 1     
   30   14   30 1     
   31   15   16 1     
   32   15   31 1     
   33   15   32 1     
   34   16   33 1     
   35   16   34 1     
   36    8   35 1     
   37    8   36 1     
   38    9   37 1     
   39   11   38 1     
   40   12   39 1     
@<TRIPOS>SUBSTRUCTURE
      1 S1             1
@<TRIPOS>SET
LONE_PAIRS      STATIC     ATOMS    <user>   **** ""
5 35 36 37 38 39
DONOR_HYDROGENS      STATIC     ATOMS    <user>   **** ""
1 29
ATOM$BLUE        STATIC     ATOMS    COLORGROUP SYSTEM
5 35 36 37 38 39
ATOM$RED        STATIC     ATOMS    COLORGROUP SYSTEM
1 29
