AV-unprocessed.smi:2528|AV-procd|sdf|9955|dock1
  -GOLD-   2272013593D 1   1.00000     0.00000
 Structure written by MMmdl.
 44 46  0  0  0  0  0  0  0  0  2 V2000
  150.5881  140.5132  156.1915 O   0  0  0  0  0  0  0  0  0  0  0  0
  149.9931  141.5811  156.0425 C   0  0  0  0  0  0  0  0  0  0  0  0
  149.1544  141.8192  155.0238 N   0  0  0  0  0  0  0  0  0  0  0  0
  148.8190  140.8604  153.9759 C   0  0  0  0  0  0  0  0  0  0  0  0
  147.3161  140.5293  153.9568 C   0  0  1  0  0  0  0  0  0  0  0  0
  147.0236  139.2224  153.1978 C   0  0  0  0  0  0  0  0  0  0  0  0
  145.5766  138.9098  153.2455 N   0  3  1  0  0  0  0  0  0  0  0  0
  145.2365  137.6812  152.4846 C   0  0  0  0  0  0  0  0  0  0  0  0
  143.7183  137.4418  152.4732 C   0  0  0  0  0  0  0  0  0  0  0  0
  143.1671  137.3745  153.9033 C   0  0  0  0  0  0  0  0  0  0  0  0
  143.5559  138.6416  154.6770 C   0  0  0  0  0  0  0  0  0  0  0  0
  145.0803  138.8695  154.6482 C   0  0  2  0  0  0  0  0  0  0  0  0
  145.4659  140.1701  155.3808 C   0  0  0  0  0  0  0  0  0  0  0  0
  146.8704  140.3755  155.3002 O   0  0  0  0  0  0  0  0  0  0  0  0
  150.0910  142.6480  156.8551 N   0  0  0  0  0  0  0  0  0  0  0  0
  150.8619  142.7811  158.0410 C   0  0  0  0  0  0  0  0  0  0  0  0
  150.9396  144.0932  158.5606 C   0  0  0  0  0  0  0  0  0  0  0  0
  151.6772  144.3303  159.7367 C   0  0  0  0  0  0  0  0  0  0  0  0
  152.3203  143.2482  160.3636 C   0  0  0  0  0  0  0  0  0  0  0  0
  152.1942  141.9742  159.7800 C   0  0  0  0  0  0  0  0  0  0  0  0
  151.4877  141.7444  158.6529 N   0  0  0  0  0  0  0  0  0  0  0  0
  148.7097  142.7241  154.9724 H   0  0  0  0  0  0  0  0  0  0  0  0
  149.1322  141.2575  153.0088 H   0  0  0  0  0  0  0  0  0  0  0  0
  149.4014  139.9533  154.1402 H   0  0  0  0  0  0  0  0  0  0  0  0
  146.7712  141.3476  153.4825 H   0  0  0  0  0  0  0  0  0  0  0  0
  147.3403  139.3176  152.1584 H   0  0  0  0  0  0  0  0  0  0  0  0
  147.5908  138.3975  153.6325 H   0  0  0  0  0  0  0  0  0  0  0  0
  145.5979  137.7744  151.4598 H   0  0  0  0  0  0  0  0  0  0  0  0
  145.7479  136.8238  152.9251 H   0  0  0  0  0  0  0  0  0  0  0  0
  143.2242  138.2457  151.9257 H   0  0  0  0  0  0  0  0  0  0  0  0
  143.4896  136.5182  151.9409 H   0  0  0  0  0  0  0  0  0  0  0  0
  142.0828  137.2618  153.8847 H   0  0  0  0  0  0  0  0  0  0  0  0
  143.5649  136.4953  154.4115 H   0  0  0  0  0  0  0  0  0  0  0  0
  143.0450  139.5025  154.2428 H   0  0  0  0  0  0  0  0  0  0  0  0
  143.2078  138.5641  155.7077 H   0  0  0  0  0  0  0  0  0  0  0  0
  145.5674  138.0340  155.1547 H   0  0  0  0  0  0  0  0  0  0  0  0
  144.9389  141.0298  154.9630 H   0  0  0  0  0  0  0  0  0  0  0  0
  145.1843  140.1068  156.4323 H   0  0  0  0  0  0  0  0  0  0  0  0
  149.5421  143.4565  156.6028 H   0  0  0  0  0  0  0  0  0  0  0  0
  150.4387  144.9137  158.0674 H   0  0  0  0  0  0  0  0  0  0  0  0
  151.7475  145.3255  160.1502 H   0  0  0  0  0  0  0  0  0  0  0  0
  152.8952  143.3905  161.2669 H   0  0  0  0  0  0  0  0  0  0  0  0
  152.6733  141.1167  160.2289 H   0  0  0  0  0  0  0  0  0  0  0  0
  145.0995  139.6750  152.7903 H   0  0  0  0  0  0  0  0  0  0  0  0
  1  2  2  0  0  0  0
  2  3  1  0  0  0  0
  2 15  1  0  0  0  0
  3  4  1  0  0  0  0
  3 22  1  0  0  0  0
  4  5  1  0  0  0  0
  4 23  1  0  0  0  0
  4 24  1  0  0  0  0
  5 14  1  0  0  0  0
  5  6  1  0  0  0  0
  5 25  1  0  0  0  0
  6  7  1  0  0  0  0
  6 26  1  0  0  0  0
  6 27  1  0  0  0  0
  7 12  1  0  0  0  0
  7  8  1  0  0  0  0
  7 44  1  0  0  0  0
  8  9  1  0  0  0  0
  8 28  1  0  0  0  0
  8 29  1  0  0  0  0
  9 10  1  0  0  0  0
  9 30  1  0  0  0  0
  9 31  1  0  0  0  0
 10 11  1  0  0  0  0
 10 32  1  0  0  0  0
 10 33  1  0  0  0  0
 11 12  1  0  0  0  0
 11 34  1  0  0  0  0
 11 35  1  0  0  0  0
 12 13  1  0  0  0  0
 12 36  1  0  0  0  0
 13 14  1  0  0  0  0
 13 37  1  0  0  0  0
 13 38  1  0  0  0  0
 15 16  1  0  0  0  0
 15 39  1  0  0  0  0
 16 21  1  0  0  0  0
 16 17  2  0  0  0  0
 17 18  1  0  0  0  0
 17 40  1  0  0  0  0
 18 19  2  0  0  0  0
 18 41  1  0  0  0  0
 19 20  1  0  0  0  0
 19 42  1  0  0  0  0
 20 21  2  0  0  0  0
 20 43  1  0  0  0  0
M  CHG  1   7   1
M  END
> <s_m_source_file>
AV-unprocessed.smi

> <i_m_source_file_index>
2528

> <i_lp_mmshare_version>
43012

> <i_f3d_flags>
0

> <s_epik_input>
bjFbY0hdW2NIXVtjSF1bY0hdYzFbTkhdQyg9TylbTkhdW0NIMl1bQ0BIXShbQ0gyXTIpT1tDSDJdW0NAQEhdKE4yMylbQ0gyXVtDSDJdW0NIMl1bQ0gyXTM=

> <s_epik_cmdline>
J2VwaWtfcHl0aG9uJywgJy1waCcsICc3LjAnLCAnLXRuJywgJzgnLCAnLW1hJywgJzIwMCcsICctbWV0YWxfYmluZGluZycsICctaW1hZScsICc8aW5maWxlLm1hZT4nLCAnLW9tYWUnLCAnPG91dGZpbGUubWFlPic=

> <r_epik_Ionization_Penalty>
0.0932337

> <r_epik_Ionization_Penalty_Charging>
0.0931942

> <r_epik_Ionization_Penalty_Neutral>
3.9565e-05

> <r_epik_State_Penalty>
0.0834605

> <r_epik_Charging_Adjusted_Penalty>
0.176655

> <i_epik_Tot_Q>
1

> <i_epik_Tot_abs_Q>
1

> <r_epik_Metal_State_Penalty>
0.0834607

> <b_epik_Metal_Only>
0

> <s_lp_Force_Field>
OPLS_2005

> <r_lp_Energy>
24.376

> <b_lp_Chiralities_Consistent>
1

> <s_lp_Variant>
AV-unprocessed.smi:2528-8

> <Gold.Version>
5.8.1

> <Gold.Id.Protein>
6NUR|6NUR_protein|mol2

> <Gold.PLP.Fitness>
47.2267

> <Gold.PLP.PLP>
-35.3154

> <Gold.PLP.part.hbond>
-3.6263

> <Gold.PLP.part.metal>
0.0000

> <Gold.PLP.part.buried>
-1.5226

> <Gold.PLP.part.nonpolar>
-30.1696

> <Gold.PLP.part.repulsive>
0.3358

> <Gold.PLP.ligand.clash>
0.0000

> <Gold.PLP.ligand.torsion>
0.1841

> <Gold.PLP.Chemscore.Hbond>
4.0920

> <Gold.PLP.Chemscore.CHOScore>
0.0000

> <Gold.PLP.Chemscore.Metal>
0.0000

> <Gold.Chemscore.Hbonds>
donor molecule, donor type, donor heavy atom, donor atom, acceptor molecule, acceptor atom, score
      L1  H     3    22       P1  8028  0.70
      L1  H     7    44       P1 10175  1.95
      L1  H    15    39       P1  8028  1.00

> <Gold.PLP.Chemscore.Internal.Correction>
0.0035

> <Gold.Rescore>
     Score         DG    S(hbond)    S(metal)    S(lipo)     H(rot)  DE(clash)    DE(int)     intcor
     19.48     -21.12       2.94        0.00      77.94       1.29       0.12       1.52       ----

> <Gold.Chemscore.Fitness>
19.4757

> <Gold.Chemscore.DG>
-21.1216

> <Gold.Chemscore.ZeroCoef>
-5.4800

> <Gold.Chemscore.Hbond>
2.9394

> <Gold.Chemscore.Metal>
0.0000

> <Gold.Chemscore.Lipo>
77.9387

> <Gold.Chemscore.Internal_Hbond>
0.0000

> <Gold.Chemscore.DEClash>
0.1234

> <Gold.Chemscore.DEInternal>
1.5225

> <Gold.Chemscore.Rot>
1.2870

> <Gold.Chemscore.Internal.Correction>
   9.000000E+99

> <Gold.Chemscore.Hbonds>
donor molecule, donor type, donor heavy atom, donor atom, acceptor molecule, acceptor atom, score
      L1  H     3    22       P1  8028  0.68
      L1  H     7    44       P1 10175  0.93
      L1  H    15    39       P1  8028  1.00

> <Gold.Chemscore.Hbond.Weighted>
-9.8176

> <Gold.Chemscore.Metal.Weighted>
-0.0000

> <Gold.Chemscore.Lipo.Weighted>
-9.1188

> <Gold.Chemscore.Internal_Hbond.Weighted>
0.0000

> <Gold.Chemscore.DEClash.Weighted>
0.1234

> <Gold.Chemscore.DEInternal.Weighted>
1.5225

> <Gold.Chemscore.Rot.Weighted>
3.2948

> <Gold.Chemscore.Internal.Correction.Weighted>
   9.000000E+99

> <Gold.Protein.RotatedTorsions>
[ 6907 6896 6895 6894 ] final   87.01 input  -60.11 | X-H torsion
[ 7974 7965 7964 7962 ] final  109.55 input  175.53 | X-H torsion
[ 8008 7997 7996 7995 ] final  172.63 input   59.86 | X-H torsion
[ 10167 10162 10161 10158 ] final -152.03 input  -65.29 | X-H torsion
[ 10718 10713 10712 10709 ] final  -62.04 input   66.30 | X-H torsion
[ 10763 10752 10751 10750 ] final  138.50 input  -60.55 | X-H torsion
[ 11005 11000 10999 10996 ] final  133.64 input  -57.11 | X-H torsion

> <Gold.Protein.ActiveResidues>
 VAL166  LYS551  ARG553  GLY616  TRP617  ASP618  TYR619  PRO620  LYS621  CYS622 
 ASP623  PHE694  ASN695  SER759  ASP760  ASP761  ALA762  ILE779  LEU786  VAL792 
 PHE793  MET794  SER795  GLU796  ALA797  LYS798  CYS799  TRP800  GLU811  SER814 

> <Gold.Protein.RotatedAtoms>
  152.5404  134.2343  159.8836 H   0  0  0  0  0  0  0  0  0  0  0  0  # atno 6907 bound_to 6896
  151.2313  133.4442  159.2611 H   0  0  0  0  0  0  0  0  0  0  0  0  # atno 6908 bound_to 6896
  151.0713  134.9813  159.8366 H   0  0  0  0  0  0  0  0  0  0  0  0  # atno 6909 bound_to 6896
  145.2663  139.2683  143.3990 H   0  0  0  0  0  0  0  0  0  0  0  0  # atno 7974 bound_to 7965
  156.1155  140.1481  156.9278 H   0  0  0  0  0  0  0  0  0  0  0  0  # atno 8008 bound_to 7997
  154.4798  140.0883  156.7391 H   0  0  0  0  0  0  0  0  0  0  0  0  # atno 8009 bound_to 7997
  155.4521  140.3435  155.4304 H   0  0  0  0  0  0  0  0  0  0  0  0  # atno 8010 bound_to 7997
  139.7216  143.8948  152.2505 H   0  0  0  0  0  0  0  0  0  0  0  0  # atno 10167 bound_to 10162
  156.0881  130.4205  150.1079 H   0  0  0  0  0  0  0  0  0  0  0  0  # atno 10718 bound_to 10713
  153.8906  135.3033  155.3447 H   0  0  0  0  0  0  0  0  0  0  0  0  # atno 10763 bound_to 10752
  154.7718  135.4882  153.9667 H   0  0  0  0  0  0  0  0  0  0  0  0  # atno 10764 bound_to 10752
  153.1300  135.6801  153.9293 H   0  0  0  0  0  0  0  0  0  0  0  0  # atno 10765 bound_to 10752
  139.9865  134.9530  156.9754 H   0  0  0  0  0  0  0  0  0  0  0  0  # atno 11005 bound_to 11000
  146.3260  140.3094  142.8626 LP  0  0  0  0  0  0  0  0  0  0  0  0  # atno 17320 bound_to 7965
  144.9374  140.8041  143.5651 LP  0  0  0  0  0  0  0  0  0  0  0  0  # atno 17321 bound_to 7965
  139.8846  144.6999  150.8839 LP  0  0  0  0  0  0  0  0  0  0  0  0  # atno 17342 bound_to 10162
  140.7755  143.3634  151.1785 LP  0  0  0  0  0  0  0  0  0  0  0  0  # atno 17343 bound_to 10162
  156.9096  130.9647  151.3565 LP  0  0  0  0  0  0  0  0  0  0  0  0  # atno 17370 bound_to 10713
  157.6022  130.8521  149.8820 LP  0  0  0  0  0  0  0  0  0  0  0  0  # atno 17371 bound_to 10713
  140.4993  134.1113  155.7247 LP  0  0  0  0  0  0  0  0  0  0  0  0  # atno 17394 bound_to 11000
  141.1529  133.8937  157.2053 LP  0  0  0  0  0  0  0  0  0  0  0  0  # atno 17395 bound_to 11000

$$$$
