AV-unprocessed.smi:1659|AV-procd|sdf|6651|dock7
  -GOLD-   22720 7353D 1   1.00000     0.00000
 Structure written by MMmdl.
 42 43  0  0  0  0  0  0  0  0  2 V2000
  149.3972  140.6513  155.2692 C   0  0  0  0  0  0  0  0  0  0  0  0
  150.2967  139.4734  155.1134 C   0  0  0  0  0  0  0  0  0  0  0  0
  150.0697  138.1263  155.1130 C   0  0  0  0  0  0  0  0  0  0  0  0
  151.3653  137.5785  154.9055 C   0  0  0  0  0  0  0  0  0  0  0  0
  151.6693  136.2731  154.8393 N   0  5  0  0  0  0  0  0  0  0  0  0
  150.7434  135.3403  155.1612 C   0  0  0  0  0  0  0  0  0  0  0  0
  150.7649  134.5978  156.1458 O   0  0  0  0  0  0  0  0  0  0  0  0
  149.7290  135.2609  154.2894 N   0  0  0  0  0  0  0  0  0  0  0  0
  148.5978  134.3472  154.3983 C   0  0  0  0  0  0  0  0  0  0  0  0
  148.8058  133.0895  153.5410 C   0  0  0  0  0  0  0  0  0  0  0  0
  147.5008  132.3247  153.2479 C   0  0  0  0  0  0  0  0  0  0  0  0
  146.7743  132.9118  152.1156 N   0  0  0  0  0  0  0  0  0  0  0  0
  146.7723  132.1233  150.8733 C   0  0  0  0  0  0  0  0  0  0  0  0
  145.3992  131.4979  150.5360 C   0  0  0  0  0  0  0  0  0  0  0  0
  144.1595  132.2898  150.9974 C   0  0  0  0  0  0  0  0  0  0  0  0
  144.1410  133.7764  150.5836 C   0  0  0  0  0  0  0  0  0  0  0  0
  145.3718  134.6241  150.9871 C   0  0  0  0  0  0  0  0  0  0  0  0
  146.1324  134.1016  152.2172 C   0  0  0  0  0  0  0  0  0  0  0  0
  146.1322  134.7793  153.2451 O   0  0  0  0  0  0  0  0  0  0  0  0
  152.2985  138.5107  154.8076 N   0  0  0  0  0  0  0  0  0  0  0  0
  151.6203  139.7291  154.9327 O   0  0  0  0  0  0  0  0  0  0  0  0
  148.7110  140.5050  156.1032 H   0  0  0  0  0  0  0  0  0  0  0  0
  148.8057  140.8050  154.3668 H   0  0  0  0  0  0  0  0  0  0  0  0
  149.9685  141.5603  155.4585 H   0  0  0  0  0  0  0  0  0  0  0  0
  149.1279  137.6128  155.2352 H   0  0  0  0  0  0  0  0  0  0  0  0
  149.7444  135.8832  153.4945 H   0  0  0  0  0  0  0  0  0  0  0  0
  148.4734  134.0629  155.4441 H   0  0  0  0  0  0  0  0  0  0  0  0
  147.6817  134.8564  154.0946 H   0  0  0  0  0  0  0  0  0  0  0  0
  149.2942  133.3673  152.6062 H   0  0  0  0  0  0  0  0  0  0  0  0
  149.4989  132.4259  154.0593 H   0  0  0  0  0  0  0  0  0  0  0  0
  147.7243  131.2758  153.0487 H   0  0  0  0  0  0  0  0  0  0  0  0
  146.8603  132.3149  154.1316 H   0  0  0  0  0  0  0  0  0  0  0  0
  147.1009  132.7554  150.0484 H   0  0  0  0  0  0  0  0  0  0  0  0
  147.5251  131.3348  150.9123 H   0  0  0  0  0  0  0  0  0  0  0  0
  145.3453  131.3274  149.4602 H   0  0  0  0  0  0  0  0  0  0  0  0
  145.3483  130.5086  150.9924 H   0  0  0  0  0  0  0  0  0  0  0  0
  143.2665  131.8036  150.6031 H   0  0  0  0  0  0  0  0  0  0  0  0
  144.0652  132.2138  152.0817 H   0  0  0  0  0  0  0  0  0  0  0  0
  144.0160  133.8403  149.5022 H   0  0  0  0  0  0  0  0  0  0  0  0
  143.2469  134.2352  151.0071 H   0  0  0  0  0  0  0  0  0  0  0  0
  146.0656  134.6991  150.1499 H   0  0  0  0  0  0  0  0  0  0  0  0
  145.0525  135.6501  151.1747 H   0  0  0  0  0  0  0  0  0  0  0  0
  1  2  1  0  0  0  0
  1 22  1  0  0  0  0
  1 23  1  0  0  0  0
  1 24  1  0  0  0  0
  2 21  1  0  0  0  0
  2  3  2  0  0  0  0
  3  4  1  0  0  0  0
  3 25  1  0  0  0  0
  4  5  1  0  0  0  0
  4 20  2  0  0  0  0
  5  6  1  0  0  0  0
  6  7  2  0  0  0  0
  6  8  1  0  0  0  0
  8  9  1  0  0  0  0
  8 26  1  0  0  0  0
  9 10  1  0  0  0  0
  9 27  1  0  0  0  0
  9 28  1  0  0  0  0
 10 11  1  0  0  0  0
 10 29  1  0  0  0  0
 10 30  1  0  0  0  0
 11 12  1  0  0  0  0
 11 31  1  0  0  0  0
 11 32  1  0  0  0  0
 12 18  1  0  0  0  0
 12 13  1  0  0  0  0
 13 14  1  0  0  0  0
 13 33  1  0  0  0  0
 13 34  1  0  0  0  0
 14 15  1  0  0  0  0
 14 35  1  0  0  0  0
 14 36  1  0  0  0  0
 15 16  1  0  0  0  0
 15 37  1  0  0  0  0
 15 38  1  0  0  0  0
 16 17  1  0  0  0  0
 16 39  1  0  0  0  0
 16 40  1  0  0  0  0
 17 18  1  0  0  0  0
 17 41  1  0  0  0  0
 17 42  1  0  0  0  0
 18 19  2  0  0  0  0
 20 21  1  0  0  0  0
M  CHG  1   5  -1
M  END
> <s_m_source_file>
AV-unprocessed.smi

> <i_m_source_file_index>
1659

> <i_lp_mmshare_version>
43012

> <i_f3d_flags>
0

> <s_epik_input>
W0NIM11jMVtjSF1jKG5vMSlbTkhdQyg9TylbTkhdW0NIMl1bQ0gyXVtDSDJdTjJbQ0gyXVtDSDJdW0NIMl1bQ0gyXVtDSDJdQzI9Tw==

> <s_epik_cmdline>
J2VwaWtfcHl0aG9uJywgJy1waCcsICc3LjAnLCAnLXRuJywgJzgnLCAnLW1hJywgJzIwMCcsICctbWV0YWxfYmluZGluZycsICctaW1hZScsICc8aW5maWxlLm1hZT4nLCAnLW9tYWUnLCAnPG91dGZpbGUubWFlPic=

> <r_lp_tautomer_probability>
1

> <r_epik_Ionization_Penalty>
6.59786

> <r_epik_Ionization_Penalty_Charging>
6.59773

> <r_epik_Ionization_Penalty_Neutral>
0.00012688

> <r_epik_State_Penalty>
6.59772

> <r_epik_Charging_Adjusted_Penalty>
13.1954

> <i_epik_Tot_Q>
-1

> <i_epik_Tot_abs_Q>
1

> <r_epik_Metal_State_Penalty>
2.522

> <b_epik_Metal_Only>
1

> <s_lp_Force_Field>
OPLS_2005

> <r_lp_Energy>
19.1909

> <b_lp_Chiralities_Consistent>
1

> <s_lp_Variant>
AV-unprocessed.smi:1659-2

> <Gold.Version>
5.8.1

> <Gold.Id.Protein>
6NUR|6NUR_protein|mol2

> <Gold.PLP.Fitness>
45.2424

> <Gold.PLP.PLP>
-35.9001

> <Gold.PLP.part.hbond>
-3.0846

> <Gold.PLP.part.metal>
0.0000

> <Gold.PLP.part.buried>
-2.2527

> <Gold.PLP.part.nonpolar>
-31.2773

> <Gold.PLP.part.repulsive>
0.3878

> <Gold.PLP.ligand.clash>
0.0000

> <Gold.PLP.ligand.torsion>
1.1620

> <Gold.PLP.Chemscore.Hbond>
3.8664

> <Gold.PLP.Chemscore.CHOScore>
0.0000

> <Gold.PLP.Chemscore.Metal>
0.0000

> <Gold.Chemscore.Hbonds>
donor molecule, donor type, donor heavy atom, donor atom, acceptor molecule, acceptor atom, score
      L1  H     8    26       P1  7948  0.66
      P1  H  7989  7998       L1    21  1.00
      P1  H 10752 10765       L1     5  1.62

> <Gold.PLP.Chemscore.Internal.Correction>
0.0671

> <Gold.Rescore>
     Score         DG    S(hbond)    S(metal)    S(lipo)     H(rot)  DE(clash)    DE(int)     intcor
     13.09     -17.00       2.31        0.00      72.78       1.84       1.39       2.52       ----

> <Gold.Chemscore.Fitness>
13.0905

> <Gold.Chemscore.DG>
-17.0016

> <Gold.Chemscore.ZeroCoef>
-5.4800

> <Gold.Chemscore.Hbond>
2.3098

> <Gold.Chemscore.Metal>
0.0000

> <Gold.Chemscore.Lipo>
72.7792

> <Gold.Chemscore.Internal_Hbond>
0.0000

> <Gold.Chemscore.DEClash>
1.3901

> <Gold.Chemscore.DEInternal>
2.5209

> <Gold.Chemscore.Rot>
1.8391

> <Gold.Chemscore.Internal.Correction>
   9.000000E+99

> <Gold.Chemscore.Hbonds>
donor molecule, donor type, donor heavy atom, donor atom, acceptor molecule, acceptor atom, score
      L1  H     8    26       P1  7948  0.08
      P1  H  7989  7998       L1    21  0.42
      P1  H 10752 10765       L1     5  0.60

> <Gold.Chemscore.Hbond.Weighted>
-7.7146

> <Gold.Chemscore.Metal.Weighted>
-0.0000

> <Gold.Chemscore.Lipo.Weighted>
-8.5152

> <Gold.Chemscore.Internal_Hbond.Weighted>
0.0000

> <Gold.Chemscore.DEClash.Weighted>
1.3901

> <Gold.Chemscore.DEInternal.Weighted>
2.5209

> <Gold.Chemscore.Rot.Weighted>
4.7082

> <Gold.Chemscore.Internal.Correction.Weighted>
   9.000000E+99

> <Gold.Protein.RotatedTorsions>
[ 6907 6896 6895 6894 ] final    4.53 input  -60.11 | X-H torsion
[ 7974 7965 7964 7962 ] final   92.33 input  175.53 | X-H torsion
[ 8008 7997 7996 7995 ] final  -73.20 input   59.86 | X-H torsion
[ 10167 10162 10161 10158 ] final   -1.79 input  -65.29 | X-H torsion
[ 10718 10713 10712 10709 ] final -174.00 input   66.30 | X-H torsion
[ 10763 10752 10751 10750 ] final  173.73 input  -60.55 | X-H torsion
[ 11005 11000 10999 10996 ] final  116.70 input  -57.11 | X-H torsion

> <Gold.Protein.ActiveResidues>
 VAL166  LYS551  ARG553  GLY616  TRP617  ASP618  TYR619  PRO620  LYS621  CYS622 
 ASP623  PHE694  ASN695  SER759  ASP760  ASP761  ALA762  ILE779  LEU786  VAL792 
 PHE793  MET794  SER795  GLU796  ALA797  LYS798  CYS799  TRP800  GLU811  SER814 

> <Gold.Protein.RotatedAtoms>
  151.6428  135.1011  160.0144 H   0  0  0  0  0  0  0  0  0  0  0  0  # atno 6907 bound_to 6896
  152.4044  133.6863  159.6352 H   0  0  0  0  0  0  0  0  0  0  0  0  # atno 6908 bound_to 6896
  150.7940  133.8651  159.3284 H   0  0  0  0  0  0  0  0  0  0  0  0  # atno 6909 bound_to 6896
  145.4937  139.2276  143.2816 H   0  0  0  0  0  0  0  0  0  0  0  0  # atno 7974 bound_to 7965
  154.5228  140.0783  156.8202 H   0  0  0  0  0  0  0  0  0  0  0  0  # atno 8008 bound_to 7997
  155.3540  140.3414  155.4221 H   0  0  0  0  0  0  0  0  0  0  0  0  # atno 8009 bound_to 7997
  156.1699  140.1616  156.8453 H   0  0  0  0  0  0  0  0  0  0  0  0  # atno 8010 bound_to 7997
  140.6825  143.6733  150.8167 H   0  0  0  0  0  0  0  0  0  0  0  0  # atno 10167 bound_to 10162
  156.7786  130.9475  151.3120 H   0  0  0  0  0  0  0  0  0  0  0  0  # atno 10718 bound_to 10713
  154.4441  135.2763  155.1827 H   0  0  0  0  0  0  0  0  0  0  0  0  # atno 10763 bound_to 10752
  154.3682  135.6114  153.5729 H   0  0  0  0  0  0  0  0  0  0  0  0  # atno 10764 bound_to 10752
  152.9842  135.5851  154.4773 H   0  0  0  0  0  0  0  0  0  0  0  0  # atno 10765 bound_to 10752
  139.9050  134.9601  156.7238 H   0  0  0  0  0  0  0  0  0  0  0  0  # atno 11005 bound_to 11000
  146.2269  140.5733  142.8992 LP  0  0  0  0  0  0  0  0  0  0  0  0  # atno 17320 bound_to 7965
  144.7819  140.5858  143.6599 LP  0  0  0  0  0  0  0  0  0  0  0  0  # atno 17321 bound_to 7965
  140.0435  143.5321  152.2707 LP  0  0  0  0  0  0  0  0  0  0  0  0  # atno 17342 bound_to 10162
  139.6157  144.7619  151.2851 LP  0  0  0  0  0  0  0  0  0  0  0  0  # atno 17343 bound_to 10162
  157.6657  130.9005  149.9927 LP  0  0  0  0  0  0  0  0  0  0  0  0  # atno 17370 bound_to 10713
  156.1232  130.3645  149.9852 LP  0  0  0  0  0  0  0  0  0  0  0  0  # atno 17371 bound_to 10713
  140.6980  133.9332  155.8006 LP  0  0  0  0  0  0  0  0  0  0  0  0  # atno 17394 bound_to 11000
  141.0393  134.0644  157.3921 LP  0  0  0  0  0  0  0  0  0  0  0  0  # atno 17395 bound_to 11000

$$$$
