AV-unprocessed.smi:1664|AV-procd|sdf|6667|dock9
  -GOLD-   22720 7373D 1   1.00000     0.00000
 Structure written by MMmdl.
 35 36  0  0  0  0  0  0  0  0  3 V2000
  150.0445  139.8124  155.0600 C   0  0  0  0  0  0  0  0  0  0  0  0
  149.0757  140.9191  155.5214 C   0  0  1  0  0  0  0  0  0  0  0  0
  148.0952  140.3421  156.4654 C   0  0  0  0  0  0  0  0  0  0  0  0
  147.3276  139.8897  157.2046 N   0  0  0  0  0  0  0  0  0  0  0  0
  149.8362  141.9924  156.1639 N   0  0  0  0  0  0  0  0  0  0  0  0
  150.6411  141.8973  157.2360 C   0  0  0  0  0  0  0  0  0  0  0  0
  150.8855  140.8412  157.8171 O   0  0  0  0  0  0  0  0  0  0  0  0
  151.2581  143.2072  157.7357 C   0  0  0  0  0  0  0  0  0  0  0  0
  151.9721  143.0167  159.0084 N   0  0  0  0  0  0  0  0  0  0  0  0
  153.0303  142.0861  159.0114 C   0  0  0  0  0  0  0  0  0  0  0  0
  153.7674  141.8423  160.1125 C   0  0  0  0  0  0  0  0  0  0  0  0
  154.8583  140.8926  160.0913 N   0  3  0  0  0  0  0  0  0  0  0  0
  154.9478  140.1201  159.1425 O   0  0  0  0  0  0  0  0  0  0  0  0
  155.6597  140.8861  161.0211 O   0  5  0  0  0  0  0  0  0  0  0  0
  153.4355  142.5720  161.3207 C   0  0  0  0  0  0  0  0  0  0  0  0
  152.4270  143.4658  161.3239 C   0  0  0  0  0  0  0  0  0  0  0  0
  151.6309  143.7351  160.1220 C   0  0  0  0  0  0  0  0  0  0  0  0
  150.7141  144.5562  160.1177 O   0  0  0  0  0  0  0  0  0  0  0  0
  148.3436  141.4663  154.2977 C   0  0  0  0  0  0  0  0  0  0  0  0
  146.9289  141.9981  154.3630 C   0  0  0  0  0  0  0  0  0  0  0  0
  147.2220  140.7161  153.6142 C   0  0  0  0  0  0  0  0  0  0  0  0
  149.5103  139.0198  154.5350 H   0  0  0  0  0  0  0  0  0  0  0  0
  150.5613  139.3469  155.8997 H   0  0  0  0  0  0  0  0  0  0  0  0
  150.8025  140.2040  154.3807 H   0  0  0  0  0  0  0  0  0  0  0  0
  149.7131  142.9123  155.7665 H   0  0  0  0  0  0  0  0  0  0  0  0
  151.9272  143.6073  156.9716 H   0  0  0  0  0  0  0  0  0  0  0  0
  150.4709  143.9554  157.8410 H   0  0  0  0  0  0  0  0  0  0  0  0
  153.2013  141.5997  158.0618 H   0  0  0  0  0  0  0  0  0  0  0  0
  153.9935  142.4081  162.2310 H   0  0  0  0  0  0  0  0  0  0  0  0
  152.1978  143.9995  162.2346 H   0  0  0  0  0  0  0  0  0  0  0  0
  149.0052  142.0081  153.6235 H   0  0  0  0  0  0  0  0  0  0  0  0
  146.3888  141.9190  155.3040 H   0  0  0  0  0  0  0  0  0  0  0  0
  146.7004  142.8833  153.7731 H   0  0  0  0  0  0  0  0  0  0  0  0
  147.1875  140.7505  152.5273 H   0  0  0  0  0  0  0  0  0  0  0  0
  146.8779  139.7845  154.0585 H   0  0  0  0  0  0  0  0  0  0  0  0
  1  2  1  0  0  0  0
  1 22  1  0  0  0  0
  1 23  1  0  0  0  0
  1 24  1  0  0  0  0
  2  3  1  0  0  0  0
  2  5  1  0  0  0  0
  2 19  1  0  0  0  0
  3  4  3  0  0  0  0
  5  6  1  0  0  0  0
  5 25  1  0  0  0  0
  6  7  2  0  0  0  0
  6  8  1  0  0  0  0
  8  9  1  0  0  0  0
  8 26  1  0  0  0  0
  8 27  1  0  0  0  0
  9 17  1  0  0  0  0
  9 10  1  0  0  0  0
 10 11  2  0  0  0  0
 10 28  1  0  0  0  0
 11 12  1  0  0  0  0
 11 15  1  0  0  0  0
 12 13  2  0  0  0  0
 12 14  1  0  0  0  0
 15 16  2  0  0  0  0
 15 29  1  0  0  0  0
 16 17  1  0  0  0  0
 16 30  1  0  0  0  0
 17 18  2  0  0  0  0
 19 21  1  0  0  0  0
 19 20  1  0  0  0  0
 19 31  1  0  0  0  0
 20 21  1  0  0  0  0
 20 32  1  0  0  0  0
 20 33  1  0  0  0  0
 21 34  1  0  0  0  0
 21 35  1  0  0  0  0
M  CHG  1  12   1
M  CHG  1  14  -1
M  END
> <s_m_source_file>
AV-unprocessed.smi

> <i_m_source_file_index>
1664

> <i_lp_mmshare_version>
43012

> <i_f3d_flags>
0

> <s_epik_input>
W0NIMl0xW0NIMl1bQ0hdMVtDQF0oW0NIM10pKEMjTilbTkhdQyg9TylbQ0gyXW4yW2NIXWMoW04rXSg9TylbTy1dKVtjSF1bY0hdYzI9Tw==

> <s_epik_cmdline>
J2VwaWtfcHl0aG9uJywgJy1waCcsICc3LjAnLCAnLXRuJywgJzgnLCAnLW1hJywgJzIwMCcsICctbWV0YWxfYmluZGluZycsICctaW1hZScsICc8aW5maWxlLm1hZT4nLCAnLW9tYWUnLCAnPG91dGZpbGUubWFlPic=

> <r_lp_tautomer_probability>
1

> <r_epik_Ionization_Penalty>
4.65324e-07

> <r_epik_Ionization_Penalty_Charging>
6.17383e-11

> <r_epik_Ionization_Penalty_Neutral>
4.65262e-07

> <r_epik_State_Penalty>
-0

> <r_epik_Charging_Adjusted_Penalty>
6.17383e-11

> <i_epik_Tot_Q>
0

> <i_epik_Tot_abs_Q>
2

> <r_epik_Metal_State_Penalty>
-0

> <b_epik_Metal_Only>
0

> <s_lp_Force_Field>
OPLS_2005

> <r_lp_Energy>
25.9803

> <b_lp_Chiralities_Consistent>
1

> <s_lp_Variant>
AV-unprocessed.smi:1664-1

> <Gold.Version>
5.8.1

> <Gold.Id.Protein>
6NUR|6NUR_protein|mol2

> <Gold.PLP.Fitness>
52.4022

> <Gold.PLP.PLP>
-46.7826

> <Gold.PLP.part.hbond>
-3.0000

> <Gold.PLP.part.metal>
0.0000

> <Gold.PLP.part.buried>
-5.7848

> <Gold.PLP.part.nonpolar>
-38.5459

> <Gold.PLP.part.repulsive>
0.2598

> <Gold.PLP.ligand.clash>
0.0000

> <Gold.PLP.ligand.torsion>
0.9290

> <Gold.PLP.Chemscore.Hbond>
1.9760

> <Gold.PLP.Chemscore.CHOScore>
0.0000

> <Gold.PLP.Chemscore.Metal>
0.0000

> <Gold.Chemscore.Hbonds>
donor molecule, donor type, donor heavy atom, donor atom, acceptor molecule, acceptor atom, score
      L1  H     5    25       P1  8028  1.00
      P1  H  7997  8008       L1    13  0.96

> <Gold.PLP.Chemscore.Internal.Correction>
1.5494

> <Gold.Rescore>
     Score         DG    S(hbond)    S(metal)    S(lipo)     H(rot)  DE(clash)    DE(int)     intcor
     14.99     -17.39       1.95        0.00      88.64       1.94       0.03       2.37       ----

> <Gold.Chemscore.Fitness>
14.9880

> <Gold.Chemscore.DG>
-17.3866

> <Gold.Chemscore.ZeroCoef>
-5.4800

> <Gold.Chemscore.Hbond>
1.9458

> <Gold.Chemscore.Metal>
0.0000

> <Gold.Chemscore.Lipo>
88.6354

> <Gold.Chemscore.Internal_Hbond>
0.0000

> <Gold.Chemscore.DEClash>
0.0290

> <Gold.Chemscore.DEInternal>
2.3695

> <Gold.Chemscore.Rot>
1.9386

> <Gold.Chemscore.Internal.Correction>
   9.000000E+99

> <Gold.Chemscore.Hbonds>
donor molecule, donor type, donor heavy atom, donor atom, acceptor molecule, acceptor atom, score
      L1  H     5    25       P1  8028  0.94
      P1  H  7997  8008       L1    13  0.92

> <Gold.Chemscore.Hbond.Weighted>
-6.4990

> <Gold.Chemscore.Metal.Weighted>
-0.0000

> <Gold.Chemscore.Lipo.Weighted>
-10.3703

> <Gold.Chemscore.Internal_Hbond.Weighted>
0.0000

> <Gold.Chemscore.DEClash.Weighted>
0.0290

> <Gold.Chemscore.DEInternal.Weighted>
2.3695

> <Gold.Chemscore.Rot.Weighted>
4.9627

> <Gold.Chemscore.Internal.Correction.Weighted>
   9.000000E+99

> <Gold.Protein.RotatedTorsions>
[ 6907 6896 6895 6894 ] final  -62.37 input  -60.11 | X-H torsion
[ 7974 7965 7964 7962 ] final   -3.45 input  175.53 | X-H torsion
[ 8008 7997 7996 7995 ] final -120.46 input   59.86 | X-H torsion
[ 10167 10162 10161 10158 ] final  -77.56 input  -65.29 | X-H torsion
[ 10718 10713 10712 10709 ] final  130.74 input   66.30 | X-H torsion
[ 10763 10752 10751 10750 ] final   86.76 input  -60.55 | X-H torsion
[ 11005 11000 10999 10996 ] final -176.63 input  -57.11 | X-H torsion

> <Gold.Protein.ActiveResidues>
 VAL166  LYS551  ARG553  GLY616  TRP617  ASP618  TYR619  PRO620  LYS621  CYS622 
 ASP623  PHE694  ASN695  SER759  ASP760  ASP761  ALA762  ILE779  LEU786  VAL792 
 PHE793  MET794  SER795  GLU796  ALA797  LYS798  CYS799  TRP800  GLU811  SER814 

> <Gold.Protein.RotatedAtoms>
  150.7720  134.6579  159.6323 H   0  0  0  0  0  0  0  0  0  0  0  0  # atno 6907 bound_to 6896
  152.3776  134.6636  160.0163 H   0  0  0  0  0  0  0  0  0  0  0  0  # atno 6908 bound_to 6896
  151.6976  133.3274  159.3295 H   0  0  0  0  0  0  0  0  0  0  0  0  # atno 6909 bound_to 6896
  146.2389  140.1724  142.8332 H   0  0  0  0  0  0  0  0  0  0  0  0  # atno 7974 bound_to 7965
  155.1322  140.0400  157.2777 H   0  0  0  0  0  0  0  0  0  0  0  0  # atno 8008 bound_to 7997
  154.6534  140.2574  155.7162 H   0  0  0  0  0  0  0  0  0  0  0  0  # atno 8009 bound_to 7997
  156.2587  140.2831  156.0977 H   0  0  0  0  0  0  0  0  0  0  0  0  # atno 8010 bound_to 7997
  140.4760  143.2414  151.8132 H   0  0  0  0  0  0  0  0  0  0  0  0  # atno 10167 bound_to 10162
  157.5033  131.1095  150.9396 H   0  0  0  0  0  0  0  0  0  0  0  0  # atno 10718 bound_to 10713
  153.1602  135.4568  154.9761 H   0  0  0  0  0  0  0  0  0  0  0  0  # atno 10763 bound_to 10752
  154.7891  135.3214  154.7820 H   0  0  0  0  0  0  0  0  0  0  0  0  # atno 10764 bound_to 10752
  153.8311  135.6938  153.4869 H   0  0  0  0  0  0  0  0  0  0  0  0  # atno 10765 bound_to 10752
  140.4499  134.6353  157.4796 H   0  0  0  0  0  0  0  0  0  0  0  0  # atno 11005 bound_to 11000
  145.0001  140.8624  143.5287 LP  0  0  0  0  0  0  0  0  0  0  0  0  # atno 17320 bound_to 7965
  145.1742  139.2387  143.5326 LP  0  0  0  0  0  0  0  0  0  0  0  0  # atno 17321 bound_to 7965
  139.4825  144.4833  151.9279 LP  0  0  0  0  0  0  0  0  0  0  0  0  # atno 17342 bound_to 10162
  140.3918  144.2605  150.5899 LP  0  0  0  0  0  0  0  0  0  0  0  0  # atno 17343 bound_to 10162
  157.0060  130.5618  149.5316 LP  0  0  0  0  0  0  0  0  0  0  0  0  # atno 17370 bound_to 10713
  156.0243  130.5337  150.8362 LP  0  0  0  0  0  0  0  0  0  0  0  0  # atno 17371 bound_to 10713
  140.0014  134.6831  155.9525 LP  0  0  0  0  0  0  0  0  0  0  0  0  # atno 17394 bound_to 11000
  141.1669  133.6537  156.4510 LP  0  0  0  0  0  0  0  0  0  0  0  0  # atno 17395 bound_to 11000

$$$$
