AV-unprocessed.smi:498|AV-procd|sdf|2730|dock10
  -GOLD-   2262023183D 1   1.00000     0.00000
 Structure written by MMmdl.
 41 43  0  0  0  0  0  0  0  0  2 V2000
  155.9797  140.5752  160.1125 C   0  0  0  0  0  0  0  0  0  0  0  0
  154.6198  139.8750  160.0870 C   0  0  0  0  0  0  0  0  0  0  0  0
  154.3283  139.4970  158.7534 O   0  0  0  0  0  0  0  0  0  0  0  0
  153.0599  138.8762  158.6225 C   0  0  0  0  0  0  0  0  0  0  0  0
  151.9722  139.7762  159.2300 C   0  0  0  0  0  0  0  0  0  0  0  0
  151.6966  140.9600  158.4089 N   0  0  0  0  0  0  0  0  0  0  0  0
  151.2506  141.0637  157.1183 C   0  0  0  0  0  0  0  0  0  0  0  0
  150.9403  139.8875  156.2217 C   0  0  0  0  0  0  0  0  0  0  0  0
  149.5379  139.8820  155.8153 N   0  5  0  0  0  0  0  0  0  0  0  0
  149.0984  140.2458  154.5795 C   0  0  0  0  0  0  0  0  0  0  0  0
  149.4612  141.1765  153.8522 O   0  0  0  0  0  0  0  0  0  0  0  0
  148.0492  139.3303  154.0770 C   0  0  0  0  0  0  0  0  0  0  0  0
  147.2369  139.3872  152.9726 C   0  0  0  0  0  0  0  0  0  0  0  0
  146.4466  138.2050  152.9823 C   0  0  0  0  0  0  0  0  0  0  0  0
  146.8372  137.5032  154.0859 C   0  0  0  0  0  0  0  0  0  0  0  0
  147.8165  138.1687  154.7564 O   0  0  0  0  0  0  0  0  0  0  0  0
  151.1025  142.3116  156.6655 N   0  0  0  0  0  0  0  0  0  0  0  0
  151.4902  143.0850  157.7397 C   0  0  0  0  0  0  0  0  0  0  0  0
  151.5579  144.4897  157.8805 C   0  0  0  0  0  0  0  0  0  0  0  0
  151.9935  145.0654  159.0917 C   0  0  0  0  0  0  0  0  0  0  0  0
  152.3665  144.2462  160.1763 C   0  0  0  0  0  0  0  0  0  0  0  0
  152.3041  142.8446  160.0563 C   0  0  0  0  0  0  0  0  0  0  0  0
  151.8675  142.2734  158.8450 C   0  0  0  0  0  0  0  0  0  0  0  0
  156.2442  140.8764  161.1261 H   0  0  0  0  0  0  0  0  0  0  0  0
  155.9707  141.4690  159.4885 H   0  0  0  0  0  0  0  0  0  0  0  0
  156.7651  139.9161  159.7423 H   0  0  0  0  0  0  0  0  0  0  0  0
  154.6438  138.9947  160.7308 H   0  0  0  0  0  0  0  0  0  0  0  0
  153.8464  140.5436  160.4676 H   0  0  0  0  0  0  0  0  0  0  0  0
  152.8460  138.6857  157.5712 H   0  0  0  0  0  0  0  0  0  0  0  0
  153.0665  137.9096  159.1275 H   0  0  0  0  0  0  0  0  0  0  0  0
  151.0560  139.2098  159.3968 H   0  0  0  0  0  0  0  0  0  0  0  0
  152.2896  140.1119  160.2174 H   0  0  0  0  0  0  0  0  0  0  0  0
  151.6211  139.9320  155.3707 H   0  0  0  0  0  0  0  0  0  0  0  0
  151.2026  138.9697  156.7495 H   0  0  0  0  0  0  0  0  0  0  0  0
  147.2159  140.1849  152.2446 H   0  0  0  0  0  0  0  0  0  0  0  0
  145.6918  137.9053  152.2706 H   0  0  0  0  0  0  0  0  0  0  0  0
  146.5418  136.5591  154.5188 H   0  0  0  0  0  0  0  0  0  0  0  0
  151.2756  145.1239  157.0536 H   0  0  0  0  0  0  0  0  0  0  0  0
  152.0428  146.1400  159.1883 H   0  0  0  0  0  0  0  0  0  0  0  0
  152.7015  144.6938  161.1004 H   0  0  0  0  0  0  0  0  0  0  0  0
  152.5939  142.2149  160.8842 H   0  0  0  0  0  0  0  0  0  0  0  0
  1  2  1  0  0  0  0
  1 24  1  0  0  0  0
  1 25  1  0  0  0  0
  1 26  1  0  0  0  0
  2  3  1  0  0  0  0
  2 27  1  0  0  0  0
  2 28  1  0  0  0  0
  3  4  1  0  0  0  0
  4  5  1  0  0  0  0
  4 29  1  0  0  0  0
  4 30  1  0  0  0  0
  5  6  1  0  0  0  0
  5 31  1  0  0  0  0
  5 32  1  0  0  0  0
  6 23  1  0  0  0  0
  6  7  1  0  0  0  0
  7  8  1  0  0  0  0
  7 17  2  0  0  0  0
  8  9  1  0  0  0  0
  8 33  1  0  0  0  0
  8 34  1  0  0  0  0
  9 10  1  0  0  0  0
 10 11  2  0  0  0  0
 10 12  1  0  0  0  0
 12 16  1  0  0  0  0
 12 13  2  0  0  0  0
 13 14  1  0  0  0  0
 13 35  1  0  0  0  0
 14 15  2  0  0  0  0
 14 36  1  0  0  0  0
 15 16  1  0  0  0  0
 15 37  1  0  0  0  0
 17 18  1  0  0  0  0
 18 23  2  0  0  0  0
 18 19  1  0  0  0  0
 19 20  2  0  0  0  0
 19 38  1  0  0  0  0
 20 21  1  0  0  0  0
 20 39  1  0  0  0  0
 21 22  2  0  0  0  0
 21 40  1  0  0  0  0
 22 23  1  0  0  0  0
 22 41  1  0  0  0  0
M  CHG  1   9  -1
M  END
> <s_m_source_file>
AV-unprocessed.smi

> <i_m_source_file_index>
498

> <i_lp_mmshare_version>
43012

> <i_f3d_flags>
0

> <s_epik_input>
W0NIM11bQ0gyXU9bQ0gyXVtDSDJdbihjKGMxMilbY0hdW2NIXVtjSF1bY0hdMiljKG4xKVtDSDJdW05IXUMoPU8pYzNbY0hdW2NIXVtjSF1vMw==

> <s_epik_cmdline>
J2VwaWtfcHl0aG9uJywgJy1waCcsICc3LjAnLCAnLXRuJywgJzgnLCAnLW1hJywgJzIwMCcsICctbWV0YWxfYmluZGluZycsICctaW1hZScsICc8aW5maWxlLm1hZT4nLCAnLW9tYWUnLCAnPG91dGZpbGUubWFlPic=

> <r_epik_Ionization_Penalty>
7.14443

> <r_epik_Ionization_Penalty_Charging>
6.27046

> <r_epik_Ionization_Penalty_Neutral>
0.873973

> <r_epik_State_Penalty>
6.33192

> <r_epik_Charging_Adjusted_Penalty>
12.6024

> <i_epik_Tot_Q>
-1

> <i_epik_Tot_abs_Q>
1

> <r_epik_Metal_State_Penalty>
2.32923

> <b_epik_Metal_Only>
1

> <s_lp_Force_Field>
OPLS_2005

> <r_lp_Energy>
15.7295

> <b_lp_Chiralities_Consistent>
1

> <s_lp_Variant>
AV-unprocessed.smi:498-3

> <Gold.Version>
5.8.1

> <Gold.Id.Protein>
6NUR|6NUR_protein|mol2

> <Gold.PLP.Fitness>
48.7028

> <Gold.PLP.PLP>
-43.8121

> <Gold.PLP.part.hbond>
-3.0000

> <Gold.PLP.part.metal>
0.0000

> <Gold.PLP.part.buried>
-3.6871

> <Gold.PLP.part.nonpolar>
-39.0792

> <Gold.PLP.part.repulsive>
1.5888

> <Gold.PLP.ligand.clash>
0.0000

> <Gold.PLP.ligand.torsion>
0.5277

> <Gold.PLP.Chemscore.Hbond>
1.9295

> <Gold.PLP.Chemscore.CHOScore>
0.0000

> <Gold.PLP.Chemscore.Metal>
0.0000

> <Gold.Chemscore.Hbonds>
donor molecule, donor type, donor heavy atom, donor atom, acceptor molecule, acceptor atom, score
      P1  H  7989  7998       L1    11  0.19
      P1  H  7997  8010       L1     3  1.00
      P1  H  8011  8017       L1    11  0.88

> <Gold.PLP.Chemscore.Internal.Correction>
0.1576

> <Gold.Rescore>
     Score         DG    S(hbond)    S(metal)    S(lipo)     H(rot)  DE(clash)    DE(int)     intcor
     20.22     -22.32       2.24        0.00     121.56       1.90       1.75       0.34       ----

> <Gold.Chemscore.Fitness>
20.2182

> <Gold.Chemscore.DG>
-22.3165

> <Gold.Chemscore.ZeroCoef>
-5.4800

> <Gold.Chemscore.Hbond>
2.2385

> <Gold.Chemscore.Metal>
0.0000

> <Gold.Chemscore.Lipo>
121.5564

> <Gold.Chemscore.Internal_Hbond>
0.0000

> <Gold.Chemscore.DEClash>
1.7542

> <Gold.Chemscore.DEInternal>
0.3441

> <Gold.Chemscore.Rot>
1.8992

> <Gold.Chemscore.Internal.Correction>
   9.000000E+99

> <Gold.Chemscore.Hbonds>
donor molecule, donor type, donor heavy atom, donor atom, acceptor molecule, acceptor atom, score
      P1  H  7989  7998       L1    11  0.13
      P1  H  7997  8010       L1     3  0.96
      P1  H  8011  8017       L1    11  0.84

> <Gold.Chemscore.Hbond.Weighted>
-7.4765

> <Gold.Chemscore.Metal.Weighted>
-0.0000

> <Gold.Chemscore.Lipo.Weighted>
-14.2221

> <Gold.Chemscore.Internal_Hbond.Weighted>
0.0000

> <Gold.Chemscore.DEClash.Weighted>
1.7542

> <Gold.Chemscore.DEInternal.Weighted>
0.3441

> <Gold.Chemscore.Rot.Weighted>
4.8621

> <Gold.Chemscore.Internal.Correction.Weighted>
   9.000000E+99

> <Gold.Protein.RotatedTorsions>
[ 6907 6896 6895 6894 ] final   47.37 input  -60.11 | X-H torsion
[ 7974 7965 7964 7962 ] final   39.36 input  175.53 | X-H torsion
[ 8008 7997 7996 7995 ] final   -2.17 input   59.86 | X-H torsion
[ 10167 10162 10161 10158 ] final  157.43 input  -65.29 | X-H torsion
[ 10718 10713 10712 10709 ] final   93.91 input   66.30 | X-H torsion
[ 10763 10752 10751 10750 ] final   59.30 input  -60.55 | X-H torsion
[ 11005 11000 10999 10996 ] final -173.18 input  -57.11 | X-H torsion

> <Gold.Protein.ActiveResidues>
 VAL166  LYS551  ARG553  GLY616  TRP617  ASP618  TYR619  PRO620  LYS621  CYS622 
 ASP623  PHE694  ASN695  SER759  ASP760  ASP761  ALA762  ILE779  LEU786  VAL792 
 PHE793  MET794  SER795  GLU796  ALA797  LYS798  CYS799  TRP800  GLU811  SER814 

> <Gold.Protein.RotatedAtoms>
  152.2673  134.7971  160.0420 H   0  0  0  0  0  0  0  0  0  0  0  0  # atno 6907 bound_to 6896
  151.8596  133.3449  159.3707 H   0  0  0  0  0  0  0  0  0  0  0  0  # atno 6908 bound_to 6896
  150.7138  134.5147  159.5668 H   0  0  0  0  0  0  0  0  0  0  0  0  # atno 6909 bound_to 6896
  146.0990  139.5661  142.9426 H   0  0  0  0  0  0  0  0  0  0  0  0  # atno 7974 bound_to 7965
  154.6387  140.2541  155.7348 H   0  0  0  0  0  0  0  0  0  0  0  0  # atno 8008 bound_to 7997
  156.2517  140.2892  156.0691 H   0  0  0  0  0  0  0  0  0  0  0  0  # atno 8009 bound_to 7997
  155.1631  140.0385  157.2837 H   0  0  0  0  0  0  0  0  0  0  0  0  # atno 8010 bound_to 7997
  139.4823  144.4918  151.8297 H   0  0  0  0  0  0  0  0  0  0  0  0  # atno 10167 bound_to 10162
  157.6951  131.0494  150.4106 H   0  0  0  0  0  0  0  0  0  0  0  0  # atno 10718 bound_to 10713
  152.9891  135.5576  154.5691 H   0  0  0  0  0  0  0  0  0  0  0  0  # atno 10763 bound_to 10752
  154.5095  135.2801  155.1356 H   0  0  0  0  0  0  0  0  0  0  0  0  # atno 10764 bound_to 10752
  154.2754  135.6355  153.5379 H   0  0  0  0  0  0  0  0  0  0  0  0  # atno 10765 bound_to 10752
  140.4886  134.6006  157.4946 H   0  0  0  0  0  0  0  0  0  0  0  0  # atno 11005 bound_to 11000
  145.5891  141.0372  143.2080 LP  0  0  0  0  0  0  0  0  0  0  0  0  # atno 17320 bound_to 7965
  144.7418  139.7428  143.7308 LP  0  0  0  0  0  0  0  0  0  0  0  0  # atno 17321 bound_to 7965
  140.4403  144.1995  150.5891 LP  0  0  0  0  0  0  0  0  0  0  0  0  # atno 17342 bound_to 10162
  140.4690  143.2420  151.9115 LP  0  0  0  0  0  0  0  0  0  0  0  0  # atno 17343 bound_to 10162
  156.4490  130.4007  149.6648 LP  0  0  0  0  0  0  0  0  0  0  0  0  # atno 17370 bound_to 10713
  156.3804  130.7576  151.2568 LP  0  0  0  0  0  0  0  0  0  0  0  0  # atno 17371 bound_to 10713
  139.9783  134.7180  155.9908 LP  0  0  0  0  0  0  0  0  0  0  0  0  # atno 17394 bound_to 11000
  141.1495  133.6550  156.3970 LP  0  0  0  0  0  0  0  0  0  0  0  0  # atno 17395 bound_to 11000

$$$$
