AV-unprocessed.smi:2521|AV-procd|sdf|9918|dock9
  -GOLD-   2272013553D 1   1.00000     0.00000
 Structure written by MMmdl.
 35 36  0  0  0  0  0  0  0  0  2 V2000
  151.0277  143.0059  157.9190 C   0  0  0  0  0  0  0  0  0  0  0  0
  150.9799  143.4437  159.3901 C   0  0  0  0  0  0  0  0  0  0  0  0
  150.9574  144.9691  159.5651 C   0  0  0  0  0  0  0  0  0  0  0  0
  152.0561  142.7983  160.2059 C   0  0  0  0  0  0  0  0  0  0  0  0
  152.2681  143.0849  161.4941 N   0  0  0  0  0  0  0  0  0  0  0  0
  153.3204  142.3561  162.0278 N   0  0  0  0  0  0  0  0  0  0  0  0
  153.8967  141.5364  161.1378 C   0  0  0  0  0  0  0  0  0  0  0  0
  154.9316  140.7411  161.4549 N   0  5  0  0  0  0  0  0  0  0  0  0
  155.4464  140.7678  162.7054 C   0  0  0  0  0  0  0  0  0  0  0  0
  155.5609  139.8071  163.4700 O   0  0  0  0  0  0  0  0  0  0  0  0
  155.8510  141.9831  163.0970 N   0  0  0  0  0  0  0  0  0  0  0  0
  156.4381  142.2958  164.3937 C   0  0  0  0  0  0  0  0  0  0  0  0
  155.9346  143.6520  164.9136 C   0  0  1  0  0  0  0  0  0  0  0  0
  156.4394  144.0077  166.2964 C   0  0  0  0  0  0  0  0  0  0  0  0
  156.1903  145.5117  166.3415 C   0  0  0  0  0  0  0  0  0  0  0  0
  156.3586  145.9717  165.0037 O   0  0  0  0  0  0  0  0  0  0  0  0
  156.4048  144.8645  164.1072 C   0  0  0  0  0  0  0  0  0  0  0  0
  153.1477  141.5925  159.5428 S   0  0  0  0  0  0  0  0  0  0  0  0
  150.9549  141.9215  157.8306 H   0  0  0  0  0  0  0  0  0  0  0  0
  151.9579  143.3171  157.4424 H   0  0  0  0  0  0  0  0  0  0  0  0
  150.2031  143.4395  157.3528 H   0  0  0  0  0  0  0  0  0  0  0  0
  150.0326  143.0767  159.7872 H   0  0  0  0  0  0  0  0  0  0  0  0
  150.8375  145.2414  160.6141 H   0  0  0  0  0  0  0  0  0  0  0  0
  150.1315  145.4161  159.0114 H   0  0  0  0  0  0  0  0  0  0  0  0
  151.8819  145.4232  159.2070 H   0  0  0  0  0  0  0  0  0  0  0  0
  155.7431  142.7448  162.4435 H   0  0  0  0  0  0  0  0  0  0  0  0
  156.1797  141.5107  165.1059 H   0  0  0  0  0  0  0  0  0  0  0  0
  157.5254  142.3019  164.3033 H   0  0  0  0  0  0  0  0  0  0  0  0
  154.8434  143.6483  164.9363 H   0  0  0  0  0  0  0  0  0  0  0  0
  155.9257  143.4681  167.0925 H   0  0  0  0  0  0  0  0  0  0  0  0
  157.5080  143.8031  166.3776 H   0  0  0  0  0  0  0  0  0  0  0  0
  155.1655  145.7180  166.6529 H   0  0  0  0  0  0  0  0  0  0  0  0
  156.8629  146.0257  167.0283 H   0  0  0  0  0  0  0  0  0  0  0  0
  157.4364  144.7330  163.7780 H   0  0  0  0  0  0  0  0  0  0  0  0
  155.7901  145.0426  163.2247 H   0  0  0  0  0  0  0  0  0  0  0  0
  1  2  1  0  0  0  0
  1 19  1  0  0  0  0
  1 20  1  0  0  0  0
  1 21  1  0  0  0  0
  2  3  1  0  0  0  0
  2  4  1  0  0  0  0
  2 22  1  0  0  0  0
  3 23  1  0  0  0  0
  3 24  1  0  0  0  0
  3 25  1  0  0  0  0
  4 18  1  0  0  0  0
  4  5  2  0  0  0  0
  5  6  1  0  0  0  0
  6  7  2  0  0  0  0
  7  8  1  0  0  0  0
  7 18  1  0  0  0  0
  8  9  1  0  0  0  0
  9 10  2  0  0  0  0
  9 11  1  0  0  0  0
 11 12  1  0  0  0  0
 11 26  1  0  0  0  0
 12 13  1  0  0  0  0
 12 27  1  0  0  0  0
 12 28  1  0  0  0  0
 13 17  1  0  0  0  0
 13 14  1  0  0  0  0
 13 29  1  0  0  0  0
 14 15  1  0  0  0  0
 14 30  1  0  0  0  0
 14 31  1  0  0  0  0
 15 16  1  0  0  0  0
 15 32  1  0  0  0  0
 15 33  1  0  0  0  0
 16 17  1  0  0  0  0
 17 34  1  0  0  0  0
 17 35  1  0  0  0  0
M  CHG  1   8  -1
M  END
> <s_m_source_file>
AV-unprocessed.smi

> <i_m_source_file_index>
2521

> <i_lp_mmshare_version>
43012

> <i_f3d_flags>
0

> <s_epik_input>
W0NIM11bQ0hdKFtDSDNdKWMxbm5jKHMxKVtOSF1DKD1PKVtOSF1bQ0gyXVtDQEBIXTJbQ0gyXVtDSDJdT1tDSDJdMg==

> <s_epik_cmdline>
J2VwaWtfcHl0aG9uJywgJy1waCcsICc3LjAnLCAnLXRuJywgJzgnLCAnLW1hJywgJzIwMCcsICctbWV0YWxfYmluZGluZycsICctaW1hZScsICc8aW5maWxlLm1hZT4nLCAnLW9tYWUnLCAnPG91dGZpbGUubWFlPic=

> <r_lp_tautomer_probability>
1

> <r_epik_Ionization_Penalty>
4.4451

> <r_epik_Ionization_Penalty_Charging>
4.28522

> <r_epik_Ionization_Penalty_Neutral>
0.159875

> <r_epik_State_Penalty>
4.28479

> <r_epik_Charging_Adjusted_Penalty>
8.57002

> <i_epik_Tot_Q>
-1

> <i_epik_Tot_abs_Q>
1

> <r_epik_Metal_State_Penalty>
0.721771

> <b_epik_Metal_Only>
1

> <s_lp_Force_Field>
OPLS_2005

> <r_lp_Energy>
10.1938

> <b_lp_Chiralities_Consistent>
1

> <s_lp_Variant>
AV-unprocessed.smi:2521-4

> <Gold.Version>
5.8.1

> <Gold.Id.Protein>
6NUR|6NUR_protein|mol2

> <Gold.PLP.Fitness>
43.2124

> <Gold.PLP.PLP>
-44.8017

> <Gold.PLP.part.hbond>
-2.8611

> <Gold.PLP.part.metal>
0.0000

> <Gold.PLP.part.buried>
-5.8020

> <Gold.PLP.part.nonpolar>
-35.2408

> <Gold.PLP.part.repulsive>
0.2183

> <Gold.PLP.ligand.clash>
0.0000

> <Gold.PLP.ligand.torsion>
0.8520

> <Gold.PLP.Chemscore.Hbond>
0.0000

> <Gold.PLP.Chemscore.CHOScore>
0.0000

> <Gold.PLP.Chemscore.Metal>
0.0000

> <Gold.PLP.Chemscore.Internal.Correction>
0.1145

> <Gold.Rescore>
     Score         DG    S(hbond)    S(metal)    S(lipo)     H(rot)  DE(clash)    DE(int)     intcor
     11.89     -12.68       0.00        0.00      92.63       1.42       0.02       0.77       ----

> <Gold.Chemscore.Fitness>
11.8931

> <Gold.Chemscore.DG>
-12.6842

> <Gold.Chemscore.ZeroCoef>
-5.4800

> <Gold.Chemscore.Hbond>
0.0000

> <Gold.Chemscore.Metal>
0.0000

> <Gold.Chemscore.Lipo>
92.6282

> <Gold.Chemscore.Internal_Hbond>
0.0000

> <Gold.Chemscore.DEClash>
0.0202

> <Gold.Chemscore.DEInternal>
0.7708

> <Gold.Chemscore.Rot>
1.4193

> <Gold.Chemscore.Internal.Correction>
   9.000000E+99

> <Gold.Chemscore.Hbond.Weighted>
-0.0000

> <Gold.Chemscore.Metal.Weighted>
-0.0000

> <Gold.Chemscore.Lipo.Weighted>
-10.8375

> <Gold.Chemscore.Internal_Hbond.Weighted>
0.0000

> <Gold.Chemscore.DEClash.Weighted>
0.0202

> <Gold.Chemscore.DEInternal.Weighted>
0.7708

> <Gold.Chemscore.Rot.Weighted>
3.6333

> <Gold.Chemscore.Internal.Correction.Weighted>
   9.000000E+99

> <Gold.Protein.RotatedTorsions>
[ 6907 6896 6895 6894 ] final  -61.10 input  -60.11 | X-H torsion
[ 7974 7965 7964 7962 ] final    0.46 input  175.53 | X-H torsion
[ 8008 7997 7996 7995 ] final -141.08 input   59.86 | X-H torsion
[ 10167 10162 10161 10158 ] final  159.37 input  -65.29 | X-H torsion
[ 10718 10713 10712 10709 ] final -158.51 input   66.30 | X-H torsion
[ 10763 10752 10751 10750 ] final   18.18 input  -60.55 | X-H torsion
[ 11005 11000 10999 10996 ] final -119.69 input  -57.11 | X-H torsion

> <Gold.Protein.ActiveResidues>
 VAL166  LYS551  ARG553  GLY616  TRP617  ASP618  TYR619  PRO620  LYS621  CYS622 
 ASP623  PHE694  ASN695  SER759  ASP760  ASP761  ALA762  ILE779  LEU786  VAL792 
 PHE793  MET794  SER795  GLU796  ALA797  LYS798  CYS799  TRP800  GLU811  SER814 

> <Gold.Protein.RotatedAtoms>
  150.7808  134.6749  159.6411 H   0  0  0  0  0  0  0  0  0  0  0  0  # atno 6907 bound_to 6896
  152.3892  134.6465  160.0123 H   0  0  0  0  0  0  0  0  0  0  0  0  # atno 6908 bound_to 6896
  151.6771  133.3276  159.3246 H   0  0  0  0  0  0  0  0  0  0  0  0  # atno 6909 bound_to 6896
  146.2434  140.1134  142.8343 H   0  0  0  0  0  0  0  0  0  0  0  0  # atno 7974 bound_to 7965
  155.4719  140.0553  157.2978 H   0  0  0  0  0  0  0  0  0  0  0  0  # atno 8008 bound_to 7997
  154.4695  140.2034  155.9985 H   0  0  0  0  0  0  0  0  0  0  0  0  # atno 8009 bound_to 7997
  156.1031  140.3216  155.7974 H   0  0  0  0  0  0  0  0  0  0  0  0  # atno 8010 bound_to 7997
  139.4832  144.4736  151.8542 H   0  0  0  0  0  0  0  0  0  0  0  0  # atno 10167 bound_to 10162
  156.5552  130.8623  151.2792 H   0  0  0  0  0  0  0  0  0  0  0  0  # atno 10718 bound_to 10713
  153.1272  135.6732  153.9237 H   0  0  0  0  0  0  0  0  0  0  0  0  # atno 10763 bound_to 10752
  153.8734  135.3067  155.3444 H   0  0  0  0  0  0  0  0  0  0  0  0  # atno 10764 bound_to 10752
  154.7676  135.4956  153.9665 H   0  0  0  0  0  0  0  0  0  0  0  0  # atno 10765 bound_to 10752
  141.0197  134.0142  157.3299 H   0  0  0  0  0  0  0  0  0  0  0  0  # atno 11005 bound_to 11000
  145.0468  140.8987  143.5019 LP  0  0  0  0  0  0  0  0  0  0  0  0  # atno 17320 bound_to 7965
  145.1224  139.2685  143.5581 LP  0  0  0  0  0  0  0  0  0  0  0  0  # atno 17321 bound_to 7965
  140.4207  144.2247  150.5887 LP  0  0  0  0  0  0  0  0  0  0  0  0  # atno 17342 bound_to 10162
  140.4877  143.2358  151.8864 LP  0  0  0  0  0  0  0  0  0  0  0  0  # atno 17343 bound_to 10162
  157.7379  130.9805  150.2223 LP  0  0  0  0  0  0  0  0  0  0  0  0  # atno 17370 bound_to 10713
  156.2848  130.3738  149.7899 LP  0  0  0  0  0  0  0  0  0  0  0  0  # atno 17371 bound_to 10713
  139.9138  135.0194  156.7802 LP  0  0  0  0  0  0  0  0  0  0  0  0  # atno 17394 bound_to 11000
  140.6594  133.9659  155.7796 LP  0  0  0  0  0  0  0  0  0  0  0  0  # atno 17395 bound_to 11000

$$$$
