AV-unprocessed.smi:1889|AV-procd|sdf|7662|dock4
  -GOLD-   22720 9393D 1   1.00000     0.00000
 Structure written by MMmdl.
 35 36  0  0  0  0  0  0  0  0  2 V2000
  153.0079  142.7469  161.7103 C   0  0  0  0  0  0  0  0  0  0  0  0
  153.5683  141.3276  161.5680 C   0  0  0  0  0  0  0  0  0  0  0  0
  154.2038  141.0804  160.1927 C   0  0  0  0  0  0  0  0  0  0  0  0
  153.2142  141.1746  159.0797 C   0  0  0  0  0  0  0  0  0  0  0  0
  152.9947  140.1771  158.2192 N   0  0  0  0  0  0  0  0  0  0  0  0
  152.0528  140.5137  157.2582 N   0  0  0  0  0  0  0  0  0  0  0  0
  151.5914  141.7655  157.3893 C   0  0  0  0  0  0  0  0  0  0  0  0
  150.6720  142.2834  156.5582 N   0  5  0  0  0  0  0  0  0  0  0  0
  150.1333  141.5162  155.5833 C   0  0  0  0  0  0  0  0  0  0  0  0
  150.5987  140.4640  155.1390 O   0  0  0  0  0  0  0  0  0  0  0  0
  148.9843  141.9973  155.0906 N   0  0  0  0  0  0  0  0  0  0  0  0
  148.1937  141.3701  154.0385 C   0  0  0  0  0  0  0  0  0  0  0  0
  146.6981  141.6857  154.2072 C   0  0  1  0  0  0  0  0  0  0  0  0
  146.1794  141.4846  155.6264 C   0  0  0  0  0  0  0  0  0  0  0  0
  145.1921  142.6373  155.8395 C   0  0  0  0  0  0  0  0  0  0  0  0
  145.0714  143.2736  154.5753 O   0  0  0  0  0  0  0  0  0  0  0  0
  146.3167  143.1359  153.9128 C   0  0  0  0  0  0  0  0  0  0  0  0
  152.2909  142.6323  158.7567 S   0  0  0  0  0  0  0  0  0  0  0  0
  152.5599  142.8904  162.6937 H   0  0  0  0  0  0  0  0  0  0  0  0
  152.2397  142.9436  160.9622 H   0  0  0  0  0  0  0  0  0  0  0  0
  153.7930  143.4938  161.5902 H   0  0  0  0  0  0  0  0  0  0  0  0
  154.3088  141.1537  162.3496 H   0  0  0  0  0  0  0  0  0  0  0  0
  152.7675  140.6064  161.7353 H   0  0  0  0  0  0  0  0  0  0  0  0
  155.0032  141.8004  160.0130 H   0  0  0  0  0  0  0  0  0  0  0  0
  154.6626  140.0915  160.1645 H   0  0  0  0  0  0  0  0  0  0  0  0
  148.6342  142.8608  155.4786 H   0  0  0  0  0  0  0  0  0  0  0  0
  148.5429  141.7304  153.0700 H   0  0  0  0  0  0  0  0  0  0  0  0
  148.3539  140.2908  154.0565 H   0  0  0  0  0  0  0  0  0  0  0  0
  146.1182  141.0432  153.5426 H   0  0  0  0  0  0  0  0  0  0  0  0
  145.6974  140.5123  155.7317 H   0  0  0  0  0  0  0  0  0  0  0  0
  146.9815  141.5383  156.3639 H   0  0  0  0  0  0  0  0  0  0  0  0
  144.2206  142.2955  156.1972 H   0  0  0  0  0  0  0  0  0  0  0  0
  145.5888  143.3505  156.5635 H   0  0  0  0  0  0  0  0  0  0  0  0
  147.0397  143.8332  154.3398 H   0  0  0  0  0  0  0  0  0  0  0  0
  146.2270  143.3408  152.8456 H   0  0  0  0  0  0  0  0  0  0  0  0
  1  2  1  0  0  0  0
  1 19  1  0  0  0  0
  1 20  1  0  0  0  0
  1 21  1  0  0  0  0
  2  3  1  0  0  0  0
  2 22  1  0  0  0  0
  2 23  1  0  0  0  0
  3  4  1  0  0  0  0
  3 24  1  0  0  0  0
  3 25  1  0  0  0  0
  4 18  1  0  0  0  0
  4  5  2  0  0  0  0
  5  6  1  0  0  0  0
  6  7  2  0  0  0  0
  7  8  1  0  0  0  0
  7 18  1  0  0  0  0
  8  9  1  0  0  0  0
  9 10  2  0  0  0  0
  9 11  1  0  0  0  0
 11 12  1  0  0  0  0
 11 26  1  0  0  0  0
 12 13  1  0  0  0  0
 12 27  1  0  0  0  0
 12 28  1  0  0  0  0
 13 17  1  0  0  0  0
 13 14  1  0  0  0  0
 13 29  1  0  0  0  0
 14 15  1  0  0  0  0
 14 30  1  0  0  0  0
 14 31  1  0  0  0  0
 15 16  1  0  0  0  0
 15 32  1  0  0  0  0
 15 33  1  0  0  0  0
 16 17  1  0  0  0  0
 17 34  1  0  0  0  0
 17 35  1  0  0  0  0
M  CHG  1   8  -1
M  END
> <s_m_source_file>
AV-unprocessed.smi

> <i_m_source_file_index>
1889

> <i_lp_mmshare_version>
43012

> <i_f3d_flags>
0

> <s_epik_input>
W0NIM11bQ0gyXVtDSDJdYzFubmMoczEpW05IXUMoPU8pW05IXVtDSDJdW0NAQEhdMltDSDJdW0NIMl1PW0NIMl0y

> <s_epik_cmdline>
J2VwaWtfcHl0aG9uJywgJy1waCcsICc3LjAnLCAnLXRuJywgJzgnLCAnLW1hJywgJzIwMCcsICctbWV0YWxfYmluZGluZycsICctaW1hZScsICc8aW5maWxlLm1hZT4nLCAnLW9tYWUnLCAnPG91dGZpbGUubWFlPic=

> <r_lp_tautomer_probability>
1

> <r_epik_Ionization_Penalty>
4.29669

> <r_epik_Ionization_Penalty_Charging>
4.28522

> <r_epik_Ionization_Penalty_Neutral>
0.0114689

> <r_epik_State_Penalty>
4.28479

> <r_epik_Charging_Adjusted_Penalty>
8.57002

> <i_epik_Tot_Q>
-1

> <i_epik_Tot_abs_Q>
1

> <r_epik_Metal_State_Penalty>
0.72177

> <b_epik_Metal_Only>
1

> <s_lp_Force_Field>
OPLS_2005

> <r_lp_Energy>
12.2609

> <b_lp_Chiralities_Consistent>
1

> <s_lp_Variant>
AV-unprocessed.smi:1889-4

> <Gold.Version>
5.8.1

> <Gold.Id.Protein>
6NUR|6NUR_protein|mol2

> <Gold.PLP.Fitness>
44.2910

> <Gold.PLP.PLP>
-35.9002

> <Gold.PLP.part.hbond>
-3.0000

> <Gold.PLP.part.metal>
0.0000

> <Gold.PLP.part.buried>
-6.2660

> <Gold.PLP.part.nonpolar>
-25.9814

> <Gold.PLP.part.repulsive>
0.8134

> <Gold.PLP.ligand.clash>
0.0000

> <Gold.PLP.ligand.torsion>
0.3389

> <Gold.PLP.Chemscore.Hbond>
2.9680

> <Gold.PLP.Chemscore.CHOScore>
0.0000

> <Gold.PLP.Chemscore.Metal>
0.0000

> <Gold.Chemscore.Hbonds>
donor molecule, donor type, donor heavy atom, donor atom, acceptor molecule, acceptor atom, score
      L1  H    11    26       P1  8028  0.94
      P1  H  7989  7998       L1    10  1.00
      P1  H  7997  8008       L1     5  0.88

> <Gold.PLP.Chemscore.Internal.Correction>
0.1645

> <Gold.Rescore>
     Score         DG    S(hbond)    S(metal)    S(lipo)     H(rot)  DE(clash)    DE(int)     intcor
     14.09     -16.39       1.87        0.00      74.85       1.59       0.10       2.20       ----

> <Gold.Chemscore.Fitness>
14.0894

> <Gold.Chemscore.DG>
-16.3913

> <Gold.Chemscore.ZeroCoef>
-5.4800

> <Gold.Chemscore.Hbond>
1.8651

> <Gold.Chemscore.Metal>
0.0000

> <Gold.Chemscore.Lipo>
74.8546

> <Gold.Chemscore.Internal_Hbond>
0.0000

> <Gold.Chemscore.DEClash>
0.0972

> <Gold.Chemscore.DEInternal>
2.2046

> <Gold.Chemscore.Rot>
1.5922

> <Gold.Chemscore.Internal.Correction>
   9.000000E+99

> <Gold.Chemscore.Hbonds>
donor molecule, donor type, donor heavy atom, donor atom, acceptor molecule, acceptor atom, score
      L1  H    11    26       P1  8028  0.91
      P1  H  7989  7998       L1    10  0.61
      P1  H  7997  8008       L1     5  0.10

> <Gold.Chemscore.Hbond.Weighted>
-6.2294

> <Gold.Chemscore.Metal.Weighted>
-0.0000

> <Gold.Chemscore.Lipo.Weighted>
-8.7580

> <Gold.Chemscore.Internal_Hbond.Weighted>
0.0000

> <Gold.Chemscore.DEClash.Weighted>
0.0972

> <Gold.Chemscore.DEInternal.Weighted>
2.2046

> <Gold.Chemscore.Rot.Weighted>
4.0761

> <Gold.Chemscore.Internal.Correction.Weighted>
   9.000000E+99

> <Gold.Protein.RotatedTorsions>
[ 6907 6896 6895 6894 ] final   19.35 input  -60.11 | X-H torsion
[ 7974 7965 7964 7962 ] final  -30.30 input  175.53 | X-H torsion
[ 8008 7997 7996 7995 ] final  -85.61 input   59.86 | X-H torsion
[ 10167 10162 10161 10158 ] final  -72.68 input  -65.29 | X-H torsion
[ 10718 10713 10712 10709 ] final -164.47 input   66.30 | X-H torsion
[ 10763 10752 10751 10750 ] final  -14.75 input  -60.55 | X-H torsion
[ 11005 11000 10999 10996 ] final  -16.78 input  -57.11 | X-H torsion

> <Gold.Protein.ActiveResidues>
 VAL166  LYS551  ARG553  GLY616  TRP617  ASP618  TYR619  PRO620  LYS621  CYS622 
 ASP623  PHE694  ASN695  SER759  ASP760  ASP761  ALA762  ILE779  LEU786  VAL792 
 PHE793  MET794  SER795  GLU796  ALA797  LYS798  CYS799  TRP800  GLU811  SER814 

> <Gold.Protein.RotatedAtoms>
  151.8795  135.0459  160.0487 H   0  0  0  0  0  0  0  0  0  0  0  0  # atno 6907 bound_to 6896
  152.2524  133.5222  159.5342 H   0  0  0  0  0  0  0  0  0  0  0  0  # atno 6908 bound_to 6896
  150.7088  134.0858  159.3956 H   0  0  0  0  0  0  0  0  0  0  0  0  # atno 6909 bound_to 6896
  146.1153  140.5523  142.8759 H   0  0  0  0  0  0  0  0  0  0  0  0  # atno 7974 bound_to 7965
  154.6427  140.0589  156.9864 H   0  0  0  0  0  0  0  0  0  0  0  0  # atno 8008 bound_to 7997
  155.1492  140.3272  155.4416 H   0  0  0  0  0  0  0  0  0  0  0  0  # atno 8009 bound_to 7997
  156.2538  140.1950  156.6605 H   0  0  0  0  0  0  0  0  0  0  0  0  # atno 8010 bound_to 7997
  140.5172  143.2336  151.7492 H   0  0  0  0  0  0  0  0  0  0  0  0  # atno 10167 bound_to 10162
  156.6396  130.8963  151.2993 H   0  0  0  0  0  0  0  0  0  0  0  0  # atno 10718 bound_to 10713
  153.5330  135.7014  153.5674 H   0  0  0  0  0  0  0  0  0  0  0  0  # atno 10763 bound_to 10752
  153.3673  135.3954  155.1762 H   0  0  0  0  0  0  0  0  0  0  0  0  # atno 10764 bound_to 10752
  154.8682  135.3803  154.4829 H   0  0  0  0  0  0  0  0  0  0  0  0  # atno 10765 bound_to 10752
  140.8102  133.8146  155.9556 H   0  0  0  0  0  0  0  0  0  0  0  0  # atno 11005 bound_to 11000
  144.7547  140.5279  143.6777 LP  0  0  0  0  0  0  0  0  0  0  0  0  # atno 17320 bound_to 7965
  145.5580  139.1478  143.3357 LP  0  0  0  0  0  0  0  0  0  0  0  0  # atno 17321 bound_to 7965
  139.4913  144.4306  151.9876 LP  0  0  0  0  0  0  0  0  0  0  0  0  # atno 17342 bound_to 10162
  140.3401  144.3214  150.5969 LP  0  0  0  0  0  0  0  0  0  0  0  0  # atno 17343 bound_to 10162
  157.7175  130.9516  150.1311 LP  0  0  0  0  0  0  0  0  0  0  0  0  # atno 17370 bound_to 10713
  156.2170  130.3671  149.8602 LP  0  0  0  0  0  0  0  0  0  0  0  0  # atno 17371 bound_to 10713
  140.9205  134.2147  157.4929 LP  0  0  0  0  0  0  0  0  0  0  0  0  # atno 17394 bound_to 11000
  139.8714  134.9790  156.5020 LP  0  0  0  0  0  0  0  0  0  0  0  0  # atno 17395 bound_to 11000

$$$$
