AV-unprocessed.smi:1254|AV-procd|sdf|5273|dock7
  -GOLD-   22720 4393D 1   1.00000     0.00000
 Structure written by MMmdl.
 45 46  0  0  0  0  0  0  0  0  1 V2000
  146.0119  134.1859  162.2526 C   0  0  0  0  0  0  0  0  0  0  0  0
  146.6501  135.2346  161.4079 C   0  0  0  0  0  0  0  0  0  0  0  0
  147.3176  135.1898  160.2166 C   0  0  0  0  0  0  0  0  0  0  0  0
  147.6551  136.5558  159.9879 C   0  0  0  0  0  0  0  0  0  0  0  0
  148.3583  137.0728  158.8692 N   0  0  0  0  0  0  0  0  0  0  0  0
  149.6761  137.3032  158.7452 C   0  0  0  0  0  0  0  0  0  0  0  0
  150.5172  137.1213  159.6253 O   0  0  0  0  0  0  0  0  0  0  0  0
  149.9727  137.7685  157.5231 N   0  0  0  0  0  0  0  0  0  0  0  0
  151.3085  138.1360  157.0646 C   0  0  0  0  0  0  0  0  0  0  0  0
  151.3995  139.6348  156.7334 C   0  0  2  0  0  0  0  0  0  0  0  0
  151.3903  140.5028  158.0070 C   0  0  0  0  0  0  0  0  0  0  0  0
  151.4200  141.9301  157.7043 N   0  0  0  0  0  0  0  0  0  0  0  0
  151.4241  142.7233  158.9346 C   0  0  0  0  0  0  0  0  0  0  0  0
  151.6111  144.2473  158.7472 C   0  0  0  0  0  0  0  0  0  0  0  0
  152.9917  144.5642  158.1513 C   0  0  0  0  0  0  0  0  0  0  0  0
  151.4246  145.0122  160.0689 C   0  0  0  0  0  0  0  0  0  0  0  0
  150.2990  142.2518  156.8252 C   0  0  0  0  0  0  0  0  0  0  0  0
  150.2914  141.3775  155.5602 C   0  0  0  0  0  0  0  0  0  0  0  0
  150.2807  140.0035  155.9304 O   0  0  0  0  0  0  0  0  0  0  0  0
  147.2301  137.3525  160.9513 N   0  0  0  0  0  0  0  0  0  0  0  0
  146.5853  136.5132  161.8673 O   0  0  0  0  0  0  0  0  0  0  0  0
  145.9734  133.2323  161.7259 H   0  0  0  0  0  0  0  0  0  0  0  0
  144.9921  134.4674  162.5153 H   0  0  0  0  0  0  0  0  0  0  0  0
  146.5724  134.0406  163.1761 H   0  0  0  0  0  0  0  0  0  0  0  0
  147.5203  134.3137  159.6196 H   0  0  0  0  0  0  0  0  0  0  0  0
  147.7887  137.2863  158.0640 H   0  0  0  0  0  0  0  0  0  0  0  0
  149.2180  137.8897  156.8638 H   0  0  0  0  0  0  0  0  0  0  0  0
  152.0681  137.8566  157.7967 H   0  0  0  0  0  0  0  0  0  0  0  0
  151.5182  137.5509  156.1687 H   0  0  0  0  0  0  0  0  0  0  0  0
  152.3190  139.8218  156.1752 H   0  0  0  0  0  0  0  0  0  0  0  0
  150.5015  140.2702  158.5960 H   0  0  0  0  0  0  0  0  0  0  0  0
  152.2497  140.2412  158.6253 H   0  0  0  0  0  0  0  0  0  0  0  0
  150.5195  142.5239  159.5115 H   0  0  0  0  0  0  0  0  0  0  0  0
  152.2418  142.3600  159.5586 H   0  0  0  0  0  0  0  0  0  0  0  0
  150.8701  144.6095  158.0330 H   0  0  0  0  0  0  0  0  0  0  0  0
  153.7944  144.2267  158.8079 H   0  0  0  0  0  0  0  0  0  0  0  0
  153.1175  145.6361  157.9960 H   0  0  0  0  0  0  0  0  0  0  0  0
  153.1237  144.0772  157.1846 H   0  0  0  0  0  0  0  0  0  0  0  0
  152.1691  144.7124  160.8072 H   0  0  0  0  0  0  0  0  0  0  0  0
  150.4421  144.8361  160.5048 H   0  0  0  0  0  0  0  0  0  0  0  0
  151.5246  146.0873  159.9168 H   0  0  0  0  0  0  0  0  0  0  0  0
  149.3578  142.1202  157.3611 H   0  0  0  0  0  0  0  0  0  0  0  0
  150.3466  143.2970  156.5217 H   0  0  0  0  0  0  0  0  0  0  0  0
  149.4092  141.5911  154.9566 H   0  0  0  0  0  0  0  0  0  0  0  0
  151.1637  141.5877  154.9393 H   0  0  0  0  0  0  0  0  0  0  0  0
  1  2  1  0  0  0  0
  1 22  1  0  0  0  0
  1 23  1  0  0  0  0
  1 24  1  0  0  0  0
  2 21  1  0  0  0  0
  2  3  2  0  0  0  0
  3  4  1  0  0  0  0
  3 25  1  0  0  0  0
  4  5  1  0  0  0  0
  4 20  2  0  0  0  0
  5  6  1  0  0  0  0
  5 26  1  0  0  0  0
  6  7  2  0  0  0  0
  6  8  1  0  0  0  0
  8  9  1  0  0  0  0
  8 27  1  0  0  0  0
  9 10  1  0  0  0  0
  9 28  1  0  0  0  0
  9 29  1  0  0  0  0
 10 19  1  0  0  0  0
 10 11  1  0  0  0  0
 10 30  1  0  0  0  0
 11 12  1  0  0  0  0
 11 31  1  0  0  0  0
 11 32  1  0  0  0  0
 12 13  1  0  0  0  0
 12 17  1  0  0  0  0
 13 14  1  0  0  0  0
 13 33  1  0  0  0  0
 13 34  1  0  0  0  0
 14 15  1  0  0  0  0
 14 16  1  0  0  0  0
 14 35  1  0  0  0  0
 15 36  1  0  0  0  0
 15 37  1  0  0  0  0
 15 38  1  0  0  0  0
 16 39  1  0  0  0  0
 16 40  1  0  0  0  0
 16 41  1  0  0  0  0
 17 18  1  0  0  0  0
 17 42  1  0  0  0  0
 17 43  1  0  0  0  0
 18 19  1  0  0  0  0
 18 44  1  0  0  0  0
 18 45  1  0  0  0  0
 20 21  1  0  0  0  0
M  END
> <s_m_source_file>
AV-unprocessed.smi

> <i_m_source_file_index>
1254

> <i_lp_mmshare_version>
43012

> <i_f3d_flags>
0

> <s_epik_input>
W0NIM11jMVtjSF1jKG5vMSlbTkhdQyg9TylbTkhdW0NIMl1bQ0BASF0yW0NIMl1OKFtDSDJdW0NIMl1PMilbQ0gyXVtDSF0oW0NIM10pW0NIM10=

> <s_epik_cmdline>
J2VwaWtfcHl0aG9uJywgJy1waCcsICc3LjAnLCAnLXRuJywgJzgnLCAnLW1hJywgJzIwMCcsICctbWV0YWxfYmluZGluZycsICctaW1hZScsICc8aW5maWxlLm1hZT4nLCAnLW9tYWUnLCAnPG91dGZpbGUubWFlPic=

> <r_epik_Ionization_Penalty>
1.11086

> <r_epik_Ionization_Penalty_Charging>
0

> <r_epik_Ionization_Penalty_Neutral>
1.11086

> <r_epik_State_Penalty>
1.16881

> <r_epik_Charging_Adjusted_Penalty>
1.16881

> <i_epik_Tot_Q>
0

> <i_epik_Tot_abs_Q>
0

> <r_epik_Metal_State_Penalty>
1.1835

> <b_epik_Metal_Only>
0

> <s_lp_Force_Field>
OPLS_2005

> <r_lp_Energy>
24.7903

> <b_lp_Chiralities_Consistent>
1

> <s_lp_Variant>
AV-unprocessed.smi:1254-5

> <Gold.Version>
5.8.1

> <Gold.Id.Protein>
6NUR|6NUR_protein|mol2

> <Gold.PLP.Fitness>
47.0834

> <Gold.PLP.PLP>
-40.1738

> <Gold.PLP.part.hbond>
-3.0000

> <Gold.PLP.part.metal>
0.0000

> <Gold.PLP.part.buried>
-5.8068

> <Gold.PLP.part.nonpolar>
-32.2310

> <Gold.PLP.part.repulsive>
0.2543

> <Gold.PLP.ligand.clash>
0.0000

> <Gold.PLP.ligand.torsion>
0.8669

> <Gold.PLP.Chemscore.Hbond>
2.8473

> <Gold.PLP.Chemscore.CHOScore>
0.0000

> <Gold.PLP.Chemscore.Metal>
0.0000

> <Gold.Chemscore.Hbonds>
donor molecule, donor type, donor heavy atom, donor atom, acceptor molecule, acceptor atom, score
      P1  H  6896  6907       L1     7  0.73
      P1  H  6931  6943       L1    20  0.37
      P1  H  6934  6947       L1    20  1.00

> <Gold.PLP.Chemscore.Internal.Correction>
0.1017

> <Gold.Rescore>
     Score         DG    S(hbond)    S(metal)    S(lipo)     H(rot)  DE(clash)    DE(int)     intcor
     20.09     -20.93       2.61        0.00      94.48       1.69       0.04       0.80       ----

> <Gold.Chemscore.Fitness>
20.0921

> <Gold.Chemscore.DG>
-20.9346

> <Gold.Chemscore.ZeroCoef>
-5.4800

> <Gold.Chemscore.Hbond>
2.6127

> <Gold.Chemscore.Metal>
0.0000

> <Gold.Chemscore.Lipo>
94.4837

> <Gold.Chemscore.Internal_Hbond>
0.0000

> <Gold.Chemscore.DEClash>
0.0405

> <Gold.Chemscore.DEInternal>
0.8020

> <Gold.Chemscore.Rot>
1.6900

> <Gold.Chemscore.Internal.Correction>
   9.000000E+99

> <Gold.Chemscore.Hbonds>
donor molecule, donor type, donor heavy atom, donor atom, acceptor molecule, acceptor atom, score
      P1  H  6896  6907       L1     7  0.64
      P1  H  6931  6943       L1    20  0.18
      P1  H  6934  6947       L1    20  0.99

> <Gold.Chemscore.Hbond.Weighted>
-8.7265

> <Gold.Chemscore.Metal.Weighted>
-0.0000

> <Gold.Chemscore.Lipo.Weighted>
-11.0546

> <Gold.Chemscore.Internal_Hbond.Weighted>
0.0000

> <Gold.Chemscore.DEClash.Weighted>
0.0405

> <Gold.Chemscore.DEInternal.Weighted>
0.8020

> <Gold.Chemscore.Rot.Weighted>
4.3265

> <Gold.Chemscore.Internal.Correction.Weighted>
   9.000000E+99

> <Gold.Protein.RotatedTorsions>
[ 6907 6896 6895 6894 ] final  -28.76 input  -60.11 | X-H torsion
[ 7974 7965 7964 7962 ] final   -4.55 input  175.53 | X-H torsion
[ 8008 7997 7996 7995 ] final   -0.53 input   59.86 | X-H torsion
[ 10167 10162 10161 10158 ] final   46.24 input  -65.29 | X-H torsion
[ 10718 10713 10712 10709 ] final  -64.11 input   66.30 | X-H torsion
[ 10763 10752 10751 10750 ] final  -17.26 input  -60.55 | X-H torsion
[ 11005 11000 10999 10996 ] final -142.10 input  -57.11 | X-H torsion

> <Gold.Protein.ActiveResidues>
 VAL166  LYS551  ARG553  GLY616  TRP617  ASP618  TYR619  PRO620  LYS621  CYS622 
 ASP623  PHE694  ASN695  SER759  ASP760  ASP761  ALA762  ILE779  LEU786  VAL792 
 PHE793  MET794  SER795  GLU796  ALA797  LYS798  CYS799  TRP800  GLU811  SER814 

> <Gold.Protein.RotatedAtoms>
  151.1285  135.0117  159.8571 H   0  0  0  0  0  0  0  0  0  0  0  0  # atno 6907 bound_to 6896
  152.5450  134.1639  159.8579 H   0  0  0  0  0  0  0  0  0  0  0  0  # atno 6908 bound_to 6896
  151.1703  133.4743  159.2627 H   0  0  0  0  0  0  0  0  0  0  0  0  # atno 6909 bound_to 6896
  146.2370  140.1888  142.8332 H   0  0  0  0  0  0  0  0  0  0  0  0  # atno 7974 bound_to 7965
  154.6570  140.2582  155.7151 H   0  0  0  0  0  0  0  0  0  0  0  0  # atno 8008 bound_to 7997
  156.2601  140.2856  156.0948 H   0  0  0  0  0  0  0  0  0  0  0  0  # atno 8009 bound_to 7997
  155.1365  140.0379  157.2778 H   0  0  0  0  0  0  0  0  0  0  0  0  # atno 8010 bound_to 7997
  140.3160  144.2763  150.6191 H   0  0  0  0  0  0  0  0  0  0  0  0  # atno 10167 bound_to 10162
  156.0749  130.4229  150.1373 H   0  0  0  0  0  0  0  0  0  0  0  0  # atno 10718 bound_to 10713
  153.5712  135.7007  153.5504 H   0  0  0  0  0  0  0  0  0  0  0  0  # atno 10763 bound_to 10752
  153.3343  135.4038  155.1520 H   0  0  0  0  0  0  0  0  0  0  0  0  # atno 10764 bound_to 10752
  154.8633  135.3726  154.5234 H   0  0  0  0  0  0  0  0  0  0  0  0  # atno 10765 bound_to 10752
  140.8259  134.2575  157.4879 H   0  0  0  0  0  0  0  0  0  0  0  0  # atno 11005 bound_to 11000
  144.9875  140.8516  143.5360 LP  0  0  0  0  0  0  0  0  0  0  0  0  # atno 17320 bound_to 7965
  145.1889  139.2311  143.5253 LP  0  0  0  0  0  0  0  0  0  0  0  0  # atno 17321 bound_to 7965
  140.5526  143.2204  151.7901 LP  0  0  0  0  0  0  0  0  0  0  0  0  # atno 17342 bound_to 10162
  139.4884  144.4456  151.9714 LP  0  0  0  0  0  0  0  0  0  0  0  0  # atno 17343 bound_to 10162
  156.9416  130.9746  151.3515 LP  0  0  0  0  0  0  0  0  0  0  0  0  # atno 17370 bound_to 10713
  157.5840  130.8396  149.8562 LP  0  0  0  0  0  0  0  0  0  0  0  0  # atno 17371 bound_to 10713
  139.8706  134.9560  156.4224 LP  0  0  0  0  0  0  0  0  0  0  0  0  # atno 17394 bound_to 11000
  140.9050  133.7752  155.9724 LP  0  0  0  0  0  0  0  0  0  0  0  0  # atno 17395 bound_to 11000

$$$$
