AV-unprocessed.smi:3329|AV-procd|sdf|12796|dock1
  -GOLD-   2272019153D 1   1.00000     0.00000
 Structure written by MMmdl.
 42 43  0  0  0  0  0  0  0  0  2 V2000
  151.3975  142.3780  158.7037 C   0  0  0  0  0  0  0  0  0  0  0  0
  151.2679  141.5136  157.4827 C   0  0  0  0  0  0  0  0  0  0  0  0
  150.7085  141.8645  156.2213 C   0  0  0  0  0  0  0  0  0  0  0  0
  150.7443  140.8698  155.3495 N   0  0  0  0  0  0  0  0  0  0  0  0
  151.3294  139.8534  156.0182 N   0  0  0  0  0  0  0  0  0  0  0  0
  151.5257  138.5709  155.3636 C   0  0  0  0  0  0  0  0  0  0  0  0
  150.6145  138.3819  154.1386 C   0  0  0  0  0  0  0  0  0  0  0  0
  149.9323  137.0735  154.1733 N   0  3  0  0  0  0  0  0  0  0  0  0
  150.7040  136.0033  154.8362 C   0  0  0  0  0  0  0  0  0  0  0  0
  149.9038  134.7047  154.9449 C   0  0  0  0  0  0  0  0  0  0  0  0
  150.0535  133.9623  155.9152 O   0  0  0  0  0  0  0  0  0  0  0  0
  149.0544  134.4529  153.9339 N   0  0  0  0  0  0  0  0  0  0  0  0
  148.1555  133.3032  153.7606 C   0  0  2  0  0  0  0  0  0  0  0  0
  147.0920  133.4250  154.8644 C   0  0  0  0  0  0  0  0  0  0  0  0
  148.8618  132.0223  153.9597 C   0  0  0  0  0  0  0  0  0  0  0  0
  149.4160  131.0180  154.1138 N   0  0  0  0  0  0  0  0  0  0  0  0
  147.4428  133.2317  152.4078 C   0  0  0  0  0  0  0  0  0  0  0  0
  146.0989  133.8647  152.1199 C   0  0  0  0  0  0  0  0  0  0  0  0
  146.2294  132.3588  152.1783 C   0  0  0  0  0  0  0  0  0  0  0  0
  151.6445  140.2113  157.3122 C   0  0  0  0  0  0  0  0  0  0  0  0
  150.4563  142.4452  159.2494 H   0  0  0  0  0  0  0  0  0  0  0  0
  151.6939  143.3954  158.4471 H   0  0  0  0  0  0  0  0  0  0  0  0
  152.1449  141.9920  159.3972 H   0  0  0  0  0  0  0  0  0  0  0  0
  150.2795  142.8075  155.9156 H   0  0  0  0  0  0  0  0  0  0  0  0
  152.5730  138.4842  155.0704 H   0  0  0  0  0  0  0  0  0  0  0  0
  151.3382  137.7836  156.0948 H   0  0  0  0  0  0  0  0  0  0  0  0
  149.8644  139.1730  154.1132 H   0  0  0  0  0  0  0  0  0  0  0  0
  151.1940  138.4674  153.2184 H   0  0  0  0  0  0  0  0  0  0  0  0
  149.0579  137.1836  154.6674 H   0  0  0  0  0  0  0  0  0  0  0  0
  151.6176  135.8096  154.2728 H   0  0  0  0  0  0  0  0  0  0  0  0
  150.9953  136.3350  155.8340 H   0  0  0  0  0  0  0  0  0  0  0  0
  149.0200  135.1384  153.1931 H   0  0  0  0  0  0  0  0  0  0  0  0
  146.3934  132.5878  154.8365 H   0  0  0  0  0  0  0  0  0  0  0  0
  146.5100  134.3417  154.7581 H   0  0  0  0  0  0  0  0  0  0  0  0
  147.5473  133.4344  155.8559 H   0  0  0  0  0  0  0  0  0  0  0  0
  148.1409  133.2763  151.5733 H   0  0  0  0  0  0  0  0  0  0  0  0
  145.5524  134.3450  152.9261 H   0  0  0  0  0  0  0  0  0  0  0  0
  145.9612  134.3164  151.1397 H   0  0  0  0  0  0  0  0  0  0  0  0
  146.1770  131.8129  151.2385 H   0  0  0  0  0  0  0  0  0  0  0  0
  145.7882  131.8517  153.0336 H   0  0  0  0  0  0  0  0  0  0  0  0
  152.1094  139.5184  157.9982 H   0  0  0  0  0  0  0  0  0  0  0  0
  149.7305  136.7838  153.2267 H   0  0  0  0  0  0  0  0  0  0  0  0
  1  2  1  0  0  0  0
  1 21  1  0  0  0  0
  1 22  1  0  0  0  0
  1 23  1  0  0  0  0
  2 20  2  0  0  0  0
  2  3  1  0  0  0  0
  3  4  2  0  0  0  0
  3 24  1  0  0  0  0
  4  5  1  0  0  0  0
  5  6  1  0  0  0  0
  5 20  1  0  0  0  0
  6  7  1  0  0  0  0
  6 25  1  0  0  0  0
  6 26  1  0  0  0  0
  7  8  1  0  0  0  0
  7 27  1  0  0  0  0
  7 28  1  0  0  0  0
  8  9  1  0  0  0  0
  8 29  1  0  0  0  0
  8 42  1  0  0  0  0
  9 10  1  0  0  0  0
  9 30  1  0  0  0  0
  9 31  1  0  0  0  0
 10 11  2  0  0  0  0
 10 12  1  0  0  0  0
 12 13  1  0  0  0  0
 12 32  1  0  0  0  0
 13 14  1  0  0  0  0
 13 15  1  0  0  0  0
 13 17  1  0  0  0  0
 14 33  1  0  0  0  0
 14 34  1  0  0  0  0
 14 35  1  0  0  0  0
 15 16  3  0  0  0  0
 17 19  1  0  0  0  0
 17 18  1  0  0  0  0
 17 36  1  0  0  0  0
 18 19  1  0  0  0  0
 18 37  1  0  0  0  0
 18 38  1  0  0  0  0
 19 39  1  0  0  0  0
 19 40  1  0  0  0  0
 20 41  1  0  0  0  0
M  CHG  1   8   1
M  END
> <s_m_source_file>
AV-unprocessed.smi

> <i_m_source_file_index>
3329

> <i_lp_mmshare_version>
43012

> <i_f3d_flags>
0

> <s_epik_input>
W0NIM11jMVtjSF1ubihbY0hdMSlbQ0gyXVtDSDJdW05IXVtDSDJdQyg9TylbTkhdW0NAQF0oW0NIM10pKEMjTilbQ0hdMltDSDJdW0NIMl0y

> <s_epik_cmdline>
J2VwaWtfcHl0aG9uJywgJy1waCcsICc3LjAnLCAnLXRuJywgJzgnLCAnLW1hJywgJzIwMCcsICctbWV0YWxfYmluZGluZycsICctaW1hZScsICc8aW5maWxlLm1hZT4nLCAnLW9tYWUnLCAnPG91dGZpbGUubWFlPic=

> <r_lp_tautomer_probability>
1

> <r_epik_Ionization_Penalty>
0.350291

> <r_epik_Ionization_Penalty_Charging>
0.350239

> <r_epik_Ionization_Penalty_Neutral>
5.12768e-05

> <r_epik_State_Penalty>
0.347656

> <r_epik_Charging_Adjusted_Penalty>
0.697895

> <i_epik_Tot_Q>
1

> <i_epik_Tot_abs_Q>
1

> <r_epik_Metal_State_Penalty>
0.371739

> <b_epik_Metal_Only>
0

> <s_lp_Force_Field>
OPLS_2005

> <r_lp_Energy>
13.221

> <b_lp_Chiralities_Consistent>
1

> <s_lp_Variant>
AV-unprocessed.smi:3329-2

> <Gold.Version>
5.8.1

> <Gold.Id.Protein>
6NUR|6NUR_protein|mol2

> <Gold.PLP.Fitness>
47.5221

> <Gold.PLP.PLP>
-35.8074

> <Gold.PLP.part.hbond>
-3.7226

> <Gold.PLP.part.metal>
0.0000

> <Gold.PLP.part.buried>
-3.1769

> <Gold.PLP.part.nonpolar>
-28.7629

> <Gold.PLP.part.repulsive>
0.1860

> <Gold.PLP.ligand.clash>
0.1101

> <Gold.PLP.ligand.torsion>
2.0567

> <Gold.PLP.Chemscore.Hbond>
3.7180

> <Gold.PLP.Chemscore.CHOScore>
1.0000

> <Gold.PLP.Chemscore.Metal>
0.0000

> <Gold.Chemscore.Hbonds>
donor molecule, donor type, donor heavy atom, donor atom, acceptor molecule, acceptor atom, score
      L1  H     8    42       P1  7948  2.00
      L1  H    12    32       P1  7948  1.00
      P1  H  7989  7998       L1     4  0.75
      L1  C     3    24       P1  8028  1.00

> <Gold.PLP.Chemscore.Internal.Correction>
1.7841

> <Gold.Rescore>
     Score         DG    S(hbond)    S(metal)    S(lipo)     H(rot)  DE(clash)    DE(int)     intcor
     12.44     -15.47       2.53        0.00      65.46       2.40       0.03       3.01       ----

> <Gold.Chemscore.Fitness>
12.4363

> <Gold.Chemscore.DG>
-15.4685

> <Gold.Chemscore.ZeroCoef>
-5.4800

> <Gold.Chemscore.Hbond>
2.5348

> <Gold.Chemscore.Metal>
0.0000

> <Gold.Chemscore.Lipo>
65.4617

> <Gold.Chemscore.Internal_Hbond>
0.0000

> <Gold.Chemscore.DEClash>
0.0256

> <Gold.Chemscore.DEInternal>
3.0067

> <Gold.Chemscore.Rot>
2.3972

> <Gold.Chemscore.Internal.Correction>
   9.000000E+99

> <Gold.Chemscore.Hbonds>
donor molecule, donor type, donor heavy atom, donor atom, acceptor molecule, acceptor atom, score
      L1  H     8    42       P1  7948  0.39
      L1  H    12    32       P1  7948  0.26
      P1  H  7989  7998       L1     4  0.39

> <Gold.Chemscore.Hbond.Weighted>
-8.4664

> <Gold.Chemscore.Metal.Weighted>
-0.0000

> <Gold.Chemscore.Lipo.Weighted>
-7.6590

> <Gold.Chemscore.Internal_Hbond.Weighted>
0.0000

> <Gold.Chemscore.DEClash.Weighted>
0.0256

> <Gold.Chemscore.DEInternal.Weighted>
3.0067

> <Gold.Chemscore.Rot.Weighted>
6.1369

> <Gold.Chemscore.Internal.Correction.Weighted>
   9.000000E+99

> <Gold.Protein.RotatedTorsions>
[ 6907 6896 6895 6894 ] final -162.06 input  -60.11 | X-H torsion
[ 7974 7965 7964 7962 ] final   10.66 input  175.53 | X-H torsion
[ 8008 7997 7996 7995 ] final   67.40 input   59.86 | X-H torsion
[ 10167 10162 10161 10158 ] final  172.09 input  -65.29 | X-H torsion
[ 10718 10713 10712 10709 ] final  150.06 input   66.30 | X-H torsion
[ 10763 10752 10751 10750 ] final  141.62 input  -60.55 | X-H torsion
[ 11005 11000 10999 10996 ] final  140.72 input  -57.11 | X-H torsion

> <Gold.Protein.ActiveResidues>
 VAL166  LYS551  ARG553  GLY616  TRP617  ASP618  TYR619  PRO620  LYS621  CYS622 
 ASP623  PHE694  ASN695  SER759  ASP760  ASP761  ALA762  ILE779  LEU786  VAL792 
 PHE793  MET794  SER795  GLU796  ALA797  LYS798  CYS799  TRP800  GLU811  SER814 

> <Gold.Protein.RotatedAtoms>
  151.3744  133.3843  159.2702 H   0  0  0  0  0  0  0  0  0  0  0  0  # atno 6907 bound_to 6896
  150.9626  134.9013  159.7750 H   0  0  0  0  0  0  0  0  0  0  0  0  # atno 6908 bound_to 6896
  152.5155  134.3703  159.9368 H   0  0  0  0  0  0  0  0  0  0  0  0  # atno 6909 bound_to 6896
  146.2384  139.9601  142.8459 H   0  0  0  0  0  0  0  0  0  0  0  0  # atno 7974 bound_to 7965
  155.6923  140.3496  155.4899 H   0  0  0  0  0  0  0  0  0  0  0  0  # atno 8008 bound_to 7997
  155.9513  140.1120  157.0996 H   0  0  0  0  0  0  0  0  0  0  0  0  # atno 8009 bound_to 7997
  154.4122  140.1193  156.5043 H   0  0  0  0  0  0  0  0  0  0  0  0  # atno 8010 bound_to 7997
  139.5066  144.3413  152.0015 H   0  0  0  0  0  0  0  0  0  0  0  0  # atno 10167 bound_to 10162
  157.2882  131.0848  151.1482 H   0  0  0  0  0  0  0  0  0  0  0  0  # atno 10718 bound_to 10713
  153.9422  135.2979  155.3442 H   0  0  0  0  0  0  0  0  0  0  0  0  # atno 10763 bound_to 10752
  154.7471  135.4998  153.9226 H   0  0  0  0  0  0  0  0  0  0  0  0  # atno 10764 bound_to 10752
  153.1036  135.6741  153.9733 H   0  0  0  0  0  0  0  0  0  0  0  0  # atno 10765 bound_to 10752
  140.0348  134.9334  157.0732 H   0  0  0  0  0  0  0  0  0  0  0  0  # atno 11005 bound_to 11000
  145.1779  140.9753  143.4283 LP  0  0  0  0  0  0  0  0  0  0  0  0  # atno 17320 bound_to 7965
  144.9969  139.3635  143.6187 LP  0  0  0  0  0  0  0  0  0  0  0  0  # atno 17321 bound_to 7965
  140.2851  144.3816  150.6106 LP  0  0  0  0  0  0  0  0  0  0  0  0  # atno 17342 bound_to 10162
  140.5989  143.2167  151.7111 LP  0  0  0  0  0  0  0  0  0  0  0  0  # atno 17343 bound_to 10162
  157.2889  130.6786  149.6104 LP  0  0  0  0  0  0  0  0  0  0  0  0  # atno 17370 bound_to 10713
  155.9666  130.4427  150.5391 LP  0  0  0  0  0  0  0  0  0  0  0  0  # atno 17371 bound_to 10713
  140.4165  134.1925  155.7163 LP  0  0  0  0  0  0  0  0  0  0  0  0  # atno 17394 bound_to 11000
  141.1851  133.8330  157.1116 LP  0  0  0  0  0  0  0  0  0  0  0  0  # atno 17395 bound_to 11000

$$$$
