AV-unprocessed.smi:2151|AV-procd|sdf|8760|dock7
  -GOLD-   2272011533D 1   1.00000     0.00000
 Structure written by MMmdl.
 39 40  0  0  0  0  0  0  0  0  1 V2000
  152.9402  141.4561  161.2635 C   0  0  0  0  0  0  0  0  0  0  0  0
  152.2291  141.4143  159.9029 C   0  0  2  0  0  0  0  0  0  0  0  0
  152.7680  140.3024  159.1218 N   0  0  0  0  0  0  0  0  0  0  0  0
  152.0828  139.2259  158.7057 C   0  0  0  0  0  0  0  0  0  0  0  0
  150.8960  139.0318  158.9718 O   0  0  0  0  0  0  0  0  0  0  0  0
  152.8728  138.2131  157.8649 C   0  0  0  0  0  0  0  0  0  0  0  0
  152.1943  137.8496  156.6096 N   0  0  0  0  0  0  0  0  0  0  0  0
  151.4720  136.6403  156.5967 C   0  0  0  0  0  0  0  0  0  0  0  0
  150.8142  136.1908  155.5107 C   0  0  0  0  0  0  0  0  0  0  0  0
  149.9873  134.9148  155.5473 C   0  0  0  0  0  0  0  0  0  0  0  0
  150.7279  133.8738  155.9285 F   0  0  0  0  0  0  0  0  0  0  0  0
  148.9844  135.0498  156.4138 F   0  0  0  0  0  0  0  0  0  0  0  0
  149.4671  134.6427  154.3497 F   0  0  0  0  0  0  0  0  0  0  0  0
  150.8569  137.0374  154.3346 C   0  0  0  0  0  0  0  0  0  0  0  0
  151.5313  138.2040  154.3345 C   0  0  0  0  0  0  0  0  0  0  0  0
  152.2532  138.6724  155.5195 C   0  0  0  0  0  0  0  0  0  0  0  0
  152.8703  139.7381  155.5326 O   0  0  0  0  0  0  0  0  0  0  0  0
  152.3909  142.7401  159.1304 C   0  0  1  0  0  0  0  0  0  0  0  0
  151.4863  142.8931  157.9048 C   0  0  0  0  0  0  0  0  0  0  0  0
  151.4275  144.3956  157.7555 C   0  0  0  0  0  0  0  0  0  0  0  0
  151.3693  144.8485  159.2109 C   0  0  0  0  0  0  0  0  0  0  0  0
  152.0557  143.8497  159.9618 O   0  0  0  0  0  0  0  0  0  0  0  0
  152.5432  142.2546  161.8907 H   0  0  0  0  0  0  0  0  0  0  0  0
  154.0113  141.6262  161.1480 H   0  0  0  0  0  0  0  0  0  0  0  0
  152.8070  140.5190  161.8050 H   0  0  0  0  0  0  0  0  0  0  0  0
  151.1662  141.2546  160.0927 H   0  0  0  0  0  0  0  0  0  0  0  0
  153.7398  140.3700  158.8561 H   0  0  0  0  0  0  0  0  0  0  0  0
  153.8651  138.6137  157.6482 H   0  0  0  0  0  0  0  0  0  0  0  0
  153.0499  137.3284  158.4780 H   0  0  0  0  0  0  0  0  0  0  0  0
  151.4753  136.1050  157.5352 H   0  0  0  0  0  0  0  0  0  0  0  0
  150.3416  136.7300  153.4366 H   0  0  0  0  0  0  0  0  0  0  0  0
  151.5422  138.8090  153.4394 H   0  0  0  0  0  0  0  0  0  0  0  0
  153.4288  142.8651  158.8168 H   0  0  0  0  0  0  0  0  0  0  0  0
  151.8770  142.3907  157.0193 H   0  0  0  0  0  0  0  0  0  0  0  0
  150.4892  142.5005  158.1096 H   0  0  0  0  0  0  0  0  0  0  0  0
  152.3409  144.7603  157.2835 H   0  0  0  0  0  0  0  0  0  0  0  0
  150.5762  144.7378  157.1665 H   0  0  0  0  0  0  0  0  0  0  0  0
  151.8145  145.8330  159.3566 H   0  0  0  0  0  0  0  0  0  0  0  0
  150.3356  144.8898  159.5564 H   0  0  0  0  0  0  0  0  0  0  0  0
  1  2  1  0  0  0  0
  1 23  1  0  0  0  0
  1 24  1  0  0  0  0
  1 25  1  0  0  0  0
  2  3  1  0  0  0  0
  2 18  1  0  0  0  0
  2 26  1  0  0  0  0
  3  4  1  0  0  0  0
  3 27  1  0  0  0  0
  4  5  2  0  0  0  0
  4  6  1  0  0  0  0
  6  7  1  0  0  0  0
  6 28  1  0  0  0  0
  6 29  1  0  0  0  0
  7 16  1  0  0  0  0
  7  8  1  0  0  0  0
  8  9  2  0  0  0  0
  8 30  1  0  0  0  0
  9 10  1  0  0  0  0
  9 14  1  0  0  0  0
 10 11  1  0  0  0  0
 10 12  1  0  0  0  0
 10 13  1  0  0  0  0
 14 15  2  0  0  0  0
 14 31  1  0  0  0  0
 15 16  1  0  0  0  0
 15 32  1  0  0  0  0
 16 17  2  0  0  0  0
 18 22  1  0  0  0  0
 18 19  1  0  0  0  0
 18 33  1  0  0  0  0
 19 20  1  0  0  0  0
 19 34  1  0  0  0  0
 19 35  1  0  0  0  0
 20 21  1  0  0  0  0
 20 36  1  0  0  0  0
 20 37  1  0  0  0  0
 21 22  1  0  0  0  0
 21 38  1  0  0  0  0
 21 39  1  0  0  0  0
M  END
> <s_m_source_file>
AV-unprocessed.smi

> <i_m_source_file_index>
2151

> <i_lp_mmshare_version>
43012

> <i_f3d_flags>
0

> <s_epik_input>
TzFbQ0gyXVtDSDJdW0NIMl1bQ0BIXTFbQ0BIXShbQ0gzXSlbTkhdQyg9TylbQ0gyXW4yW2NIXWMoQyhGKShGKUYpW2NIXVtjSF1jMj1P

> <s_epik_cmdline>
J2VwaWtfcHl0aG9uJywgJy1waCcsICc3LjAnLCAnLXRuJywgJzgnLCAnLW1hJywgJzIwMCcsICctbWV0YWxfYmluZGluZycsICctaW1hZScsICc8aW5maWxlLm1hZT4nLCAnLW9tYWUnLCAnPG91dGZpbGUubWFlPic=

> <r_lp_tautomer_probability>
1

> <r_epik_Ionization_Penalty>
4.20109e-08

> <r_epik_Ionization_Penalty_Charging>
1.89977e-08

> <r_epik_Ionization_Penalty_Neutral>
2.30132e-08

> <r_epik_State_Penalty>
-0

> <r_epik_Charging_Adjusted_Penalty>
1.89977e-08

> <i_epik_Tot_Q>
0

> <i_epik_Tot_abs_Q>
0

> <r_epik_Metal_State_Penalty>
-0

> <b_epik_Metal_Only>
0

> <s_lp_Force_Field>
OPLS_2005

> <r_lp_Energy>
29.4657

> <b_lp_Chiralities_Consistent>
1

> <s_lp_Variant>
AV-unprocessed.smi:2151-3

> <Gold.Version>
5.8.1

> <Gold.Id.Protein>
6NUR|6NUR_protein|mol2

> <Gold.PLP.Fitness>
44.6724

> <Gold.PLP.PLP>
-42.7276

> <Gold.PLP.part.hbond>
-1.0019

> <Gold.PLP.part.metal>
0.0000

> <Gold.PLP.part.buried>
-6.4905

> <Gold.PLP.part.nonpolar>
-36.0566

> <Gold.PLP.part.repulsive>
0.1053

> <Gold.PLP.ligand.clash>
0.0000

> <Gold.PLP.ligand.torsion>
0.5639

> <Gold.PLP.Chemscore.Hbond>
1.0000

> <Gold.PLP.Chemscore.CHOScore>
0.0000

> <Gold.PLP.Chemscore.Metal>
0.0000

> <Gold.Chemscore.Hbonds>
donor molecule, donor type, donor heavy atom, donor atom, acceptor molecule, acceptor atom, score
      P1  H  7997  8008       L1    17  1.00

> <Gold.PLP.Chemscore.Internal.Correction>
0.0727

> <Gold.Rescore>
     Score         DG    S(hbond)    S(metal)    S(lipo)     H(rot)  DE(clash)    DE(int)     intcor
     15.26     -15.71       1.00        0.00      98.84       1.82       0.00       0.46       ----

> <Gold.Chemscore.Fitness>
15.2559

> <Gold.Chemscore.DG>
-15.7141

> <Gold.Chemscore.ZeroCoef>
-5.4800

> <Gold.Chemscore.Hbond>
0.9988

> <Gold.Chemscore.Metal>
0.0000

> <Gold.Chemscore.Lipo>
98.8419

> <Gold.Chemscore.Internal_Hbond>
0.0000

> <Gold.Chemscore.DEClash>
0.0015

> <Gold.Chemscore.DEInternal>
0.4568

> <Gold.Chemscore.Rot>
1.8228

> <Gold.Chemscore.Internal.Correction>
   9.000000E+99

> <Gold.Chemscore.Hbonds>
donor molecule, donor type, donor heavy atom, donor atom, acceptor molecule, acceptor atom, score
      P1  H  7997  8008       L1    17  1.00

> <Gold.Chemscore.Hbond.Weighted>
-3.3361

> <Gold.Chemscore.Metal.Weighted>
-0.0000

> <Gold.Chemscore.Lipo.Weighted>
-11.5645

> <Gold.Chemscore.Internal_Hbond.Weighted>
0.0000

> <Gold.Chemscore.DEClash.Weighted>
0.0015

> <Gold.Chemscore.DEInternal.Weighted>
0.4568

> <Gold.Chemscore.Rot.Weighted>
4.6665

> <Gold.Chemscore.Internal.Correction.Weighted>
   9.000000E+99

> <Gold.Protein.RotatedTorsions>
[ 6907 6896 6895 6894 ] final -137.31 input  -60.11 | X-H torsion
[ 7974 7965 7964 7962 ] final   95.08 input  175.53 | X-H torsion
[ 8008 7997 7996 7995 ] final  -22.59 input   59.86 | X-H torsion
[ 10167 10162 10161 10158 ] final  -16.05 input  -65.29 | X-H torsion
[ 10718 10713 10712 10709 ] final  135.96 input   66.30 | X-H torsion
[ 10763 10752 10751 10750 ] final -139.20 input  -60.55 | X-H torsion
[ 11005 11000 10999 10996 ] final  -68.05 input  -57.11 | X-H torsion

> <Gold.Protein.ActiveResidues>
 VAL166  LYS551  ARG553  GLY616  TRP617  ASP618  TYR619  PRO620  LYS621  CYS622 
 ASP623  PHE694  ASN695  SER759  ASP760  ASP761  ALA762  ILE779  LEU786  VAL792 
 PHE793  MET794  SER795  GLU796  ALA797  LYS798  CYS799  TRP800  GLU811  SER814 

> <Gold.Protein.RotatedAtoms>
  151.0208  133.5878  159.2671 H   0  0  0  0  0  0  0  0  0  0  0  0  # atno 6907 bound_to 6896
  151.2995  135.0764  159.9243 H   0  0  0  0  0  0  0  0  0  0  0  0  # atno 6908 bound_to 6896
  152.5323  133.9893  159.7897 H   0  0  0  0  0  0  0  0  0  0  0  0  # atno 6909 bound_to 6896
  145.4569  139.2289  143.3009 H   0  0  0  0  0  0  0  0  0  0  0  0  # atno 7974 bound_to 7965
  154.4635  140.2003  156.0181 H   0  0  0  0  0  0  0  0  0  0  0  0  # atno 8008 bound_to 7997
  156.0884  140.3261  155.7755 H   0  0  0  0  0  0  0  0  0  0  0  0  # atno 8009 bound_to 7997
  155.4997  140.0553  157.2932 H   0  0  0  0  0  0  0  0  0  0  0  0  # atno 8010 bound_to 7997
  140.7228  143.5156  150.9696 H   0  0  0  0  0  0  0  0  0  0  0  0  # atno 10167 bound_to 10162
  157.4517  131.1066  151.0026 H   0  0  0  0  0  0  0  0  0  0  0  0  # atno 10718 bound_to 10713
  154.8616  135.3589  154.5508 H   0  0  0  0  0  0  0  0  0  0  0  0  # atno 10763 bound_to 10752
  153.6126  135.7009  153.5346 H   0  0  0  0  0  0  0  0  0  0  0  0  # atno 10764 bound_to 10752
  153.3196  135.4155  155.1366 H   0  0  0  0  0  0  0  0  0  0  0  0  # atno 10765 bound_to 10752
  141.1523  133.6732  156.6386 H   0  0  0  0  0  0  0  0  0  0  0  0  # atno 11005 bound_to 11000
  146.2473  140.5334  142.8908 LP  0  0  0  0  0  0  0  0  0  0  0  0  # atno 17320 bound_to 7965
  144.8027  140.6242  143.6468 LP  0  0  0  0  0  0  0  0  0  0  0  0  # atno 17321 bound_to 7965
  139.8871  143.6999  152.3150 LP  0  0  0  0  0  0  0  0  0  0  0  0  # atno 17342 bound_to 10162
  139.7302  144.7584  151.0814 LP  0  0  0  0  0  0  0  0  0  0  0  0  # atno 17343 bound_to 10162
  157.0853  130.5920  149.5428 LP  0  0  0  0  0  0  0  0  0  0  0  0  # atno 17370 bound_to 10713
  155.9990  130.5065  150.7590 LP  0  0  0  0  0  0  0  0  0  0  0  0  # atno 17371 bound_to 10713
  140.3411  134.7848  157.4398 LP  0  0  0  0  0  0  0  0  0  0  0  0  # atno 17394 bound_to 11000
  140.0937  134.5566  155.8419 LP  0  0  0  0  0  0  0  0  0  0  0  0  # atno 17395 bound_to 11000

$$$$
