AV-unprocessed.smi:948|AV-procd|sdf|4241|dock2
  -GOLD-   22720 2153D 1   1.00000     0.00000
 Structure written by MMmdl.
 19 19  0  0  0  0  0  0  0  0  3 V2000
  142.3170  132.7946  148.3088 N   0  3  0  0  0  0  0  0  0  0  0  0
  143.7848  132.7509  148.4286 C   0  0  0  0  0  0  0  0  0  0  0  0
  144.2234  132.4901  149.8775 C   0  0  0  0  0  0  0  0  0  0  0  0
  145.1308  133.5634  150.3843 C   0  0  0  0  0  0  0  0  0  0  0  0
  146.3720  133.5036  150.9697 C   0  0  0  0  0  0  0  0  0  0  0  0
  146.7487  134.7917  151.2404 N   0  0  0  0  0  0  0  0  0  0  0  0
  145.7949  135.6398  150.8476 C   0  0  0  0  0  0  0  0  0  0  0  0
  144.8123  134.8976  150.3272 N   0  3  0  0  0  0  0  0  0  0  0  0
  147.6208  135.0656  151.6765 H   0  0  0  0  0  0  0  0  0  0  0  0
  142.0564  132.7365  147.3343 H   0  0  0  0  0  0  0  0  0  0  0  0
  141.9682  133.6598  148.6964 H   0  0  0  0  0  0  0  0  0  0  0  0
  144.1642  131.9678  147.7711 H   0  0  0  0  0  0  0  0  0  0  0  0
  144.1920  133.6974  148.0710 H   0  0  0  0  0  0  0  0  0  0  0  0
  143.3530  132.4257  150.5321 H   0  0  0  0  0  0  0  0  0  0  0  0
  144.7413  131.5326  149.9478 H   0  0  0  0  0  0  0  0  0  0  0  0
  147.0009  132.6582  151.2103 H   0  0  0  0  0  0  0  0  0  0  0  0
  145.8133  136.7116  150.9351 H   0  0  0  0  0  0  0  0  0  0  0  0
  141.9117  132.0158  148.8086 H   0  0  0  0  0  0  0  0  0  0  0  0
  143.9515  135.2742  149.9501 H   0  0  0  0  0  0  0  0  0  0  0  0
  1  2  1  0  0  0  0
  1 10  1  0  0  0  0
  1 11  1  0  0  0  0
  1 18  1  0  0  0  0
  2  3  1  0  0  0  0
  2 12  1  0  0  0  0
  2 13  1  0  0  0  0
  3  4  1  0  0  0  0
  3 14  1  0  0  0  0
  3 15  1  0  0  0  0
  4  8  1  0  0  0  0
  4  5  2  0  0  0  0
  5  6  1  0  0  0  0
  5 16  1  0  0  0  0
  6  9  1  0  0  0  0
  6  7  1  0  0  0  0
  7  8  2  0  0  0  0
  7 17  1  0  0  0  0
  8 19  1  0  0  0  0
M  CHG  1   1   1
M  CHG  1   8   1
M  END
> <s_m_source_file>
AV-unprocessed.smi

> <i_m_source_file_index>
948

> <i_lp_mmshare_version>
43012

> <i_f3d_flags>
0

> <s_epik_input>
W05IMl1bQ0gyXVtDSDJdYzFbY0hdW25IXVtjSF1uMQ==

> <s_epik_cmdline>
J2VwaWtfcHl0aG9uJywgJy1waCcsICc3LjAnLCAnLXRuJywgJzgnLCAnLW1hJywgJzIwMCcsICctbWV0YWxfYmluZGluZycsICctaW1hZScsICc8aW5maWxlLm1hZT4nLCAnLW9tYWUnLCAnPG91dGZpbGUubWFlPic=

> <r_lp_tautomer_probability>
1

> <r_epik_Ionization_Penalty>
2.37896

> <r_epik_Ionization_Penalty_Charging>
0.0086666

> <r_epik_Ionization_Penalty_Neutral>
2.3703

> <r_epik_State_Penalty>
1.3316

> <r_epik_Charging_Adjusted_Penalty>
1.34027

> <i_epik_Tot_Q>
2

> <i_epik_Tot_abs_Q>
2

> <r_epik_Metal_State_Penalty>
5.35027

> <b_epik_Metal_Only>
0

> <s_lp_Force_Field>
OPLS_2005

> <r_lp_Energy>
12.2927

> <b_lp_Chiralities_Consistent>
1

> <s_lp_Variant>
AV-unprocessed.smi:948-3

> <Gold.Version>
5.8.1

> <Gold.Id.Protein>
6NUR|6NUR_protein|mol2

> <Gold.PLP.Fitness>
39.4468

> <Gold.PLP.PLP>
-22.2960

> <Gold.PLP.part.hbond>
-4.3721

> <Gold.PLP.part.metal>
0.0000

> <Gold.PLP.part.buried>
-3.2984

> <Gold.PLP.part.nonpolar>
-13.8884

> <Gold.PLP.part.repulsive>
0.3110

> <Gold.PLP.ligand.clash>
0.0000

> <Gold.PLP.ligand.torsion>
0.4246

> <Gold.PLP.Chemscore.Hbond>
6.0000

> <Gold.PLP.Chemscore.CHOScore>
0.0000

> <Gold.PLP.Chemscore.Metal>
0.0000

> <Gold.Chemscore.Hbonds>
donor molecule, donor type, donor heavy atom, donor atom, acceptor molecule, acceptor atom, score
      L1  H     1    10       P1 10195  1.00
      L1  H     1    11       P1 10186  1.72
      L1  H     1    18       P1 10952  0.80
      L1  H     6     9       P1  7948  1.98

> <Gold.PLP.Chemscore.Internal.Correction>
0.0001

> <Gold.Rescore>
     Score         DG    S(hbond)    S(metal)    S(lipo)     H(rot)  DE(clash)    DE(int)     intcor
     18.99     -19.40       3.90        0.00      41.34       1.53       0.04       0.37       ----

> <Gold.Chemscore.Fitness>
18.9919

> <Gold.Chemscore.DG>
-19.4015

> <Gold.Chemscore.ZeroCoef>
-5.4800

> <Gold.Chemscore.Hbond>
3.8963

> <Gold.Chemscore.Metal>
0.0000

> <Gold.Chemscore.Lipo>
41.3350

> <Gold.Chemscore.Internal_Hbond>
0.0000

> <Gold.Chemscore.DEClash>
0.0411

> <Gold.Chemscore.DEInternal>
0.3685

> <Gold.Chemscore.Rot>
1.5345

> <Gold.Chemscore.Internal.Correction>
   9.000000E+99

> <Gold.Chemscore.Hbonds>
donor molecule, donor type, donor heavy atom, donor atom, acceptor molecule, acceptor atom, score
      L1  H     1    10       P1 10195  0.99
      L1  H     1    11       P1 10186  0.80
      L1  H     1    18       P1 10952  0.79
      L1  H     6     9       P1  7948  0.66

> <Gold.Chemscore.Hbond.Weighted>
-13.0137

> <Gold.Chemscore.Metal.Weighted>
-0.0000

> <Gold.Chemscore.Lipo.Weighted>
-4.8362

> <Gold.Chemscore.Internal_Hbond.Weighted>
0.0000

> <Gold.Chemscore.DEClash.Weighted>
0.0411

> <Gold.Chemscore.DEInternal.Weighted>
0.3685

> <Gold.Chemscore.Rot.Weighted>
3.9284

> <Gold.Chemscore.Internal.Correction.Weighted>
   9.000000E+99

> <Gold.Protein.RotatedTorsions>
[ 6907 6896 6895 6894 ] final -105.09 input  -60.11 | X-H torsion
[ 7974 7965 7964 7962 ] final  147.89 input  175.53 | X-H torsion
[ 8008 7997 7996 7995 ] final  -49.63 input   59.86 | X-H torsion
[ 10167 10162 10161 10158 ] final  -68.78 input  -65.29 | X-H torsion
[ 10718 10713 10712 10709 ] final -154.06 input   66.30 | X-H torsion
[ 10763 10752 10751 10750 ] final -167.30 input  -60.55 | X-H torsion
[ 11005 11000 10999 10996 ] final  -10.61 input  -57.11 | X-H torsion

> <Gold.Protein.ActiveResidues>
 VAL166  LYS551  ARG553  GLY616  TRP617  ASP618  TYR619  PRO620  LYS621  CYS622 
 ASP623  PHE694  ASN695  SER759  ASP760  ASP761  ALA762  ILE779  LEU786  VAL792 
 PHE793  MET794  SER795  GLU796  ALA797  LYS798  CYS799  TRP800  GLU811  SER814 

> <Gold.Protein.RotatedAtoms>
  150.7319  134.0179  159.3691 H   0  0  0  0  0  0  0  0  0  0  0  0  # atno 6907 bound_to 6896
  151.8142  135.0669  160.0426 H   0  0  0  0  0  0  0  0  0  0  0  0  # atno 6908 bound_to 6896
  152.3050  133.5658  159.5680 H   0  0  0  0  0  0  0  0  0  0  0  0  # atno 6909 bound_to 6896
  144.8556  139.6086  143.5954 H   0  0  0  0  0  0  0  0  0  0  0  0  # atno 7974 bound_to 7965
  154.4047  140.1292  156.4534 H   0  0  0  0  0  0  0  0  0  0  0  0  # atno 8008 bound_to 7997
  155.7344  140.3491  155.5055 H   0  0  0  0  0  0  0  0  0  0  0  0  # atno 8009 bound_to 7997
  155.9097  140.1033  157.1278 H   0  0  0  0  0  0  0  0  0  0  0  0  # atno 8010 bound_to 7997
  140.5481  143.2312  151.6963 H   0  0  0  0  0  0  0  0  0  0  0  0  # atno 10167 bound_to 10162
  156.4942  130.8361  151.2583 H   0  0  0  0  0  0  0  0  0  0  0  0  # atno 10718 bound_to 10713
  154.6745  135.2944  154.9697 H   0  0  0  0  0  0  0  0  0  0  0  0  # atno 10763 bound_to 10752
  154.0712  135.6618  153.4828 H   0  0  0  0  0  0  0  0  0  0  0  0  # atno 10764 bound_to 10752
  153.0508  135.5175  154.7758 H   0  0  0  0  0  0  0  0  0  0  0  0  # atno 10765 bound_to 10752
  140.7465  133.8627  155.9010 H   0  0  0  0  0  0  0  0  0  0  0  0  # atno 11005 bound_to 11000
  146.2820  139.6903  142.9222 LP  0  0  0  0  0  0  0  0  0  0  0  0  # atno 17320 bound_to 7965
  145.4413  141.0422  143.2856 LP  0  0  0  0  0  0  0  0  0  0  0  0  # atno 17321 bound_to 7965
  139.5016  144.3862  152.0326 LP  0  0  0  0  0  0  0  0  0  0  0  0  # atno 17342 bound_to 10162
  140.2977  144.3682  150.6069 LP  0  0  0  0  0  0  0  0  0  0  0  0  # atno 17343 bound_to 10162
  157.7470  131.0003  150.2922 LP  0  0  0  0  0  0  0  0  0  0  0  0  # atno 17370 bound_to 10713
  156.3397  130.3813  149.7420 LP  0  0  0  0  0  0  0  0  0  0  0  0  # atno 17371 bound_to 10713
  140.9789  134.1432  157.4512 LP  0  0  0  0  0  0  0  0  0  0  0  0  # atno 17394 bound_to 11000
  139.8795  135.0004  156.6007 LP  0  0  0  0  0  0  0  0  0  0  0  0  # atno 17395 bound_to 11000

$$$$
