#       Name:                AV-unprocessed.smi:2799
#       Creating user name   scv26
#       Creation time:       Fri Mar 27 15:22:24 2020


#       File generated by GOLD software.
#

@<TRIPOS>MOLECULE
AV-unprocessed.smi:2799
    56    57     1
SMALL
NO_CHARGES


@<TRIPOS>ATOM
      1 ****        -1.5544   0.6431   3.9962 C.3            1 S1                 0.0000
      2 ****        -2.1250  -0.3138   2.9358 C.3            1 S1                 0.0000
      3 ****        -3.6359  -0.4982   3.1393 C.3            1 S1                 0.0000
      4 ****        -1.4091  -1.6839   2.9422 C.3            1 S1                 0.0000
      5 ****         0.0596  -1.6174   2.6981 N.4            1 S1                 1.0000
      6 ****         0.7247  -2.9246   2.9486 C.3            1 S1                 0.0000
      7 ****         2.2553  -2.7858   2.9379 C.3            1 S1                 0.0000
      8 ****         2.7449  -2.1609   1.6271 C.3            1 S1                 0.0000
      9 ****         2.0247  -0.8272   1.3873 C.3            1 S1                 0.0000
     10 ****         0.4855  -0.9829   1.4105 C.3            1 S1                 0.0000
     11 ****        -0.0828  -1.6986   0.1540 C.3            1 S1                 0.0000
     12 ****         0.2854  -1.0225  -1.0856 N.am           1 S1                 0.0000
     13 ****        -0.2826   0.1049  -1.5366 C.2            1 S1                 0.0000
     14 ****        -1.1953   0.6797  -0.9434 O.2            1 S1                 0.0000
     15 ****         0.2969   0.5129  -2.6804 N.am           1 S1                 0.0000
     16 ****         0.0064   1.6373  -3.4728 C.2            1 S1                 0.0000
     17 ****        -1.1452   2.3515  -3.4041 C.2            1 S1                 0.0000
     18 ****        -1.3637   3.4912  -4.2621 C.2            1 S1                 0.0000
     19 ****        -0.4051   3.8225  -5.1383 C.2            1 S1                 0.0000
     20 ****         0.7904   3.0903  -5.2349 N.am           1 S1                 0.0000
     21 ****         1.7762   3.5297  -6.2257 C.3            1 S1                 0.0000
     22 ****         1.0525   2.0050  -4.4472 C.2            1 S1                 0.0000
     23 ****         2.1096   1.3782  -4.5550 O.2            1 S1                 0.0000
     24 ****        -1.6477   0.2257   4.9993 H              1 S1                 0.0000
     25 ****        -2.0809   1.5979   3.9848 H              1 S1                 0.0000
     26 ****        -0.4997   0.8550   3.8200 H              1 S1                 0.0000
     27 ****        -2.0074   0.1506   1.9572 H              1 S1                 0.0000
     28 ****        -3.8553  -0.9559   4.1045 H              1 S1                 0.0000
     29 ****        -4.0622  -1.1356   2.3639 H              1 S1                 0.0000
     30 ****        -4.1577   0.4585   3.0986 H              1 S1                 0.0000
     31 ****        -1.5716  -2.1441   3.9179 H              1 S1                 0.0000
     32 ****        -1.8730  -2.3581   2.2220 H              1 S1                 0.0000
     33 ****         0.4155  -3.3123   3.9201 H              1 S1                 0.0000
     34 ****         0.4031  -3.6574   2.2078 H              1 S1                 0.0000
     35 ****         2.5710  -2.1658   3.7781 H              1 S1                 0.0000
     36 ****         2.7200  -3.7616   3.0824 H              1 S1                 0.0000
     37 ****         3.8230  -2.0027   1.6680 H              1 S1                 0.0000
     38 ****         2.5635  -2.8430   0.7961 H              1 S1                 0.0000
     39 ****         2.3200  -0.1236   2.1671 H              1 S1                 0.0000
     40 ****         2.3617  -0.3833   0.4503 H              1 S1                 0.0000
     41 ****         0.0987   0.0350   1.4108 H              1 S1                 0.0000
     42 ****         0.2804  -2.7236   0.0900 H              1 S1                 0.0000
     43 ****        -1.1702  -1.7637   0.1946 H              1 S1                 0.0000
     44 ****         1.0306  -1.4335  -1.6292 H              1 S1                 0.0000
     45 ****         1.0822  -0.0330  -3.0048 H              1 S1                 0.0000
     46 ****        -1.9396   2.0888  -2.7247 H              1 S1                 0.0000
     47 ****        -2.2772   4.0638  -4.1979 H              1 S1                 0.0000
     48 ****        -0.4925   4.6618  -5.8128 H              1 S1                 0.0000
     49 ****         2.7166   3.7933  -5.7394 H              1 S1                 0.0000
     50 ****         1.4468   4.4034  -6.7892 H              1 S1                 0.0000
     51 ****         1.9759   2.7355  -6.9465 H              1 S1                 0.0000
     52 ****         0.4128  -1.0041   3.4186 H              1 S1                 0.0000
     53 ****        -1.5456   0.3074  -0.0839 LP             1 S1                 0.0000
     54 ****        -1.5865   1.5190  -1.3209 LP             1 S1                 0.0000
     55 ****         2.2838   0.5871  -3.9686 LP             1 S1                 0.0000
     56 ****         2.7922   1.6613  -5.2287 LP             1 S1                 0.0000
@<TRIPOS>BOND
    1    1    2 1     
    2    1   24 1     
    3    1   25 1     
    4    1   26 1     
    5    2    3 1     
    6    2    4 1     
    7    2   27 1     
    8    3   28 1     
    9    3   29 1     
   10    3   30 1     
   11    4    5 1     
   12    4   31 1     
   13    4   32 1     
   14    5   10 1     
   15    5    6 1     
   16    5   52 1     
   17    6    7 1     
   18    6   33 1     
   19    6   34 1     
   20    7    8 1     
   21    7   35 1     
   22    7   36 1     
   23    8    9 1     
   24    8   37 1     
   25    8   38 1     
   26    9   10 1     
   27    9   39 1     
   28    9   40 1     
   29   10   11 1     
   30   10   41 1     
   31   11   12 1     
   32   11   42 1     
   33   11   43 1     
   34   12   13 am    
   35   12   44 1     
   36   13   14 2     
   37   13   15 am    
   38   15   16 1     
   39   15   45 1     
   40   16   22 1     
   41   16   17 2     
   42   17   18 1     
   43   17   46 1     
   44   18   19 2     
   45   18   47 1     
   46   19   20 1     
   47   19   48 1     
   48   20   21 1     
   49   20   22 am    
   50   21   49 1     
   51   21   50 1     
   52   21   51 1     
   53   22   23 2     
   54   14   53 1     
   55   14   54 1     
   56   23   55 1     
   57   23   56 1     
@<TRIPOS>SUBSTRUCTURE
      1 S1             1
@<TRIPOS>SET
LONE_PAIRS      STATIC     ATOMS    <user>   **** ""
4 53 54 55 56
DONOR_HYDROGENS      STATIC     ATOMS    <user>   **** ""
3 52 44 45
ATOM$BLUE        STATIC     ATOMS    COLORGROUP SYSTEM
4 53 54 55 56
ATOM$RED        STATIC     ATOMS    COLORGROUP SYSTEM
3 52 44 45
