AV-unprocessed.smi:1596|AV-procd|sdf|6418|dock4
  -GOLD-   22720 7 53D 1   1.00000     0.00000
 Structure written by MMmdl.
 48 49  0  0  0  0  0  0  0  0  1 V2000
  151.3276  145.2837  158.9682 C   0  0  0  0  0  0  0  0  0  0  0  0
  151.9169  144.2752  157.9702 C   0  0  0  0  0  0  0  0  0  0  0  0
  152.3654  143.0334  158.6057 N   0  0  0  0  0  0  0  0  0  0  0  0
  153.3641  143.1024  159.6727 C   0  0  0  0  0  0  0  0  0  0  0  0
  152.8785  142.4904  160.9942 C   0  0  0  0  0  0  0  0  0  0  0  0
  151.9486  141.7822  158.0858 C   0  0  0  0  0  0  0  0  0  0  0  0
  152.5466  140.5637  158.4955 C   0  0  0  0  0  0  0  0  0  0  0  0
  152.0877  139.3474  157.9542 C   0  0  0  0  0  0  0  0  0  0  0  0
  151.0388  139.3690  157.0062 C   0  0  0  0  0  0  0  0  0  0  0  0
  150.4664  138.2178  156.3979 N   0  0  0  0  0  0  0  0  0  0  0  0
  151.0378  137.0372  156.1031 C   0  0  0  0  0  0  0  0  0  0  0  0
  152.2249  136.7557  156.2628 O   0  0  0  0  0  0  0  0  0  0  0  0
  150.1397  136.1833  155.5912 N   0  0  0  0  0  0  0  0  0  0  0  0
  150.4184  134.8116  155.1751 C   0  0  2  0  0  0  0  0  0  0  0  0
  149.2065  134.2495  154.4073 C   0  0  0  0  0  0  0  0  0  0  0  0
  149.4230  132.7814  154.0068 C   0  0  0  0  0  0  0  0  0  0  0  0
  149.7415  131.9140  155.2363 C   0  0  1  0  0  0  0  0  0  0  0  0
  149.9973  130.5873  154.8259 O   0  0  0  0  0  0  0  0  0  0  0  0
  150.9612  132.4619  155.9965 C   0  0  0  0  0  0  0  0  0  0  0  0
  150.7505  133.9306  156.3983 C   0  0  0  0  0  0  0  0  0  0  0  0
  150.5030  140.6251  156.6629 C   0  0  0  0  0  0  0  0  0  0  0  0
  150.9407  141.7916  157.1795 N   0  0  0  0  0  0  0  0  0  0  0  0
  151.0128  146.1910  158.4531 H   0  0  0  0  0  0  0  0  0  0  0  0
  152.0572  145.5729  159.7247 H   0  0  0  0  0  0  0  0  0  0  0  0
  150.4562  144.8808  159.4825 H   0  0  0  0  0  0  0  0  0  0  0  0
  151.1602  144.0362  157.2225 H   0  0  0  0  0  0  0  0  0  0  0  0
  152.7374  144.7306  157.4151 H   0  0  0  0  0  0  0  0  0  0  0  0
  154.2589  142.5714  159.3468 H   0  0  0  0  0  0  0  0  0  0  0  0
  153.6894  144.1315  159.8233 H   0  0  0  0  0  0  0  0  0  0  0  0
  153.6327  142.6136  161.7717 H   0  0  0  0  0  0  0  0  0  0  0  0
  152.6885  141.4225  160.8935 H   0  0  0  0  0  0  0  0  0  0  0  0
  151.9616  142.9642  161.3450 H   0  0  0  0  0  0  0  0  0  0  0  0
  153.3527  140.5305  159.2117 H   0  0  0  0  0  0  0  0  0  0  0  0
  152.5463  138.4315  158.2900 H   0  0  0  0  0  0  0  0  0  0  0  0
  149.4930  138.3083  156.1464 H   0  0  0  0  0  0  0  0  0  0  0  0
  149.1875  136.5023  155.4898 H   0  0  0  0  0  0  0  0  0  0  0  0
  151.2753  134.8132  154.4984 H   0  0  0  0  0  0  0  0  0  0  0  0
  148.3094  134.3252  155.0235 H   0  0  0  0  0  0  0  0  0  0  0  0
  149.0197  134.8475  153.5146 H   0  0  0  0  0  0  0  0  0  0  0  0
  148.5348  132.4028  153.4999 H   0  0  0  0  0  0  0  0  0  0  0  0
  150.2407  132.7201  153.2870 H   0  0  0  0  0  0  0  0  0  0  0  0
  148.8771  131.8979  155.9017 H   0  0  0  0  0  0  0  0  0  0  0  0
  149.2411  130.0584  155.0295 H   0  0  0  0  0  0  0  0  0  0  0  0
  151.1505  131.8601  156.8862 H   0  0  0  0  0  0  0  0  0  0  0  0
  151.8531  132.3837  155.3733 H   0  0  0  0  0  0  0  0  0  0  0  0
  151.6458  134.3014  156.8987 H   0  0  0  0  0  0  0  0  0  0  0  0
  149.9420  133.9920  157.1282 H   0  0  0  0  0  0  0  0  0  0  0  0
  149.6948  140.7005  155.9501 H   0  0  0  0  0  0  0  0  0  0  0  0
  1  2  1  0  0  0  0
  1 23  1  0  0  0  0
  1 24  1  0  0  0  0
  1 25  1  0  0  0  0
  2  3  1  0  0  0  0
  2 26  1  0  0  0  0
  2 27  1  0  0  0  0
  3  4  1  0  0  0  0
  3  6  1  0  0  0  0
  4  5  1  0  0  0  0
  4 28  1  0  0  0  0
  4 29  1  0  0  0  0
  5 30  1  0  0  0  0
  5 31  1  0  0  0  0
  5 32  1  0  0  0  0
  6 22  1  0  0  0  0
  6  7  2  0  0  0  0
  7  8  1  0  0  0  0
  7 33  1  0  0  0  0
  8  9  2  0  0  0  0
  8 34  1  0  0  0  0
  9 10  1  0  0  0  0
  9 21  1  0  0  0  0
 10 11  1  0  0  0  0
 10 35  1  0  0  0  0
 11 12  2  0  0  0  0
 11 13  1  0  0  0  0
 13 14  1  0  0  0  0
 13 36  1  0  0  0  0
 14 20  1  0  0  0  0
 14 15  1  0  0  0  0
 14 37  1  0  0  0  0
 15 16  1  0  0  0  0
 15 38  1  0  0  0  0
 15 39  1  0  0  0  0
 16 17  1  0  0  0  0
 16 40  1  0  0  0  0
 16 41  1  0  0  0  0
 17 18  1  0  0  0  0
 17 19  1  0  0  0  0
 17 42  1  0  0  0  0
 18 43  1  0  0  0  0
 19 20  1  0  0  0  0
 19 44  1  0  0  0  0
 19 45  1  0  0  0  0
 20 46  1  0  0  0  0
 20 47  1  0  0  0  0
 21 22  2  0  0  0  0
 21 48  1  0  0  0  0
M  END
> <s_m_source_file>
AV-unprocessed.smi

> <i_m_source_file_index>
1596

> <i_lp_mmshare_version>
43012

> <i_f3d_flags>
0

> <s_epik_input>
W0NIM11bQ0gyXU4oW0NIMl1bQ0gzXSljMVtjSF1bY0hdYyhbY0hdbjEpW05IXUMoPU8pW05IXVtDQEBIXTJbQ0gyXVtDSDJdW0NAQEhdKFtPSF0pW0NIMl1bQ0gyXTI=

> <s_epik_cmdline>
J2VwaWtfcHl0aG9uJywgJy1waCcsICc3LjAnLCAnLXRuJywgJzgnLCAnLW1hJywgJzIwMCcsICctbWV0YWxfYmluZGluZycsICctaW1hZScsICc8aW5maWxlLm1hZT4nLCAnLW9tYWUnLCAnPG91dGZpbGUubWFlPic=

> <r_lp_tautomer_probability>
1

> <r_epik_Ionization_Penalty>
0.709395

> <r_epik_Ionization_Penalty_Charging>
0

> <r_epik_Ionization_Penalty_Neutral>
0.709395

> <r_epik_State_Penalty>
2.20721

> <r_epik_Charging_Adjusted_Penalty>
2.20721

> <i_epik_Tot_Q>
0

> <i_epik_Tot_abs_Q>
0

> <r_epik_Metal_State_Penalty>
1.55411

> <b_epik_Metal_Only>
0

> <s_lp_Force_Field>
OPLS_2005

> <r_lp_Energy>
16.3842

> <b_lp_Chiralities_Consistent>
1

> <s_lp_Variant>
AV-unprocessed.smi:1596-3

> <Gold.Version>
5.8.1

> <Gold.Id.Protein>
6NUR|6NUR_protein|mol2

> <Gold.PLP.Fitness>
45.3013

> <Gold.PLP.PLP>
-42.9417

> <Gold.PLP.part.hbond>
-1.0000

> <Gold.PLP.part.metal>
0.0000

> <Gold.PLP.part.buried>
-5.0397

> <Gold.PLP.part.nonpolar>
-36.9060

> <Gold.PLP.part.repulsive>
0.1100

> <Gold.PLP.ligand.clash>
0.0000

> <Gold.PLP.ligand.torsion>
0.3728

> <Gold.PLP.Chemscore.Hbond>
1.0000

> <Gold.PLP.Chemscore.CHOScore>
0.0000

> <Gold.PLP.Chemscore.Metal>
0.0000

> <Gold.Chemscore.Hbonds>
donor molecule, donor type, donor heavy atom, donor atom, acceptor molecule, acceptor atom, score
      P1  H 10752 10764       L1    12  1.00

> <Gold.PLP.Chemscore.Internal.Correction>
0.1052

> <Gold.Rescore>
     Score         DG    S(hbond)    S(metal)    S(lipo)     H(rot)  DE(clash)    DE(int)     intcor
     15.75     -16.22       0.96        0.00     103.98       1.80       0.05       0.42       ----

> <Gold.Chemscore.Fitness>
15.7526

> <Gold.Chemscore.DG>
-16.2209

> <Gold.Chemscore.ZeroCoef>
-5.4800

> <Gold.Chemscore.Hbond>
0.9560

> <Gold.Chemscore.Metal>
0.0000

> <Gold.Chemscore.Lipo>
103.9775

> <Gold.Chemscore.Internal_Hbond>
0.0000

> <Gold.Chemscore.DEClash>
0.0466

> <Gold.Chemscore.DEInternal>
0.4217

> <Gold.Chemscore.Rot>
1.8038

> <Gold.Chemscore.Internal.Correction>
   9.000000E+99

> <Gold.Chemscore.Hbonds>
donor molecule, donor type, donor heavy atom, donor atom, acceptor molecule, acceptor atom, score
      P1  H 10752 10764       L1    12  0.93

> <Gold.Chemscore.Hbond.Weighted>
-3.1931

> <Gold.Chemscore.Metal.Weighted>
-0.0000

> <Gold.Chemscore.Lipo.Weighted>
-12.1654

> <Gold.Chemscore.Internal_Hbond.Weighted>
0.0000

> <Gold.Chemscore.DEClash.Weighted>
0.0466

> <Gold.Chemscore.DEInternal.Weighted>
0.4217

> <Gold.Chemscore.Rot.Weighted>
4.6176

> <Gold.Chemscore.Internal.Correction.Weighted>
   9.000000E+99

> <Gold.Protein.RotatedTorsions>
[ 6907 6896 6895 6894 ] final   -1.15 input  -60.11 | X-H torsion
[ 7974 7965 7964 7962 ] final   75.37 input  175.53 | X-H torsion
[ 8008 7997 7996 7995 ] final  134.95 input   59.86 | X-H torsion
[ 10167 10162 10161 10158 ] final   84.60 input  -65.29 | X-H torsion
[ 10718 10713 10712 10709 ] final   74.05 input   66.30 | X-H torsion
[ 10763 10752 10751 10750 ] final  -32.04 input  -60.55 | X-H torsion
[ 11005 11000 10999 10996 ] final  -94.57 input  -57.11 | X-H torsion

> <Gold.Protein.ActiveResidues>
 VAL166  LYS551  ARG553  GLY616  TRP617  ASP618  TYR619  PRO620  LYS621  CYS622 
 ASP623  PHE694  ASN695  SER759  ASP760  ASP761  ALA762  ILE779  LEU786  VAL792 
 PHE793  MET794  SER795  GLU796  ALA797  LYS798  CYS799  TRP800  GLU811  SER814 

> <Gold.Protein.RotatedAtoms>
  151.5507  135.1067  159.9948 H   0  0  0  0  0  0  0  0  0  0  0  0  # atno 6907 bound_to 6896
  152.4493  133.7593  159.6748 H   0  0  0  0  0  0  0  0  0  0  0  0  # atno 6908 bound_to 6896
  150.8417  133.7859  159.3082 H   0  0  0  0  0  0  0  0  0  0  0  0  # atno 6909 bound_to 6896
  145.7165  139.2633  143.1621 H   0  0  0  0  0  0  0  0  0  0  0  0  # atno 7974 bound_to 7965
  156.3001  140.2483  156.3502 H   0  0  0  0  0  0  0  0  0  0  0  0  # atno 8008 bound_to 7997
  154.8973  140.0407  157.1892 H   0  0  0  0  0  0  0  0  0  0  0  0  # atno 8009 bound_to 7997
  154.8536  140.2910  155.5587 H   0  0  0  0  0  0  0  0  0  0  0  0  # atno 8010 bound_to 7997
  139.9063  144.6299  150.8583 H   0  0  0  0  0  0  0  0  0  0  0  0  # atno 10167 bound_to 10162
  157.6575  130.9659  150.1156 H   0  0  0  0  0  0  0  0  0  0  0  0  # atno 10718 bound_to 10713
  153.8072  135.6885  153.4846 H   0  0  0  0  0  0  0  0  0  0  0  0  # atno 10763 bound_to 10752
  153.1651  135.4564  154.9824 H   0  0  0  0  0  0  0  0  0  0  0  0  # atno 10764 bound_to 10752
  154.7982  135.3327  154.7556 H   0  0  0  0  0  0  0  0  0  0  0  0  # atno 10765 bound_to 10752
  141.1466  133.7965  157.0317 H   0  0  0  0  0  0  0  0  0  0  0  0  # atno 11005 bound_to 11000
  146.0665  140.7915  142.9709 LP  0  0  0  0  0  0  0  0  0  0  0  0  # atno 17320 bound_to 7965
  144.6928  140.3277  143.7221 LP  0  0  0  0  0  0  0  0  0  0  0  0  # atno 17321 bound_to 7965
  140.7695  143.3398  151.2231 LP  0  0  0  0  0  0  0  0  0  0  0  0  # atno 17342 bound_to 10162
  139.6981  143.9579  152.2892 LP  0  0  0  0  0  0  0  0  0  0  0  0  # atno 17343 bound_to 10162
  156.2041  130.3662  149.8751 LP  0  0  0  0  0  0  0  0  0  0  0  0  # atno 17370 bound_to 10713
  156.6648  130.8796  151.3553 LP  0  0  0  0  0  0  0  0  0  0  0  0  # atno 17371 bound_to 10713
  140.0750  134.9681  157.1530 LP  0  0  0  0  0  0  0  0  0  0  0  0  # atno 17394 bound_to 11000
  140.3657  134.2445  155.7182 LP  0  0  0  0  0  0  0  0  0  0  0  0  # atno 17395 bound_to 11000

$$$$
