AV-unprocessed.smi:18|AV-procd|sdf|108|dock10
  -GOLD-   2262015273D 1   1.00000     0.00000
 Structure written by MMmdl.
 47 50  0  0  0  0  0  0  0  0  1 V2000
  145.8233  138.8938  153.0922 O   0  0  0  0  0  0  0  0  0  0  0  0
  147.1582  139.3217  152.9104 C   0  0  0  0  0  0  0  0  0  0  0  0
  147.7115  139.9969  154.1782 C   0  0  0  0  0  0  0  0  0  0  0  0
  147.7568  139.0027  155.3577 C   0  0  0  0  0  0  0  0  0  0  0  0
  148.6908  139.3687  156.4121 N   0  0  0  0  0  0  0  0  0  0  0  0
  148.3684  139.8115  157.6762 C   0  0  0  0  0  0  0  0  0  0  0  0
  149.3843  140.0778  158.4510 N   0  0  0  0  0  0  0  0  0  0  0  0
  150.4908  139.8115  157.6553 C   0  0  0  0  0  0  0  0  0  0  0  0
  151.8936  139.8938  157.8605 C   0  0  0  0  0  0  0  0  0  0  0  0
  152.4202  140.2771  159.0488 N   0  0  0  0  0  0  0  0  0  0  0  0
  153.1704  139.1703  159.6342 C   0  0  0  0  0  0  0  0  0  0  0  0
  153.6245  139.5197  161.0564 C   0  0  0  0  0  0  0  0  0  0  0  0
  154.3924  140.7132  161.0099 O   0  0  0  0  0  0  0  0  0  0  0  0
  153.6237  141.8162  160.5455 C   0  0  0  0  0  0  0  0  0  0  0  0
  153.1199  141.5697  159.1033 C   0  0  2  0  0  0  0  0  0  0  0  0
  152.2194  142.7419  158.6325 C   0  0  0  0  0  0  0  0  0  0  0  0
  152.8786  144.1263  158.7336 C   0  0  0  0  0  0  0  0  0  0  0  0
  153.4960  144.4368  157.5940 F   0  0  0  0  0  0  0  0  0  0  0  0
  151.9508  145.0479  158.9889 F   0  0  0  0  0  0  0  0  0  0  0  0
  152.7061  139.5357  156.8306 N   0  0  0  0  0  0  0  0  0  0  0  0
  152.1780  139.1425  155.6675 C   0  0  0  0  0  0  0  0  0  0  0  0
  150.8913  139.0266  155.3319 N   0  0  0  0  0  0  0  0  0  0  0  0
  150.0742  139.3698  156.3684 C   0  0  0  0  0  0  0  0  0  0  0  0
  148.9840  140.8247  153.9468 C   0  0  0  0  0  0  0  0  0  0  0  0
  148.2409  142.0613  153.9211 O   0  0  0  0  0  0  0  0  0  0  0  0
  147.1070  141.3731  154.4896 C   0  0  0  0  0  0  0  0  0  0  0  0
  145.2592  139.6521  153.0707 H   0  0  0  0  0  0  0  0  0  0  0  0
  147.7696  138.4723  152.6056 H   0  0  0  0  0  0  0  0  0  0  0  0
  147.1722  140.0169  152.0703 H   0  0  0  0  0  0  0  0  0  0  0  0
  146.7694  138.8996  155.8095 H   0  0  0  0  0  0  0  0  0  0  0  0
  148.0183  138.0047  155.0040 H   0  0  0  0  0  0  0  0  0  0  0  0
  147.3470  139.9236  158.0106 H   0  0  0  0  0  0  0  0  0  0  0  0
  152.5586  138.2673  159.6595 H   0  0  0  0  0  0  0  0  0  0  0  0
  154.0397  138.9518  159.0116 H   0  0  0  0  0  0  0  0  0  0  0  0
  152.7697  139.6413  161.7236 H   0  0  0  0  0  0  0  0  0  0  0  0
  154.2387  138.7167  161.4639 H   0  0  0  0  0  0  0  0  0  0  0  0
  152.7899  141.9968  161.2262 H   0  0  0  0  0  0  0  0  0  0  0  0
  154.2615  142.6982  160.5847 H   0  0  0  0  0  0  0  0  0  0  0  0
  153.9904  141.5077  158.4487 H   0  0  0  0  0  0  0  0  0  0  0  0
  151.9188  142.6028  157.5944 H   0  0  0  0  0  0  0  0  0  0  0  0
  151.2944  142.7407  159.2104 H   0  0  0  0  0  0  0  0  0  0  0  0
  153.6099  144.1876  159.5385 H   0  0  0  0  0  0  0  0  0  0  0  0
  152.8879  138.8809  154.8968 H   0  0  0  0  0  0  0  0  0  0  0  0
  149.6906  140.8039  154.7774 H   0  0  0  0  0  0  0  0  0  0  0  0
  149.4873  140.6141  153.0025 H   0  0  0  0  0  0  0  0  0  0  0  0
  146.1779  141.5835  153.9586 H   0  0  0  0  0  0  0  0  0  0  0  0
  147.0010  141.5799  155.5559 H   0  0  0  0  0  0  0  0  0  0  0  0
  1  2  1  0  0  0  0
  1 27  1  0  0  0  0
  2  3  1  0  0  0  0
  2 28  1  0  0  0  0
  2 29  1  0  0  0  0
  3 26  1  0  0  0  0
  3  4  1  0  0  0  0
  3 24  1  0  0  0  0
  4  5  1  0  0  0  0
  4 30  1  0  0  0  0
  4 31  1  0  0  0  0
  5 23  1  0  0  0  0
  5  6  1  0  0  0  0
  6  7  2  0  0  0  0
  6 32  1  0  0  0  0
  7  8  1  0  0  0  0
  8 23  2  0  0  0  0
  8  9  1  0  0  0  0
  9 10  1  0  0  0  0
  9 20  2  0  0  0  0
 10 15  1  0  0  0  0
 10 11  1  0  0  0  0
 11 12  1  0  0  0  0
 11 33  1  0  0  0  0
 11 34  1  0  0  0  0
 12 13  1  0  0  0  0
 12 35  1  0  0  0  0
 12 36  1  0  0  0  0
 13 14  1  0  0  0  0
 14 15  1  0  0  0  0
 14 37  1  0  0  0  0
 14 38  1  0  0  0  0
 15 16  1  0  0  0  0
 15 39  1  0  0  0  0
 16 17  1  0  0  0  0
 16 40  1  0  0  0  0
 16 41  1  0  0  0  0
 17 18  1  0  0  0  0
 17 19  1  0  0  0  0
 17 42  1  0  0  0  0
 20 21  1  0  0  0  0
 21 22  2  0  0  0  0
 21 43  1  0  0  0  0
 22 23  1  0  0  0  0
 24 25  1  0  0  0  0
 24 44  1  0  0  0  0
 24 45  1  0  0  0  0
 25 26  1  0  0  0  0
 26 46  1  0  0  0  0
 26 47  1  0  0  0  0
M  END
> <s_m_source_file>
AV-unprocessed.smi

> <i_m_source_file_index>
18

> <i_lp_mmshare_version>
43012

> <i_f3d_flags>
0

> <s_epik_input>
W0NIMl0xT1tDSDJdQzEoW0NIMl1bT0hdKVtDSDJdbihbY0hdbjIpYyhjMjMpbltjSF1uYzNONFtDSDJdW0NIMl1PW0NIMl1bQ0BIXTRbQ0gyXVtDSF0oRilG

> <s_epik_cmdline>
J2VwaWtfcHl0aG9uJywgJy1waCcsICc3LjAnLCAnLXRuJywgJzgnLCAnLW1hJywgJzIwMCcsICctbWV0YWxfYmluZGluZycsICctaW1hZScsICc8aW5maWxlLm1hZT4nLCAnLW9tYWUnLCAnPG91dGZpbGUubWFlPic=

> <r_lp_tautomer_probability>
1

> <r_epik_Ionization_Penalty>
6.63711e-05

> <r_epik_Ionization_Penalty_Charging>
0

> <r_epik_Ionization_Penalty_Neutral>
6.63711e-05

> <r_epik_State_Penalty>
-0

> <r_epik_Charging_Adjusted_Penalty>
0

> <i_epik_Tot_Q>
0

> <i_epik_Tot_abs_Q>
0

> <r_epik_Metal_State_Penalty>
-0

> <b_epik_Metal_Only>
0

> <s_lp_Force_Field>
OPLS_2005

> <r_lp_Energy>
38.6195

> <b_lp_Chiralities_Consistent>
1

> <s_lp_Variant>
AV-unprocessed.smi:18-2

> <Gold.Version>
5.8.1

> <Gold.Id.Protein>
6NUR|6NUR_protein|mol2

> <Gold.PLP.Fitness>
48.4335

> <Gold.PLP.PLP>
-43.9824

> <Gold.PLP.part.hbond>
-2.3630

> <Gold.PLP.part.metal>
0.0000

> <Gold.PLP.part.buried>
-4.6371

> <Gold.PLP.part.nonpolar>
-36.6345

> <Gold.PLP.part.repulsive>
0.1977

> <Gold.PLP.ligand.clash>
0.0000

> <Gold.PLP.ligand.torsion>
1.0524

> <Gold.PLP.Chemscore.Hbond>
2.0000

> <Gold.PLP.Chemscore.CHOScore>
0.0000

> <Gold.PLP.Chemscore.Metal>
0.0000

> <Gold.Chemscore.Hbonds>
donor molecule, donor type, donor heavy atom, donor atom, acceptor molecule, acceptor atom, score
      L1  H     1    27       P1 10175  0.98
      P1  H  7997  8009       L1    20  1.00

> <Gold.PLP.Chemscore.Internal.Correction>
0.5559

> <Gold.Rescore>
     Score         DG    S(hbond)    S(metal)    S(lipo)     H(rot)  DE(clash)    DE(int)     intcor
     11.90     -13.87       1.91        0.00      82.14       2.96       0.81       1.16       ----

> <Gold.Chemscore.Fitness>
11.9035

> <Gold.Chemscore.DG>
-13.8701

> <Gold.Chemscore.ZeroCoef>
-5.4800

> <Gold.Chemscore.Hbond>
1.9067

> <Gold.Chemscore.Metal>
0.0000

> <Gold.Chemscore.Lipo>
82.1381

> <Gold.Chemscore.Internal_Hbond>
0.0000

> <Gold.Chemscore.DEClash>
0.8092

> <Gold.Chemscore.DEInternal>
1.1574

> <Gold.Chemscore.Rot>
2.9643

> <Gold.Chemscore.Internal.Correction>
   9.000000E+99

> <Gold.Chemscore.Hbonds>
donor molecule, donor type, donor heavy atom, donor atom, acceptor molecule, acceptor atom, score
      L1  H     1    27       P1 10175  0.93
      P1  H  7997  8009       L1    20  0.45

> <Gold.Chemscore.Hbond.Weighted>
-6.3685

> <Gold.Chemscore.Metal.Weighted>
-0.0000

> <Gold.Chemscore.Lipo.Weighted>
-9.6102

> <Gold.Chemscore.Internal_Hbond.Weighted>
0.0000

> <Gold.Chemscore.DEClash.Weighted>
0.8092

> <Gold.Chemscore.DEInternal.Weighted>
1.1574

> <Gold.Chemscore.Rot.Weighted>
7.5886

> <Gold.Chemscore.Internal.Correction.Weighted>
   9.000000E+99

> <Gold.Protein.RotatedTorsions>
[ 6907 6896 6895 6894 ] final   65.21 input  -60.11 | X-H torsion
[ 7974 7965 7964 7962 ] final    7.02 input  175.53 | X-H torsion
[ 8008 7997 7996 7995 ] final -164.67 input   59.86 | X-H torsion
[ 10167 10162 10161 10158 ] final   99.10 input  -65.29 | X-H torsion
[ 10718 10713 10712 10709 ] final  -84.41 input   66.30 | X-H torsion
[ 10763 10752 10751 10750 ] final   66.86 input  -60.55 | X-H torsion
[ 11005 11000 10999 10996 ] final  112.70 input  -57.11 | X-H torsion

> <Gold.Protein.ActiveResidues>
 VAL166  LYS551  ARG553  GLY616  TRP617  ASP618  TYR619  PRO620  LYS621  CYS622 
 ASP623  PHE694  ASN695  SER759  ASP760  ASP761  ALA762  ILE779  LEU786  VAL792 
 PHE793  MET794  SER795  GLU796  ALA797  LYS798  CYS799  TRP800  GLU811  SER814 

> <Gold.Protein.RotatedAtoms>
  152.4390  134.5628  159.9898 H   0  0  0  0  0  0  0  0  0  0  0  0  # atno 6907 bound_to 6896
  151.5731  133.3381  159.3001 H   0  0  0  0  0  0  0  0  0  0  0  0  # atno 6908 bound_to 6896
  150.8293  134.7573  159.6904 H   0  0  0  0  0  0  0  0  0  0  0  0  # atno 6909 bound_to 6896
  146.2430  140.0146  142.8403 H   0  0  0  0  0  0  0  0  0  0  0  0  # atno 7974 bound_to 7965
  155.8389  140.0945  157.1747 H   0  0  0  0  0  0  0  0  0  0  0  0  # atno 8008 bound_to 7997
  154.3981  140.1405  156.3765 H   0  0  0  0  0  0  0  0  0  0  0  0  # atno 8009 bound_to 7997
  155.8086  140.3450  155.5447 H   0  0  0  0  0  0  0  0  0  0  0  0  # atno 8010 bound_to 7997
  139.7648  144.6942  151.0240 H   0  0  0  0  0  0  0  0  0  0  0  0  # atno 10167 bound_to 10162
  156.0007  130.4697  150.4405 H   0  0  0  0  0  0  0  0  0  0  0  0  # atno 10718 bound_to 10713
  153.0159  135.5305  154.6889 H   0  0  0  0  0  0  0  0  0  0  0  0  # atno 10763 bound_to 10752
  154.6029  135.2870  155.0518 H   0  0  0  0  0  0  0  0  0  0  0  0  # atno 10764 bound_to 10752
  154.1569  135.6554  153.5029 H   0  0  0  0  0  0  0  0  0  0  0  0  # atno 10765 bound_to 10752
  139.8934  134.9535  156.6625 H   0  0  0  0  0  0  0  0  0  0  0  0  # atno 11005 bound_to 11000
  145.1297  140.9510  143.4552 LP  0  0  0  0  0  0  0  0  0  0  0  0  # atno 17320 bound_to 7965
  145.0400  139.3268  143.5981 LP  0  0  0  0  0  0  0  0  0  0  0  0  # atno 17321 bound_to 7965
  140.7810  143.4656  151.0217 LP  0  0  0  0  0  0  0  0  0  0  0  0  # atno 17342 bound_to 10162
  139.8341  143.7652  152.3180 LP  0  0  0  0  0  0  0  0  0  0  0  0  # atno 17343 bound_to 10162
  157.2447  131.0533  151.2416 LP  0  0  0  0  0  0  0  0  0  0  0  0  # atno 17370 bound_to 10713
  157.3587  130.7120  149.6487 LP  0  0  0  0  0  0  0  0  0  0  0  0  # atno 17371 bound_to 10713
  140.7436  133.8957  155.8295 LP  0  0  0  0  0  0  0  0  0  0  0  0  # atno 17394 bound_to 11000
  141.0058  134.1088  157.4272 LP  0  0  0  0  0  0  0  0  0  0  0  0  # atno 17395 bound_to 11000

$$$$
