#       Name:                AV-unprocessed.smi:1459
#       Creating user name   scv26
#       Creation time:       Fri Mar 27 06:01:00 2020


#       File generated by GOLD software.
#

@<TRIPOS>MOLECULE
AV-unprocessed.smi:1459
    41    42     1
SMALL
NO_CHARGES


@<TRIPOS>ATOM
      1 ****        -6.1945   2.4044  -0.7438 C.3            1 S1                 0.0000
      2 ****        -4.7389   2.0881  -0.6961 C.2            1 S1                 0.0000
      3 ****        -4.0294   0.9376  -0.8973 C.2            1 S1                 0.0000
      4 ****        -2.6856   1.3511  -0.6962 C.2            1 S1                 0.0000
      5 ****        -1.6144   0.4304  -0.8231 N.am           1 S1                 0.0000
      6 ****        -0.3036   0.6689  -0.6472 C.2            1 S1                 0.0000
      7 ****         0.1806   1.7507  -0.3134 O.2            1 S1                 0.0000
      8 ****         0.4249  -0.4337  -0.8775 N.am           1 S1                 0.0000
      9 ****         1.8775  -0.5353  -0.7550 C.3            1 S1                 0.0000
     10 ****         2.4155  -1.3359  -1.9510 C.3            1 S1                 0.0000
     11 ****         2.2414  -1.1854   0.5953 C.3            1 S1                 0.0000
     12 ****         3.7411  -1.2762   0.8797 C.3            1 S1                 0.0000
     13 ****         3.8133  -1.3412   2.3971 C.3            1 S1                 0.0000
     14 ****         2.4348  -0.8588   2.8569 C.3            1 S1                 0.0000
     15 ****         1.7929  -0.3878   1.6806 O.3            1 S1                 0.0000
     16 ****        -2.5840   2.6374  -0.3980 N.2            1 S1                 0.0000
     17 ****        -3.8995   3.1162  -0.3962 O.3            1 S1                 0.0000
     18 ****        -6.7767   1.5219  -1.0092 H              1 S1                 0.0000
     19 ****        -6.3976   3.1786  -1.4838 H              1 S1                 0.0000
     20 ****        -6.5440   2.7613   0.2250 H              1 S1                 0.0000
     21 ****        -4.4130  -0.0401  -1.1486 H              1 S1                 0.0000
     22 ****        -1.8733  -0.5099  -1.0817 H              1 S1                 0.0000
     23 ****        -0.0637  -1.2757  -1.1439 H              1 S1                 0.0000
     24 ****         2.3236   0.4600  -0.7978 H              1 S1                 0.0000
     25 ****         3.5041  -1.3885  -1.9366 H              1 S1                 0.0000
     26 ****         2.1266  -0.8716  -2.8946 H              1 S1                 0.0000
     27 ****         2.0328  -2.3571  -1.9506 H              1 S1                 0.0000
     28 ****         1.7882  -2.1756   0.6760 H              1 S1                 0.0000
     29 ****         4.2119  -2.1335   0.3978 H              1 S1                 0.0000
     30 ****         4.2455  -0.3742   0.5302 H              1 S1                 0.0000
     31 ****         3.9964  -2.3592   2.7428 H              1 S1                 0.0000
     32 ****         4.6142  -0.7071   2.7787 H              1 S1                 0.0000
     33 ****         1.8581  -1.6858   3.2736 H              1 S1                 0.0000
     34 ****         2.4958  -0.0724   3.6094 H              1 S1                 0.0000
     35 ****        -0.4159   2.5368  -0.1515 LP             1 S1                 0.0000
     36 ****         1.1703   1.8431  -0.2043 LP             1 S1                 0.0000
     37 ****         0.8010  -0.4710   1.7773 LP             1 S1                 0.0000
     38 ****         2.0332   0.5697   1.5216 LP             1 S1                 0.0000
     39 ****        -1.7483   3.1548  -0.2140 LP             1 S1                 0.0000
     40 ****        -4.1236   3.4807   0.5076 LP             1 S1                 0.0000
     41 ****        -3.9953   3.8392  -1.0804 LP             1 S1                 0.0000
@<TRIPOS>BOND
    1    1    2 1     
    2    1   18 1     
    3    1   19 1     
    4    1   20 1     
    5    2   17 1     
    6    2    3 2     
    7    3    4 1     
    8    3   21 1     
    9    4    5 1     
   10    4   16 2     
   11    5    6 am    
   12    5   22 1     
   13    6    7 2     
   14    6    8 am    
   15    8    9 1     
   16    8   23 1     
   17    9   10 1     
   18    9   11 1     
   19    9   24 1     
   20   10   25 1     
   21   10   26 1     
   22   10   27 1     
   23   11   15 1     
   24   11   12 1     
   25   11   28 1     
   26   12   13 1     
   27   12   29 1     
   28   12   30 1     
   29   13   14 1     
   30   13   31 1     
   31   13   32 1     
   32   14   15 1     
   33   14   33 1     
   34   14   34 1     
   35   16   17 1     
   36    7   35 1     
   37    7   36 1     
   38   15   37 1     
   39   15   38 1     
   40   16   39 1     
   41   17   40 1     
   42   17   41 1     
@<TRIPOS>SUBSTRUCTURE
      1 S1             1
@<TRIPOS>SET
LONE_PAIRS      STATIC     ATOMS    <user>   **** ""
7 35 36 37 38 39 40 41
DONOR_HYDROGENS      STATIC     ATOMS    <user>   **** ""
2 22 23
ATOM$BLUE        STATIC     ATOMS    COLORGROUP SYSTEM
7 35 36 37 38 39 40 41
ATOM$RED        STATIC     ATOMS    COLORGROUP SYSTEM
2 22 23
