AV-unprocessed.smi:3006|AV-procd|sdf|11445|dock7
  -GOLD-   2272016373D 1   1.00000     0.00000
 Structure written by MMmdl.
 44 45  0  0  0  0  0  0  0  0  1 V2000
  148.5607  141.6281  154.4288 C   0  0  0  0  0  0  0  0  0  0  0  0
  149.2195  140.2915  154.4151 C   0  0  0  0  0  0  0  0  0  0  0  0
  150.5295  140.1162  154.6058 N   0  0  0  0  0  0  0  0  0  0  0  0
  150.9087  138.7718  154.5371 C   0  0  0  0  0  0  0  0  0  0  0  0
  152.3459  138.3885  154.7194 C   0  0  0  0  0  0  0  0  0  0  0  0
  152.6338  137.8763  156.1401 C   0  0  0  0  0  0  0  0  0  0  0  0
  152.1109  138.7852  157.1537 N   0  0  0  0  0  0  0  0  0  0  0  0
  152.8386  139.3735  158.1181 C   0  0  0  0  0  0  0  0  0  0  0  0
  154.0551  139.2056  158.2163 O   0  0  0  0  0  0  0  0  0  0  0  0
  152.1358  140.2012  158.9299 N   0  0  0  0  0  0  0  0  0  0  0  0
  152.6472  140.9344  160.0931 C   0  0  0  0  0  0  0  0  0  0  0  0
  152.7420  142.4300  159.7337 C   0  0  0  0  0  0  0  0  0  0  0  0
  151.4282  142.9751  159.3495 N   0  0  0  0  0  0  0  0  0  0  0  0
  151.5172  144.4105  159.0116 C   0  0  0  0  0  0  0  0  0  0  0  0
  152.5563  144.6701  157.8987 C   0  0  0  0  0  0  0  0  0  0  0  0
  151.8929  145.2715  160.2377 C   0  0  0  0  0  0  0  0  0  0  0  0
  150.8925  142.1839  158.2282 C   0  0  0  0  0  0  0  0  0  0  0  0
  150.7996  140.6906  158.5936 C   0  0  0  0  0  0  0  0  0  0  0  0
  149.8562  137.9248  154.2936 C   0  0  0  0  0  0  0  0  0  0  0  0
  148.3503  138.7869  154.1377 S   0  0  0  0  0  0  0  0  0  0  0  0
  148.9197  142.2172  155.2729 H   0  0  0  0  0  0  0  0  0  0  0  0
  147.4799  141.5167  154.5162 H   0  0  0  0  0  0  0  0  0  0  0  0
  148.7846  142.1630  153.5058 H   0  0  0  0  0  0  0  0  0  0  0  0
  152.6198  137.6219  153.9936 H   0  0  0  0  0  0  0  0  0  0  0  0
  152.9849  139.2456  154.5033 H   0  0  0  0  0  0  0  0  0  0  0  0
  152.2157  136.8777  156.2782 H   0  0  0  0  0  0  0  0  0  0  0  0
  153.7096  137.7849  156.2927 H   0  0  0  0  0  0  0  0  0  0  0  0
  151.1216  138.9846  157.1207 H   0  0  0  0  0  0  0  0  0  0  0  0
  151.9702  140.7927  160.9370 H   0  0  0  0  0  0  0  0  0  0  0  0
  153.6202  140.5860  160.4388 H   0  0  0  0  0  0  0  0  0  0  0  0
  153.1323  142.9461  160.6088 H   0  0  0  0  0  0  0  0  0  0  0  0
  153.4593  142.5786  158.9247 H   0  0  0  0  0  0  0  0  0  0  0  0
  150.5428  144.7442  158.6516 H   0  0  0  0  0  0  0  0  0  0  0  0
  152.7207  145.7389  157.7586 H   0  0  0  0  0  0  0  0  0  0  0  0
  152.2347  144.2899  156.9298 H   0  0  0  0  0  0  0  0  0  0  0  0
  153.5201  144.2208  158.1407 H   0  0  0  0  0  0  0  0  0  0  0  0
  152.1017  146.3006  159.9440 H   0  0  0  0  0  0  0  0  0  0  0  0
  152.7828  144.8879  160.7381 H   0  0  0  0  0  0  0  0  0  0  0  0
  151.0863  145.3291  160.9680 H   0  0  0  0  0  0  0  0  0  0  0  0
  149.8879  142.5139  157.9697 H   0  0  0  0  0  0  0  0  0  0  0  0
  151.5161  142.3183  157.3429 H   0  0  0  0  0  0  0  0  0  0  0  0
  150.3468  140.1358  157.7706 H   0  0  0  0  0  0  0  0  0  0  0  0
  150.1330  140.5499  159.4461 H   0  0  0  0  0  0  0  0  0  0  0  0
  149.8760  136.8495  154.1945 H   0  0  0  0  0  0  0  0  0  0  0  0
  1  2  1  0  0  0  0
  1 21  1  0  0  0  0
  1 22  1  0  0  0  0
  1 23  1  0  0  0  0
  2 20  1  0  0  0  0
  2  3  2  0  0  0  0
  3  4  1  0  0  0  0
  4  5  1  0  0  0  0
  4 19  2  0  0  0  0
  5  6  1  0  0  0  0
  5 24  1  0  0  0  0
  5 25  1  0  0  0  0
  6  7  1  0  0  0  0
  6 26  1  0  0  0  0
  6 27  1  0  0  0  0
  7  8  1  0  0  0  0
  7 28  1  0  0  0  0
  8  9  2  0  0  0  0
  8 10  1  0  0  0  0
 10 18  1  0  0  0  0
 10 11  1  0  0  0  0
 11 12  1  0  0  0  0
 11 29  1  0  0  0  0
 11 30  1  0  0  0  0
 12 13  1  0  0  0  0
 12 31  1  0  0  0  0
 12 32  1  0  0  0  0
 13 14  1  0  0  0  0
 13 17  1  0  0  0  0
 14 15  1  0  0  0  0
 14 16  1  0  0  0  0
 14 33  1  0  0  0  0
 15 34  1  0  0  0  0
 15 35  1  0  0  0  0
 15 36  1  0  0  0  0
 16 37  1  0  0  0  0
 16 38  1  0  0  0  0
 16 39  1  0  0  0  0
 17 18  1  0  0  0  0
 17 40  1  0  0  0  0
 17 41  1  0  0  0  0
 18 42  1  0  0  0  0
 18 43  1  0  0  0  0
 19 20  1  0  0  0  0
 19 44  1  0  0  0  0
M  END
> <s_m_source_file>
AV-unprocessed.smi

> <i_m_source_file_index>
3006

> <i_lp_mmshare_version>
43012

> <i_f3d_flags>
0

> <s_epik_input>
W0NIM11jMW5jKFtjSF1zMSlbQ0gyXVtDSDJdW05IXUMoPU8pTjJbQ0gyXVtDSDJdTihbQ0hdKFtDSDNdKVtDSDNdKVtDSDJdW0NIMl0y

> <s_epik_cmdline>
J2VwaWtfcHl0aG9uJywgJy1waCcsICc3LjAnLCAnLXRuJywgJzgnLCAnLW1hJywgJzIwMCcsICctbWV0YWxfYmluZGluZycsICctaW1hZScsICc8aW5maWxlLm1hZT4nLCAnLW9tYWUnLCAnPG91dGZpbGUubWFlPic=

> <r_epik_Ionization_Penalty>
0.875753

> <r_epik_Ionization_Penalty_Charging>
0

> <r_epik_Ionization_Penalty_Neutral>
0.875753

> <r_epik_State_Penalty>
0.930306

> <r_epik_Charging_Adjusted_Penalty>
0.930306

> <i_epik_Tot_Q>
0

> <i_epik_Tot_abs_Q>
0

> <r_epik_Metal_State_Penalty>
0.928801

> <b_epik_Metal_Only>
0

> <s_lp_Force_Field>
OPLS_2005

> <r_lp_Energy>
38.048

> <b_lp_Chiralities_Consistent>
1

> <s_lp_Variant>
AV-unprocessed.smi:3006-2

> <Gold.Version>
5.8.1

> <Gold.Id.Protein>
6NUR|6NUR_protein|mol2

> <Gold.PLP.Fitness>
51.5808

> <Gold.PLP.PLP>
-45.4520

> <Gold.PLP.part.hbond>
-1.8424

> <Gold.PLP.part.metal>
0.0000

> <Gold.PLP.part.buried>
-3.3499

> <Gold.PLP.part.nonpolar>
-40.3603

> <Gold.PLP.part.repulsive>
0.1684

> <Gold.PLP.ligand.clash>
0.9207

> <Gold.PLP.ligand.torsion>
0.4171

> <Gold.PLP.Chemscore.Hbond>
2.0000

> <Gold.PLP.Chemscore.CHOScore>
0.6026

> <Gold.PLP.Chemscore.Metal>
0.0000

> <Gold.Chemscore.Hbonds>
donor molecule, donor type, donor heavy atom, donor atom, acceptor molecule, acceptor atom, score
      P1  H  7989  7998       L1     3  1.00
      P1  H  7997  8010       L1     9  1.00
      L1  C    19    44       P1  7948  0.54

> <Gold.PLP.Chemscore.Internal.Correction>
0.0759

> <Gold.Rescore>
     Score         DG    S(hbond)    S(metal)    S(lipo)     H(rot)  DE(clash)    DE(int)     intcor
     20.60     -21.04       1.75        0.00     113.43       1.39       0.16       0.29       ----

> <Gold.Chemscore.Fitness>
20.6012

> <Gold.Chemscore.DG>
-21.0449

> <Gold.Chemscore.ZeroCoef>
-5.4800

> <Gold.Chemscore.Hbond>
1.7492

> <Gold.Chemscore.Metal>
0.0000

> <Gold.Chemscore.Lipo>
113.4278

> <Gold.Chemscore.Internal_Hbond>
0.0000

> <Gold.Chemscore.DEClash>
0.1573

> <Gold.Chemscore.DEInternal>
0.2865

> <Gold.Chemscore.Rot>
1.3861

> <Gold.Chemscore.Internal.Correction>
   9.000000E+99

> <Gold.Chemscore.Hbonds>
donor molecule, donor type, donor heavy atom, donor atom, acceptor molecule, acceptor atom, score
      P1  H  7989  7998       L1     3  0.38
      P1  H  7997  8010       L1     9  0.32

> <Gold.Chemscore.Hbond.Weighted>
-5.8423

> <Gold.Chemscore.Metal.Weighted>
-0.0000

> <Gold.Chemscore.Lipo.Weighted>
-13.2710

> <Gold.Chemscore.Internal_Hbond.Weighted>
0.0000

> <Gold.Chemscore.DEClash.Weighted>
0.1573

> <Gold.Chemscore.DEInternal.Weighted>
0.2865

> <Gold.Chemscore.Rot.Weighted>
3.5484

> <Gold.Chemscore.Internal.Correction.Weighted>
   9.000000E+99

> <Gold.Protein.RotatedTorsions>
[ 6907 6896 6895 6894 ] final   15.09 input  -60.11 | X-H torsion
[ 7974 7965 7964 7962 ] final  107.69 input  175.53 | X-H torsion
[ 8008 7997 7996 7995 ] final   37.84 input   59.86 | X-H torsion
[ 10167 10162 10161 10158 ] final -177.50 input  -65.29 | X-H torsion
[ 10718 10713 10712 10709 ] final   18.55 input   66.30 | X-H torsion
[ 10763 10752 10751 10750 ] final   93.53 input  -60.55 | X-H torsion
[ 11005 11000 10999 10996 ] final  157.25 input  -57.11 | X-H torsion

> <Gold.Protein.ActiveResidues>
 VAL166  LYS551  ARG553  GLY616  TRP617  ASP618  TYR619  PRO620  LYS621  CYS622 
 ASP623  PHE694  ASN695  SER759  ASP760  ASP761  ALA762  ILE779  LEU786  VAL792 
 PHE793  MET794  SER795  GLU796  ALA797  LYS798  CYS799  TRP800  GLU811  SER814 

> <Gold.Protein.RotatedAtoms>
  151.8127  135.0676  160.0414 H   0  0  0  0  0  0  0  0  0  0  0  0  # atno 6907 bound_to 6896
  152.3009  133.5650  159.5626 H   0  0  0  0  0  0  0  0  0  0  0  0  # atno 6908 bound_to 6896
  150.7273  134.0209  159.3743 H   0  0  0  0  0  0  0  0  0  0  0  0  # atno 6909 bound_to 6896
  145.2903  139.2602  143.3868 H   0  0  0  0  0  0  0  0  0  0  0  0  # atno 7974 bound_to 7965
  155.2104  140.3323  155.4330 H   0  0  0  0  0  0  0  0  0  0  0  0  # atno 8008 bound_to 7997
  156.2373  140.1878  156.7134 H   0  0  0  0  0  0  0  0  0  0  0  0  # atno 8009 bound_to 7997
  154.6082  140.0613  156.9444 H   0  0  0  0  0  0  0  0  0  0  0  0  # atno 8010 bound_to 7997
  139.5477  144.2191  152.1019 H   0  0  0  0  0  0  0  0  0  0  0  0  # atno 10167 bound_to 10162
  157.0979  130.6456  149.5865 H   0  0  0  0  0  0  0  0  0  0  0  0  # atno 10718 bound_to 10713
  153.2313  135.4322  155.0599 H   0  0  0  0  0  0  0  0  0  0  0  0  # atno 10763 bound_to 10752
  154.8298  135.3380  154.6783 H   0  0  0  0  0  0  0  0  0  0  0  0  # atno 10764 bound_to 10752
  153.7210  135.7017  153.5069 H   0  0  0  0  0  0  0  0  0  0  0  0  # atno 10765 bound_to 10752
  140.1751  134.8515  157.2737 H   0  0  0  0  0  0  0  0  0  0  0  0  # atno 11005 bound_to 11000
  146.3187  140.3393  142.8646 LP  0  0  0  0  0  0  0  0  0  0  0  0  # atno 17320 bound_to 7965
  144.9178  140.7833  143.5767 LP  0  0  0  0  0  0  0  0  0  0  0  0  # atno 17321 bound_to 7965
  140.1680  144.4962  150.6595 LP  0  0  0  0  0  0  0  0  0  0  0  0  # atno 17342 bound_to 10162
  140.6731  143.2294  151.5576 LP  0  0  0  0  0  0  0  0  0  0  0  0  # atno 17343 bound_to 10162
  155.9881  130.4923  150.7154 LP  0  0  0  0  0  0  0  0  0  0  0  0  # atno 17370 bound_to 10713
  157.4665  131.0889  151.0689 LP  0  0  0  0  0  0  0  0  0  0  0  0  # atno 17371 bound_to 10713
  140.2332  134.3884  155.7513 LP  0  0  0  0  0  0  0  0  0  0  0  0  # atno 17394 bound_to 11000
  141.2220  133.7226  156.8673 LP  0  0  0  0  0  0  0  0  0  0  0  0  # atno 17395 bound_to 11000

$$$$
