AV-unprocessed.smi:3265|AV-procd|sdf|12496|dock4
  -GOLD-   2272018393D 1   1.00000     0.00000
 Structure written by MMmdl.
 41 42  0  0  0  0  0  0  0  0  2 V2000
  151.1031  138.6674  155.0320 C   0  0  0  0  0  0  0  0  0  0  0  0
  150.0776  139.5970  154.3679 C   0  0  2  0  0  0  0  0  0  0  0  0
  149.7436  140.7988  155.2672 C   0  0  0  0  0  0  0  0  0  0  0  0
  148.7013  141.6955  154.5884 C   0  0  0  0  0  0  0  0  0  0  0  0
  147.4503  140.8899  154.2039 C   0  0  0  0  0  0  0  0  0  0  0  0
  147.7995  139.7364  153.3347 N   0  3  2  0  0  0  0  0  0  0  0  0
  146.5933  139.0230  152.8432 C   0  0  0  0  0  0  0  0  0  0  0  0
  146.8747  138.1910  151.5769 C   0  0  0  0  0  0  0  0  0  0  0  0
  145.7746  137.2827  151.2762 N   0  0  0  0  0  0  0  0  0  0  0  0
  145.5208  136.1393  151.9334 C   0  0  0  0  0  0  0  0  0  0  0  0
  146.2248  135.7194  152.8516 O   0  0  0  0  0  0  0  0  0  0  0  0
  144.2953  135.3399  151.4825 C   0  0  0  0  0  0  0  0  0  0  0  0
  144.6655  134.0317  150.9699 N   0  0  0  0  0  0  0  0  0  0  0  0
  143.8404  132.9810  150.6254 C   0  0  0  0  0  0  0  0  0  0  0  0
  144.6398  131.9573  150.2045 C   0  0  0  0  0  0  0  0  0  0  0  0
  145.9559  132.4847  150.3239 C   0  0  0  0  0  0  0  0  0  0  0  0
  145.9683  133.7259  150.7819 N   0  0  0  0  0  0  0  0  0  0  0  0
  148.7892  138.8385  153.9894 C   0  0  0  0  0  0  0  0  0  0  0  0
  150.7136  138.2434  155.9581 H   0  0  0  0  0  0  0  0  0  0  0  0
  152.0217  139.2033  155.2728 H   0  0  0  0  0  0  0  0  0  0  0  0
  151.3687  137.8406  154.3727 H   0  0  0  0  0  0  0  0  0  0  0  0
  150.5273  139.9768  153.4490 H   0  0  0  0  0  0  0  0  0  0  0  0
  149.3596  140.4515  156.2274 H   0  0  0  0  0  0  0  0  0  0  0  0
  150.6448  141.3746  155.4813 H   0  0  0  0  0  0  0  0  0  0  0  0
  148.4267  142.5153  155.2528 H   0  0  0  0  0  0  0  0  0  0  0  0
  149.1333  142.1517  153.6966 H   0  0  0  0  0  0  0  0  0  0  0  0
  146.9414  140.5314  155.1003 H   0  0  0  0  0  0  0  0  0  0  0  0
  146.7518  141.5469  153.6838 H   0  0  0  0  0  0  0  0  0  0  0  0
  146.1834  138.3964  153.6368 H   0  0  0  0  0  0  0  0  0  0  0  0
  145.8234  139.7582  152.6051 H   0  0  0  0  0  0  0  0  0  0  0  0
  147.0613  138.8444  150.7226 H   0  0  0  0  0  0  0  0  0  0  0  0
  147.7688  137.5813  151.7016 H   0  0  0  0  0  0  0  0  0  0  0  0
  145.1452  137.5534  150.5340 H   0  0  0  0  0  0  0  0  0  0  0  0
  143.6119  135.2119  152.3228 H   0  0  0  0  0  0  0  0  0  0  0  0
  143.7535  135.8849  150.7075 H   0  0  0  0  0  0  0  0  0  0  0  0
  142.7655  133.0476  150.7098 H   0  0  0  0  0  0  0  0  0  0  0  0
  144.3316  130.9806  149.8621 H   0  0  0  0  0  0  0  0  0  0  0  0
  146.8963  132.0055  150.0942 H   0  0  0  0  0  0  0  0  0  0  0  0
  149.0493  138.0183  153.3214 H   0  0  0  0  0  0  0  0  0  0  0  0
  148.3400  138.3904  154.8774 H   0  0  0  0  0  0  0  0  0  0  0  0
  148.2495  140.1278  152.5195 H   0  0  0  0  0  0  0  0  0  0  0  0
  1  2  1  0  0  0  0
  1 19  1  0  0  0  0
  1 20  1  0  0  0  0
  1 21  1  0  0  0  0
  2 18  1  0  0  0  0
  2  3  1  0  0  0  0
  2 22  1  0  0  0  0
  3  4  1  0  0  0  0
  3 23  1  0  0  0  0
  3 24  1  0  0  0  0
  4  5  1  0  0  0  0
  4 25  1  0  0  0  0
  4 26  1  0  0  0  0
  5  6  1  0  0  0  0
  5 27  1  0  0  0  0
  5 28  1  0  0  0  0
  6  7  1  0  0  0  0
  6 18  1  0  0  0  0
  6 41  1  0  0  0  0
  7  8  1  0  0  0  0
  7 29  1  0  0  0  0
  7 30  1  0  0  0  0
  8  9  1  0  0  0  0
  8 31  1  0  0  0  0
  8 32  1  0  0  0  0
  9 10  1  0  0  0  0
  9 33  1  0  0  0  0
 10 11  2  0  0  0  0
 10 12  1  0  0  0  0
 12 13  1  0  0  0  0
 12 34  1  0  0  0  0
 12 35  1  0  0  0  0
 13 17  1  0  0  0  0
 13 14  1  0  0  0  0
 14 15  2  0  0  0  0
 14 36  1  0  0  0  0
 15 16  1  0  0  0  0
 15 37  1  0  0  0  0
 16 17  2  0  0  0  0
 16 38  1  0  0  0  0
 18 39  1  0  0  0  0
 18 40  1  0  0  0  0
M  CHG  1   6   1
M  END
> <s_m_source_file>
AV-unprocessed.smi

> <i_m_source_file_index>
3265

> <i_lp_mmshare_version>
43012

> <i_f3d_flags>
0

> <s_epik_input>
W0NIM11bQ0BASF0xW0NIMl1bQ0gyXVtDSDJdTihbQ0gyXTEpW0NIMl1bQ0gyXVtOSF1DKD1PKVtDSDJdbjJbY0hdW2NIXVtjSF1uMg==

> <s_epik_cmdline>
J2VwaWtfcHl0aG9uJywgJy1waCcsICc3LjAnLCAnLXRuJywgJzgnLCAnLW1hJywgJzIwMCcsICctbWV0YWxfYmluZGluZycsICctaW1hZScsICc8aW5maWxlLm1hZT4nLCAnLW9tYWUnLCAnPG91dGZpbGUubWFlPic=

> <r_lp_tautomer_probability>
1

> <r_epik_Ionization_Penalty>
0.00231455

> <r_epik_Ionization_Penalty_Charging>
0.00230623

> <r_epik_Ionization_Penalty_Neutral>
8.31727e-06

> <r_epik_State_Penalty>
0.00159065

> <r_epik_Charging_Adjusted_Penalty>
0.00389688

> <i_epik_Tot_Q>
1

> <i_epik_Tot_abs_Q>
1

> <r_epik_Metal_State_Penalty>
-0

> <b_epik_Metal_Only>
0

> <s_lp_Force_Field>
OPLS_2005

> <r_lp_Energy>
16.3652

> <b_lp_Chiralities_Consistent>
1

> <s_lp_Variant>
AV-unprocessed.smi:3265-1

> <Gold.Version>
5.8.1

> <Gold.Id.Protein>
6NUR|6NUR_protein|mol2

> <Gold.PLP.Fitness>
47.0285

> <Gold.PLP.PLP>
-35.7119

> <Gold.PLP.part.hbond>
-2.0000

> <Gold.PLP.part.metal>
0.0000

> <Gold.PLP.part.buried>
-0.4522

> <Gold.PLP.part.nonpolar>
-34.8443

> <Gold.PLP.part.repulsive>
1.4418

> <Gold.PLP.ligand.clash>
0.0000

> <Gold.PLP.ligand.torsion>
0.3623

> <Gold.PLP.Chemscore.Hbond>
2.0000

> <Gold.PLP.Chemscore.CHOScore>
2.0000

> <Gold.PLP.Chemscore.Metal>
0.0000

> <Gold.Chemscore.Hbonds>
donor molecule, donor type, donor heavy atom, donor atom, acceptor molecule, acceptor atom, score
      L1  H     6    41       P1  7957  1.00
      L1  H     9    33       P1 10171  1.00
      L1  C    14    36       P1 10186  1.00
      L1  C    16    38       P1 10747  1.00

> <Gold.PLP.Chemscore.Internal.Correction>
0.0413

> <Gold.Rescore>
     Score         DG    S(hbond)    S(metal)    S(lipo)     H(rot)  DE(clash)    DE(int)     intcor
     14.78     -18.16       1.96        0.00      92.60       1.84       1.76       1.62       ----

> <Gold.Chemscore.Fitness>
14.7808

> <Gold.Chemscore.DG>
-18.1550

> <Gold.Chemscore.ZeroCoef>
-5.4800

> <Gold.Chemscore.Hbond>
1.9605

> <Gold.Chemscore.Metal>
0.0000

> <Gold.Chemscore.Lipo>
92.5964

> <Gold.Chemscore.Internal_Hbond>
0.0000

> <Gold.Chemscore.DEClash>
1.7559

> <Gold.Chemscore.DEInternal>
1.6184

> <Gold.Chemscore.Rot>
1.8386

> <Gold.Chemscore.Internal.Correction>
   9.000000E+99

> <Gold.Chemscore.Hbonds>
donor molecule, donor type, donor heavy atom, donor atom, acceptor molecule, acceptor atom, score
      L1  H     6    41       P1  7957  0.95
      L1  H     9    33       P1 10171  0.98

> <Gold.Chemscore.Hbond.Weighted>
-6.5482

> <Gold.Chemscore.Metal.Weighted>
-0.0000

> <Gold.Chemscore.Lipo.Weighted>
-10.8338

> <Gold.Chemscore.Internal_Hbond.Weighted>
0.0000

> <Gold.Chemscore.DEClash.Weighted>
1.7559

> <Gold.Chemscore.DEInternal.Weighted>
1.6184

> <Gold.Chemscore.Rot.Weighted>
4.7069

> <Gold.Chemscore.Internal.Correction.Weighted>
   9.000000E+99

> <Gold.Protein.RotatedTorsions>
[ 6907 6896 6895 6894 ] final -110.69 input  -60.11 | X-H torsion
[ 7974 7965 7964 7962 ] final -168.57 input  175.53 | X-H torsion
[ 8008 7997 7996 7995 ] final   83.91 input   59.86 | X-H torsion
[ 10167 10162 10161 10158 ] final  -52.84 input  -65.29 | X-H torsion
[ 10718 10713 10712 10709 ] final  126.59 input   66.30 | X-H torsion
[ 10763 10752 10751 10750 ] final  -99.15 input  -60.55 | X-H torsion
[ 11005 11000 10999 10996 ] final -128.08 input  -57.11 | X-H torsion

> <Gold.Protein.ActiveResidues>
 VAL166  LYS551  ARG553  GLY616  TRP617  ASP618  TYR619  PRO620  LYS621  CYS622 
 ASP623  PHE694  ASN695  SER759  ASP760  ASP761  ALA762  ILE779  LEU786  VAL792 
 PHE793  MET794  SER795  GLU796  ALA797  LYS798  CYS799  TRP800  GLU811  SER814 

> <Gold.Protein.RotatedAtoms>
  150.7641  133.9344  159.3436 H   0  0  0  0  0  0  0  0  0  0  0  0  # atno 6907 bound_to 6896
  151.7246  135.0885  160.0299 H   0  0  0  0  0  0  0  0  0  0  0  0  # atno 6908 bound_to 6896
  152.3628  133.6281  159.6064 H   0  0  0  0  0  0  0  0  0  0  0  0  # atno 6909 bound_to 6896
  144.7200  140.2350  143.6299 H   0  0  0  0  0  0  0  0  0  0  0  0  # atno 7974 bound_to 7965
  155.9301  140.3415  155.6242 H   0  0  0  0  0  0  0  0  0  0  0  0  # atno 8008 bound_to 7997
  155.7168  140.0778  157.2366 H   0  0  0  0  0  0  0  0  0  0  0  0  # atno 8009 bound_to 7997
  154.4083  140.1612  156.2345 H   0  0  0  0  0  0  0  0  0  0  0  0  # atno 8010 bound_to 7997
  140.6516  143.2570  151.4705 H   0  0  0  0  0  0  0  0  0  0  0  0  # atno 10167 bound_to 10162
  157.5406  131.1097  150.8865 H   0  0  0  0  0  0  0  0  0  0  0  0  # atno 10718 bound_to 10713
  154.7474  135.4983  153.9228 H   0  0  0  0  0  0  0  0  0  0  0  0  # atno 10763 bound_to 10752
  153.1106  135.6708  153.9515 H   0  0  0  0  0  0  0  0  0  0  0  0  # atno 10764 bound_to 10752
  153.9275  135.3081  155.3425 H   0  0  0  0  0  0  0  0  0  0  0  0  # atno 10765 bound_to 10752
  140.9546  134.1019  157.4029 H   0  0  0  0  0  0  0  0  0  0  0  0  # atno 11005 bound_to 11000
  145.8374  139.2114  143.1847 LP  0  0  0  0  0  0  0  0  0  0  0  0  # atno 17320 bound_to 7965
  146.0377  140.8196  142.9844 LP  0  0  0  0  0  0  0  0  0  0  0  0  # atno 17321 bound_to 7965
  139.5732  144.1879  152.1867 LP  0  0  0  0  0  0  0  0  0  0  0  0  # atno 17342 bound_to 10162
  140.1181  144.5397  150.6880 LP  0  0  0  0  0  0  0  0  0  0  0  0  # atno 17343 bound_to 10162
  156.9419  130.5387  149.5280 LP  0  0  0  0  0  0  0  0  0  0  0  0  # atno 17370 bound_to 10713
  156.0493  130.5565  150.8954 LP  0  0  0  0  0  0  0  0  0  0  0  0  # atno 17371 bound_to 10713
  139.8858  135.0076  156.6458 LP  0  0  0  0  0  0  0  0  0  0  0  0  # atno 17394 bound_to 11000
  140.7554  133.8862  155.8378 LP  0  0  0  0  0  0  0  0  0  0  0  0  # atno 17395 bound_to 11000

$$$$
