AV-unprocessed.smi:1040|AV-procd|sdf|4525|dock6
  -GOLD-   22720 2543D 1   1.00000     0.00000
 Structure written by MMmdl.
 54 55  0  0  0  0  0  0  0  0  1 V2000
  146.8089  137.3263  158.1240 C   0  0  0  0  0  0  0  0  0  0  0  0
  147.8371  136.8442  159.1612 C   0  0  1  0  0  0  0  0  0  0  0  0
  148.8836  137.8594  159.2641 N   0  0  0  0  0  0  0  0  0  0  0  0
  150.1496  137.6313  159.6423 C   0  0  0  0  0  0  0  0  0  0  0  0
  150.5856  136.5131  159.9155 O   0  0  0  0  0  0  0  0  0  0  0  0
  150.8557  138.7737  159.6679 N   0  0  0  0  0  0  0  0  0  0  0  0
  152.2450  138.9646  159.9213 C   0  0  0  0  0  0  0  0  0  0  0  0
  153.0581  137.9814  160.5369 C   0  0  0  0  0  0  0  0  0  0  0  0
  154.4125  138.2671  160.7850 C   0  0  0  0  0  0  0  0  0  0  0  0
  154.9068  139.5313  160.4202 C   0  0  0  0  0  0  0  0  0  0  0  0
  154.1442  140.4835  159.8462 N   0  0  0  0  0  0  0  0  0  0  0  0
  152.8386  140.2156  159.5999 C   0  0  0  0  0  0  0  0  0  0  0  0
  152.0772  141.2292  158.9844 N   0  0  0  0  0  0  0  0  0  0  0  0
  152.3072  142.5996  159.4411 C   0  0  0  0  0  0  0  0  0  0  0  0
  151.1933  143.5328  158.9368 C   0  0  0  0  0  0  0  0  0  0  0  0
  151.0449  143.4373  157.4094 C   0  0  0  0  0  0  0  0  0  0  0  0
  150.8399  141.9743  156.9832 C   0  0  0  0  0  0  0  0  0  0  0  0
  151.9619  141.0783  157.5352 C   0  0  0  0  0  0  0  0  0  0  0  0
  147.1115  136.6865  160.5066 C   0  0  0  0  0  0  0  0  0  0  0  0
  146.4331  137.6096  160.9601 O   0  0  0  0  0  0  0  0  0  0  0  0
  147.2562  135.4951  161.1136 N   0  0  0  0  0  0  0  0  0  0  0  0
  146.6796  135.0416  162.3850 C   0  0  0  0  0  0  0  0  0  0  0  0
  147.0686  136.0824  163.4497 C   0  0  0  0  0  0  0  0  0  0  0  0
  147.2641  133.6717  162.7881 C   0  0  0  0  0  0  0  0  0  0  0  0
  145.1406  134.9707  162.2925 C   0  0  0  0  0  0  0  0  0  0  0  0
  146.0009  136.6036  158.0015 H   0  0  0  0  0  0  0  0  0  0  0  0
  147.2760  137.4575  157.1473 H   0  0  0  0  0  0  0  0  0  0  0  0
  146.3618  138.2812  158.4053 H   0  0  0  0  0  0  0  0  0  0  0  0
  148.2624  135.8905  158.8420 H   0  0  0  0  0  0  0  0  0  0  0  0
  148.6125  138.8100  159.0605 H   0  0  0  0  0  0  0  0  0  0  0  0
  150.3620  139.6013  159.3663 H   0  0  0  0  0  0  0  0  0  0  0  0
  152.6695  137.0220  160.8401 H   0  0  0  0  0  0  0  0  0  0  0  0
  155.0553  137.5359  161.2522 H   0  0  0  0  0  0  0  0  0  0  0  0
  155.9404  139.7879  160.5987 H   0  0  0  0  0  0  0  0  0  0  0  0
  152.3466  142.6259  160.5310 H   0  0  0  0  0  0  0  0  0  0  0  0
  153.2741  142.9470  159.0744 H   0  0  0  0  0  0  0  0  0  0  0  0
  150.2493  143.2630  159.4123 H   0  0  0  0  0  0  0  0  0  0  0  0
  151.4059  144.5611  159.2303 H   0  0  0  0  0  0  0  0  0  0  0  0
  150.2079  144.0494  157.0723 H   0  0  0  0  0  0  0  0  0  0  0  0
  151.9387  143.8369  156.9289 H   0  0  0  0  0  0  0  0  0  0  0  0
  149.8761  141.6183  157.3500 H   0  0  0  0  0  0  0  0  0  0  0  0
  150.8040  141.9014  155.8960 H   0  0  0  0  0  0  0  0  0  0  0  0
  152.9139  141.3486  157.0765 H   0  0  0  0  0  0  0  0  0  0  0  0
  151.7687  140.0397  157.2660 H   0  0  0  0  0  0  0  0  0  0  0  0
  147.8374  134.8199  160.6383 H   0  0  0  0  0  0  0  0  0  0  0  0
  146.6732  135.8145  164.4303 H   0  0  0  0  0  0  0  0  0  0  0  0
  146.6816  137.0712  163.2002 H   0  0  0  0  0  0  0  0  0  0  0  0
  148.1519  136.1672  163.5460 H   0  0  0  0  0  0  0  0  0  0  0  0
  148.3538  133.6997  162.8206 H   0  0  0  0  0  0  0  0  0  0  0  0
  146.9754  132.8818  162.0948 H   0  0  0  0  0  0  0  0  0  0  0  0
  146.9147  133.3717  163.7768 H   0  0  0  0  0  0  0  0  0  0  0  0
  144.7006  134.7275  163.2603 H   0  0  0  0  0  0  0  0  0  0  0  0
  144.8053  134.2077  161.5902 H   0  0  0  0  0  0  0  0  0  0  0  0
  144.7178  135.9234  161.9706 H   0  0  0  0  0  0  0  0  0  0  0  0
  1  2  1  0  0  0  0
  1 26  1  0  0  0  0
  1 27  1  0  0  0  0
  1 28  1  0  0  0  0
  2  3  1  0  0  0  0
  2 19  1  0  0  0  0
  2 29  1  0  0  0  0
  3  4  1  0  0  0  0
  3 30  1  0  0  0  0
  4  5  2  0  0  0  0
  4  6  1  0  0  0  0
  6  7  1  0  0  0  0
  6 31  1  0  0  0  0
  7 12  1  0  0  0  0
  7  8  2  0  0  0  0
  8  9  1  0  0  0  0
  8 32  1  0  0  0  0
  9 10  2  0  0  0  0
  9 33  1  0  0  0  0
 10 11  1  0  0  0  0
 10 34  1  0  0  0  0
 11 12  2  0  0  0  0
 12 13  1  0  0  0  0
 13 18  1  0  0  0  0
 13 14  1  0  0  0  0
 14 15  1  0  0  0  0
 14 35  1  0  0  0  0
 14 36  1  0  0  0  0
 15 16  1  0  0  0  0
 15 37  1  0  0  0  0
 15 38  1  0  0  0  0
 16 17  1  0  0  0  0
 16 39  1  0  0  0  0
 16 40  1  0  0  0  0
 17 18  1  0  0  0  0
 17 41  1  0  0  0  0
 17 42  1  0  0  0  0
 18 43  1  0  0  0  0
 18 44  1  0  0  0  0
 19 20  2  0  0  0  0
 19 21  1  0  0  0  0
 21 22  1  0  0  0  0
 21 45  1  0  0  0  0
 22 23  1  0  0  0  0
 22 24  1  0  0  0  0
 22 25  1  0  0  0  0
 23 46  1  0  0  0  0
 23 47  1  0  0  0  0
 23 48  1  0  0  0  0
 24 49  1  0  0  0  0
 24 50  1  0  0  0  0
 24 51  1  0  0  0  0
 25 52  1  0  0  0  0
 25 53  1  0  0  0  0
 25 54  1  0  0  0  0
M  END
> <s_m_source_file>
AV-unprocessed.smi

> <i_m_source_file_index>
1040

> <i_lp_mmshare_version>
43012

> <i_f3d_flags>
0

> <s_epik_input>
W0NIM11DKFtDSDNdKShbQ0gzXSlbTkhdQyg9TylbQ0BIXShbQ0gzXSlbTkhdQyg9TylbTkhdYzFbY0hdW2NIXVtjSF1uYzFOMltDSDJdW0NIMl1bQ0gyXVtDSDJdW0NIMl0y

> <s_epik_cmdline>
J2VwaWtfcHl0aG9uJywgJy1waCcsICc3LjAnLCAnLXRuJywgJzgnLCAnLW1hJywgJzIwMCcsICctbWV0YWxfYmluZGluZycsICctaW1hZScsICc8aW5maWxlLm1hZT4nLCAnLW9tYWUnLCAnPG91dGZpbGUubWFlPic=

> <r_lp_tautomer_probability>
1

> <r_epik_Ionization_Penalty>
0.0878593

> <r_epik_Ionization_Penalty_Charging>
0

> <r_epik_Ionization_Penalty_Neutral>
0.0878593

> <r_epik_State_Penalty>
0.07381

> <r_epik_Charging_Adjusted_Penalty>
0.07381

> <i_epik_Tot_Q>
0

> <i_epik_Tot_abs_Q>
0

> <r_epik_Metal_State_Penalty>
0.0646628

> <b_epik_Metal_Only>
0

> <s_lp_Force_Field>
OPLS_2005

> <r_lp_Energy>
20.3339

> <b_lp_Chiralities_Consistent>
1

> <s_lp_Variant>
AV-unprocessed.smi:1040-2

> <Gold.Version>
5.8.1

> <Gold.Id.Protein>
6NUR|6NUR_protein|mol2

> <Gold.PLP.Fitness>
44.7932

> <Gold.PLP.PLP>
-37.8204

> <Gold.PLP.part.hbond>
-3.0000

> <Gold.PLP.part.metal>
0.0000

> <Gold.PLP.part.buried>
-6.1709

> <Gold.PLP.part.nonpolar>
-30.2866

> <Gold.PLP.part.repulsive>
0.4451

> <Gold.PLP.ligand.clash>
0.0000

> <Gold.PLP.ligand.torsion>
1.1715

> <Gold.PLP.Chemscore.Hbond>
3.0000

> <Gold.PLP.Chemscore.CHOScore>
0.0000

> <Gold.PLP.Chemscore.Metal>
0.0000

> <Gold.Chemscore.Hbonds>
donor molecule, donor type, donor heavy atom, donor atom, acceptor molecule, acceptor atom, score
      P1  H  6896  6908       L1     5  1.00
      P1  H  6934  6947       L1    20  1.00

> <Gold.PLP.Chemscore.Internal.Correction>
0.3159

> <Gold.Rescore>
     Score         DG    S(hbond)    S(metal)    S(lipo)     H(rot)  DE(clash)    DE(int)     intcor
     19.27     -21.35       2.64        0.00      95.72       1.61       0.12       1.96       ----

> <Gold.Chemscore.Fitness>
19.2702

> <Gold.Chemscore.DG>
-21.3491

> <Gold.Chemscore.ZeroCoef>
-5.4800

> <Gold.Chemscore.Hbond>
2.6356

> <Gold.Chemscore.Metal>
0.0000

> <Gold.Chemscore.Lipo>
95.7166

> <Gold.Chemscore.Internal_Hbond>
0.0000

> <Gold.Chemscore.DEClash>
0.1156

> <Gold.Chemscore.DEInternal>
1.9633

> <Gold.Chemscore.Rot>
1.6143

> <Gold.Chemscore.Internal.Correction>
   9.000000E+99

> <Gold.Chemscore.Hbonds>
donor molecule, donor type, donor heavy atom, donor atom, acceptor molecule, acceptor atom, score
      P1  H  6896  6908       L1     5  0.95
      P1  H  6934  6947       L1    20  0.87

> <Gold.Chemscore.Hbond.Weighted>
-8.8028

> <Gold.Chemscore.Metal.Weighted>
-0.0000

> <Gold.Chemscore.Lipo.Weighted>
-11.1988

> <Gold.Chemscore.Internal_Hbond.Weighted>
0.0000

> <Gold.Chemscore.DEClash.Weighted>
0.1156

> <Gold.Chemscore.DEInternal.Weighted>
1.9633

> <Gold.Chemscore.Rot.Weighted>
4.1326

> <Gold.Chemscore.Internal.Correction.Weighted>
   9.000000E+99

> <Gold.Protein.RotatedTorsions>
[ 6907 6896 6895 6894 ] final -155.06 input  -60.11 | X-H torsion
[ 7974 7965 7964 7962 ] final  135.22 input  175.53 | X-H torsion
[ 8008 7997 7996 7995 ] final  135.36 input   59.86 | X-H torsion
[ 10167 10162 10161 10158 ] final -130.17 input  -65.29 | X-H torsion
[ 10718 10713 10712 10709 ] final   99.48 input   66.30 | X-H torsion
[ 10763 10752 10751 10750 ] final   52.01 input  -60.55 | X-H torsion
[ 11005 11000 10999 10996 ] final  166.90 input  -57.11 | X-H torsion

> <Gold.Protein.ActiveResidues>
 VAL166  LYS551  ARG553  GLY616  TRP617  ASP618  TYR619  PRO620  LYS621  CYS622 
 ASP623  PHE694  ASN695  SER759  ASP760  ASP761  ALA762  ILE779  LEU786  VAL792 
 PHE793  MET794  SER795  GLU796  ALA797  LYS798  CYS799  TRP800  GLU811  SER814 

> <Gold.Protein.RotatedAtoms>
  151.2669  133.4274  159.2618 H   0  0  0  0  0  0  0  0  0  0  0  0  # atno 6907 bound_to 6896
  151.0480  134.9654  159.8207 H   0  0  0  0  0  0  0  0  0  0  0  0  # atno 6908 bound_to 6896
  152.5377  134.2624  159.8993 H   0  0  0  0  0  0  0  0  0  0  0  0  # atno 6909 bound_to 6896
  144.9685  139.4631  143.5444 H   0  0  0  0  0  0  0  0  0  0  0  0  # atno 7974 bound_to 7965
  156.3002  140.2473  156.3568 H   0  0  0  0  0  0  0  0  0  0  0  0  # atno 8008 bound_to 7997
  154.8914  140.0409  157.1860 H   0  0  0  0  0  0  0  0  0  0  0  0  # atno 8009 bound_to 7997
  154.8594  140.2918  155.5553 H   0  0  0  0  0  0  0  0  0  0  0  0  # atno 8010 bound_to 7997
  139.9321  143.6260  152.2527 H   0  0  0  0  0  0  0  0  0  0  0  0  # atno 10167 bound_to 10162
  157.6875  131.0671  150.4955 H   0  0  0  0  0  0  0  0  0  0  0  0  # atno 10718 bound_to 10713
  152.9787  135.5827  154.4509 H   0  0  0  0  0  0  0  0  0  0  0  0  # atno 10763 bound_to 10752
  154.4098  135.2770  155.2046 H   0  0  0  0  0  0  0  0  0  0  0  0  # atno 10764 bound_to 10752
  154.3841  135.6140  153.5861 H   0  0  0  0  0  0  0  0  0  0  0  0  # atno 10765 bound_to 10752
  140.2712  134.7825  157.3677 H   0  0  0  0  0  0  0  0  0  0  0  0  # atno 11005 bound_to 11000
  146.3375  139.8882  142.8813 LP  0  0  0  0  0  0  0  0  0  0  0  0  # atno 17320 bound_to 7965
  145.2594  141.0072  143.3835 LP  0  0  0  0  0  0  0  0  0  0  0  0  # atno 17321 bound_to 7965
  139.6774  144.7658  151.1671 LP  0  0  0  0  0  0  0  0  0  0  0  0  # atno 17342 bound_to 10162
  140.7634  143.5775  150.8930 LP  0  0  0  0  0  0  0  0  0  0  0  0  # atno 17343 bound_to 10162
  156.5280  130.4178  149.6216 LP  0  0  0  0  0  0  0  0  0  0  0  0  # atno 17370 bound_to 10713
  156.3095  130.7221  151.2110 LP  0  0  0  0  0  0  0  0  0  0  0  0  # atno 17371 bound_to 10713
  140.1372  134.5019  155.8059 LP  0  0  0  0  0  0  0  0  0  0  0  0  # atno 17394 bound_to 11000
  141.2177  133.6811  156.7145 LP  0  0  0  0  0  0  0  0  0  0  0  0  # atno 17395 bound_to 11000

$$$$
