AV-unprocessed.smi:2007|AV-procd|sdf|8138|dock8
  -GOLD-   2272010373D 1   1.00000     0.00000
 Structure written by MMmdl.
 35 36  0  0  0  0  0  0  0  0  2 V2000
  151.1477  137.4063  156.6958 C   0  0  0  0  0  0  0  0  0  0  0  0
  151.5341  137.9230  158.0881 C   0  0  1  0  0  0  0  0  0  0  0  0
  152.2087  139.3088  158.0017 C   0  0  0  0  0  0  0  0  0  0  0  0
  152.8429  139.7869  159.2314 N   0  0  0  0  0  0  0  0  0  0  0  0
  153.9482  138.9369  159.6678 C   0  0  0  0  0  0  0  0  0  0  0  0
  154.6040  139.4686  160.9540 C   0  0  0  0  0  0  0  0  0  0  0  0
  155.0435  140.8076  160.7493 O   0  0  0  0  0  0  0  0  0  0  0  0
  153.9842  141.6783  160.3652 C   0  0  0  0  0  0  0  0  0  0  0  0
  153.3270  141.1539  159.0770 C   0  0  0  0  0  0  0  0  0  0  0  0
  150.3319  137.9971  158.9186 N   0  0  0  0  0  0  0  0  0  0  0  0
  149.4799  136.9975  159.1916 C   0  0  0  0  0  0  0  0  0  0  0  0
  149.6620  135.8772  158.7099 O   0  0  0  0  0  0  0  0  0  0  0  0
  148.4671  137.3589  160.0125 N   0  5  0  0  0  0  0  0  0  0  0  0
  147.9679  136.4757  160.8922 C   0  0  0  0  0  0  0  0  0  0  0  0
  148.2069  136.5423  162.2070 N   0  0  0  0  0  0  0  0  0  0  0  0
  147.5951  135.5203  162.9351 C   0  0  0  0  0  0  0  0  0  0  0  0
  146.8802  134.6501  162.1555 C   0  0  0  0  0  0  0  0  0  0  0  0
  146.9560  135.0899  160.4731 S   0  0  0  0  0  0  0  0  0  0  0  0
  152.0237  137.3219  156.0523 H   0  0  0  0  0  0  0  0  0  0  0  0
  150.4374  138.0736  156.2063 H   0  0  0  0  0  0  0  0  0  0  0  0
  150.6887  136.4189  156.7579 H   0  0  0  0  0  0  0  0  0  0  0  0
  152.2424  137.2037  158.4997 H   0  0  0  0  0  0  0  0  0  0  0  0
  152.9442  139.3010  157.1959 H   0  0  0  0  0  0  0  0  0  0  0  0
  151.4465  140.0283  157.6987 H   0  0  0  0  0  0  0  0  0  0  0  0
  153.5981  137.9225  159.8526 H   0  0  0  0  0  0  0  0  0  0  0  0
  154.6985  138.8703  158.8788 H   0  0  0  0  0  0  0  0  0  0  0  0
  153.9008  139.4320  161.7877 H   0  0  0  0  0  0  0  0  0  0  0  0
  155.4584  138.8500  161.2283 H   0  0  0  0  0  0  0  0  0  0  0  0
  153.2518  141.7495  161.1709 H   0  0  0  0  0  0  0  0  0  0  0  0
  154.3851  142.6793  160.2058 H   0  0  0  0  0  0  0  0  0  0  0  0
  154.0476  141.2014  158.2593 H   0  0  0  0  0  0  0  0  0  0  0  0
  152.5000  141.8102  158.8034 H   0  0  0  0  0  0  0  0  0  0  0  0
  150.1340  138.8907  159.3439 H   0  0  0  0  0  0  0  0  0  0  0  0
  147.7231  135.4889  164.0070 H   0  0  0  0  0  0  0  0  0  0  0  0
  146.3185  133.7818  162.4647 H   0  0  0  0  0  0  0  0  0  0  0  0
  1  2  1  0  0  0  0
  1 19  1  0  0  0  0
  1 20  1  0  0  0  0
  1 21  1  0  0  0  0
  2  3  1  0  0  0  0
  2 10  1  0  0  0  0
  2 22  1  0  0  0  0
  3  4  1  0  0  0  0
  3 23  1  0  0  0  0
  3 24  1  0  0  0  0
  4  9  1  0  0  0  0
  4  5  1  0  0  0  0
  5  6  1  0  0  0  0
  5 25  1  0  0  0  0
  5 26  1  0  0  0  0
  6  7  1  0  0  0  0
  6 27  1  0  0  0  0
  6 28  1  0  0  0  0
  7  8  1  0  0  0  0
  8  9  1  0  0  0  0
  8 29  1  0  0  0  0
  8 30  1  0  0  0  0
  9 31  1  0  0  0  0
  9 32  1  0  0  0  0
 10 11  1  0  0  0  0
 10 33  1  0  0  0  0
 11 12  2  0  0  0  0
 11 13  1  0  0  0  0
 13 14  1  0  0  0  0
 14 18  1  0  0  0  0
 14 15  2  0  0  0  0
 15 16  1  0  0  0  0
 16 17  2  0  0  0  0
 16 34  1  0  0  0  0
 17 18  1  0  0  0  0
 17 35  1  0  0  0  0
M  CHG  1  13  -1
M  END
> <s_m_source_file>
AV-unprocessed.smi

> <i_m_source_file_index>
2007

> <i_lp_mmshare_version>
43012

> <i_f3d_flags>
0

> <s_epik_input>
W0NIMl0xW0NIMl1PW0NIMl1bQ0gyXU4xW0NIMl1bQ0BASF0oW0NIM10pW05IXUMoPU8pW05IXWMybltjSF1bY0hdczI=

> <s_epik_cmdline>
J2VwaWtfcHl0aG9uJywgJy1waCcsICc3LjAnLCAnLXRuJywgJzgnLCAnLW1hJywgJzIwMCcsICctbWV0YWxfYmluZGluZycsICctaW1hZScsICc8aW5maWxlLm1hZT4nLCAnLW9tYWUnLCAnPG91dGZpbGUubWFlPic=

> <r_lp_tautomer_probability>
0.999

> <r_epik_Ionization_Penalty>
7.09127

> <r_epik_Ionization_Penalty_Charging>
5.74083

> <r_epik_Ionization_Penalty_Neutral>
1.35044

> <r_epik_State_Penalty>
5.95014

> <r_epik_Charging_Adjusted_Penalty>
11.691

> <i_epik_Tot_Q>
-1

> <i_epik_Tot_abs_Q>
1

> <r_epik_Metal_State_Penalty>
1.93831

> <b_epik_Metal_Only>
1

> <s_lp_Force_Field>
OPLS_2005

> <r_lp_Energy>
21.094

> <b_lp_Chiralities_Consistent>
1

> <s_lp_Variant>
AV-unprocessed.smi:2007-6

> <Gold.Version>
5.8.1

> <Gold.Id.Protein>
6NUR|6NUR_protein|mol2

> <Gold.PLP.Fitness>
39.6334

> <Gold.PLP.PLP>
-34.7629

> <Gold.PLP.part.hbond>
-4.2991

> <Gold.PLP.part.metal>
0.0000

> <Gold.PLP.part.buried>
-5.2734

> <Gold.PLP.part.nonpolar>
-26.0676

> <Gold.PLP.part.repulsive>
0.2063

> <Gold.PLP.ligand.clash>
0.0000

> <Gold.PLP.ligand.torsion>
0.9925

> <Gold.PLP.Chemscore.Hbond>
2.2736

> <Gold.PLP.Chemscore.CHOScore>
0.0000

> <Gold.PLP.Chemscore.Metal>
0.0000

> <Gold.Chemscore.Hbonds>
donor molecule, donor type, donor heavy atom, donor atom, acceptor molecule, acceptor atom, score
      P1  H  6896  6909       L1    12  1.00
      P1  H  6931  6943       L1    15  0.45
      P1  H  6934  6947       L1    13  0.21

> <Gold.PLP.Chemscore.Internal.Correction>
0.0346

> <Gold.Rescore>
     Score         DG    S(hbond)    S(metal)    S(lipo)     H(rot)  DE(clash)    DE(int)     intcor
     14.96     -16.71       1.93        0.00      74.86       1.55       0.00       1.74       ----

> <Gold.Chemscore.Fitness>
14.9617

> <Gold.Chemscore.DG>
-16.7053

> <Gold.Chemscore.ZeroCoef>
-5.4800

> <Gold.Chemscore.Hbond>
1.9273

> <Gold.Chemscore.Metal>
0.0000

> <Gold.Chemscore.Lipo>
74.8619

> <Gold.Chemscore.Internal_Hbond>
0.0000

> <Gold.Chemscore.DEClash>
0.0000

> <Gold.Chemscore.DEInternal>
1.7436

> <Gold.Chemscore.Rot>
1.5510

> <Gold.Chemscore.Internal.Correction>
   9.000000E+99

> <Gold.Chemscore.Hbonds>
donor molecule, donor type, donor heavy atom, donor atom, acceptor molecule, acceptor atom, score
      P1  H  6896  6909       L1    12  0.91
      P1  H  6931  6943       L1    15  0.02
      P1  H  6934  6947       L1    13  0.01

> <Gold.Chemscore.Hbond.Weighted>
-6.4371

> <Gold.Chemscore.Metal.Weighted>
-0.0000

> <Gold.Chemscore.Lipo.Weighted>
-8.7588

> <Gold.Chemscore.Internal_Hbond.Weighted>
0.0000

> <Gold.Chemscore.DEClash.Weighted>
0.0000

> <Gold.Chemscore.DEInternal.Weighted>
1.7436

> <Gold.Chemscore.Rot.Weighted>
3.9706

> <Gold.Chemscore.Internal.Correction.Weighted>
   9.000000E+99

> <Gold.Protein.RotatedTorsions>
[ 6907 6896 6895 6894 ] final   64.93 input  -60.11 | X-H torsion
[ 7974 7965 7964 7962 ] final  102.00 input  175.53 | X-H torsion
[ 8008 7997 7996 7995 ] final -106.40 input   59.86 | X-H torsion
[ 10167 10162 10161 10158 ] final  -51.55 input  -65.29 | X-H torsion
[ 10718 10713 10712 10709 ] final  172.64 input   66.30 | X-H torsion
[ 10763 10752 10751 10750 ] final -123.33 input  -60.55 | X-H torsion
[ 11005 11000 10999 10996 ] final   73.62 input  -57.11 | X-H torsion

> <Gold.Protein.ActiveResidues>
 VAL166  LYS551  ARG553  GLY616  TRP617  ASP618  TYR619  PRO620  LYS621  CYS622 
 ASP623  PHE694  ASN695  SER759  ASP760  ASP761  ALA762  ILE779  LEU786  VAL792 
 PHE793  MET794  SER795  GLU796  ALA797  LYS798  CYS799  TRP800  GLU811  SER814 

> <Gold.Protein.RotatedAtoms>
  152.4369  134.5668  159.9909 H   0  0  0  0  0  0  0  0  0  0  0  0  # atno 6907 bound_to 6896
  151.5776  133.3376  159.3010 H   0  0  0  0  0  0  0  0  0  0  0  0  # atno 6908 bound_to 6896
  150.8269  134.7539  159.6885 H   0  0  0  0  0  0  0  0  0  0  0  0  # atno 6909 bound_to 6896
  145.3649  139.2410  143.3486 H   0  0  0  0  0  0  0  0  0  0  0  0  # atno 7974 bound_to 7965
  154.9140  140.0409  157.1962 H   0  0  0  0  0  0  0  0  0  0  0  0  # atno 8008 bound_to 7997
  154.8320  140.2900  155.5695 H   0  0  0  0  0  0  0  0  0  0  0  0  # atno 8009 bound_to 7997
  156.2987  140.2499  156.3246 H   0  0  0  0  0  0  0  0  0  0  0  0  # atno 8010 bound_to 7997
  140.6582  143.2615  151.4520 H   0  0  0  0  0  0  0  0  0  0  0  0  # atno 10167 bound_to 10162
  156.9759  131.0104  151.2893 H   0  0  0  0  0  0  0  0  0  0  0  0  # atno 10718 bound_to 10713
  154.8706  135.4102  154.2926 H   0  0  0  0  0  0  0  0  0  0  0  0  # atno 10763 bound_to 10752
  153.3799  135.7011  153.6578 H   0  0  0  0  0  0  0  0  0  0  0  0  # atno 10764 bound_to 10752
  153.5405  135.3649  155.2688 H   0  0  0  0  0  0  0  0  0  0  0  0  # atno 10765 bound_to 10752
  139.9431  134.7362  156.1048 H   0  0  0  0  0  0  0  0  0  0  0  0  # atno 11005 bound_to 11000
  146.2911  140.4290  142.8739 LP  0  0  0  0  0  0  0  0  0  0  0  0  # atno 17320 bound_to 7965
  144.8619  140.7151  143.6102 LP  0  0  0  0  0  0  0  0  0  0  0  0  # atno 17321 bound_to 7965
  139.5810  144.1710  152.1968 LP  0  0  0  0  0  0  0  0  0  0  0  0  # atno 17342 bound_to 10162
  140.1035  144.5519  150.6972 LP  0  0  0  0  0  0  0  0  0  0  0  0  # atno 17343 bound_to 10162
  157.5560  130.8214  149.8205 LP  0  0  0  0  0  0  0  0  0  0  0  0  # atno 17370 bound_to 10713
  156.0264  130.3778  150.1812 LP  0  0  0  0  0  0  0  0  0  0  0  0  # atno 17371 bound_to 10713
  141.1072  133.6656  156.2893 LP  0  0  0  0  0  0  0  0  0  0  0  0  # atno 17394 bound_to 11000
  140.5902  134.5658  157.5498 LP  0  0  0  0  0  0  0  0  0  0  0  0  # atno 17395 bound_to 11000

$$$$
