#       Name:                AV-unprocessed.smi:1958
#       Creating user name   scv26
#       Creation time:       Fri Mar 27 10:07:20 2020


#       File generated by GOLD software.
#

@<TRIPOS>MOLECULE
AV-unprocessed.smi:1958
    57    58     1
SMALL
NO_CHARGES


@<TRIPOS>ATOM
      1 ****        -4.7733   2.7011   3.5186 C.3            1 S1                 0.0000
      2 ****        -4.2562   2.3661   2.2429 O.3            1 S1                 0.0000
      3 ****        -3.8014   1.0250   2.1759 C.3            1 S1                 0.0000
      4 ****        -3.2874   0.7482   0.7553 C.3            1 S1                 0.0000
      5 ****        -2.7987  -0.6269   0.6128 N.am           1 S1                 0.0000
      6 ****        -1.4251  -0.7520   0.7293 N.2            1 S1                 0.0000
      7 ****        -0.8599  -1.9093   0.6000 C.2            1 S1                 0.0000
      8 ****         0.6260  -2.0613   0.6865 C.2            1 S1                 0.0000
      9 ****         1.0819  -3.1653   0.3629 O.2            1 S1                 0.0000
     10 ****         1.3569  -0.9783   1.0896 N.pl3          1 S1                -1.0000
     11 ****         2.8187  -0.8756   1.0574 C.3            1 S1                 0.0000
     12 ****         3.2700   0.2719   0.1140 C.3            1 S1                 0.0000
     13 ****         3.0168   1.6930   0.6756 C.3            1 S1                 0.0000
     14 ****         2.7563   0.0595  -1.2778 N.4            1 S1                 1.0000
     15 ****         1.5702   0.8622  -1.6850 C.3            1 S1                 0.0000
     16 ****         1.0573   0.3812  -3.0499 C.3            1 S1                 0.0000
     17 ****         2.0988   0.5007  -4.0117 O.3            1 S1                 0.0000
     18 ****         3.2241  -0.3055  -3.6834 C.3            1 S1                 0.0000
     19 ****         3.8039   0.1279  -2.3255 C.3            1 S1                 0.0000
     20 ****        -1.6606  -3.0984   0.3445 C.2            1 S1                 0.0000
     21 ****        -3.0008  -2.9619   0.2439 C.2            1 S1                 0.0000
     22 ****        -3.6596  -1.6625   0.3796 C.2            1 S1                 0.0000
     23 ****        -4.8781  -1.5133   0.2905 O.2            1 S1                 0.0000
     24 ****        -5.1035   3.7398   3.5191 H              1 S1                 0.0000
     25 ****        -4.0148   2.5880   4.2940 H              1 S1                 0.0000
     26 ****        -5.6302   2.0760   3.7730 H              1 S1                 0.0000
     27 ****        -3.0031   0.8648   2.9023 H              1 S1                 0.0000
     28 ****        -4.6168   0.3443   2.4259 H              1 S1                 0.0000
     29 ****        -4.0761   0.9461   0.0275 H              1 S1                 0.0000
     30 ****        -2.4892   1.4536   0.5163 H              1 S1                 0.0000
     31 ****         3.2238  -0.6971   2.0534 H              1 S1                 0.0000
     32 ****         3.2926  -1.7985   0.7197 H              1 S1                 0.0000
     33 ****         4.3559   0.1760   0.0727 H              1 S1                 0.0000
     34 ****         3.5195   1.8432   1.6327 H              1 S1                 0.0000
     35 ****         1.9577   1.9060   0.8303 H              1 S1                 0.0000
     36 ****         3.4099   2.4515  -0.0020 H              1 S1                 0.0000
     37 ****         0.7707   0.7713  -0.9500 H              1 S1                 0.0000
     38 ****         1.8314   1.9191  -1.7488 H              1 S1                 0.0000
     39 ****         0.7077  -0.6510  -2.9937 H              1 S1                 0.0000
     40 ****         0.2100   0.9885  -3.3681 H              1 S1                 0.0000
     41 ****         2.9359  -1.3577  -3.6631 H              1 S1                 0.0000
     42 ****         3.9763  -0.1969  -4.4648 H              1 S1                 0.0000
     43 ****         4.1957   1.1445  -2.3854 H              1 S1                 0.0000
     44 ****         4.6371  -0.5262  -2.0661 H              1 S1                 0.0000
     45 ****        -1.2075  -4.0737   0.2433 H              1 S1                 0.0000
     46 ****        -3.6058  -3.8373   0.0584 H              1 S1                 0.0000
     47 ****         2.4435  -0.9015  -1.2748 H              1 S1                 0.0000
     48 ****        -3.4901   2.9751   2.0375 LP             1 S1                 0.0000
     49 ****        -4.9764   2.4949   1.5612 LP             1 S1                 0.0000
     50 ****        -0.8662   0.0563   0.9145 LP             1 S1                 0.0000
     51 ****         0.4645  -3.8934   0.0650 LP             1 S1                 0.0000
     52 ****         2.0677  -3.3293   0.3994 LP             1 S1                 0.0000
     53 ****         0.8507  -0.1885   1.4362 LP             1 S1                 0.0000
     54 ****         2.3888   1.4567  -4.0561 LP             1 S1                 0.0000
     55 ****         1.7480   0.2170  -4.9041 LP             1 S1                 0.0000
     56 ****        -5.2789  -0.6025   0.3898 LP             1 S1                 0.0000
     57 ****        -5.4673  -2.3028   0.1189 LP             1 S1                 0.0000
@<TRIPOS>BOND
    1    1    2 1     
    2    1   24 1     
    3    1   25 1     
    4    1   26 1     
    5    2    3 1     
    6    3    4 1     
    7    3   27 1     
    8    3   28 1     
    9    4    5 1     
   10    4   29 1     
   11    4   30 1     
   12    5   22 am    
   13    5    6 1     
   14    6    7 2     
   15    7    8 1     
   16    7   20 1     
   17    8    9 2     
   18    8   10 1     
   19   10   11 1     
   20   11   12 1     
   21   11   31 1     
   22   11   32 1     
   23   12   13 1     
   24   12   14 1     
   25   12   33 1     
   26   13   34 1     
   27   13   35 1     
   28   13   36 1     
   29   14   19 1     
   30   14   15 1     
   31   14   47 1     
   32   15   16 1     
   33   15   37 1     
   34   15   38 1     
   35   16   17 1     
   36   16   39 1     
   37   16   40 1     
   38   17   18 1     
   39   18   19 1     
   40   18   41 1     
   41   18   42 1     
   42   19   43 1     
   43   19   44 1     
   44   20   21 2     
   45   20   45 1     
   46   21   22 1     
   47   21   46 1     
   48   22   23 2     
   49    2   48 1     
   50    2   49 1     
   51    6   50 1     
   52    9   51 1     
   53    9   52 1     
   54   10   53 1     
   55   17   54 1     
   56   17   55 1     
   57   23   56 1     
   58   23   57 1     
@<TRIPOS>SUBSTRUCTURE
      1 S1             1
@<TRIPOS>SET
LONE_PAIRS      STATIC     ATOMS    <user>   **** ""
10 48 49 50 51 52 53 54 55 56 57
DONOR_HYDROGENS      STATIC     ATOMS    <user>   **** ""
1 47
ATOM$BLUE        STATIC     ATOMS    COLORGROUP SYSTEM
10 48 49 50 51 52 53 54 55 56 57
ATOM$RED        STATIC     ATOMS    COLORGROUP SYSTEM
1 47
