#       Name:                AV-unprocessed.smi:613
#       Creating user name   scv26
#       Creation time:       Thu Mar 26 23:58:52 2020


#       File generated by GOLD software.
#

@<TRIPOS>MOLECULE
AV-unprocessed.smi:613
    45    46     1
SMALL
NO_CHARGES


@<TRIPOS>ATOM
      1 ****        -2.7285   1.9216   1.0028 C.3            1 S1                 0.0000
      2 ****        -2.0270   0.7727   1.5642 N.pl3          1 S1                 0.0000
      3 ****        -0.5630   0.7824   1.5676 C.3            1 S1                 0.0000
      4 ****         0.0410   0.3455   0.2196 C.3            1 S1                 0.0000
      5 ****         1.5629   0.1225   0.3233 C.3            1 S1                 0.0000
      6 ****         2.1596  -0.2222  -0.9649 N.3            1 S1                 0.0000
      7 ****         3.5996  -0.4828  -0.8390 C.3            1 S1                 0.0000
      8 ****         4.2727  -0.9706  -2.1281 C.2            1 S1                 0.0000
      9 ****         5.2639  -0.2233  -2.6202 N.am           1 S1                 0.0000
     10 ****         3.8988  -2.0064  -2.6742 O.2            1 S1                 0.0000
     11 ****         1.8219   0.8038  -1.9550 C.3            1 S1                 0.0000
     12 ****         0.3048   1.0426  -2.0354 C.3            1 S1                 0.0000
     13 ****        -0.1963   1.3691  -0.7441 O.3            1 S1                 0.0000
     14 ****        -2.7318  -0.4429   1.7383 C.ar           1 S1                 0.0000
     15 ****        -4.1404  -0.5101   1.6029 C.ar           1 S1                 0.0000
     16 ****        -4.7665  -1.7541   1.7919 C.ar           1 S1                 0.0000
     17 ****        -3.9455  -2.8503   2.1051 C.ar           1 S1                 0.0000
     18 ****        -2.6054  -2.7405   2.2276 N.ar           1 S1                 0.0000
     19 ****        -2.0139  -1.5548   2.0480 N.ar           1 S1                 0.0000
     20 ****        -3.5086   2.2664   1.6820 H              1 S1                 0.0000
     21 ****        -3.1820   1.6678   0.0440 H              1 S1                 0.0000
     22 ****        -2.0447   2.7546   0.8372 H              1 S1                 0.0000
     23 ****        -0.2135   1.7848   1.8172 H              1 S1                 0.0000
     24 ****        -0.1936   0.1438   2.3706 H              1 S1                 0.0000
     25 ****        -0.4322  -0.5807  -0.1118 H              1 S1                 0.0000
     26 ****         2.0357   1.0217   0.7228 H              1 S1                 0.0000
     27 ****         1.7564  -0.6743   1.0431 H              1 S1                 0.0000
     28 ****         4.1085   0.4131  -0.4780 H              1 S1                 0.0000
     29 ****         3.7666  -1.2513  -0.0830 H              1 S1                 0.0000
     30 ****         5.7368  -0.5062  -3.4661 H              1 S1                 0.0000
     31 ****         5.5374   0.6229  -2.1418 H              1 S1                 0.0000
     32 ****         2.3212   1.7409  -1.7032 H              1 S1                 0.0000
     33 ****         2.1746   0.5196  -2.9465 H              1 S1                 0.0000
     34 ****         0.0854   1.8613  -2.7208 H              1 S1                 0.0000
     35 ****        -0.2065   0.1583  -2.4190 H              1 S1                 0.0000
     36 ****        -4.7426   0.3531   1.3642 H              1 S1                 0.0000
     37 ****        -5.8369  -1.8632   1.7006 H              1 S1                 0.0000
     38 ****        -4.3689  -3.8314   2.2618 H              1 S1                 0.0000
     39 ****         1.7723  -1.0828  -1.2958 LP             1 S1                 0.0000
     40 ****         3.1503  -2.5383  -2.2782 LP             1 S1                 0.0000
     41 ****         4.3432  -2.3172  -3.5144 LP             1 S1                 0.0000
     42 ****         0.2478   2.2092  -0.4328 LP             1 S1                 0.0000
     43 ****        -1.1825   1.5193  -0.8134 LP             1 S1                 0.0000
     44 ****        -2.0557  -3.5451   2.4525 LP             1 S1                 0.0000
     45 ****        -1.0209  -1.4845   2.1437 LP             1 S1                 0.0000
@<TRIPOS>BOND
    1    1    2 1     
    2    1   20 1     
    3    1   21 1     
    4    1   22 1     
    5    2    3 1     
    6    2   14 1     
    7    3    4 1     
    8    3   23 1     
    9    3   24 1     
   10    4   13 1     
   11    4    5 1     
   12    4   25 1     
   13    5    6 1     
   14    5   26 1     
   15    5   27 1     
   16    6    7 1     
   17    6   11 1     
   18    7    8 1     
   19    7   28 1     
   20    7   29 1     
   21    8    9 am    
   22    8   10 2     
   23    9   30 1     
   24    9   31 1     
   25   11   12 1     
   26   11   32 1     
   27   11   33 1     
   28   12   13 1     
   29   12   34 1     
   30   12   35 1     
   31   14   19 ar    
   32   14   15 ar    
   33   15   16 ar    
   34   15   36 1     
   35   16   17 ar    
   36   16   37 1     
   37   17   18 ar    
   38   17   38 1     
   39   18   19 ar    
   40    6   39 1     
   41   10   40 1     
   42   10   41 1     
   43   13   42 1     
   44   13   43 1     
   45   18   44 1     
   46   19   45 1     
@<TRIPOS>SUBSTRUCTURE
      1 S1             1
@<TRIPOS>SET
LONE_PAIRS      STATIC     ATOMS    <user>   **** ""
7 39 40 41 42 43 44 45
DONOR_HYDROGENS      STATIC     ATOMS    <user>   **** ""
2 30 31
ATOM$BLUE        STATIC     ATOMS    COLORGROUP SYSTEM
7 39 40 41 42 43 44 45
ATOM$RED        STATIC     ATOMS    COLORGROUP SYSTEM
2 30 31
