#       Name:                AV-unprocessed.smi:1326
#       Creating user name   scv26
#       Creation time:       Fri Mar 27 05:04:42 2020


#       File generated by GOLD software.
#

@<TRIPOS>MOLECULE
AV-unprocessed.smi:1326
    44    44     1
SMALL
NO_CHARGES


@<TRIPOS>ATOM
      1 ****        -3.8251   0.1748  -4.5429 C.3            1 S1                 0.0000
      2 ****        -3.3432   0.1324  -3.1091 C.2            1 S1                 0.0000
      3 ****        -3.1655   1.3847  -2.5450 N.pl3          1 S1                 0.0000
      4 ****        -2.7326   1.4483  -1.2323 C.2            1 S1                 0.0000
      5 ****        -2.5671   2.8574  -0.6908 C.3            1 S1                 0.0000
      6 ****        -2.4850   0.3206  -0.5187 C.2            1 S1                 0.0000
      7 ****        -2.0086   0.3489   0.9332 C.3            1 S1                 0.0000
      8 ****        -0.5153   0.6105   1.1396 C.2            1 S1                 0.0000
      9 ****        -0.1475   1.5415   1.8556 O.2            1 S1                 0.0000
     10 ****         0.3325  -0.2244   0.5186 N.am           1 S1                 0.0000
     11 ****         1.7864  -0.1613   0.6041 C.3            1 S1                 0.0000
     12 ****         2.3032  -0.8974   1.8536 C.3            1 S1                 0.0000
     13 ****         3.8330  -0.8316   2.0372 C.3            1 S1                 0.0000
     14 ****         4.5916  -1.5939   0.9375 C.3            1 S1                 0.0000
     15 ****         4.2343  -1.3543   3.4252 C.3            1 S1                 0.0000
     16 ****        -2.6852  -0.9911  -1.1798 C.2            1 S1                 0.0000
     17 ****        -2.4613  -2.0491  -0.5930 O.2            1 S1                 0.0000
     18 ****        -3.1328  -1.0006  -2.5109 N.2            1 S1                 0.0000
     19 ****        -3.3391   2.2484  -3.0389 H              1 S1                 0.0000
     20 ****        -3.8409  -0.8249  -4.9789 H              1 S1                 0.0000
     21 ****        -3.1674   0.7990  -5.1485 H              1 S1                 0.0000
     22 ****        -4.8345   0.5848  -4.5907 H              1 S1                 0.0000
     23 ****        -1.5394   3.0237  -0.3678 H              1 S1                 0.0000
     24 ****        -3.2273   3.0183   0.1613 H              1 S1                 0.0000
     25 ****        -2.8051   3.6088  -1.4446 H              1 S1                 0.0000
     26 ****        -2.2691  -0.5776   1.4459 H              1 S1                 0.0000
     27 ****        -2.5675   1.1205   1.4637 H              1 S1                 0.0000
     28 ****        -0.0593  -0.9637  -0.0472 H              1 S1                 0.0000
     29 ****         2.1869  -0.6165  -0.3010 H              1 S1                 0.0000
     30 ****         2.1204   0.8776   0.6044 H              1 S1                 0.0000
     31 ****         1.8275  -0.4608   2.7330 H              1 S1                 0.0000
     32 ****         1.9814  -1.9394   1.8248 H              1 S1                 0.0000
     33 ****         4.1347   0.2155   1.9878 H              1 S1                 0.0000
     34 ****         4.2968  -2.6434   0.9070 H              1 S1                 0.0000
     35 ****         5.6680  -1.5571   1.1077 H              1 S1                 0.0000
     36 ****         4.4098  -1.1667  -0.0482 H              1 S1                 0.0000
     37 ****         3.9478  -2.3988   3.5529 H              1 S1                 0.0000
     38 ****         3.7543  -0.7788   4.2173 H              1 S1                 0.0000
     39 ****         5.3116  -1.2837   3.5775 H              1 S1                 0.0000
     40 ****        -0.8246   2.1265   2.3021 LP             1 S1                 0.0000
     41 ****         0.8283   1.7129   1.9909 LP             1 S1                 0.0000
     42 ****        -2.1362  -2.0373   0.3526 LP             1 S1                 0.0000
     43 ****        -2.6045  -2.9208  -1.0617 LP             1 S1                 0.0000
     44 ****        -3.2868  -1.8650  -2.9897 LP             1 S1                 0.0000
@<TRIPOS>BOND
    1    1   20 1     
    2    1   21 1     
    3    1   22 1     
    4    1    2 1     
    5    2    3 1     
    6    2   18 2     
    7    3    4 1     
    8    3   19 1     
    9    4    6 2     
   10    4    5 1     
   11    5   23 1     
   12    5   24 1     
   13    5   25 1     
   14    6   16 1     
   15    6    7 1     
   16    7    8 1     
   17    7   26 1     
   18    7   27 1     
   19    8    9 2     
   20    8   10 am    
   21   10   11 1     
   22   10   28 1     
   23   11   12 1     
   24   11   29 1     
   25   11   30 1     
   26   12   13 1     
   27   12   31 1     
   28   12   32 1     
   29   13   14 1     
   30   13   15 1     
   31   13   33 1     
   32   14   34 1     
   33   14   35 1     
   34   14   36 1     
   35   15   37 1     
   36   15   38 1     
   37   15   39 1     
   38   16   17 2     
   39   16   18 1     
   40    9   40 1     
   41    9   41 1     
   42   17   42 1     
   43   17   43 1     
   44   18   44 1     
@<TRIPOS>SUBSTRUCTURE
      1 S1             1
@<TRIPOS>SET
LONE_PAIRS      STATIC     ATOMS    <user>   **** ""
5 40 41 42 43 44
DONOR_HYDROGENS      STATIC     ATOMS    <user>   **** ""
2 19 28
ATOM$BLUE        STATIC     ATOMS    COLORGROUP SYSTEM
5 40 41 42 43 44
ATOM$RED        STATIC     ATOMS    COLORGROUP SYSTEM
2 19 28
