#       Name:                AV-unprocessed.smi:1602
#       Creating user name   scv26
#       Creation time:       Fri Mar 27 07:09:08 2020


#       File generated by GOLD software.
#

@<TRIPOS>MOLECULE
AV-unprocessed.smi:1602
    40    41     1
SMALL
NO_CHARGES


@<TRIPOS>ATOM
      1 ****        -2.7078  -0.3318  -1.0658 C.3            1 S1                 0.0000
      2 ****        -2.2047   0.2217   0.2784 C.3            1 S1                 0.0000
      3 ****        -2.4486  -0.7354   1.4765 C.3            1 S1                 0.0000
      4 ****        -1.9680  -2.1046   1.3001 N.pl3          1 S1                 0.0000
      5 ****        -2.6076  -3.1732   0.7006 C.2            1 S1                 0.0000
      6 ****        -1.7819  -4.2562   0.7996 C.2            1 S1                 0.0000
      7 ****        -0.6498  -3.7536   1.4990 C.2            1 S1                 0.0000
      8 ****        -0.7676  -2.4729   1.8065 N.2            1 S1                 0.0000
      9 ****        -0.7863   0.5340   0.1749 N.pl3          1 S1                -1.0000
     10 ****        -0.3192   2.0117  -0.3032 S.o2           1 S1                 0.0000
     11 ****        -0.6755   2.3316  -1.6952 O.2            1 S1                 0.0000
     12 ****        -0.5619   3.0415   0.7204 O.2            1 S1                 0.0000
     13 ****         1.3929   1.7171  -0.3095 N.3            1 S1                 0.0000
     14 ****         2.2663   2.8988  -0.2047 C.3            1 S1                 0.0000
     15 ****         3.7339   2.4934   0.0072 C.3            1 S1                 0.0000
     16 ****         4.1486   1.6011  -1.0149 O.3            1 S1                 0.0000
     17 ****         3.3939   0.3997  -0.9841 C.3            1 S1                 0.0000
     18 ****         1.9096   0.6988  -1.2474 C.3            1 S1                 0.0000
     19 ****        -3.7562  -0.6219  -0.9986 H              1 S1                 0.0000
     20 ****        -2.1388  -1.2064  -1.3830 H              1 S1                 0.0000
     21 ****        -2.6274   0.4148  -1.8560 H              1 S1                 0.0000
     22 ****        -2.7786   1.1248   0.4902 H              1 S1                 0.0000
     23 ****        -2.0100  -0.3214   2.3862 H              1 S1                 0.0000
     24 ****        -3.5207  -0.7931   1.6677 H              1 S1                 0.0000
     25 ****        -3.5853  -3.0711   0.2534 H              1 S1                 0.0000
     26 ****        -1.9610  -5.2554   0.4317 H              1 S1                 0.0000
     27 ****         0.2458  -4.2792   1.7958 H              1 S1                 0.0000
     28 ****         2.1674   3.4904  -1.1155 H              1 S1                 0.0000
     29 ****         1.9415   3.5281   0.6236 H              1 S1                 0.0000
     30 ****         4.3715   3.3773  -0.0164 H              1 S1                 0.0000
     31 ****         3.8702   2.0320   0.9866 H              1 S1                 0.0000
     32 ****         3.7776  -0.2772  -1.7476 H              1 S1                 0.0000
     33 ****         3.5230  -0.1023  -0.0237 H              1 S1                 0.0000
     34 ****         1.3366  -0.2242  -1.1643 H              1 S1                 0.0000
     35 ****         1.7782   1.0620  -2.2674 H              1 S1                 0.0000
     36 ****        -0.1140  -1.9021   2.3035 LP             1 S1                 0.0000
     37 ****        -0.1023  -0.1605   0.3979 LP             1 S1                 0.0000
     38 ****         1.4612   1.2676   0.5811 LP             1 S1                 0.0000
     39 ****         5.1156   1.3824  -0.8845 LP             1 S1                 0.0000
     40 ****         4.0236   2.0423  -1.9036 LP             1 S1                 0.0000
@<TRIPOS>BOND
    1    1    2 1     
    2    1   19 1     
    3    1   20 1     
    4    1   21 1     
    5    2    3 1     
    6    2    9 1     
    7    2   22 1     
    8    3    4 1     
    9    3   23 1     
   10    3   24 1     
   11    4    8 1     
   12    4    5 1     
   13    5    6 2     
   14    5   25 1     
   15    6    7 1     
   16    6   26 1     
   17    7    8 2     
   18    7   27 1     
   19    9   10 1     
   20   10   11 2     
   21   10   12 2     
   22   10   13 1     
   23   13   18 1     
   24   13   14 1     
   25   14   15 1     
   26   14   28 1     
   27   14   29 1     
   28   15   16 1     
   29   15   30 1     
   30   15   31 1     
   31   16   17 1     
   32   17   18 1     
   33   17   32 1     
   34   17   33 1     
   35   18   34 1     
   36   18   35 1     
   37    8   36 1     
   38    9   37 1     
   39   13   38 1     
   40   16   39 1     
   41   16   40 1     
@<TRIPOS>SUBSTRUCTURE
      1 S1             1
@<TRIPOS>SET
LONE_PAIRS      STATIC     ATOMS    <user>   **** ""
7 36 37 11 12 38 39 40
ATOM$BLUE        STATIC     ATOMS    COLORGROUP SYSTEM
7 36 37 11 12 38 39 40
