#       Name:                AV-unprocessed.smi:2311
#       Creating user name   scv26
#       Creation time:       Fri Mar 27 12:48:36 2020


#       File generated by GOLD software.
#

@<TRIPOS>MOLECULE
AV-unprocessed.smi:2311
    45    46     1
SMALL
NO_CHARGES


@<TRIPOS>ATOM
      1 ****        -3.7944   4.3903   0.8720 C.3            1 S1                 0.0000
      2 ****        -4.0512   3.0309   0.2565 C.ar           1 S1                 0.0000
      3 ****        -5.3567   2.6224  -0.0801 C.ar           1 S1                 0.0000
      4 ****        -5.5265   1.3461  -0.6460 C.ar           1 S1                 0.0000
      5 ****        -4.3924   0.5365  -0.8496 C.ar           1 S1                 0.0000
      6 ****        -3.1167   1.0217  -0.4832 C.ar           1 S1                 0.0000
      7 ****        -2.0393   0.1293  -0.7288 N.am           1 S1                 0.0000
      8 ****        -0.7314   0.3152  -0.4758 C.2            1 S1                 0.0000
      9 ****        -0.2391   1.3259   0.0268 O.2            1 S1                 0.0000
     10 ****        -0.0097  -0.7546  -0.8411 N.am           1 S1                 0.0000
     11 ****         1.4385  -0.8799  -0.7004 C.3            1 S1                 0.0000
     12 ****         1.9657  -1.9335  -1.6816 C.3            1 S1                 0.0000
     13 ****         3.4676  -2.1664  -1.4684 C.3            1 S1                 0.0000
     14 ****         3.7276  -2.5401  -0.1166 O.3            1 S1                 0.0000
     15 ****         3.3243  -1.6035   0.8883 C.3            1 S1                 0.0000
     16 ****         3.5725  -2.3171   2.2275 C.3            1 S1                 0.0000
     17 ****         4.1949  -0.3296   0.8328 C.3            1 S1                 0.0000
     18 ****         1.8156  -1.2936   0.7340 C.3            1 S1                 0.0000
     19 ****        -2.9635   2.2546   0.0615 N.ar           1 S1                 0.0000
     20 ****        -4.6931   5.0075   0.8558 H              1 S1                 0.0000
     21 ****        -3.0120   4.9161   0.3241 H              1 S1                 0.0000
     22 ****        -3.4740   4.2806   1.9083 H              1 S1                 0.0000
     23 ****        -6.2069   3.2667   0.0903 H              1 S1                 0.0000
     24 ****        -6.5099   0.9928  -0.9193 H              1 S1                 0.0000
     25 ****        -4.5061  -0.4467  -1.2829 H              1 S1                 0.0000
     26 ****        -2.2948  -0.7545  -1.1432 H              1 S1                 0.0000
     27 ****        -0.4960  -1.5412  -1.2455 H              1 S1                 0.0000
     28 ****         1.9010   0.0787  -0.9407 H              1 S1                 0.0000
     29 ****         1.4337  -2.8753  -1.5383 H              1 S1                 0.0000
     30 ****         1.7792  -1.6218  -2.7100 H              1 S1                 0.0000
     31 ****         3.8111  -2.9709  -2.1187 H              1 S1                 0.0000
     32 ****         4.0431  -1.2835  -1.7456 H              1 S1                 0.0000
     33 ****         3.2786  -1.6914   3.0711 H              1 S1                 0.0000
     34 ****         4.6265  -2.5677   2.3522 H              1 S1                 0.0000
     35 ****         3.0063  -3.2468   2.2926 H              1 S1                 0.0000
     36 ****         3.9577   0.3401   1.6601 H              1 S1                 0.0000
     37 ****         4.0538   0.2392  -0.0851 H              1 S1                 0.0000
     38 ****         5.2545  -0.5765   0.9044 H              1 S1                 0.0000
     39 ****         1.5194  -0.5196   1.4435 H              1 S1                 0.0000
     40 ****         1.2407  -2.1823   0.9998 H              1 S1                 0.0000
     41 ****        -0.8261   2.0942   0.2820 LP             1 S1                 0.0000
     42 ****         0.7478   1.3784   0.1797 LP             1 S1                 0.0000
     43 ****         4.7132  -2.6814  -0.0236 LP             1 S1                 0.0000
     44 ****         3.2494  -3.4005   0.0591 LP             1 S1                 0.0000
     45 ****        -2.0546   2.5852   0.3160 LP             1 S1                 0.0000
@<TRIPOS>BOND
    1    1    2 1     
    2    1   20 1     
    3    1   21 1     
    4    1   22 1     
    5    2   19 ar    
    6    2    3 ar    
    7    3    4 ar    
    8    3   23 1     
    9    4    5 ar    
   10    4   24 1     
   11    5    6 ar    
   12    5   25 1     
   13    6    7 1     
   14    6   19 ar    
   15    7    8 am    
   16    7   26 1     
   17    8    9 2     
   18    8   10 am    
   19   10   11 1     
   20   10   27 1     
   21   11   18 1     
   22   11   12 1     
   23   11   28 1     
   24   12   13 1     
   25   12   29 1     
   26   12   30 1     
   27   13   14 1     
   28   13   31 1     
   29   13   32 1     
   30   14   15 1     
   31   15   16 1     
   32   15   17 1     
   33   15   18 1     
   34   16   33 1     
   35   16   34 1     
   36   16   35 1     
   37   17   36 1     
   38   17   37 1     
   39   17   38 1     
   40   18   39 1     
   41   18   40 1     
   42    9   41 1     
   43    9   42 1     
   44   14   43 1     
   45   14   44 1     
   46   19   45 1     
@<TRIPOS>SUBSTRUCTURE
      1 S1             1
@<TRIPOS>SET
LONE_PAIRS      STATIC     ATOMS    <user>   **** ""
5 41 42 43 44 45
DONOR_HYDROGENS      STATIC     ATOMS    <user>   **** ""
2 26 27
ATOM$BLUE        STATIC     ATOMS    COLORGROUP SYSTEM
5 41 42 43 44 45
ATOM$RED        STATIC     ATOMS    COLORGROUP SYSTEM
2 26 27
