AV-unprocessed.smi:1878|AV-procd|sdf|7630|dock6
  -GOLD-   22720 9353D 1   1.00000     0.00000
 Structure written by MMmdl.
 35 36  0  0  0  0  0  0  0  0  3 V2000
  146.8451  140.2028  153.7359 O   0  0  0  0  0  0  0  0  0  0  0  0
  147.7328  139.3711  153.5458 C   0  0  0  0  0  0  0  0  0  0  0  0
  147.5264  138.3886  152.6593 N   0  0  0  0  0  0  0  0  0  0  0  0
  146.3100  138.2036  151.8764 C   0  0  0  0  0  0  0  0  0  0  0  0
  145.5721  136.9230  152.2926 C   0  0  0  0  0  0  0  0  0  0  0  0
  144.3163  137.2248  152.6206 F   0  0  0  0  0  0  0  0  0  0  0  0
  145.5531  136.0497  151.2854 F   0  0  0  0  0  0  0  0  0  0  0  0
  146.1675  136.3652  153.3471 F   0  0  0  0  0  0  0  0  0  0  0  0
  148.9531  139.3032  154.1363 N   0  5  0  0  0  0  0  0  0  0  0  0
  149.4805  140.1788  155.0191 C   0  0  0  0  0  0  0  0  0  0  0  0
  150.4836  139.6883  155.8883 C   0  0  0  0  0  0  0  0  0  0  0  0
  151.0934  140.5230  156.8457 C   0  0  0  0  0  0  0  0  0  0  0  0
  150.6954  141.8736  156.9345 C   0  0  0  0  0  0  0  0  0  0  0  0
  151.2328  142.7906  157.8486 N   0  0  0  0  0  0  0  0  0  0  0  0
  151.7184  144.0306  157.2658 C   0  0  0  0  0  0  0  0  0  0  0  0
  152.6146  144.6619  158.3343 C   0  0  0  0  0  0  0  0  0  0  0  0
  153.0240  143.4972  159.2436 C   0  0  0  0  0  0  0  0  0  0  0  0
  152.3270  142.2698  158.6506 C   0  0  0  0  0  0  0  0  0  0  0  0
  149.7370  142.3239  156.1008 N   0  3  0  0  0  0  0  0  0  0  0  0
  149.1328  141.5489  155.1741 C   0  0  0  0  0  0  0  0  0  0  0  0
  148.2681  137.7185  152.5179 H   0  0  0  0  0  0  0  0  0  0  0  0
  145.6587  139.0683  152.0127 H   0  0  0  0  0  0  0  0  0  0  0  0
  146.5658  138.1570  150.8168 H   0  0  0  0  0  0  0  0  0  0  0  0
  150.7927  138.6546  155.8241 H   0  0  0  0  0  0  0  0  0  0  0  0
  151.8533  140.1221  157.4999 H   0  0  0  0  0  0  0  0  0  0  0  0
  152.2965  143.8342  156.3620 H   0  0  0  0  0  0  0  0  0  0  0  0
  150.8906  144.6881  156.9985 H   0  0  0  0  0  0  0  0  0  0  0  0
  153.4740  145.1661  157.8914 H   0  0  0  0  0  0  0  0  0  0  0  0
  152.0554  145.4016  158.9087 H   0  0  0  0  0  0  0  0  0  0  0  0
  154.1054  143.3628  159.2844 H   0  0  0  0  0  0  0  0  0  0  0  0
  152.6735  143.6789  160.2603 H   0  0  0  0  0  0  0  0  0  0  0  0
  151.9579  141.6031  159.4307 H   0  0  0  0  0  0  0  0  0  0  0  0
  153.0237  141.7061  158.0283 H   0  0  0  0  0  0  0  0  0  0  0  0
  148.3895  142.0726  154.5946 H   0  0  0  0  0  0  0  0  0  0  0  0
  149.4521  143.3006  156.1717 H   0  0  0  0  0  0  0  0  0  0  0  0
  1  2  2  0  0  0  0
  2  3  1  0  0  0  0
  2  9  1  0  0  0  0
  3  4  1  0  0  0  0
  3 21  1  0  0  0  0
  4  5  1  0  0  0  0
  4 22  1  0  0  0  0
  4 23  1  0  0  0  0
  5  6  1  0  0  0  0
  5  7  1  0  0  0  0
  5  8  1  0  0  0  0
  9 10  1  0  0  0  0
 10 20  1  0  0  0  0
 10 11  2  0  0  0  0
 11 12  1  0  0  0  0
 11 24  1  0  0  0  0
 12 13  2  0  0  0  0
 12 25  1  0  0  0  0
 13 14  1  0  0  0  0
 13 19  1  0  0  0  0
 14 18  1  0  0  0  0
 14 15  1  0  0  0  0
 15 16  1  0  0  0  0
 15 26  1  0  0  0  0
 15 27  1  0  0  0  0
 16 17  1  0  0  0  0
 16 28  1  0  0  0  0
 16 29  1  0  0  0  0
 17 18  1  0  0  0  0
 17 30  1  0  0  0  0
 17 31  1  0  0  0  0
 18 32  1  0  0  0  0
 18 33  1  0  0  0  0
 19 20  2  0  0  0  0
 19 35  1  0  0  0  0
 20 34  1  0  0  0  0
M  CHG  1   9  -1
M  CHG  1  19   1
M  END
> <s_m_source_file>
AV-unprocessed.smi

> <i_m_source_file_index>
1878

> <i_lp_mmshare_version>
43012

> <i_f3d_flags>
0

> <s_epik_input>
RkMoRikoRilbQ0gyXVtOSF1DKD1PKVtOSF1jMVtjSF1bY0hdYyhuW2NIXTEpTjJbQ0gyXVtDSDJdW0NIMl1bQ0gyXTI=

> <s_epik_cmdline>
J2VwaWtfcHl0aG9uJywgJy1waCcsICc3LjAnLCAnLXRuJywgJzgnLCAnLW1hJywgJzIwMCcsICctbWV0YWxfYmluZGluZycsICctaW1hZScsICc8aW5maWxlLm1hZT4nLCAnLW9tYWUnLCAnPG91dGZpbGUubWFlPic=

> <r_lp_tautomer_probability>
0.999994

> <r_epik_Ionization_Penalty>
6.00991

> <r_epik_Ionization_Penalty_Charging>
6.00991

> <r_epik_Ionization_Penalty_Neutral>
1.33916e-07

> <r_epik_State_Penalty>
7.27363

> <r_epik_Charging_Adjusted_Penalty>
13.2835

> <i_epik_Tot_Q>
0

> <i_epik_Tot_abs_Q>
2

> <r_epik_Metal_State_Penalty>
3.28277

> <b_epik_Metal_Only>
1

> <s_lp_Force_Field>
OPLS_2005

> <r_lp_Energy>
31.9355

> <b_lp_Chiralities_Consistent>
1

> <s_lp_Variant>
AV-unprocessed.smi:1878-5

> <Gold.Version>
5.8.1

> <Gold.Id.Protein>
6NUR|6NUR_protein|mol2

> <Gold.PLP.Fitness>
46.0594

> <Gold.PLP.PLP>
-39.6469

> <Gold.PLP.part.hbond>
-3.0000

> <Gold.PLP.part.metal>
0.0000

> <Gold.PLP.part.buried>
-1.3936

> <Gold.PLP.part.nonpolar>
-36.9624

> <Gold.PLP.part.repulsive>
0.7162

> <Gold.PLP.ligand.clash>
0.0000

> <Gold.PLP.ligand.torsion>
1.3312

> <Gold.PLP.Chemscore.Hbond>
3.0000

> <Gold.PLP.Chemscore.CHOScore>
0.0000

> <Gold.PLP.Chemscore.Metal>
0.0000

> <Gold.Chemscore.Hbonds>
donor molecule, donor type, donor heavy atom, donor atom, acceptor molecule, acceptor atom, score
      L1  H     3    21       P1  7948  1.00
      L1  H    19    35       P1  8028  2.00

> <Gold.PLP.Chemscore.Internal.Correction>
0.0748

> <Gold.Rescore>
     Score         DG    S(hbond)    S(metal)    S(lipo)     H(rot)  DE(clash)    DE(int)     intcor
     17.34     -18.55       1.98        0.00      84.40       1.33       0.00       1.20       ----

> <Gold.Chemscore.Fitness>
17.3444

> <Gold.Chemscore.DG>
-18.5476

> <Gold.Chemscore.ZeroCoef>
-5.4800

> <Gold.Chemscore.Hbond>
1.9767

> <Gold.Chemscore.Metal>
0.0000

> <Gold.Chemscore.Lipo>
84.4004

> <Gold.Chemscore.Internal_Hbond>
0.0000

> <Gold.Chemscore.DEClash>
0.0044

> <Gold.Chemscore.DEInternal>
1.1988

> <Gold.Chemscore.Rot>
1.3317

> <Gold.Chemscore.Internal.Correction>
   9.000000E+99

> <Gold.Chemscore.Hbonds>
donor molecule, donor type, donor heavy atom, donor atom, acceptor molecule, acceptor atom, score
      L1  H     3    21       P1  7948  0.98
      L1  H    19    35       P1  8028  0.98

> <Gold.Chemscore.Hbond.Weighted>
-6.6020

> <Gold.Chemscore.Metal.Weighted>
-0.0000

> <Gold.Chemscore.Lipo.Weighted>
-9.8748

> <Gold.Chemscore.Internal_Hbond.Weighted>
0.0000

> <Gold.Chemscore.DEClash.Weighted>
0.0044

> <Gold.Chemscore.DEInternal.Weighted>
1.1988

> <Gold.Chemscore.Rot.Weighted>
3.4092

> <Gold.Chemscore.Internal.Correction.Weighted>
   9.000000E+99

> <Gold.Protein.RotatedTorsions>
[ 6907 6896 6895 6894 ] final  -82.45 input  -60.11 | X-H torsion
[ 7974 7965 7964 7962 ] final  157.85 input  175.53 | X-H torsion
[ 8008 7997 7996 7995 ] final  -84.72 input   59.86 | X-H torsion
[ 10167 10162 10161 10158 ] final   -0.32 input  -65.29 | X-H torsion
[ 10718 10713 10712 10709 ] final  128.66 input   66.30 | X-H torsion
[ 10763 10752 10751 10750 ] final -163.53 input  -60.55 | X-H torsion
[ 11005 11000 10999 10996 ] final  -97.15 input  -57.11 | X-H torsion

> <Gold.Protein.ActiveResidues>
 VAL166  LYS551  ARG553  GLY616  TRP617  ASP618  TYR619  PRO620  LYS621  CYS622 
 ASP623  PHE694  ASN695  SER759  ASP760  ASP761  ALA762  ILE779  LEU786  VAL792 
 PHE793  MET794  SER795  GLU796  ALA797  LYS798  CYS799  TRP800  GLU811  SER814 

> <Gold.Protein.RotatedAtoms>
  150.6897  134.3663  159.4972 H   0  0  0  0  0  0  0  0  0  0  0  0  # atno 6907 bound_to 6896
  152.1485  134.9004  160.0558 H   0  0  0  0  0  0  0  0  0  0  0  0  # atno 6908 bound_to 6896
  152.0110  133.3827  159.4257 H   0  0  0  0  0  0  0  0  0  0  0  0  # atno 6909 bound_to 6896
  144.7879  139.7397  143.6233 H   0  0  0  0  0  0  0  0  0  0  0  0  # atno 7974 bound_to 7965
  154.6329  140.0601  156.9754 H   0  0  0  0  0  0  0  0  0  0  0  0  # atno 8008 bound_to 7997
  155.1637  140.3285  155.4388 H   0  0  0  0  0  0  0  0  0  0  0  0  # atno 8009 bound_to 7997
  156.2492  140.1926  156.6743 H   0  0  0  0  0  0  0  0  0  0  0  0  # atno 8010 bound_to 7997
  140.6762  143.6908  150.8029 H   0  0  0  0  0  0  0  0  0  0  0  0  # atno 10167 bound_to 10162
  157.5224  131.1098  150.9133 H   0  0  0  0  0  0  0  0  0  0  0  0  # atno 10718 bound_to 10713
  154.7114  135.3007  154.9192 H   0  0  0  0  0  0  0  0  0  0  0  0  # atno 10763 bound_to 10752
  154.0092  135.6697  153.4768 H   0  0  0  0  0  0  0  0  0  0  0  0  # atno 10764 bound_to 10752
  153.0758  135.5036  154.8314 H   0  0  0  0  0  0  0  0  0  0  0  0  # atno 10765 bound_to 10752
  141.1388  133.8149  157.0667 H   0  0  0  0  0  0  0  0  0  0  0  0  # atno 11005 bound_to 11000
  146.2119  139.5482  142.9675 LP  0  0  0  0  0  0  0  0  0  0  0  0  # atno 17320 bound_to 7965
  145.5871  141.0375  143.2090 LP  0  0  0  0  0  0  0  0  0  0  0  0  # atno 17321 bound_to 7965
  140.0601  143.5163  152.2631 LP  0  0  0  0  0  0  0  0  0  0  0  0  # atno 17342 bound_to 10162
  139.6056  144.7595  151.3069 LP  0  0  0  0  0  0  0  0  0  0  0  0  # atno 17343 bound_to 10162
  156.9740  130.5501  149.5292 LP  0  0  0  0  0  0  0  0  0  0  0  0  # atno 17370 bound_to 10713
  156.0363  130.5450  150.8661 LP  0  0  0  0  0  0  0  0  0  0  0  0  # atno 17371 bound_to 10713
  140.0537  134.9792  157.1182 LP  0  0  0  0  0  0  0  0  0  0  0  0  # atno 17394 bound_to 11000
  140.3951  134.2142  155.7165 LP  0  0  0  0  0  0  0  0  0  0  0  0  # atno 17395 bound_to 11000

$$$$
