AV-unprocessed.smi:1669|AV-procd|sdf|6683|dock7
  -GOLD-   22720 7403D 1   1.00000     0.00000
 Structure written by MMmdl.
 48 50  0  0  0  0  0  0  0  0  2 V2000
  147.8723  141.7277  154.1235 C   0  0  0  0  0  0  0  0  0  0  0  0
  147.2465  142.0759  155.4206 N   0  3  1  0  0  0  0  0  0  0  0  0
  145.7619  142.0947  155.3549 C   0  0  0  0  0  0  0  0  0  0  0  0
  145.2423  143.3202  154.6258 C   0  0  0  0  0  0  0  0  0  0  0  0
  145.6612  143.5825  153.3045 C   0  0  0  0  0  0  0  0  0  0  0  0
  145.1790  144.7160  152.6215 C   0  0  0  0  0  0  0  0  0  0  0  0
  144.2786  145.5921  153.2577 C   0  0  0  0  0  0  0  0  0  0  0  0
  143.8612  145.3354  154.5780 C   0  0  0  0  0  0  0  0  0  0  0  0
  144.3426  144.2021  155.2617 C   0  0  0  0  0  0  0  0  0  0  0  0
  147.7612  141.2376  156.5321 C   0  0  0  0  0  0  0  0  0  0  0  0
  148.9423  141.9132  157.2635 C   0  0  2  0  0  0  0  0  0  0  0  0
  148.6360  143.2788  157.4585 O   0  0  0  0  0  0  0  0  0  0  0  0
  150.2793  141.8272  156.5010 C   0  0  0  0  0  0  0  0  0  0  0  0
  151.3835  141.4223  157.3612 N   0  0  0  0  0  0  0  0  0  0  0  0
  152.1450  140.2998  157.2940 C   0  0  0  0  0  0  0  0  0  0  0  0
  151.9430  139.2520  156.2428 C   0  0  0  0  0  0  0  0  0  0  0  0
  152.2238  139.7238  154.9426 O   0  0  0  0  0  0  0  0  0  0  0  0
  153.0858  140.1811  158.2311 N   0  0  0  0  0  0  0  0  0  0  0  0
  152.9310  141.3388  158.9677 C   0  0  0  0  0  0  0  0  0  0  0  0
  153.6311  141.8061  160.1028 C   0  0  0  0  0  0  0  0  0  0  0  0
  153.2882  143.0394  160.6947 C   0  0  0  0  0  0  0  0  0  0  0  0
  152.2445  143.8222  160.1605 C   0  0  0  0  0  0  0  0  0  0  0  0
  151.5343  143.3749  159.0301 C   0  0  0  0  0  0  0  0  0  0  0  0
  151.8775  142.1411  158.4455 C   0  0  0  0  0  0  0  0  0  0  0  0
  147.6065  140.7139  153.8212 H   0  0  0  0  0  0  0  0  0  0  0  0
  148.9589  141.7909  154.1901 H   0  0  0  0  0  0  0  0  0  0  0  0
  147.5593  142.4133  153.3361 H   0  0  0  0  0  0  0  0  0  0  0  0
  145.3973  141.1834  154.8776 H   0  0  0  0  0  0  0  0  0  0  0  0
  145.3308  142.1019  156.3560 H   0  0  0  0  0  0  0  0  0  0  0  0
  146.3514  142.9139  152.8105 H   0  0  0  0  0  0  0  0  0  0  0  0
  145.4996  144.9133  151.6092 H   0  0  0  0  0  0  0  0  0  0  0  0
  143.9090  146.4614  152.7336 H   0  0  0  0  0  0  0  0  0  0  0  0
  143.1711  146.0078  155.0664 H   0  0  0  0  0  0  0  0  0  0  0  0
  144.0164  144.0117  156.2737 H   0  0  0  0  0  0  0  0  0  0  0  0
  146.9350  141.0284  157.2127 H   0  0  0  0  0  0  0  0  0  0  0  0
  148.0933  140.2676  156.1584 H   0  0  0  0  0  0  0  0  0  0  0  0
  149.0793  141.4684  158.2482 H   0  0  0  0  0  0  0  0  0  0  0  0
  148.5112  143.6863  156.6145 H   0  0  0  0  0  0  0  0  0  0  0  0
  150.1935  141.1402  155.6600 H   0  0  0  0  0  0  0  0  0  0  0  0
  150.5283  142.7992  156.0726 H   0  0  0  0  0  0  0  0  0  0  0  0
  152.5928  138.4013  156.4513 H   0  0  0  0  0  0  0  0  0  0  0  0
  150.9189  138.8811  156.2839 H   0  0  0  0  0  0  0  0  0  0  0  0
  152.8677  139.1554  154.5483 H   0  0  0  0  0  0  0  0  0  0  0  0
  154.4342  141.2157  160.5186 H   0  0  0  0  0  0  0  0  0  0  0  0
  153.8304  143.3874  161.5618 H   0  0  0  0  0  0  0  0  0  0  0  0
  151.9907  144.7672  160.6183 H   0  0  0  0  0  0  0  0  0  0  0  0
  150.7368  143.9751  158.6174 H   0  0  0  0  0  0  0  0  0  0  0  0
  147.5414  143.0193  155.6310 H   0  0  0  0  0  0  0  0  0  0  0  0
  1  2  1  0  0  0  0
  1 25  1  0  0  0  0
  1 26  1  0  0  0  0
  1 27  1  0  0  0  0
  2  3  1  0  0  0  0
  2 10  1  0  0  0  0
  2 48  1  0  0  0  0
  3  4  1  0  0  0  0
  3 28  1  0  0  0  0
  3 29  1  0  0  0  0
  4  9  1  0  0  0  0
  4  5  2  0  0  0  0
  5  6  1  0  0  0  0
  5 30  1  0  0  0  0
  6  7  2  0  0  0  0
  6 31  1  0  0  0  0
  7  8  1  0  0  0  0
  7 32  1  0  0  0  0
  8  9  2  0  0  0  0
  8 33  1  0  0  0  0
  9 34  1  0  0  0  0
 10 11  1  0  0  0  0
 10 35  1  0  0  0  0
 10 36  1  0  0  0  0
 11 12  1  0  0  0  0
 11 13  1  0  0  0  0
 11 37  1  0  0  0  0
 12 38  1  0  0  0  0
 13 14  1  0  0  0  0
 13 39  1  0  0  0  0
 13 40  1  0  0  0  0
 14 24  1  0  0  0  0
 14 15  1  0  0  0  0
 15 16  1  0  0  0  0
 15 18  2  0  0  0  0
 16 17  1  0  0  0  0
 16 41  1  0  0  0  0
 16 42  1  0  0  0  0
 17 43  1  0  0  0  0
 18 19  1  0  0  0  0
 19 24  2  0  0  0  0
 19 20  1  0  0  0  0
 20 21  2  0  0  0  0
 20 44  1  0  0  0  0
 21 22  1  0  0  0  0
 21 45  1  0  0  0  0
 22 23  2  0  0  0  0
 22 46  1  0  0  0  0
 23 24  1  0  0  0  0
 23 47  1  0  0  0  0
M  CHG  1   2   1
M  END
> <s_m_source_file>
AV-unprocessed.smi

> <i_m_source_file_index>
1669

> <i_lp_mmshare_version>
43012

> <i_f3d_flags>
0

> <s_epik_input>
W2NIXTFbY0hdW2NIXVtjSF1bY0hdYzFbQ0gyXU4oW0NIM10pW0NIMl1bQ0BIXShbT0hdKVtDSDJdbihjKG4yKVtDSDJdW09IXSljKGMyMylbY0hdW2NIXVtjSF1bY0hdMw==

> <s_epik_cmdline>
J2VwaWtfcHl0aG9uJywgJy1waCcsICc3LjAnLCAnLXRuJywgJzgnLCAnLW1hJywgJzIwMCcsICctbWV0YWxfYmluZGluZycsICctaW1hZScsICc8aW5maWxlLm1hZT4nLCAnLW9tYWUnLCAnPG91dGZpbGUubWFlPic=

> <r_epik_Ionization_Penalty>
0.0949884

> <r_epik_Ionization_Penalty_Charging>
0.0475377

> <r_epik_Ionization_Penalty_Neutral>
0.0474507

> <r_epik_State_Penalty>
0.078247

> <r_epik_Charging_Adjusted_Penalty>
0.125785

> <i_epik_Tot_Q>
1

> <i_epik_Tot_abs_Q>
1

> <r_epik_Metal_State_Penalty>
0.0403451

> <b_epik_Metal_Only>
0

> <s_lp_Force_Field>
OPLS_2005

> <r_lp_Energy>
16.111

> <b_lp_Chiralities_Consistent>
1

> <s_lp_Variant>
AV-unprocessed.smi:1669-1

> <Gold.Version>
5.8.1

> <Gold.Id.Protein>
6NUR|6NUR_protein|mol2

> <Gold.PLP.Fitness>
60.9328

> <Gold.PLP.PLP>
-51.1760

> <Gold.PLP.part.hbond>
-4.4955

> <Gold.PLP.part.metal>
0.0000

> <Gold.PLP.part.buried>
-1.8169

> <Gold.PLP.part.nonpolar>
-42.6500

> <Gold.PLP.part.repulsive>
0.0550

> <Gold.PLP.ligand.clash>
0.0000

> <Gold.PLP.ligand.torsion>
1.5271

> <Gold.PLP.Chemscore.Hbond>
4.2450

> <Gold.PLP.Chemscore.CHOScore>
0.0000

> <Gold.PLP.Chemscore.Metal>
0.0000

> <Gold.Chemscore.Hbonds>
donor molecule, donor type, donor heavy atom, donor atom, acceptor molecule, acceptor atom, score
      L1  H     2    48       P1  8028  1.46
      L1  H    12    38       P1  8028  0.71
      P1  H  7989  7998       L1    17  0.78
      P1  H  7997  8010       L1    18  0.67

> <Gold.PLP.Chemscore.Internal.Correction>
0.0759

> <Gold.Rescore>
     Score         DG    S(hbond)    S(metal)    S(lipo)     H(rot)  DE(clash)    DE(int)     intcor
     16.13     -18.48       1.63        0.00     133.96       3.17       0.69       1.66       ----

> <Gold.Chemscore.Fitness>
16.1342

> <Gold.Chemscore.DG>
-18.4763

> <Gold.Chemscore.ZeroCoef>
-5.4800

> <Gold.Chemscore.Hbond>
1.6305

> <Gold.Chemscore.Metal>
0.0000

> <Gold.Chemscore.Lipo>
133.9605

> <Gold.Chemscore.Internal_Hbond>
0.0000

> <Gold.Chemscore.DEClash>
0.6863

> <Gold.Chemscore.DEInternal>
1.6558

> <Gold.Chemscore.Rot>
3.1731

> <Gold.Chemscore.Internal.Correction>
   9.000000E+99

> <Gold.Chemscore.Hbonds>
donor molecule, donor type, donor heavy atom, donor atom, acceptor molecule, acceptor atom, score
      L1  H     2    48       P1  8028  0.18
      L1  H    12    38       P1  8028  0.15
      P1  H  7989  7998       L1    17  0.35
      P1  H  7997  8010       L1    18  0.06

> <Gold.Chemscore.Hbond.Weighted>
-5.4460

> <Gold.Chemscore.Metal.Weighted>
-0.0000

> <Gold.Chemscore.Lipo.Weighted>
-15.6734

> <Gold.Chemscore.Internal_Hbond.Weighted>
0.0000

> <Gold.Chemscore.DEClash.Weighted>
0.6863

> <Gold.Chemscore.DEInternal.Weighted>
1.6558

> <Gold.Chemscore.Rot.Weighted>
8.1230

> <Gold.Chemscore.Internal.Correction.Weighted>
   9.000000E+99

> <Gold.Protein.RotatedTorsions>
[ 6907 6896 6895 6894 ] final    2.14 input  -60.11 | X-H torsion
[ 7974 7965 7964 7962 ] final   38.46 input  175.53 | X-H torsion
[ 8008 7997 7996 7995 ] final   41.31 input   59.86 | X-H torsion
[ 10167 10162 10161 10158 ] final   -5.20 input  -65.29 | X-H torsion
[ 10718 10713 10712 10709 ] final -101.27 input   66.30 | X-H torsion
[ 10763 10752 10751 10750 ] final   54.76 input  -60.55 | X-H torsion
[ 11005 11000 10999 10996 ] final  -62.05 input  -57.11 | X-H torsion

> <Gold.Protein.ActiveResidues>
 VAL166  LYS551  ARG553  GLY616  TRP617  ASP618  TYR619  PRO620  LYS621  CYS622 
 ASP623  PHE694  ASN695  SER759  ASP760  ASP761  ALA762  ILE779  LEU786  VAL792 
 PHE793  MET794  SER795  GLU796  ALA797  LYS798  CYS799  TRP800  GLU811  SER814 

> <Gold.Protein.RotatedAtoms>
  151.6040  135.1045  160.0066 H   0  0  0  0  0  0  0  0  0  0  0  0  # atno 6907 bound_to 6896
  152.4243  133.7164  159.6519 H   0  0  0  0  0  0  0  0  0  0  0  0  # atno 6908 bound_to 6896
  150.8131  133.8313  159.3195 H   0  0  0  0  0  0  0  0  0  0  0  0  # atno 6909 bound_to 6896
  146.1060  139.5770  142.9383 H   0  0  0  0  0  0  0  0  0  0  0  0  # atno 7974 bound_to 7965
  155.2675  140.3363  155.4268 H   0  0  0  0  0  0  0  0  0  0  0  0  # atno 8008 bound_to 7997
  156.2147  140.1784  156.7658 H   0  0  0  0  0  0  0  0  0  0  0  0  # atno 8009 bound_to 7997
  154.5736  140.0665  156.8986 H   0  0  0  0  0  0  0  0  0  0  0  0  # atno 8010 bound_to 7997
  140.6955  143.6336  150.8500 H   0  0  0  0  0  0  0  0  0  0  0  0  # atno 10167 bound_to 10162
  156.0189  130.5366  150.6939 H   0  0  0  0  0  0  0  0  0  0  0  0  # atno 10718 bound_to 10713
  152.9808  135.5734  154.4956 H   0  0  0  0  0  0  0  0  0  0  0  0  # atno 10763 bound_to 10752
  154.4484  135.2778  155.1801 H   0  0  0  0  0  0  0  0  0  0  0  0  # atno 10764 bound_to 10752
  154.3439  135.6223  153.5663 H   0  0  0  0  0  0  0  0  0  0  0  0  # atno 10765 bound_to 10752
  141.1346  133.6636  156.5468 H   0  0  0  0  0  0  0  0  0  0  0  0  # atno 11005 bound_to 11000
  145.5759  141.0388  143.2148 LP  0  0  0  0  0  0  0  0  0  0  0  0  # atno 17320 bound_to 7965
  144.7471  139.7290  143.7288 LP  0  0  0  0  0  0  0  0  0  0  0  0  # atno 17321 bound_to 7965
  140.0053  143.5700  152.2860 LP  0  0  0  0  0  0  0  0  0  0  0  0  # atno 17342 bound_to 10162
  139.6404  144.7654  151.2350 LP  0  0  0  0  0  0  0  0  0  0  0  0  # atno 17343 bound_to 10162
  157.4614  131.0883  151.0741 LP  0  0  0  0  0  0  0  0  0  0  0  0  # atno 17370 bound_to 10713
  157.1228  130.6069  149.5509 LP  0  0  0  0  0  0  0  0  0  0  0  0  # atno 17371 bound_to 10713
  140.4095  134.7284  157.4828 LP  0  0  0  0  0  0  0  0  0  0  0  0  # atno 17394 bound_to 11000
  140.0437  134.6230  155.8948 LP  0  0  0  0  0  0  0  0  0  0  0  0  # atno 17395 bound_to 11000

$$$$
