AV-unprocessed.smi:2856|AV-procd|sdf|10994|dock4
  -GOLD-   2272015443D 1   1.00000     0.00000
 Structure written by MMmdl.
 37 38  0  0  0  0  0  0  0  0  1 V2000
  151.3404  137.4994  154.4110 C   0  0  0  0  0  0  0  0  0  0  0  0
  150.2067  138.9131  154.4759 S   0  0  0  0  0  0  0  0  0  0  0  0
  151.0430  139.9725  155.6991 C   0  0  1  0  0  0  0  0  0  0  0  0
  150.2682  141.2901  155.8973 C   0  0  0  0  0  0  0  0  0  0  0  0
  150.9791  142.2161  156.8969 C   0  0  0  0  0  0  0  0  0  0  0  0
  151.2119  141.5114  158.2418 C   0  0  0  0  0  0  0  0  0  0  0  0
  151.9826  140.1931  158.0547 C   0  0  0  0  0  0  0  0  0  0  0  0
  151.2909  139.2499  157.0466 C   0  0  1  0  0  0  0  0  0  0  0  0
  150.0415  138.7268  157.6015 N   0  0  0  0  0  0  0  0  0  0  0  0
  149.9424  137.9125  158.6620 C   0  0  0  0  0  0  0  0  0  0  0  0
  150.9134  137.5052  159.3003 O   0  0  0  0  0  0  0  0  0  0  0  0
  148.6596  137.6139  158.9287 N   0  0  0  0  0  0  0  0  0  0  0  0
  148.1627  136.7938  159.9736 C   0  0  0  0  0  0  0  0  0  0  0  0
  148.2957  135.3808  159.9178 C   0  0  0  0  0  0  0  0  0  0  0  0
  147.6993  134.9696  161.0769 C   0  0  0  0  0  0  0  0  0  0  0  0
  147.4643  133.6257  161.6761 C   0  0  0  0  0  0  0  0  0  0  0  0
  147.2474  136.0410  161.7834 O   0  0  0  0  0  0  0  0  0  0  0  0
  147.5473  137.2080  161.0706 N   0  0  0  0  0  0  0  0  0  0  0  0
  151.0230  136.8024  153.6353 H   0  0  0  0  0  0  0  0  0  0  0  0
  151.3510  136.9675  155.3617 H   0  0  0  0  0  0  0  0  0  0  0  0
  152.3534  137.8305  154.1826 H   0  0  0  0  0  0  0  0  0  0  0  0
  152.0128  140.2287  155.2698 H   0  0  0  0  0  0  0  0  0  0  0  0
  150.1584  141.8034  154.9415 H   0  0  0  0  0  0  0  0  0  0  0  0
  149.2574  141.0798  156.2492 H   0  0  0  0  0  0  0  0  0  0  0  0
  151.9358  142.5355  156.4818 H   0  0  0  0  0  0  0  0  0  0  0  0
  150.3906  143.1215  157.0483 H   0  0  0  0  0  0  0  0  0  0  0  0
  151.7626  142.1697  158.9140 H   0  0  0  0  0  0  0  0  0  0  0  0
  150.2531  141.3141  158.7227 H   0  0  0  0  0  0  0  0  0  0  0  0
  152.9884  140.4185  157.6983 H   0  0  0  0  0  0  0  0  0  0  0  0
  152.1103  139.6957  159.0169 H   0  0  0  0  0  0  0  0  0  0  0  0
  151.9648  138.4123  156.8624 H   0  0  0  0  0  0  0  0  0  0  0  0
  149.1904  139.0063  157.1361 H   0  0  0  0  0  0  0  0  0  0  0  0
  147.9630  138.0264  158.3262 H   0  0  0  0  0  0  0  0  0  0  0  0
  148.7486  134.7667  159.1536 H   0  0  0  0  0  0  0  0  0  0  0  0
  147.7755  132.8345  160.9936 H   0  0  0  0  0  0  0  0  0  0  0  0
  146.4069  133.4822  161.8996 H   0  0  0  0  0  0  0  0  0  0  0  0
  148.0251  133.5123  162.6038 H   0  0  0  0  0  0  0  0  0  0  0  0
  1  2  1  0  0  0  0
  1 19  1  0  0  0  0
  1 20  1  0  0  0  0
  1 21  1  0  0  0  0
  2  3  1  0  0  0  0
  3  8  1  0  0  0  0
  3  4  1  0  0  0  0
  3 22  1  0  0  0  0
  4  5  1  0  0  0  0
  4 23  1  0  0  0  0
  4 24  1  0  0  0  0
  5  6  1  0  0  0  0
  5 25  1  0  0  0  0
  5 26  1  0  0  0  0
  6  7  1  0  0  0  0
  6 27  1  0  0  0  0
  6 28  1  0  0  0  0
  7  8  1  0  0  0  0
  7 29  1  0  0  0  0
  7 30  1  0  0  0  0
  8  9  1  0  0  0  0
  8 31  1  0  0  0  0
  9 10  1  0  0  0  0
  9 32  1  0  0  0  0
 10 11  2  0  0  0  0
 10 12  1  0  0  0  0
 12 13  1  0  0  0  0
 12 33  1  0  0  0  0
 13 18  2  0  0  0  0
 13 14  1  0  0  0  0
 14 15  2  0  0  0  0
 14 34  1  0  0  0  0
 15 16  1  0  0  0  0
 15 17  1  0  0  0  0
 16 35  1  0  0  0  0
 16 36  1  0  0  0  0
 16 37  1  0  0  0  0
 17 18  1  0  0  0  0
M  END
> <s_m_source_file>
AV-unprocessed.smi

> <i_m_source_file_index>
2856

> <i_lp_mmshare_version>
43012

> <i_f3d_flags>
0

> <s_epik_input>
W0NIM11TW0NAQEhdMVtDSDJdW0NIMl1bQ0gyXVtDSDJdW0NASF0xW05IXUMoPU8pW05IXWMyW2NIXWMoW0NIM10pb24y

> <s_epik_cmdline>
J2VwaWtfcHl0aG9uJywgJy1waCcsICc3LjAnLCAnLXRuJywgJzgnLCAnLW1hJywgJzIwMCcsICctbWV0YWxfYmluZGluZycsICctaW1hZScsICc8aW5maWxlLm1hZT4nLCAnLW9tYWUnLCAnPG91dGZpbGUubWFlPic=

> <r_lp_tautomer_probability>
1

> <r_epik_Ionization_Penalty>
2.20874e-05

> <r_epik_Ionization_Penalty_Charging>
0

> <r_epik_Ionization_Penalty_Neutral>
2.20874e-05

> <r_epik_State_Penalty>
-0

> <r_epik_Charging_Adjusted_Penalty>
0

> <i_epik_Tot_Q>
0

> <i_epik_Tot_abs_Q>
0

> <r_epik_Metal_State_Penalty>
-0

> <b_epik_Metal_Only>
0

> <s_lp_Force_Field>
OPLS_2005

> <r_lp_Energy>
4.92743

> <b_lp_Chiralities_Consistent>
1

> <s_lp_Variant>
AV-unprocessed.smi:2856-2

> <Gold.Version>
5.8.1

> <Gold.Id.Protein>
6NUR|6NUR_protein|mol2

> <Gold.PLP.Fitness>
35.6276

> <Gold.PLP.PLP>
-31.5927

> <Gold.PLP.part.hbond>
-2.0000

> <Gold.PLP.part.metal>
0.0000

> <Gold.PLP.part.buried>
-5.1409

> <Gold.PLP.part.nonpolar>
-25.3816

> <Gold.PLP.part.repulsive>
0.2478

> <Gold.PLP.ligand.clash>
0.0000

> <Gold.PLP.ligand.torsion>
0.7505

> <Gold.PLP.Chemscore.Hbond>
1.8400

> <Gold.PLP.Chemscore.CHOScore>
0.0000

> <Gold.PLP.Chemscore.Metal>
0.0000

> <Gold.Chemscore.Hbonds>
donor molecule, donor type, donor heavy atom, donor atom, acceptor molecule, acceptor atom, score
      P1  H  6931  6943       L1    18  0.88
      P1  H  6934  6947       L1    18  0.96

> <Gold.PLP.Chemscore.Internal.Correction>
0.0158

> <Gold.Rescore>
     Score         DG    S(hbond)    S(metal)    S(lipo)     H(rot)  DE(clash)    DE(int)     intcor
     14.26     -15.27       1.41        0.00      69.88       1.21       0.13       0.89       ----

> <Gold.Chemscore.Fitness>
14.2571

> <Gold.Chemscore.DG>
-15.2723

> <Gold.Chemscore.ZeroCoef>
-5.4800

> <Gold.Chemscore.Hbond>
1.4121

> <Gold.Chemscore.Metal>
0.0000

> <Gold.Chemscore.Lipo>
69.8798

> <Gold.Chemscore.Internal_Hbond>
0.0000

> <Gold.Chemscore.DEClash>
0.1301

> <Gold.Chemscore.DEInternal>
0.8852

> <Gold.Chemscore.Rot>
1.2109

> <Gold.Chemscore.Internal.Correction>
   9.000000E+99

> <Gold.Chemscore.Hbonds>
donor molecule, donor type, donor heavy atom, donor atom, acceptor molecule, acceptor atom, score
      P1  H  6931  6943       L1    18  0.18
      P1  H  6934  6947       L1    18  0.69

> <Gold.Chemscore.Hbond.Weighted>
-4.7164

> <Gold.Chemscore.Metal.Weighted>
-0.0000

> <Gold.Chemscore.Lipo.Weighted>
-8.1759

> <Gold.Chemscore.Internal_Hbond.Weighted>
0.0000

> <Gold.Chemscore.DEClash.Weighted>
0.1301

> <Gold.Chemscore.DEInternal.Weighted>
0.8852

> <Gold.Chemscore.Rot.Weighted>
3.1000

> <Gold.Chemscore.Internal.Correction.Weighted>
   9.000000E+99

> <Gold.Protein.RotatedTorsions>
[ 6907 6896 6895 6894 ] final  148.92 input  -60.11 | X-H torsion
[ 7974 7965 7964 7962 ] final   75.09 input  175.53 | X-H torsion
[ 8008 7997 7996 7995 ] final  114.27 input   59.86 | X-H torsion
[ 10167 10162 10161 10158 ] final  176.88 input  -65.29 | X-H torsion
[ 10718 10713 10712 10709 ] final  -62.80 input   66.30 | X-H torsion
[ 10763 10752 10751 10750 ] final  146.79 input  -60.55 | X-H torsion
[ 11005 11000 10999 10996 ] final   12.79 input  -57.11 | X-H torsion

> <Gold.Protein.ActiveResidues>
 VAL166  LYS551  ARG553  GLY616  TRP617  ASP618  TYR619  PRO620  LYS621  CYS622 
 ASP623  PHE694  ASN695  SER759  ASP760  ASP761  ALA762  ILE779  LEU786  VAL792 
 PHE793  MET794  SER795  GLU796  ALA797  LYS798  CYS799  TRP800  GLU811  SER814 

> <Gold.Protein.RotatedAtoms>
  152.1350  133.4430  159.4738 H   0  0  0  0  0  0  0  0  0  0  0  0  # atno 6907 bound_to 6896
  150.6881  134.2375  159.4468 H   0  0  0  0  0  0  0  0  0  0  0  0  # atno 6908 bound_to 6896
  152.0261  134.9794  160.0622 H   0  0  0  0  0  0  0  0  0  0  0  0  # atno 6909 bound_to 6896
  145.7200  139.2645  143.1601 H   0  0  0  0  0  0  0  0  0  0  0  0  # atno 7974 bound_to 7965
  156.2310  140.2962  156.0189 H   0  0  0  0  0  0  0  0  0  0  0  0  # atno 8008 bound_to 7997
  155.2224  140.0416  157.2967 H   0  0  0  0  0  0  0  0  0  0  0  0  # atno 8009 bound_to 7997
  154.5996  140.2423  155.7818 H   0  0  0  0  0  0  0  0  0  0  0  0  # atno 8010 bound_to 7997
  139.5231  144.2863  152.0502 H   0  0  0  0  0  0  0  0  0  0  0  0  # atno 10167 bound_to 10162
  156.0831  130.4213  150.1187 H   0  0  0  0  0  0  0  0  0  0  0  0  # atno 10718 bound_to 10713
  154.0277  135.2900  155.3373 H   0  0  0  0  0  0  0  0  0  0  0  0  # atno 10763 bound_to 10752
  154.7007  135.5189  153.8526 H   0  0  0  0  0  0  0  0  0  0  0  0  # atno 10764 bound_to 10752
  153.0654  135.6629  154.0492 H   0  0  0  0  0  0  0  0  0  0  0  0  # atno 10765 bound_to 10752
  140.4881  134.0868  155.7765 H   0  0  0  0  0  0  0  0  0  0  0  0  # atno 11005 bound_to 11000
  146.0634  140.7946  142.9723 LP  0  0  0  0  0  0  0  0  0  0  0  0  # atno 17320 bound_to 7965
  144.6919  140.3232  143.7229 LP  0  0  0  0  0  0  0  0  0  0  0  0  # atno 17321 bound_to 7965
  140.2316  144.4362  150.6297 LP  0  0  0  0  0  0  0  0  0  0  0  0  # atno 17342 bound_to 10162
  140.6351  143.2193  151.6412 LP  0  0  0  0  0  0  0  0  0  0  0  0  # atno 17343 bound_to 10162
  156.9214  130.9684  151.3548 LP  0  0  0  0  0  0  0  0  0  0  0  0  # atno 17370 bound_to 10713
  157.5956  130.8475  149.8724 LP  0  0  0  0  0  0  0  0  0  0  0  0  # atno 17371 bound_to 10713
  141.1498  133.8989  157.2126 LP  0  0  0  0  0  0  0  0  0  0  0  0  # atno 17394 bound_to 11000
  139.9786  135.0106  156.9693 LP  0  0  0  0  0  0  0  0  0  0  0  0  # atno 17395 bound_to 11000

$$$$
