AV-unprocessed.smi:1973|AV-procd|sdf|7977|dock2
  -GOLD-   2272010153D 1   1.00000     0.00000
 Structure written by MMmdl.
 48 50  0  0  0  0  0  0  0  0  2 V2000
  153.6857  140.5345  160.1417 C   0  0  0  0  0  0  0  0  0  0  0  0
  152.4339  140.5505  159.4784 O   0  0  0  0  0  0  0  0  0  0  0  0
  152.3264  139.5317  158.4989 C   0  0  0  0  0  0  0  0  0  0  0  0
  151.0394  139.7522  157.6904 C   0  0  0  0  0  0  0  0  0  0  0  0
  150.9343  138.7962  156.5839 N   0  0  0  0  0  0  0  0  0  0  0  0
  150.7109  137.4907  156.9879 N   0  0  0  0  0  0  0  0  0  0  0  0
  150.6182  136.5452  156.1094 C   0  0  0  0  0  0  0  0  0  0  0  0
  150.3955  135.1267  156.5045 C   0  0  0  0  0  0  0  0  0  0  0  0
  150.2645  134.7913  157.6827 O   0  0  0  0  0  0  0  0  0  0  0  0
  150.3372  134.2477  155.4877 N   0  0  0  0  0  0  0  0  0  0  0  0
  150.0953  132.8162  155.6280 C   0  0  0  0  0  0  0  0  0  0  0  0
  149.5122  132.2054  154.3396 C   0  0  1  0  0  0  0  0  0  0  0  0
  148.5307  131.0547  154.5634 C   0  0  0  0  0  0  0  0  0  0  0  0
  147.6887  131.0202  153.2818 C   0  0  0  0  0  0  0  0  0  0  0  0
  147.8763  132.3280  152.6106 N   0  3  1  0  0  0  0  0  0  0  0  0
  146.6232  132.9581  152.1436 C   0  0  0  0  0  0  0  0  0  0  0  0
  145.8253  132.0875  151.2026 C   0  0  0  0  0  0  0  0  0  0  0  0
  146.6146  133.2613  150.6644 C   0  0  0  0  0  0  0  0  0  0  0  0
  148.6797  133.1807  153.5099 C   0  0  0  0  0  0  0  0  0  0  0  0
  150.7381  136.8335  154.6902 C   0  0  0  0  0  0  0  0  0  0  0  0
  150.9624  138.1111  154.3121 C   0  0  0  0  0  0  0  0  0  0  0  0
  151.0850  139.1973  155.2856 C   0  0  0  0  0  0  0  0  0  0  0  0
  151.3098  140.3645  154.9671 O   0  0  0  0  0  0  0  0  0  0  0  0
  153.7199  141.3359  160.8795 H   0  0  0  0  0  0  0  0  0  0  0  0
  154.5065  140.6876  159.4398 H   0  0  0  0  0  0  0  0  0  0  0  0
  153.8428  139.5897  160.6637 H   0  0  0  0  0  0  0  0  0  0  0  0
  153.1969  139.5538  157.8413 H   0  0  0  0  0  0  0  0  0  0  0  0
  152.3026  138.5533  158.9817 H   0  0  0  0  0  0  0  0  0  0  0  0
  150.1752  139.6500  158.3493 H   0  0  0  0  0  0  0  0  0  0  0  0
  151.0009  140.7780  157.3197 H   0  0  0  0  0  0  0  0  0  0  0  0
  150.4598  134.6024  154.5497 H   0  0  0  0  0  0  0  0  0  0  0  0
  151.0421  132.3363  155.8775 H   0  0  0  0  0  0  0  0  0  0  0  0
  149.4267  132.6335  156.4711 H   0  0  0  0  0  0  0  0  0  0  0  0
  150.3282  131.8429  153.7115 H   0  0  0  0  0  0  0  0  0  0  0  0
  149.0313  130.1063  154.7619 H   0  0  0  0  0  0  0  0  0  0  0  0
  147.8865  131.2746  155.4160 H   0  0  0  0  0  0  0  0  0  0  0  0
  148.0356  130.2350  152.6095 H   0  0  0  0  0  0  0  0  0  0  0  0
  146.6410  130.8192  153.5115 H   0  0  0  0  0  0  0  0  0  0  0  0
  146.1197  133.6193  152.8470 H   0  0  0  0  0  0  0  0  0  0  0  0
  146.1977  131.0882  150.9838 H   0  0  0  0  0  0  0  0  0  0  0  0
  144.7417  132.1847  151.2256 H   0  0  0  0  0  0  0  0  0  0  0  0
  146.0500  134.1307  150.3330 H   0  0  0  0  0  0  0  0  0  0  0  0
  147.5114  133.0422  150.0876 H   0  0  0  0  0  0  0  0  0  0  0  0
  148.0176  133.7544  154.1611 H   0  0  0  0  0  0  0  0  0  0  0  0
  149.2941  133.8852  152.9483 H   0  0  0  0  0  0  0  0  0  0  0  0
  150.6512  136.0518  153.9497 H   0  0  0  0  0  0  0  0  0  0  0  0
  151.0539  138.3400  153.2604 H   0  0  0  0  0  0  0  0  0  0  0  0
  148.4489  132.1486  151.7981 H   0  0  0  0  0  0  0  0  0  0  0  0
  1  2  1  0  0  0  0
  1 24  1  0  0  0  0
  1 25  1  0  0  0  0
  1 26  1  0  0  0  0
  2  3  1  0  0  0  0
  3  4  1  0  0  0  0
  3 27  1  0  0  0  0
  3 28  1  0  0  0  0
  4  5  1  0  0  0  0
  4 29  1  0  0  0  0
  4 30  1  0  0  0  0
  5 22  1  0  0  0  0
  5  6  1  0  0  0  0
  6  7  2  0  0  0  0
  7  8  1  0  0  0  0
  7 20  1  0  0  0  0
  8  9  2  0  0  0  0
  8 10  1  0  0  0  0
 10 11  1  0  0  0  0
 10 31  1  0  0  0  0
 11 12  1  0  0  0  0
 11 32  1  0  0  0  0
 11 33  1  0  0  0  0
 12 19  1  0  0  0  0
 12 13  1  0  0  0  0
 12 34  1  0  0  0  0
 13 14  1  0  0  0  0
 13 35  1  0  0  0  0
 13 36  1  0  0  0  0
 14 15  1  0  0  0  0
 14 37  1  0  0  0  0
 14 38  1  0  0  0  0
 15 16  1  0  0  0  0
 15 19  1  0  0  0  0
 15 48  1  0  0  0  0
 16 18  1  0  0  0  0
 16 17  1  0  0  0  0
 16 39  1  0  0  0  0
 17 18  1  0  0  0  0
 17 40  1  0  0  0  0
 17 41  1  0  0  0  0
 18 42  1  0  0  0  0
 18 43  1  0  0  0  0
 19 44  1  0  0  0  0
 19 45  1  0  0  0  0
 20 21  2  0  0  0  0
 20 46  1  0  0  0  0
 21 22  1  0  0  0  0
 21 47  1  0  0  0  0
 22 23  2  0  0  0  0
M  CHG  1  15   1
M  END
> <s_m_source_file>
AV-unprocessed.smi

> <i_m_source_file_index>
1973

> <i_lp_mmshare_version>
43012

> <i_f3d_flags>
0

> <s_epik_input>
W0NIM11PW0NIMl1bQ0gyXW4xbmMoW2NIXVtjSF1jMT1PKUMoPU8pW05IXVtDSDJdW0NAQEhdMltDSDJdW0NIMl1OKFtDSDJdMilbQ0hdM1tDSDJdW0NIMl0z

> <s_epik_cmdline>
J2VwaWtfcHl0aG9uJywgJy1waCcsICc3LjAnLCAnLXRuJywgJzgnLCAnLW1hJywgJzIwMCcsICctbWV0YWxfYmluZGluZycsICctaW1hZScsICc8aW5maWxlLm1hZT4nLCAnLW9tYWUnLCAnPG91dGZpbGUubWFlPic=

> <r_lp_tautomer_probability>
1

> <r_epik_Ionization_Penalty>
0.000225706

> <r_epik_Ionization_Penalty_Charging>
0.000223776

> <r_epik_Ionization_Penalty_Neutral>
1.93004e-06

> <r_epik_State_Penalty>
-0

> <r_epik_Charging_Adjusted_Penalty>
0.000223776

> <i_epik_Tot_Q>
1

> <i_epik_Tot_abs_Q>
1

> <r_epik_Metal_State_Penalty>
-0

> <b_epik_Metal_Only>
0

> <s_lp_Force_Field>
OPLS_2005

> <r_lp_Energy>
57.2407

> <b_lp_Chiralities_Consistent>
1

> <s_lp_Variant>
AV-unprocessed.smi:1973-2

> <Gold.Version>
5.8.1

> <Gold.Id.Protein>
6NUR|6NUR_protein|mol2

> <Gold.PLP.Fitness>
44.3577

> <Gold.PLP.PLP>
-38.3349

> <Gold.PLP.part.hbond>
-2.9632

> <Gold.PLP.part.metal>
0.0000

> <Gold.PLP.part.buried>
-5.7001

> <Gold.PLP.part.nonpolar>
-30.6231

> <Gold.PLP.part.repulsive>
0.1380

> <Gold.PLP.ligand.clash>
0.5247

> <Gold.PLP.ligand.torsion>
1.4404

> <Gold.PLP.Chemscore.Hbond>
2.6716

> <Gold.PLP.Chemscore.CHOScore>
0.0000

> <Gold.PLP.Chemscore.Metal>
0.0000

> <Gold.Chemscore.Hbonds>
donor molecule, donor type, donor heavy atom, donor atom, acceptor molecule, acceptor atom, score
      L1  H    15    48       P1 10747  0.92
      P1  H  6896  6907       L1     9  0.70
      P1  H  7989  7998       L1    23  1.00

> <Gold.PLP.Chemscore.Internal.Correction>
1.4136

> <Gold.Rescore>
     Score         DG    S(hbond)    S(metal)    S(lipo)     H(rot)  DE(clash)    DE(int)     intcor
     17.84     -19.30       2.65        0.00      85.65       1.97       0.08       1.38       ----

> <Gold.Chemscore.Fitness>
17.8423

> <Gold.Chemscore.DG>
-19.3033

> <Gold.Chemscore.ZeroCoef>
-5.4800

> <Gold.Chemscore.Hbond>
2.6491

> <Gold.Chemscore.Metal>
0.0000

> <Gold.Chemscore.Lipo>
85.6531

> <Gold.Chemscore.Internal_Hbond>
0.0000

> <Gold.Chemscore.DEClash>
0.0761

> <Gold.Chemscore.DEInternal>
1.3849

> <Gold.Chemscore.Rot>
1.9711

> <Gold.Chemscore.Internal.Correction>
   9.000000E+99

> <Gold.Chemscore.Hbonds>
donor molecule, donor type, donor heavy atom, donor atom, acceptor molecule, acceptor atom, score
      L1  H    15    48       P1 10747  0.84
      P1  H  6896  6907       L1     9  0.70
      P1  H  7989  7998       L1    23  0.94

> <Gold.Chemscore.Hbond.Weighted>
-8.8479

> <Gold.Chemscore.Metal.Weighted>
-0.0000

> <Gold.Chemscore.Lipo.Weighted>
-10.0214

> <Gold.Chemscore.Internal_Hbond.Weighted>
0.0000

> <Gold.Chemscore.DEClash.Weighted>
0.0761

> <Gold.Chemscore.DEInternal.Weighted>
1.3849

> <Gold.Chemscore.Rot.Weighted>
5.0460

> <Gold.Chemscore.Internal.Correction.Weighted>
   9.000000E+99

> <Gold.Protein.RotatedTorsions>
[ 6907 6896 6895 6894 ] final  -97.29 input  -60.11 | X-H torsion
[ 7974 7965 7964 7962 ] final   36.94 input  175.53 | X-H torsion
[ 8008 7997 7996 7995 ] final  -32.23 input   59.86 | X-H torsion
[ 10167 10162 10161 10158 ] final  168.46 input  -65.29 | X-H torsion
[ 10718 10713 10712 10709 ] final  -22.41 input   66.30 | X-H torsion
[ 10763 10752 10751 10750 ] final  -35.26 input  -60.55 | X-H torsion
[ 11005 11000 10999 10996 ] final  -68.12 input  -57.11 | X-H torsion

> <Gold.Protein.ActiveResidues>
 VAL166  LYS551  ARG553  GLY616  TRP617  ASP618  TYR619  PRO620  LYS621  CYS622 
 ASP623  PHE694  ASN695  SER759  ASP760  ASP761  ALA762  ILE779  LEU786  VAL792 
 PHE793  MET794  SER795  GLU796  ALA797  LYS798  CYS799  TRP800  GLU811  SER814 

> <Gold.Protein.RotatedAtoms>
  150.7012  134.1371  159.4090 H   0  0  0  0  0  0  0  0  0  0  0  0  # atno 6907 bound_to 6896
  151.9356  135.0234  160.0541 H   0  0  0  0  0  0  0  0  0  0  0  0  # atno 6908 bound_to 6896
  152.2138  133.4896  159.5161 H   0  0  0  0  0  0  0  0  0  0  0  0  # atno 6909 bound_to 6896
  146.1174  139.5955  142.9312 H   0  0  0  0  0  0  0  0  0  0  0  0  # atno 7974 bound_to 7965
  154.4187  140.1743  156.1693 H   0  0  0  0  0  0  0  0  0  0  0  0  # atno 8008 bound_to 7997
  155.9773  140.3380  155.6607 H   0  0  0  0  0  0  0  0  0  0  0  0  # atno 8009 bound_to 7997
  155.6546  140.0694  157.2566 H   0  0  0  0  0  0  0  0  0  0  0  0  # atno 8010 bound_to 7997
  139.4968  144.3812  151.9620 H   0  0  0  0  0  0  0  0  0  0  0  0  # atno 10167 bound_to 10162
  156.5049  130.4596  149.6680 H   0  0  0  0  0  0  0  0  0  0  0  0  # atno 10718 bound_to 10713
  153.8602  135.6840  153.4783 H   0  0  0  0  0  0  0  0  0  0  0  0  # atno 10763 bound_to 10752
  153.1346  135.4683  154.9400 H   0  0  0  0  0  0  0  0  0  0  0  0  # atno 10764 bound_to 10752
  154.7762  135.3254  154.8036 H   0  0  0  0  0  0  0  0  0  0  0  0  # atno 10765 bound_to 10752
  141.1524  133.6734  156.6397 H   0  0  0  0  0  0  0  0  0  0  0  0  # atno 11005 bound_to 11000
  145.5537  141.0411  143.2264 LP  0  0  0  0  0  0  0  0  0  0  0  0  # atno 17320 bound_to 7965
  144.7566  139.7060  143.7251 LP  0  0  0  0  0  0  0  0  0  0  0  0  # atno 17321 bound_to 7965
  140.3248  144.3385  150.6001 LP  0  0  0  0  0  0  0  0  0  0  0  0  # atno 17342 bound_to 10162
  140.5693  143.2182  151.7627 LP  0  0  0  0  0  0  0  0  0  0  0  0  # atno 17343 bound_to 10162
  156.3296  130.7324  151.2252 LP  0  0  0  0  0  0  0  0  0  0  0  0  # atno 17370 bound_to 10713
  157.7458  131.0433  150.4738 LP  0  0  0  0  0  0  0  0  0  0  0  0  # atno 17371 bound_to 10713
  140.3403  134.7855  157.4392 LP  0  0  0  0  0  0  0  0  0  0  0  0  # atno 17394 bound_to 11000
  140.0944  134.5558  155.8413 LP  0  0  0  0  0  0  0  0  0  0  0  0  # atno 17395 bound_to 11000

$$$$
