AV-unprocessed.smi:261|AV-procd|sdf|1995|dock7
  -GOLD-   2262021183D 1   1.00000     0.00000
 Structure written by MMmdl.
 51 54  0  0  0  0  0  0  0  0  1 V2000
  151.7638  145.4050  159.7808 C   0  0  0  0  0  0  0  0  0  0  0  0
  152.5733  144.3130  159.3761 O   0  0  0  0  0  0  0  0  0  0  0  0
  151.8371  143.1218  159.1415 C   0  0  1  0  0  0  0  0  0  0  0  0
  151.1235  143.1811  157.7963 C   0  0  0  0  0  0  0  0  0  0  0  0
  150.8682  141.7016  157.4812 C   0  0  1  0  0  0  0  0  0  0  0  0
  150.6931  141.4530  155.9764 C   0  0  0  0  0  0  0  0  0  0  0  0
  149.8104  142.2255  155.3386 N   0  0  0  0  0  0  0  0  0  0  0  0
  151.3489  140.5911  155.3936 O   0  0  0  0  0  0  0  0  0  0  0  0
  152.0443  141.0155  158.0229 N   0  0  0  0  0  0  0  0  0  0  0  0
  151.8408  139.7408  158.4217 C   0  0  0  0  0  0  0  0  0  0  0  0
  152.8863  139.0934  158.9909 N   0  0  0  0  0  0  0  0  0  0  0  0
  152.7467  137.8268  159.3943 C   0  0  0  0  0  0  0  0  0  0  0  0
  151.6706  137.0397  159.3196 N   0  0  0  0  0  0  0  0  0  0  0  0
  150.6183  137.6918  158.7468 C   0  0  0  0  0  0  0  0  0  0  0  0
  150.6144  139.0338  158.2759 C   0  0  0  0  0  0  0  0  0  0  0  0
  149.3658  139.3527  157.7552 N   0  0  0  0  0  0  0  0  0  0  0  0
  148.6724  138.2569  157.9028 C   0  0  0  0  0  0  0  0  0  0  0  0
  149.3502  137.2078  158.4820 N   0  0  0  0  0  0  0  0  0  0  0  0
  148.8311  135.8786  158.7495 C   0  0  0  0  0  0  0  0  0  0  0  0
  147.4098  135.9026  159.3494 C   0  0  1  0  0  0  0  0  0  0  0  0
  146.6455  134.8658  158.7674 O   0  0  0  0  0  0  0  0  0  0  0  0
  147.3620  135.8174  160.8921 C   0  0  1  0  0  0  0  0  0  0  0  0
  145.9806  135.9823  161.5476 C   0  0  0  0  0  0  0  0  0  0  0  0
  145.9193  134.8485  162.5604 C   0  0  0  0  0  0  0  0  0  0  0  0
  147.3684  134.3864  162.6714 C   0  0  0  0  0  0  0  0  0  0  0  0
  147.8652  134.5710  161.3569 O   0  0  0  0  0  0  0  0  0  0  0  0
  152.7184  141.8777  158.9894 C   0  0  0  0  0  0  0  0  0  0  0  0
  151.0940  142.9631  159.9255 H   0  0  0  0  0  0  0  0  0  0  0  0
  149.9673  141.3786  158.0069 H   0  0  0  0  0  0  0  0  0  0  0  0
  152.3878  146.2873  159.9224 H   0  0  0  0  0  0  0  0  0  0  0  0
  151.2566  145.2009  160.7242 H   0  0  0  0  0  0  0  0  0  0  0  0
  151.0147  145.6417  159.0243 H   0  0  0  0  0  0  0  0  0  0  0  0
  150.2061  143.7692  157.8369 H   0  0  0  0  0  0  0  0  0  0  0  0
  151.7793  143.6315  157.0484 H   0  0  0  0  0  0  0  0  0  0  0  0
  149.6561  142.1043  154.3482 H   0  0  0  0  0  0  0  0  0  0  0  0
  149.2997  142.9295  155.8515 H   0  0  0  0  0  0  0  0  0  0  0  0
  153.6237  137.3793  159.8384 H   0  0  0  0  0  0  0  0  0  0  0  0
  147.6437  138.1800  157.5809 H   0  0  0  0  0  0  0  0  0  0  0  0
  148.8422  135.3103  157.8187 H   0  0  0  0  0  0  0  0  0  0  0  0
  149.5182  135.3752  159.4310 H   0  0  0  0  0  0  0  0  0  0  0  0
  146.9299  136.8369  159.0562 H   0  0  0  0  0  0  0  0  0  0  0  0
  147.2175  134.3407  158.2284 H   0  0  0  0  0  0  0  0  0  0  0  0
  148.0143  136.5879  161.3076 H   0  0  0  0  0  0  0  0  0  0  0  0
  145.9098  136.9537  162.0382 H   0  0  0  0  0  0  0  0  0  0  0  0
  145.1532  135.9139  160.8415 H   0  0  0  0  0  0  0  0  0  0  0  0
  145.4987  135.1543  163.5189 H   0  0  0  0  0  0  0  0  0  0  0  0
  145.3056  134.0377  162.1660 H   0  0  0  0  0  0  0  0  0  0  0  0
  147.9276  135.0153  163.3662 H   0  0  0  0  0  0  0  0  0  0  0  0
  147.4578  133.3492  162.9952 H   0  0  0  0  0  0  0  0  0  0  0  0
  153.6863  142.1479  158.5651 H   0  0  0  0  0  0  0  0  0  0  0  0
  152.9081  141.3990  159.9519 H   0  0  0  0  0  0  0  0  0  0  0  0
  1  2  1  0  0  0  0
  1 30  1  0  0  0  0
  1 31  1  0  0  0  0
  1 32  1  0  0  0  0
  2  3  1  0  0  0  0
  3 28  1  0  0  0  0
  3 27  1  0  0  0  0
  3  4  1  0  0  0  0
  4  5  1  0  0  0  0
  4 33  1  0  0  0  0
  4 34  1  0  0  0  0
  5 29  1  0  0  0  0
  5  6  1  0  0  0  0
  5  9  1  0  0  0  0
  6  7  1  0  0  0  0
  6  8  2  0  0  0  0
  7 35  1  0  0  0  0
  7 36  1  0  0  0  0
  9 10  1  0  0  0  0
  9 27  1  0  0  0  0
 10 15  1  0  0  0  0
 10 11  2  0  0  0  0
 11 12  1  0  0  0  0
 12 13  2  0  0  0  0
 12 37  1  0  0  0  0
 13 14  1  0  0  0  0
 14 18  1  0  0  0  0
 14 15  2  0  0  0  0
 15 16  1  0  0  0  0
 16 17  2  0  0  0  0
 17 18  1  0  0  0  0
 17 38  1  0  0  0  0
 18 19  1  0  0  0  0
 19 20  1  0  0  0  0
 19 39  1  0  0  0  0
 19 40  1  0  0  0  0
 20 21  1  0  0  0  0
 20 22  1  0  0  0  0
 20 41  1  0  0  0  0
 21 42  1  0  0  0  0
 22 26  1  0  0  0  0
 22 23  1  0  0  0  0
 22 43  1  0  0  0  0
 23 24  1  0  0  0  0
 23 44  1  0  0  0  0
 23 45  1  0  0  0  0
 24 25  1  0  0  0  0
 24 46  1  0  0  0  0
 24 47  1  0  0  0  0
 25 26  1  0  0  0  0
 25 48  1  0  0  0  0
 25 49  1  0  0  0  0
 27 50  1  0  0  0  0
 27 51  1  0  0  0  0
M  END
> <s_m_source_file>
AV-unprocessed.smi

> <i_m_source_file_index>
261

> <i_lp_mmshare_version>
43012

> <i_f3d_flags>
0

> <s_epik_input>
W0NIM11PW0NASF0xW0NIMl1bQ0BASF0oQyg9TylbTkgyXSlOKFtDSDJdMSljKG5bY0hdbjIpYyhjMjMpbltjSF1uM1tDSDJdW0NASF0oW09IXSlbQ0BASF00W0NIMl1bQ0gyXVtDSDJdTzQ=

> <s_epik_cmdline>
J2VwaWtfcHl0aG9uJywgJy1waCcsICc3LjAnLCAnLXRuJywgJzgnLCAnLW1hJywgJzIwMCcsICctbWV0YWxfYmluZGluZycsICctaW1hZScsICc8aW5maWxlLm1hZT4nLCAnLW9tYWUnLCAnPG91dGZpbGUubWFlPic=

> <r_lp_tautomer_probability>
1

> <r_epik_Ionization_Penalty>
0.000713824

> <r_epik_Ionization_Penalty_Charging>
0

> <r_epik_Ionization_Penalty_Neutral>
0.000713824

> <r_epik_State_Penalty>
0.000402132

> <r_epik_Charging_Adjusted_Penalty>
0.000402132

> <i_epik_Tot_Q>
0

> <i_epik_Tot_abs_Q>
0

> <r_epik_Metal_State_Penalty>
-0

> <b_epik_Metal_Only>
0

> <s_lp_Force_Field>
OPLS_2005

> <r_lp_Energy>
47.7975

> <b_lp_Chiralities_Consistent>
1

> <s_lp_Variant>
AV-unprocessed.smi:261-13

> <Gold.Version>
5.8.1

> <Gold.Id.Protein>
6NUR|6NUR_protein|mol2

> <Gold.PLP.Fitness>
50.6578

> <Gold.PLP.PLP>
-44.7510

> <Gold.PLP.part.hbond>
-3.0000

> <Gold.PLP.part.metal>
0.0000

> <Gold.PLP.part.buried>
-6.8932

> <Gold.PLP.part.nonpolar>
-34.5027

> <Gold.PLP.part.repulsive>
0.2321

> <Gold.PLP.ligand.clash>
0.0000

> <Gold.PLP.ligand.torsion>
1.2373

> <Gold.PLP.Chemscore.Hbond>
2.7120

> <Gold.PLP.Chemscore.CHOScore>
0.0000

> <Gold.PLP.Chemscore.Metal>
0.0000

> <Gold.Chemscore.Hbonds>
donor molecule, donor type, donor heavy atom, donor atom, acceptor molecule, acceptor atom, score
      L1  H     7    36       P1  8028  0.75
      P1  H  6896  6909       L1    13  1.00
      P1  H  7989  7998       L1     8  0.83

> <Gold.PLP.Chemscore.Internal.Correction>
0.2456

> <Gold.Rescore>
     Score         DG    S(hbond)    S(metal)    S(lipo)     H(rot)  DE(clash)    DE(int)     intcor
     12.80     -15.26       2.46        0.00      91.48       3.57       0.00       2.46       ----

> <Gold.Chemscore.Fitness>
12.7986

> <Gold.Chemscore.DG>
-15.2610

> <Gold.Chemscore.ZeroCoef>
-5.4800

> <Gold.Chemscore.Hbond>
2.4634

> <Gold.Chemscore.Metal>
0.0000

> <Gold.Chemscore.Lipo>
91.4767

> <Gold.Chemscore.Internal_Hbond>
0.0000

> <Gold.Chemscore.DEClash>
0.0021

> <Gold.Chemscore.DEInternal>
2.4602

> <Gold.Chemscore.Rot>
3.5740

> <Gold.Chemscore.Internal.Correction>
   9.000000E+99

> <Gold.Chemscore.Hbonds>
donor molecule, donor type, donor heavy atom, donor atom, acceptor molecule, acceptor atom, score
      L1  H     7    36       P1  8028  0.74
      P1  H  6896  6909       L1    13  0.93
      P1  H  7989  7998       L1     8  0.77

> <Gold.Chemscore.Hbond.Weighted>
-8.2276

> <Gold.Chemscore.Metal.Weighted>
-0.0000

> <Gold.Chemscore.Lipo.Weighted>
-10.7028

> <Gold.Chemscore.Internal_Hbond.Weighted>
0.0000

> <Gold.Chemscore.DEClash.Weighted>
0.0021

> <Gold.Chemscore.DEInternal.Weighted>
2.4602

> <Gold.Chemscore.Rot.Weighted>
9.1495

> <Gold.Chemscore.Internal.Correction.Weighted>
   9.000000E+99

> <Gold.Protein.RotatedTorsions>
[ 6907 6896 6895 6894 ] final  127.04 input  -60.11 | X-H torsion
[ 7974 7965 7964 7962 ] final -136.89 input  175.53 | X-H torsion
[ 8008 7997 7996 7995 ] final    1.85 input   59.86 | X-H torsion
[ 10167 10162 10161 10158 ] final  148.78 input  -65.29 | X-H torsion
[ 10718 10713 10712 10709 ] final   50.37 input   66.30 | X-H torsion
[ 10763 10752 10751 10750 ] final   51.50 input  -60.55 | X-H torsion
[ 11005 11000 10999 10996 ] final   11.85 input  -57.11 | X-H torsion

> <Gold.Protein.ActiveResidues>
 VAL166  LYS551  ARG553  GLY616  TRP617  ASP618  TYR619  PRO620  LYS621  CYS622 
 ASP623  PHE694  ASN695  SER759  ASP760  ASP761  ALA762  ILE779  LEU786  VAL792 
 PHE793  MET794  SER795  GLU796  ALA797  LYS798  CYS799  TRP800  GLU811  SER814 

> <Gold.Protein.RotatedAtoms>
  152.3849  133.6597  159.6190 H   0  0  0  0  0  0  0  0  0  0  0  0  # atno 6907 bound_to 6896
  150.7770  133.9052  159.3362 H   0  0  0  0  0  0  0  0  0  0  0  0  # atno 6908 bound_to 6896
  151.6851  135.0957  160.0274 H   0  0  0  0  0  0  0  0  0  0  0  0  # atno 6909 bound_to 6896
  144.8888  140.6613  143.5158 H   0  0  0  0  0  0  0  0  0  0  0  0  # atno 7974 bound_to 7965
  154.6846  140.2640  155.6874 H   0  0  0  0  0  0  0  0  0  0  0  0  # atno 8008 bound_to 7997
  156.2709  140.2803  156.1325 H   0  0  0  0  0  0  0  0  0  0  0  0  # atno 8009 bound_to 7997
  155.0983  140.0374  157.2679 H   0  0  0  0  0  0  0  0  0  0  0  0  # atno 8010 bound_to 7997
  139.4870  144.5653  151.7156 H   0  0  0  0  0  0  0  0  0  0  0  0  # atno 10167 bound_to 10162
  157.4878  130.8356  149.8167 H   0  0  0  0  0  0  0  0  0  0  0  0  # atno 10718 bound_to 10713
  152.9785  135.5844  154.4425 H   0  0  0  0  0  0  0  0  0  0  0  0  # atno 10763 bound_to 10752
  154.4025  135.2769  155.2090 H   0  0  0  0  0  0  0  0  0  0  0  0  # atno 10764 bound_to 10752
  154.3915  135.6124  153.5900 H   0  0  0  0  0  0  0  0  0  0  0  0  # atno 10765 bound_to 10752
  140.4986  134.0769  155.7788 H   0  0  0  0  0  0  0  0  0  0  0  0  # atno 11005 bound_to 11000
  145.3820  139.1635  143.4275 LP  0  0  0  0  0  0  0  0  0  0  0  0  # atno 17320 bound_to 7965
  146.3041  140.3902  142.8693 LP  0  0  0  0  0  0  0  0  0  0  0  0  # atno 17321 bound_to 7965
  140.5230  144.0850  150.6028 LP  0  0  0  0  0  0  0  0  0  0  0  0  # atno 17342 bound_to 10162
  140.3814  143.2801  152.0166 LP  0  0  0  0  0  0  0  0  0  0  0  0  # atno 17343 bound_to 10162
  156.0157  130.3815  150.2120 LP  0  0  0  0  0  0  0  0  0  0  0  0  # atno 17370 bound_to 10713
  157.0308  131.0007  151.3313 LP  0  0  0  0  0  0  0  0  0  0  0  0  # atno 17371 bound_to 10713
  141.1447  133.9075  157.2243 LP  0  0  0  0  0  0  0  0  0  0  0  0  # atno 17394 bound_to 11000
  139.9727  135.0123  156.9552 LP  0  0  0  0  0  0  0  0  0  0  0  0  # atno 17395 bound_to 11000

$$$$
