#       Name:                AV-unprocessed.smi:1512
#       Creating user name   scv26
#       Creation time:       Fri Mar 27 06:23:06 2020


#       File generated by GOLD software.
#

@<TRIPOS>MOLECULE
AV-unprocessed.smi:1512
    50    52     1
SMALL
NO_CHARGES


@<TRIPOS>ATOM
      1 ****        -1.3913   0.5612  -2.8105 C.3            1 S1                 0.0000
      2 ****        -1.2866   0.2087  -1.3175 C.3            1 S1                 0.0000
      3 ****         0.0641  -0.2891  -1.0600 N.am           1 S1                 0.0000
      4 ****         0.9445   0.2302  -0.1899 C.2            1 S1                 0.0000
      5 ****         0.6985   1.2012   0.5270 O.2            1 S1                 0.0000
      6 ****         2.3023  -0.4817  -0.1079 C.3            1 S1                 0.0000
      7 ****         3.3648   0.3574   0.4729 N.am           1 S1                 0.0000
      8 ****         3.6536   0.1649   1.8368 C.2            1 S1                 0.0000
      9 ****         4.5982   0.8761   2.4684 C.2            1 S1                 0.0000
     10 ****         5.3255   1.8673   1.7136 C.2            1 S1                 0.0000
     11 ****         5.0617   2.0747   0.4029 C.2            1 S1                 0.0000
     12 ****         5.8199   3.0904  -0.2911 N.pl3          1 S1                 1.0000
     13 ****         5.2390   3.8280  -1.0814 O.2            1 S1                 0.0000
     14 ****         7.0203   3.1887  -0.0550 O.2            1 S1                -1.0000
     15 ****         4.0273   1.2803  -0.2921 C.2            1 S1                 0.0000
     16 ****         3.7687   1.4199  -1.4892 O.2            1 S1                 0.0000
     17 ****        -2.3413  -0.8408  -0.8847 C.3            1 S1                 0.0000
     18 ****        -3.7993  -0.3311  -0.9973 C.3            1 S1                 0.0000
     19 ****        -4.3747  -0.5817   0.4076 C.3            1 S1                 0.0000
     20 ****        -4.5307  -2.0954   0.6386 C.3            1 S1                 0.0000
     21 ****        -3.0728  -2.5628   0.8013 C.3            1 S1                 0.0000
     22 ****        -2.2735  -1.2597   0.6076 C.3            1 S1                 0.0000
     23 ****        -3.1818  -0.2434   1.2914 C.3            1 S1                 0.0000
     24 ****        -2.3635   0.9873  -3.0571 H              1 S1                 0.0000
     25 ****        -1.2470  -0.3191  -3.4377 H              1 S1                 0.0000
     26 ****        -0.6364   1.2962  -3.0918 H              1 S1                 0.0000
     27 ****        -1.4582   1.1263  -0.7528 H              1 S1                 0.0000
     28 ****         0.3562  -1.0926  -1.5971 H              1 S1                 0.0000
     29 ****         2.1707  -1.3937   0.4762 H              1 S1                 0.0000
     30 ****         2.5944  -0.8223  -1.1033 H              1 S1                 0.0000
     31 ****         3.0586  -0.5881   2.3330 H              1 S1                 0.0000
     32 ****         4.8039   0.7168   3.5169 H              1 S1                 0.0000
     33 ****         6.0798   2.4538   2.2179 H              1 S1                 0.0000
     34 ****        -2.2117  -1.7247  -1.5114 H              1 S1                 0.0000
     35 ****        -3.8351   0.7357  -1.2209 H              1 S1                 0.0000
     36 ****        -4.3608  -0.8494  -1.7755 H              1 S1                 0.0000
     37 ****        -5.2800  -0.0113   0.6169 H              1 S1                 0.0000
     38 ****        -5.1005  -2.2942   1.5472 H              1 S1                 0.0000
     39 ****        -5.0376  -2.5899  -0.1909 H              1 S1                 0.0000
     40 ****        -2.9116  -2.9685   1.8009 H              1 S1                 0.0000
     41 ****        -2.7977  -3.3343   0.0813 H              1 S1                 0.0000
     42 ****        -1.2676  -1.3211   1.0218 H              1 S1                 0.0000
     43 ****        -2.8402   0.7875   1.1861 H              1 S1                 0.0000
     44 ****        -3.3518  -0.4562   2.3483 H              1 S1                 0.0000
     45 ****        -0.1964   1.6448   0.4782 LP             1 S1                 0.0000
     46 ****         1.3937   1.5458   1.1578 LP             1 S1                 0.0000
     47 ****         4.2569   3.7205  -1.2362 LP             1 S1                 0.0000
     48 ****         5.7477   4.5364  -1.5705 LP             1 S1                 0.0000
     49 ****         3.0645   0.8539  -1.9179 LP             1 S1                 0.0000
     50 ****         4.2631   2.0991  -2.0316 LP             1 S1                 0.0000
@<TRIPOS>BOND
    1    1    2 1     
    2    1   24 1     
    3    1   25 1     
    4    1   26 1     
    5    2    3 1     
    6    2   17 1     
    7    2   27 1     
    8    3    4 am    
    9    3   28 1     
   10    4    5 2     
   11    4    6 1     
   12    6    7 1     
   13    6   29 1     
   14    6   30 1     
   15    7   15 am    
   16    7    8 1     
   17    8    9 2     
   18    8   31 1     
   19    9   10 1     
   20    9   32 1     
   21   10   11 2     
   22   10   33 1     
   23   11   12 1     
   24   11   15 1     
   25   12   13 2     
   26   12   14 1     
   27   15   16 2     
   28   17   22 1     
   29   17   18 1     
   30   17   34 1     
   31   18   19 1     
   32   18   35 1     
   33   18   36 1     
   34   19   23 1     
   35   19   20 1     
   36   19   37 1     
   37   20   21 1     
   38   20   38 1     
   39   20   39 1     
   40   21   22 1     
   41   21   40 1     
   42   21   41 1     
   43   22   23 1     
   44   22   42 1     
   45   23   43 1     
   46   23   44 1     
   47    5   45 1     
   48    5   46 1     
   49   13   47 1     
   50   13   48 1     
   51   16   49 1     
   52   16   50 1     
@<TRIPOS>SUBSTRUCTURE
      1 S1             1
@<TRIPOS>SET
LONE_PAIRS      STATIC     ATOMS    <user>   **** ""
7 45 46 47 48 14 49 50
DONOR_HYDROGENS      STATIC     ATOMS    <user>   **** ""
1 28
ATOM$BLUE        STATIC     ATOMS    COLORGROUP SYSTEM
7 45 46 47 48 14 49 50
ATOM$RED        STATIC     ATOMS    COLORGROUP SYSTEM
1 28
