AV-unprocessed.smi:414|AV-procd|sdf|2516|dock7
  -GOLD-   2262022463D 1   1.00000     0.00000
 Structure written by MMmdl.
 37 38  0  0  0  0  0  0  0  0  2 V2000
  153.6523  142.1468  160.8089 C   0  0  0  0  0  0  0  0  0  0  0  0
  152.4199  142.2126  159.8960 C   0  0  2  0  0  0  0  0  0  0  0  0
  152.3181  140.9663  158.9962 C   0  0  0  0  0  0  0  0  0  0  0  0
  151.0854  141.0302  158.0800 C   0  0  0  0  0  0  0  0  0  0  0  0
  151.0885  142.3086  157.2226 C   0  0  1  0  0  0  0  0  0  0  0  0
  149.8768  142.3553  156.4105 N   0  0  0  0  0  0  0  0  0  0  0  0
  149.5567  141.4851  155.4407 C   0  0  0  0  0  0  0  0  0  0  0  0
  150.2822  140.5477  155.1066 O   0  0  0  0  0  0  0  0  0  0  0  0
  148.2265  141.7369  154.7185 C   0  0  0  0  0  0  0  0  0  0  0  0
  147.4013  140.5235  154.6099 N   0  0  0  0  0  0  0  0  0  0  0  0
  147.0231  140.1004  153.3233 C   0  0  0  0  0  0  0  0  0  0  0  0
  146.2712  139.0000  153.1300 C   0  0  0  0  0  0  0  0  0  0  0  0
  145.8471  138.2396  154.2991 C   0  0  0  0  0  0  0  0  0  0  0  0
  145.1565  137.2346  154.1420 O   0  0  0  0  0  0  0  0  0  0  0  0
  146.2437  138.6880  155.5260 N   0  5  0  0  0  0  0  0  0  0  0  0
  147.0112  139.8073  155.7074 C   0  0  0  0  0  0  0  0  0  0  0  0
  147.3611  140.1927  156.8237 O   0  0  0  0  0  0  0  0  0  0  0  0
  151.1941  143.5613  158.1153 C   0  0  0  0  0  0  0  0  0  0  0  0
  152.4214  143.4929  159.0389 C   0  0  0  0  0  0  0  0  0  0  0  0
  154.5747  142.1171  160.2282 H   0  0  0  0  0  0  0  0  0  0  0  0
  153.6269  141.2580  161.4398 H   0  0  0  0  0  0  0  0  0  0  0  0
  153.7005  143.0153  161.4664 H   0  0  0  0  0  0  0  0  0  0  0  0
  151.5373  142.2379  160.5371 H   0  0  0  0  0  0  0  0  0  0  0  0
  153.2181  140.8763  158.3864 H   0  0  0  0  0  0  0  0  0  0  0  0
  152.2701  140.0657  159.6092 H   0  0  0  0  0  0  0  0  0  0  0  0
  151.0608  140.1494  157.4373 H   0  0  0  0  0  0  0  0  0  0  0  0
  150.1807  140.9938  158.6889 H   0  0  0  0  0  0  0  0  0  0  0  0
  151.9582  142.2702  156.5635 H   0  0  0  0  0  0  0  0  0  0  0  0
  149.2205  143.0950  156.6138 H   0  0  0  0  0  0  0  0  0  0  0  0
  147.6677  142.5265  155.2248 H   0  0  0  0  0  0  0  0  0  0  0  0
  148.4506  142.1355  153.7282 H   0  0  0  0  0  0  0  0  0  0  0  0
  147.3841  140.7149  152.5118 H   0  0  0  0  0  0  0  0  0  0  0  0
  145.9922  138.6861  152.1351 H   0  0  0  0  0  0  0  0  0  0  0  0
  151.2531  144.4591  157.4988 H   0  0  0  0  0  0  0  0  0  0  0  0
  150.2919  143.6618  158.7202 H   0  0  0  0  0  0  0  0  0  0  0  0
  152.4417  144.3728  159.6830 H   0  0  0  0  0  0  0  0  0  0  0  0
  153.3298  143.5316  158.4360 H   0  0  0  0  0  0  0  0  0  0  0  0
  1  2  1  0  0  0  0
  1 20  1  0  0  0  0
  1 21  1  0  0  0  0
  1 22  1  0  0  0  0
  2 19  1  0  0  0  0
  2  3  1  0  0  0  0
  2 23  1  0  0  0  0
  3  4  1  0  0  0  0
  3 24  1  0  0  0  0
  3 25  1  0  0  0  0
  4  5  1  0  0  0  0
  4 26  1  0  0  0  0
  4 27  1  0  0  0  0
  5  6  1  0  0  0  0
  5 18  1  0  0  0  0
  5 28  1  0  0  0  0
  6  7  1  0  0  0  0
  6 29  1  0  0  0  0
  7  8  2  0  0  0  0
  7  9  1  0  0  0  0
  9 10  1  0  0  0  0
  9 30  1  0  0  0  0
  9 31  1  0  0  0  0
 10 16  1  0  0  0  0
 10 11  1  0  0  0  0
 11 12  2  0  0  0  0
 11 32  1  0  0  0  0
 12 13  1  0  0  0  0
 12 33  1  0  0  0  0
 13 14  2  0  0  0  0
 13 15  1  0  0  0  0
 15 16  1  0  0  0  0
 16 17  2  0  0  0  0
 18 19  1  0  0  0  0
 18 34  1  0  0  0  0
 18 35  1  0  0  0  0
 19 36  1  0  0  0  0
 19 37  1  0  0  0  0
M  CHG  1  15  -1
M  END
> <s_m_source_file>
AV-unprocessed.smi

> <i_m_source_file_index>
414

> <i_lp_mmshare_version>
43012

> <i_f3d_flags>
0

> <s_epik_input>
W0NIM11bQ0BASF0xW0NIMl1bQ0gyXVtDQEhdKFtDSDJdW0NIMl0xKVtOSF1DKD1PKVtDSDJdbjJbY0hdW2NIXWMoPU8pW25IXWMyPU8=

> <s_epik_cmdline>
J2VwaWtfcHl0aG9uJywgJy1waCcsICc3LjAnLCAnLXRuJywgJzgnLCAnLW1hJywgJzIwMCcsICctbWV0YWxfYmluZGluZycsICctaW1hZScsICc8aW5maWxlLm1hZT4nLCAnLW9tYWUnLCAnPG91dGZpbGUubWFlPic=

> <r_lp_tautomer_probability>
0.999537

> <r_epik_Ionization_Penalty>
3.11551

> <r_epik_Ionization_Penalty_Charging>
2.90498e-08

> <r_epik_Ionization_Penalty_Neutral>
3.11551

> <r_epik_State_Penalty>
3.11459

> <r_epik_Charging_Adjusted_Penalty>
3.11459

> <i_epik_Tot_Q>
-1

> <i_epik_Tot_abs_Q>
1

> <r_epik_Metal_State_Penalty>
0.463083

> <b_epik_Metal_Only>
1

> <s_lp_Force_Field>
OPLS_2005

> <r_lp_Energy>
17.7967

> <b_lp_Chiralities_Consistent>
1

> <s_lp_Variant>
AV-unprocessed.smi:414-3

> <Gold.Version>
5.8.1

> <Gold.Id.Protein>
6NUR|6NUR_protein|mol2

> <Gold.PLP.Fitness>
43.5313

> <Gold.PLP.PLP>
-34.8281

> <Gold.PLP.part.hbond>
-2.0000

> <Gold.PLP.part.metal>
0.0000

> <Gold.PLP.part.buried>
-2.1111

> <Gold.PLP.part.nonpolar>
-31.3147

> <Gold.PLP.part.repulsive>
0.3502

> <Gold.PLP.ligand.clash>
0.0000

> <Gold.PLP.ligand.torsion>
0.1509

> <Gold.PLP.Chemscore.Hbond>
2.0000

> <Gold.PLP.Chemscore.CHOScore>
1.0000

> <Gold.PLP.Chemscore.Metal>
0.0000

> <Gold.Chemscore.Hbonds>
donor molecule, donor type, donor heavy atom, donor atom, acceptor molecule, acceptor atom, score
      L1  H     6    29       P1  8028  0.61
      P1  H  7989  7998       L1     8  0.75
      L1  C    11    32       P1  7957  0.55

> <Gold.PLP.Chemscore.Internal.Correction>
0.0050

> <Gold.Rescore>
     Score         DG    S(hbond)    S(metal)    S(lipo)     H(rot)  DE(clash)    DE(int)     intcor
     15.53     -17.70       1.68        0.00      92.74       1.65       0.92       1.24       ----

> <Gold.Chemscore.Fitness>
15.5313

> <Gold.Chemscore.DG>
-17.6982

> <Gold.Chemscore.ZeroCoef>
-5.4800

> <Gold.Chemscore.Hbond>
1.6779

> <Gold.Chemscore.Metal>
0.0000

> <Gold.Chemscore.Lipo>
92.7394

> <Gold.Chemscore.Internal_Hbond>
0.0000

> <Gold.Chemscore.DEClash>
0.9240

> <Gold.Chemscore.DEInternal>
1.2429

> <Gold.Chemscore.Rot>
1.6549

> <Gold.Chemscore.Internal.Correction>
   9.000000E+99

> <Gold.Chemscore.Hbonds>
donor molecule, donor type, donor heavy atom, donor atom, acceptor molecule, acceptor atom, score
      L1  H     6    29       P1  8028  0.60
      P1  H  7989  7998       L1     8  0.67

> <Gold.Chemscore.Hbond.Weighted>
-5.6041

> <Gold.Chemscore.Metal.Weighted>
-0.0000

> <Gold.Chemscore.Lipo.Weighted>
-10.8505

> <Gold.Chemscore.Internal_Hbond.Weighted>
0.0000

> <Gold.Chemscore.DEClash.Weighted>
0.9240

> <Gold.Chemscore.DEInternal.Weighted>
1.2429

> <Gold.Chemscore.Rot.Weighted>
4.2364

> <Gold.Chemscore.Internal.Correction.Weighted>
   9.000000E+99

> <Gold.Protein.RotatedTorsions>
[ 6907 6896 6895 6894 ] final   73.59 input  -60.11 | X-H torsion
[ 7974 7965 7964 7962 ] final  -51.95 input  175.53 | X-H torsion
[ 8008 7997 7996 7995 ] final   64.58 input   59.86 | X-H torsion
[ 10167 10162 10161 10158 ] final  -14.98 input  -65.29 | X-H torsion
[ 10718 10713 10712 10709 ] final   31.63 input   66.30 | X-H torsion
[ 10763 10752 10751 10750 ] final -172.96 input  -60.55 | X-H torsion
[ 11005 11000 10999 10996 ] final   -2.61 input  -57.11 | X-H torsion

> <Gold.Protein.ActiveResidues>
 VAL166  LYS551  ARG553  GLY616  TRP617  ASP618  TYR619  PRO620  LYS621  CYS622 
 ASP623  PHE694  ASN695  SER759  ASP760  ASP761  ALA762  ILE779  LEU786  VAL792 
 PHE793  MET794  SER795  GLU796  ALA797  LYS798  CYS799  TRP800  GLU811  SER814 

> <Gold.Protein.RotatedAtoms>
  152.4931  134.4399  159.9539 H   0  0  0  0  0  0  0  0  0  0  0  0  # atno 6907 bound_to 6896
  151.4382  133.3644  159.2786 H   0  0  0  0  0  0  0  0  0  0  0  0  # atno 6908 bound_to 6896
  150.9106  134.8546  159.7482 H   0  0  0  0  0  0  0  0  0  0  0  0  # atno 6909 bound_to 6896
  145.9134  140.7896  142.9684 H   0  0  0  0  0  0  0  0  0  0  0  0  # atno 7974 bound_to 7965
  155.6483  140.3497  155.4739 H   0  0  0  0  0  0  0  0  0  0  0  0  # atno 8008 bound_to 7997
  155.9869  140.1186  157.0698 H   0  0  0  0  0  0  0  0  0  0  0  0  # atno 8009 bound_to 7997
  154.4207  140.1127  156.5498 H   0  0  0  0  0  0  0  0  0  0  0  0  # atno 8010 bound_to 7997
  140.7211  143.5265  150.9570 H   0  0  0  0  0  0  0  0  0  0  0  0  # atno 10167 bound_to 10162
  157.2749  130.7226  149.6525 H   0  0  0  0  0  0  0  0  0  0  0  0  # atno 10718 bound_to 10713
  154.6133  135.2867  155.0408 H   0  0  0  0  0  0  0  0  0  0  0  0  # atno 10763 bound_to 10752
  154.1630  135.6485  153.4994 H   0  0  0  0  0  0  0  0  0  0  0  0  # atno 10764 bound_to 10752
  153.0204  135.5383  154.6895 H   0  0  0  0  0  0  0  0  0  0  0  0  # atno 10765 bound_to 10752
  140.6603  133.9326  155.8432 H   0  0  0  0  0  0  0  0  0  0  0  0  # atno 11005 bound_to 11000
  144.6745  140.1861  143.7401 LP  0  0  0  0  0  0  0  0  0  0  0  0  # atno 17320 bound_to 7965
  145.8643  139.2239  143.1698 LP  0  0  0  0  0  0  0  0  0  0  0  0  # atno 17321 bound_to 7965
  139.8984  143.6866  152.3135 LP  0  0  0  0  0  0  0  0  0  0  0  0  # atno 17342 bound_to 10162
  139.7207  144.7603  151.0961 LP  0  0  0  0  0  0  0  0  0  0  0  0  # atno 17343 bound_to 10162
  155.9663  130.4356  150.5098 LP  0  0  0  0  0  0  0  0  0  0  0  0  # atno 17370 bound_to 10713
  157.3030  131.0649  151.2055 LP  0  0  0  0  0  0  0  0  0  0  0  0  # atno 17371 bound_to 10713
  141.0470  134.0539  157.3831 LP  0  0  0  0  0  0  0  0  0  0  0  0  # atno 17394 bound_to 11000
  139.9015  135.0166  156.7291 LP  0  0  0  0  0  0  0  0  0  0  0  0  # atno 17395 bound_to 11000

$$$$
