AV-unprocessed.smi:1157|AV-procd|sdf|4906|dock6
  -GOLD-   22720 3483D 1   1.00000     0.00000
 Structure written by MMmdl.
 54 56  0  0  0  0  0  0  0  0  1 V2000
  149.7538  132.2916  155.7213 C   0  0  0  0  0  0  0  0  0  0  0  0
  149.2370  133.7246  155.4334 C   0  0  0  0  0  0  0  0  0  0  0  0
  149.0664  134.4337  156.7986 C   0  0  0  0  0  0  0  0  0  0  0  0
  150.3818  134.4546  154.6746 C   0  0  0  0  0  0  0  0  0  0  0  0
  150.1767  135.8989  154.6252 N   0  0  0  0  0  0  0  0  0  0  0  0
  150.7468  136.7770  155.4589 C   0  0  0  0  0  0  0  0  0  0  0  0
  151.5202  136.4519  156.3597 O   0  0  0  0  0  0  0  0  0  0  0  0
  150.3460  138.0313  155.1912 N   0  0  0  0  0  0  0  0  0  0  0  0
  150.7257  139.2360  155.8413 C   0  0  0  0  0  0  0  0  0  0  0  0
  150.3665  140.5285  155.3941 C   0  0  0  0  0  0  0  0  0  0  0  0
  150.7896  141.6486  156.1351 C   0  0  0  0  0  0  0  0  0  0  0  0
  151.5576  141.4513  157.3070 C   0  0  0  0  0  0  0  0  0  0  0  0
  151.9991  142.5462  158.0761 N   0  0  0  0  0  0  0  0  0  0  0  0
  151.4750  143.8876  157.8707 C   0  0  0  0  0  0  0  0  0  0  0  0
  152.0983  144.7211  158.9891 C   0  0  0  0  0  0  0  0  0  0  0  0
  152.2241  143.7205  160.1378 C   0  0  0  0  0  0  0  0  0  0  0  0
  152.4800  142.3790  159.4408 C   0  0  0  0  0  0  0  0  0  0  0  0
  151.8820  140.2112  157.7446 N   0  0  0  0  0  0  0  0  0  0  0  0
  151.4734  139.1410  157.0317 C   0  0  0  0  0  0  0  0  0  0  0  0
  147.9812  133.6904  154.6319 N   0  0  0  0  0  0  0  0  0  0  0  0
  148.1103  133.0650  153.3102 C   0  0  0  0  0  0  0  0  0  0  0  0
  146.7562  132.9501  152.5902 C   0  0  0  0  0  0  0  0  0  0  0  0
  146.1641  134.2383  152.4761 O   0  0  0  0  0  0  0  0  0  0  0  0
  145.9659  134.8581  153.7409 C   0  0  0  0  0  0  0  0  0  0  0  0
  147.3127  134.9872  154.4730 C   0  0  0  0  0  0  0  0  0  0  0  0
  150.7536  132.3069  156.1569 H   0  0  0  0  0  0  0  0  0  0  0  0
  149.8051  131.6908  154.8126 H   0  0  0  0  0  0  0  0  0  0  0  0
  149.1230  131.7599  156.4335 H   0  0  0  0  0  0  0  0  0  0  0  0
  150.0016  134.4302  157.3598 H   0  0  0  0  0  0  0  0  0  0  0  0
  148.3225  133.9449  157.4274 H   0  0  0  0  0  0  0  0  0  0  0  0
  148.7726  135.4773  156.6871 H   0  0  0  0  0  0  0  0  0  0  0  0
  151.3523  134.2490  155.1273 H   0  0  0  0  0  0  0  0  0  0  0  0
  150.4562  134.0743  153.6540 H   0  0  0  0  0  0  0  0  0  0  0  0
  149.5469  136.2444  153.9156 H   0  0  0  0  0  0  0  0  0  0  0  0
  149.6386  138.1286  154.4773 H   0  0  0  0  0  0  0  0  0  0  0  0
  149.7652  140.6832  154.5120 H   0  0  0  0  0  0  0  0  0  0  0  0
  150.5111  142.6368  155.8008 H   0  0  0  0  0  0  0  0  0  0  0  0
  151.7349  144.2760  156.8853 H   0  0  0  0  0  0  0  0  0  0  0  0
  150.3880  143.8725  157.9619 H   0  0  0  0  0  0  0  0  0  0  0  0
  153.0898  145.0620  158.6873 H   0  0  0  0  0  0  0  0  0  0  0  0
  151.5033  145.5973  159.2473 H   0  0  0  0  0  0  0  0  0  0  0  0
  153.0079  143.9841  160.8482 H   0  0  0  0  0  0  0  0  0  0  0  0
  151.2805  143.6738  160.6830 H   0  0  0  0  0  0  0  0  0  0  0  0
  151.9706  141.5673  159.9615 H   0  0  0  0  0  0  0  0  0  0  0  0
  153.5467  142.1544  159.4131 H   0  0  0  0  0  0  0  0  0  0  0  0
  151.7595  138.1760  157.4243 H   0  0  0  0  0  0  0  0  0  0  0  0
  148.7918  133.6422  152.6851 H   0  0  0  0  0  0  0  0  0  0  0  0
  148.5276  132.0631  153.3918 H   0  0  0  0  0  0  0  0  0  0  0  0
  146.8920  132.5312  151.5930 H   0  0  0  0  0  0  0  0  0  0  0  0
  146.0869  132.2791  153.1311 H   0  0  0  0  0  0  0  0  0  0  0  0
  145.5217  135.8419  153.5893 H   0  0  0  0  0  0  0  0  0  0  0  0
  145.2587  134.2750  154.3332 H   0  0  0  0  0  0  0  0  0  0  0  0
  147.1189  135.4462  155.4408 H   0  0  0  0  0  0  0  0  0  0  0  0
  147.9499  135.6749  153.9170 H   0  0  0  0  0  0  0  0  0  0  0  0
  1  2  1  0  0  0  0
  1 26  1  0  0  0  0
  1 27  1  0  0  0  0
  1 28  1  0  0  0  0
  2  3  1  0  0  0  0
  2  4  1  0  0  0  0
  2 20  1  0  0  0  0
  3 29  1  0  0  0  0
  3 30  1  0  0  0  0
  3 31  1  0  0  0  0
  4  5  1  0  0  0  0
  4 32  1  0  0  0  0
  4 33  1  0  0  0  0
  5  6  1  0  0  0  0
  5 34  1  0  0  0  0
  6  7  2  0  0  0  0
  6  8  1  0  0  0  0
  8  9  1  0  0  0  0
  8 35  1  0  0  0  0
  9 19  1  0  0  0  0
  9 10  2  0  0  0  0
 10 11  1  0  0  0  0
 10 36  1  0  0  0  0
 11 12  2  0  0  0  0
 11 37  1  0  0  0  0
 12 13  1  0  0  0  0
 12 18  1  0  0  0  0
 13 17  1  0  0  0  0
 13 14  1  0  0  0  0
 14 15  1  0  0  0  0
 14 38  1  0  0  0  0
 14 39  1  0  0  0  0
 15 16  1  0  0  0  0
 15 40  1  0  0  0  0
 15 41  1  0  0  0  0
 16 17  1  0  0  0  0
 16 42  1  0  0  0  0
 16 43  1  0  0  0  0
 17 44  1  0  0  0  0
 17 45  1  0  0  0  0
 18 19  2  0  0  0  0
 19 46  1  0  0  0  0
 20 25  1  0  0  0  0
 20 21  1  0  0  0  0
 21 22  1  0  0  0  0
 21 47  1  0  0  0  0
 21 48  1  0  0  0  0
 22 23  1  0  0  0  0
 22 49  1  0  0  0  0
 22 50  1  0  0  0  0
 23 24  1  0  0  0  0
 24 25  1  0  0  0  0
 24 51  1  0  0  0  0
 24 52  1  0  0  0  0
 25 53  1  0  0  0  0
 25 54  1  0  0  0  0
M  END
> <s_m_source_file>
AV-unprocessed.smi

> <i_m_source_file_index>
1157

> <i_lp_mmshare_version>
43012

> <i_f3d_flags>
0

> <s_epik_input>
W0NIMl0xW0NIMl1PW0NIMl1bQ0gyXU4xQyhbQ0gzXSkoW0NIM10pW0NIMl1bTkhdQyg9TylbTkhdYzJbY0hdW2NIXWMobltjSF0yKU4zW0NIMl1bQ0gyXVtDSDJdW0NIMl0z

> <s_epik_cmdline>
J2VwaWtfcHl0aG9uJywgJy1waCcsICc3LjAnLCAnLXRuJywgJzgnLCAnLW1hJywgJzIwMCcsICctbWV0YWxfYmluZGluZycsICctaW1hZScsICc8aW5maWxlLm1hZT4nLCAnLW9tYWUnLCAnPG91dGZpbGUubWFlPic=

> <r_lp_tautomer_probability>
1

> <r_epik_Ionization_Penalty>
0.366523

> <r_epik_Ionization_Penalty_Charging>
0

> <r_epik_Ionization_Penalty_Neutral>
0.366523

> <r_epik_State_Penalty>
0.351681

> <r_epik_Charging_Adjusted_Penalty>
0.351681

> <i_epik_Tot_Q>
0

> <i_epik_Tot_abs_Q>
0

> <r_epik_Metal_State_Penalty>
0.334658

> <b_epik_Metal_Only>
0

> <s_lp_Force_Field>
OPLS_2005

> <r_lp_Energy>
67.3279

> <b_lp_Chiralities_Consistent>
1

> <s_lp_Variant>
AV-unprocessed.smi:1157-1

> <Gold.Version>
5.8.1

> <Gold.Id.Protein>
6NUR|6NUR_protein|mol2

> <Gold.PLP.Fitness>
45.0854

> <Gold.PLP.PLP>
-40.1618

> <Gold.PLP.part.hbond>
-2.9498

> <Gold.PLP.part.metal>
0.0000

> <Gold.PLP.part.buried>
-4.3338

> <Gold.PLP.part.nonpolar>
-32.7195

> <Gold.PLP.part.repulsive>
0.3117

> <Gold.PLP.ligand.clash>
0.0000

> <Gold.PLP.ligand.torsion>
0.4443

> <Gold.PLP.Chemscore.Hbond>
1.8553

> <Gold.PLP.Chemscore.CHOScore>
0.0000

> <Gold.PLP.Chemscore.Metal>
0.0000

> <Gold.Chemscore.Hbonds>
donor molecule, donor type, donor heavy atom, donor atom, acceptor molecule, acceptor atom, score
      L1  H     5    34       P1  7948  0.75
      P1  H 10752 10765       L1     7  0.20

> <Gold.PLP.Chemscore.Internal.Correction>
0.2464

> <Gold.Rescore>
     Score         DG    S(hbond)    S(metal)    S(lipo)     H(rot)  DE(clash)    DE(int)     intcor
     14.87     -17.75       1.24        0.00      99.78       1.38       0.02       2.86       ----

> <Gold.Chemscore.Fitness>
14.8689

> <Gold.Chemscore.DG>
-17.7497

> <Gold.Chemscore.ZeroCoef>
-5.4800

> <Gold.Chemscore.Hbond>
1.2370

> <Gold.Chemscore.Metal>
0.0000

> <Gold.Chemscore.Lipo>
99.7752

> <Gold.Chemscore.Internal_Hbond>
0.0000

> <Gold.Chemscore.DEClash>
0.0189

> <Gold.Chemscore.DEInternal>
2.8619

> <Gold.Chemscore.Rot>
1.3812

> <Gold.Chemscore.Internal.Correction>
   9.000000E+99

> <Gold.Chemscore.Hbonds>
donor molecule, donor type, donor heavy atom, donor atom, acceptor molecule, acceptor atom, score
      L1  H     5    34       P1  7948  0.46
      P1  H 10752 10765       L1     7  0.02

> <Gold.Chemscore.Hbond.Weighted>
-4.1317

> <Gold.Chemscore.Metal.Weighted>
-0.0000

> <Gold.Chemscore.Lipo.Weighted>
-11.6737

> <Gold.Chemscore.Internal_Hbond.Weighted>
0.0000

> <Gold.Chemscore.DEClash.Weighted>
0.0189

> <Gold.Chemscore.DEInternal.Weighted>
2.8619

> <Gold.Chemscore.Rot.Weighted>
3.5358

> <Gold.Chemscore.Internal.Correction.Weighted>
   9.000000E+99

> <Gold.Protein.RotatedTorsions>
[ 6907 6896 6895 6894 ] final   22.05 input  -60.11 | X-H torsion
[ 7974 7965 7964 7962 ] final  102.99 input  175.53 | X-H torsion
[ 8008 7997 7996 7995 ] final  -45.02 input   59.86 | X-H torsion
[ 10167 10162 10161 10158 ] final  141.65 input  -65.29 | X-H torsion
[ 10718 10713 10712 10709 ] final   70.64 input   66.30 | X-H torsion
[ 10763 10752 10751 10750 ] final -163.66 input  -60.55 | X-H torsion
[ 11005 11000 10999 10996 ] final -178.30 input  -57.11 | X-H torsion

> <Gold.Protein.ActiveResidues>
 VAL166  LYS551  ARG553  GLY616  TRP617  ASP618  TYR619  PRO620  LYS621  CYS622 
 ASP623  PHE694  ASN695  SER759  ASP760  ASP761  ALA762  ILE779  LEU786  VAL792 
 PHE793  MET794  SER795  GLU796  ALA797  LYS798  CYS799  TRP800  GLU811  SER814 

> <Gold.Protein.RotatedAtoms>
  151.9212  135.0297  160.0521 H   0  0  0  0  0  0  0  0  0  0  0  0  # atno 6907 bound_to 6896
  152.2198  133.4970  159.5164 H   0  0  0  0  0  0  0  0  0  0  0  0  # atno 6908 bound_to 6896
  150.6997  134.1274  159.4100 H   0  0  0  0  0  0  0  0  0  0  0  0  # atno 6909 bound_to 6896
  145.3519  139.2437  143.3553 H   0  0  0  0  0  0  0  0  0  0  0  0  # atno 7974 bound_to 7965
  154.3999  140.1407  156.3779 H   0  0  0  0  0  0  0  0  0  0  0  0  # atno 8008 bound_to 7997
  155.8032  140.3475  155.5394 H   0  0  0  0  0  0  0  0  0  0  0  0  # atno 8009 bound_to 7997
  155.8463  140.0934  157.1694 H   0  0  0  0  0  0  0  0  0  0  0  0  # atno 8010 bound_to 7997
  139.5015  144.6158  151.6168 H   0  0  0  0  0  0  0  0  0  0  0  0  # atno 10167 bound_to 10162
  157.6410  130.9487  150.0679 H   0  0  0  0  0  0  0  0  0  0  0  0  # atno 10718 bound_to 10713
  154.7101  135.3004  154.9210 H   0  0  0  0  0  0  0  0  0  0  0  0  # atno 10763 bound_to 10752
  154.0114  135.6694  153.4769 H   0  0  0  0  0  0  0  0  0  0  0  0  # atno 10764 bound_to 10752
  153.0748  135.5040  154.8295 H   0  0  0  0  0  0  0  0  0  0  0  0  # atno 10765 bound_to 10752
  140.4313  134.6516  157.4713 H   0  0  0  0  0  0  0  0  0  0  0  0  # atno 11005 bound_to 11000
  146.2964  140.4136  142.8720 LP  0  0  0  0  0  0  0  0  0  0  0  0  # atno 17320 bound_to 7965
  144.8711  140.7274  143.6046 LP  0  0  0  0  0  0  0  0  0  0  0  0  # atno 17321 bound_to 7965
  140.5845  143.9888  150.6287 LP  0  0  0  0  0  0  0  0  0  0  0  0  # atno 17342 bound_to 10162
  140.3048  143.3237  152.0937 LP  0  0  0  0  0  0  0  0  0  0  0  0  # atno 17343 bound_to 10162
  156.1692  130.3646  149.9189 LP  0  0  0  0  0  0  0  0  0  0  0  0  # atno 17370 bound_to 10713
  156.7169  130.8992  151.3614 LP  0  0  0  0  0  0  0  0  0  0  0  0  # atno 17371 bound_to 10713
  140.0132  134.6658  155.9348 LP  0  0  0  0  0  0  0  0  0  0  0  0  # atno 17394 bound_to 11000
  141.1744  133.6539  156.4773 LP  0  0  0  0  0  0  0  0  0  0  0  0  # atno 17395 bound_to 11000

$$$$
