#       Name:                AV-unprocessed.smi:243
#       Creating user name   scv26
#       Creation time:       Thu Mar 26 20:48:09 2020


#       File generated by GOLD software.
#

@<TRIPOS>MOLECULE
AV-unprocessed.smi:243
    65    68     1
SMALL
NO_CHARGES


@<TRIPOS>ATOM
      1 ****        -5.4325  -4.1293  -2.4491 C.3            1 S1                 0.0000
      2 ****        -4.3507  -3.1106  -2.8356 C.3            1 S1                 0.0000
      3 ****        -4.4984  -1.8171  -2.1156 N.4            1 S1                 1.0000
      4 ****        -3.8059  -0.6862  -2.7841 C.3            1 S1                 0.0000
      5 ****        -2.2825  -0.7606  -2.5931 C.3            1 S1                 0.0000
      6 ****        -1.9115  -0.8080  -1.0962 C.3            1 S1                 0.0000
      7 ****        -0.4562  -0.8791  -0.9015 N.pl3          1 S1                 0.0000
      8 ****         0.2864  -2.0719  -1.3030 C.3            1 S1                 0.0000
      9 ****         0.2629   0.2613  -0.7076 C.ar           1 S1                 0.0000
     10 ****        -0.2545   1.4528  -1.1116 N.ar           1 S1                 0.0000
     11 ****         0.4325   2.5861  -0.9448 C.ar           1 S1                 0.0000
     12 ****         1.6373   2.7574  -0.4005 N.ar           1 S1                 0.0000
     13 ****         2.1619   1.5720   0.0212 C.ar           1 S1                 0.0000
     14 ****         1.5513   0.2898  -0.0947 C.ar           1 S1                 0.0000
     15 ****         2.3887  -0.6761   0.4530 N.2            1 S1                 0.0000
     16 ****         3.4337  -0.0076   0.8563 C.2            1 S1                 0.0000
     17 ****         3.3773   1.3512   0.6464 N.pl3          1 S1                 0.0000
     18 ****         4.3934   2.3317   0.9981 C.3            1 S1                 0.0000
     19 ****         4.1989   2.9552   2.4010 C.3            1 S1                 0.0000
     20 ****         2.9483   3.6201   2.4455 O.3            1 S1                 0.0000
     21 ****         5.2880   3.9601   2.7552 C.3            1 S1                 0.0000
     22 ****         5.3520   3.8667   4.2735 C.3            1 S1                 0.0000
     23 ****         5.1948   2.4783   4.5106 O.3            1 S1                 0.0000
     24 ****         4.2602   1.9524   3.5724 C.3            1 S1                 0.0000
     25 ****        -2.6622  -1.9597  -0.3813 C.3            1 S1                 0.0000
     26 ****        -2.4088  -1.9563   1.1365 C.3            1 S1                 0.0000
     27 ****        -4.1799  -1.8656  -0.6627 C.3            1 S1                 0.0000
     28 ****        -5.3584  -5.0201  -3.0734 H              1 S1                 0.0000
     29 ****        -6.4318  -3.7148  -2.5844 H              1 S1                 0.0000
     30 ****        -5.3381  -4.4556  -1.4138 H              1 S1                 0.0000
     31 ****        -3.3585  -3.5343  -2.6822 H              1 S1                 0.0000
     32 ****        -4.4396  -2.9273  -3.9071 H              1 S1                 0.0000
     33 ****        -4.0584  -0.6605  -3.8447 H              1 S1                 0.0000
     34 ****        -4.1794   0.2474  -2.3613 H              1 S1                 0.0000
     35 ****        -1.8922  -1.6341  -3.1152 H              1 S1                 0.0000
     36 ****        -1.8181   0.1054  -3.0653 H              1 S1                 0.0000
     37 ****        -2.2786   0.1110  -0.6373 H              1 S1                 0.0000
     38 ****         1.1597  -1.8119  -1.9025 H              1 S1                 0.0000
     39 ****        -0.3261  -2.7471  -1.8992 H              1 S1                 0.0000
     40 ****         0.6219  -2.6202  -0.4225 H              1 S1                 0.0000
     41 ****        -0.0526   3.4845  -1.2972 H              1 S1                 0.0000
     42 ****         4.2777  -0.4928   1.3246 H              1 S1                 0.0000
     43 ****         5.3675   1.8447   0.9364 H              1 S1                 0.0000
     44 ****         4.3948   3.1126   0.2363 H              1 S1                 0.0000
     45 ****         2.8344   3.9887   3.3081 H              1 S1                 0.0000
     46 ****         6.2456   3.6426   2.3401 H              1 S1                 0.0000
     47 ****         5.0893   4.9702   2.3942 H              1 S1                 0.0000
     48 ****         6.2908   4.2414   4.6817 H              1 S1                 0.0000
     49 ****         4.5293   4.4143   4.7358 H              1 S1                 0.0000
     50 ****         3.2882   1.8116   4.0483 H              1 S1                 0.0000
     51 ****         4.6162   0.9713   3.2602 H              1 S1                 0.0000
     52 ****        -2.3058  -2.9151  -0.7652 H              1 S1                 0.0000
     53 ****        -2.7275  -1.0172   1.5899 H              1 S1                 0.0000
     54 ****        -1.3524  -2.0944   1.3680 H              1 S1                 0.0000
     55 ****        -2.9539  -2.7636   1.6259 H              1 S1                 0.0000
     56 ****        -4.5745  -0.9565  -0.2063 H              1 S1                 0.0000
     57 ****        -4.7096  -2.6877  -0.1826 H              1 S1                 0.0000
     58 ****        -5.4828  -1.5993  -2.1766 H              1 S1                 0.0000
     59 ****        -1.1587   1.4805  -1.5379 LP             1 S1                 0.0000
     60 ****         2.0968   3.6412  -0.3129 LP             1 S1                 0.0000
     61 ****         2.2264  -1.6604   0.5220 LP             1 S1                 0.0000
     62 ****         2.2132   2.9687   2.2575 LP             1 S1                 0.0000
     63 ****         2.9299   4.3498   1.7619 LP             1 S1                 0.0000
     64 ****         4.8554   2.3328   5.4399 LP             1 S1                 0.0000
     65 ****         6.0755   2.0173   4.4014 LP             1 S1                 0.0000
@<TRIPOS>BOND
    1    1    2 1     
    2    1   28 1     
    3    1   29 1     
    4    1   30 1     
    5    2    3 1     
    6    2   31 1     
    7    2   32 1     
    8    3   27 1     
    9    3    4 1     
   10    3   58 1     
   11    4    5 1     
   12    4   33 1     
   13    4   34 1     
   14    5    6 1     
   15    5   35 1     
   16    5   36 1     
   17    6    7 1     
   18    6   25 1     
   19    6   37 1     
   20    7    8 1     
   21    7    9 1     
   22    8   38 1     
   23    8   39 1     
   24    8   40 1     
   25    9   14 ar    
   26    9   10 ar    
   27   10   11 ar    
   28   11   12 ar    
   29   11   41 1     
   30   12   13 ar    
   31   13   17 1     
   32   13   14 ar    
   33   14   15 1     
   34   15   16 2     
   35   16   17 1     
   36   16   42 1     
   37   17   18 1     
   38   18   19 1     
   39   18   43 1     
   40   18   44 1     
   41   19   24 1     
   42   19   20 1     
   43   19   21 1     
   44   20   45 1     
   45   21   22 1     
   46   21   46 1     
   47   21   47 1     
   48   22   23 1     
   49   22   48 1     
   50   22   49 1     
   51   23   24 1     
   52   24   50 1     
   53   24   51 1     
   54   25   26 1     
   55   25   27 1     
   56   25   52 1     
   57   26   53 1     
   58   26   54 1     
   59   26   55 1     
   60   27   56 1     
   61   27   57 1     
   62   10   59 1     
   63   12   60 1     
   64   15   61 1     
   65   20   62 1     
   66   20   63 1     
   67   23   64 1     
   68   23   65 1     
@<TRIPOS>SUBSTRUCTURE
      1 S1             1
@<TRIPOS>SET
LONE_PAIRS      STATIC     ATOMS    <user>   **** ""
7 59 60 61 62 63 64 65
DONOR_HYDROGENS      STATIC     ATOMS    <user>   **** ""
2 58 45
ATOM$BLUE        STATIC     ATOMS    COLORGROUP SYSTEM
7 59 60 61 62 63 64 65
ATOM$RED        STATIC     ATOMS    COLORGROUP SYSTEM
2 58 45
