AV-unprocessed.smi:3126|AV-procd|sdf|11910|dock9
  -GOLD-   2272017293D 1   1.00000     0.00000
 Structure written by MMmdl.
 42 43  0  0  0  0  0  0  0  0  2 V2000
  153.5912  141.8479  161.3082 C   0  0  0  0  0  0  0  0  0  0  0  0
  153.4123  141.2965  159.8869 C   0  0  0  0  0  0  0  0  0  0  0  0
  152.7411  142.2819  158.9086 C   0  0  2  0  0  0  0  0  0  0  0  0
  153.4419  143.6572  158.8844 C   0  0  0  0  0  0  0  0  0  0  0  0
  152.7432  144.6361  157.9286 C   0  0  0  0  0  0  0  0  0  0  0  0
  151.2567  144.7972  158.2822 C   0  0  0  0  0  0  0  0  0  0  0  0
  150.5195  143.4414  158.3135 C   0  0  1  0  0  0  0  0  0  0  0  0
  150.3633  142.8512  156.9632 N   0  3  0  0  0  0  0  0  0  0  0  0
  149.3949  141.7396  156.8647 C   0  0  0  0  0  0  0  0  0  0  0  0
  149.3293  141.1939  155.4325 C   0  0  0  0  0  0  0  0  0  0  0  0
  150.3549  140.1035  155.1941 C   0  0  0  0  0  0  0  0  0  0  0  0
  150.0447  138.9759  154.4059 C   0  0  0  0  0  0  0  0  0  0  0  0
  151.0286  137.9854  154.2225 C   0  0  0  0  0  0  0  0  0  0  0  0
  152.2845  138.1652  154.8361 C   0  0  0  0  0  0  0  0  0  0  0  0
  152.5923  139.2407  155.5926 N   0  0  0  0  0  0  0  0  0  0  0  0
  151.6438  140.1863  155.7628 C   0  0  0  0  0  0  0  0  0  0  0  0
  151.2444  142.4552  159.2510 C   0  0  0  0  0  0  0  0  0  0  0  0
  154.1370  141.1376  161.9296 H   0  0  0  0  0  0  0  0  0  0  0  0
  152.6337  142.0337  161.7940 H   0  0  0  0  0  0  0  0  0  0  0  0
  154.1542  142.7815  161.3017 H   0  0  0  0  0  0  0  0  0  0  0  0
  154.3987  141.0315  159.5043 H   0  0  0  0  0  0  0  0  0  0  0  0
  152.8456  140.3654  159.9254 H   0  0  0  0  0  0  0  0  0  0  0  0
  152.8074  141.8502  157.9088 H   0  0  0  0  0  0  0  0  0  0  0  0
  153.4580  144.0804  159.8898 H   0  0  0  0  0  0  0  0  0  0  0  0
  154.4826  143.5507  158.5794 H   0  0  0  0  0  0  0  0  0  0  0  0
  153.2390  145.6065  157.9686 H   0  0  0  0  0  0  0  0  0  0  0  0
  152.8447  144.2827  156.9018 H   0  0  0  0  0  0  0  0  0  0  0  0
  151.1807  145.2612  159.2665 H   0  0  0  0  0  0  0  0  0  0  0  0
  150.7795  145.4937  157.5934 H   0  0  0  0  0  0  0  0  0  0  0  0
  149.5175  143.5981  158.7156 H   0  0  0  0  0  0  0  0  0  0  0  0
  150.1003  143.5818  156.3173 H   0  0  0  0  0  0  0  0  0  0  0  0
  149.6892  140.9437  157.5502 H   0  0  0  0  0  0  0  0  0  0  0  0
  148.4059  142.0807  157.1704 H   0  0  0  0  0  0  0  0  0  0  0  0
  148.3340  140.7974  155.2264 H   0  0  0  0  0  0  0  0  0  0  0  0
  149.4954  141.9990  154.7151 H   0  0  0  0  0  0  0  0  0  0  0  0
  149.0704  138.8683  153.9521 H   0  0  0  0  0  0  0  0  0  0  0  0
  150.8264  137.1076  153.6265 H   0  0  0  0  0  0  0  0  0  0  0  0
  153.0614  137.4246  154.7171 H   0  0  0  0  0  0  0  0  0  0  0  0
  151.9204  141.0316  156.3756 H   0  0  0  0  0  0  0  0  0  0  0  0
  150.7394  141.4884  159.2289 H   0  0  0  0  0  0  0  0  0  0  0  0
  151.1549  142.8154  160.2770 H   0  0  0  0  0  0  0  0  0  0  0  0
  151.2637  142.4883  156.6848 H   0  0  0  0  0  0  0  0  0  0  0  0
  1  2  1  0  0  0  0
  1 18  1  0  0  0  0
  1 19  1  0  0  0  0
  1 20  1  0  0  0  0
  2  3  1  0  0  0  0
  2 21  1  0  0  0  0
  2 22  1  0  0  0  0
  3 17  1  0  0  0  0
  3  4  1  0  0  0  0
  3 23  1  0  0  0  0
  4  5  1  0  0  0  0
  4 24  1  0  0  0  0
  4 25  1  0  0  0  0
  5  6  1  0  0  0  0
  5 26  1  0  0  0  0
  5 27  1  0  0  0  0
  6  7  1  0  0  0  0
  6 28  1  0  0  0  0
  6 29  1  0  0  0  0
  7  8  1  0  0  0  0
  7 17  1  0  0  0  0
  7 30  1  0  0  0  0
  8  9  1  0  0  0  0
  8 31  1  0  0  0  0
  8 42  1  0  0  0  0
  9 10  1  0  0  0  0
  9 32  1  0  0  0  0
  9 33  1  0  0  0  0
 10 11  1  0  0  0  0
 10 34  1  0  0  0  0
 10 35  1  0  0  0  0
 11 16  1  0  0  0  0
 11 12  2  0  0  0  0
 12 13  1  0  0  0  0
 12 36  1  0  0  0  0
 13 14  2  0  0  0  0
 13 37  1  0  0  0  0
 14 15  1  0  0  0  0
 14 38  1  0  0  0  0
 15 16  2  0  0  0  0
 16 39  1  0  0  0  0
 17 40  1  0  0  0  0
 17 41  1  0  0  0  0
M  CHG  1   8   1
M  END
> <s_m_source_file>
AV-unprocessed.smi

> <i_m_source_file_index>
3126

> <i_lp_mmshare_version>
43012

> <i_f3d_flags>
0

> <s_epik_input>
W0NIM11bQ0gyXVtDQEBIXTFbQ0gyXVtDSDJdW0NIMl1bQ0BIXShbQ0gyXTEpW05IXVtDSDJdW0NIMl1jMltjSF1bY0hdW2NIXW5bY0hdMg==

> <s_epik_cmdline>
J2VwaWtfcHl0aG9uJywgJy1waCcsICc3LjAnLCAnLXRuJywgJzgnLCAnLW1hJywgJzIwMCcsICctbWV0YWxfYmluZGluZycsICctaW1hZScsICc8aW5maWxlLm1hZT4nLCAnLW9tYWUnLCAnPG91dGZpbGUubWFlPic=

> <r_lp_tautomer_probability>
1

> <r_epik_Ionization_Penalty>
0.000947364

> <r_epik_Ionization_Penalty_Charging>
0.000286103

> <r_epik_Ionization_Penalty_Neutral>
0.000661261

> <r_epik_State_Penalty>
-0

> <r_epik_Charging_Adjusted_Penalty>
0.000286103

> <i_epik_Tot_Q>
1

> <i_epik_Tot_abs_Q>
1

> <r_epik_Metal_State_Penalty>
-0

> <b_epik_Metal_Only>
0

> <s_lp_Force_Field>
OPLS_2005

> <r_lp_Energy>
17.7549

> <b_lp_Chiralities_Consistent>
1

> <s_lp_Variant>
AV-unprocessed.smi:3126-1

> <Gold.Version>
5.8.1

> <Gold.Id.Protein>
6NUR|6NUR_protein|mol2

> <Gold.PLP.Fitness>
53.1391

> <Gold.PLP.PLP>
-45.3243

> <Gold.PLP.part.hbond>
-2.0000

> <Gold.PLP.part.metal>
0.0000

> <Gold.PLP.part.buried>
-3.4194

> <Gold.PLP.part.nonpolar>
-38.4284

> <Gold.PLP.part.repulsive>
0.0216

> <Gold.PLP.ligand.clash>
0.0000

> <Gold.PLP.ligand.torsion>
0.6017

> <Gold.PLP.Chemscore.Hbond>
3.0000

> <Gold.PLP.Chemscore.CHOScore>
0.0000

> <Gold.PLP.Chemscore.Metal>
0.0000

> <Gold.Chemscore.Hbonds>
donor molecule, donor type, donor heavy atom, donor atom, acceptor molecule, acceptor atom, score
      L1  H     8    31       P1  8028  2.00
      P1  H  7997  8009       L1    15  0.88

> <Gold.PLP.Chemscore.Internal.Correction>
0.0183

> <Gold.Rescore>
     Score         DG    S(hbond)    S(metal)    S(lipo)     H(rot)  DE(clash)    DE(int)     intcor
     23.97     -24.54       1.95        0.00     136.77       1.35       0.11       0.46       ----

> <Gold.Chemscore.Fitness>
23.9708

> <Gold.Chemscore.DG>
-24.5392

> <Gold.Chemscore.ZeroCoef>
-5.4800

> <Gold.Chemscore.Hbond>
1.9504

> <Gold.Chemscore.Metal>
0.0000

> <Gold.Chemscore.Lipo>
136.7743

> <Gold.Chemscore.Internal_Hbond>
0.0000

> <Gold.Chemscore.DEClash>
0.1119

> <Gold.Chemscore.DEInternal>
0.4565

> <Gold.Chemscore.Rot>
1.3507

> <Gold.Chemscore.Internal.Correction>
   9.000000E+99

> <Gold.Chemscore.Hbonds>
donor molecule, donor type, donor heavy atom, donor atom, acceptor molecule, acceptor atom, score
      L1  H     8    31       P1  8028  0.95
      P1  H  7997  8009       L1    15  0.43

> <Gold.Chemscore.Hbond.Weighted>
-6.5144

> <Gold.Chemscore.Metal.Weighted>
-0.0000

> <Gold.Chemscore.Lipo.Weighted>
-16.0026

> <Gold.Chemscore.Internal_Hbond.Weighted>
0.0000

> <Gold.Chemscore.DEClash.Weighted>
0.1119

> <Gold.Chemscore.DEInternal.Weighted>
0.4565

> <Gold.Chemscore.Rot.Weighted>
3.4579

> <Gold.Chemscore.Internal.Correction.Weighted>
   9.000000E+99

> <Gold.Protein.RotatedTorsions>
[ 6907 6896 6895 6894 ] final -151.04 input  -60.11 | X-H torsion
[ 7974 7965 7964 7962 ] final -172.48 input  175.53 | X-H torsion
[ 8008 7997 7996 7995 ] final -160.78 input   59.86 | X-H torsion
[ 10167 10162 10161 10158 ] final  134.39 input  -65.29 | X-H torsion
[ 10718 10713 10712 10709 ] final -112.99 input   66.30 | X-H torsion
[ 10763 10752 10751 10750 ] final  143.90 input  -60.55 | X-H torsion
[ 11005 11000 10999 10996 ] final -121.67 input  -57.11 | X-H torsion

> <Gold.Protein.ActiveResidues>
 VAL166  LYS551  ARG553  GLY616  TRP617  ASP618  TYR619  PRO620  LYS621  CYS622 
 ASP623  PHE694  ASN695  SER759  ASP760  ASP761  ALA762  ILE779  LEU786  VAL792 
 PHE793  MET794  SER795  GLU796  ALA797  LYS798  CYS799  TRP800  GLU811  SER814 

> <Gold.Protein.RotatedAtoms>
  151.2074  133.4576  159.2597 H   0  0  0  0  0  0  0  0  0  0  0  0  # atno 6907 bound_to 6896
  151.1010  134.9972  159.8459 H   0  0  0  0  0  0  0  0  0  0  0  0  # atno 6908 bound_to 6896
  152.5443  134.2000  159.8761 H   0  0  0  0  0  0  0  0  0  0  0  0  # atno 6909 bound_to 6896
  144.7146  140.1766  143.6362 H   0  0  0  0  0  0  0  0  0  0  0  0  # atno 7974 bound_to 7965
  155.7826  140.0867  157.2051 H   0  0  0  0  0  0  0  0  0  0  0  0  # atno 8008 bound_to 7997
  154.3989  140.1505  156.3127 H   0  0  0  0  0  0  0  0  0  0  0  0  # atno 8009 bound_to 7997
  155.8639  140.3429  155.5777 H   0  0  0  0  0  0  0  0  0  0  0  0  # atno 8010 bound_to 7997
  139.5258  144.6569  151.5133 H   0  0  0  0  0  0  0  0  0  0  0  0  # atno 10167 bound_to 10162
  156.0739  130.5949  150.8582 H   0  0  0  0  0  0  0  0  0  0  0  0  # atno 10718 bound_to 10713
  153.9799  135.2942  155.3421 H   0  0  0  0  0  0  0  0  0  0  0  0  # atno 10763 bound_to 10752
  154.7274  135.5082  153.8912 H   0  0  0  0  0  0  0  0  0  0  0  0  # atno 10764 bound_to 10752
  153.0859  135.6693  154.0064 H   0  0  0  0  0  0  0  0  0  0  0  0  # atno 10765 bound_to 10752
  141.0053  134.0344  157.3485 H   0  0  0  0  0  0  0  0  0  0  0  0  # atno 11005 bound_to 11000
  145.8895  139.2367  143.1558 LP  0  0  0  0  0  0  0  0  0  0  0  0  # atno 17320 bound_to 7965
  145.9917  140.8596  143.0063 LP  0  0  0  0  0  0  0  0  0  0  0  0  # atno 17321 bound_to 7965
  140.6399  143.8909  150.6682 LP  0  0  0  0  0  0  0  0  0  0  0  0  # atno 17342 bound_to 10162
  140.2240  143.3787  152.1620 LP  0  0  0  0  0  0  0  0  0  0  0  0  # atno 17343 bound_to 10162
  157.5824  131.0946  150.9250 LP  0  0  0  0  0  0  0  0  0  0  0  0  # atno 17370 bound_to 10713
  156.9442  130.5396  149.5281 LP  0  0  0  0  0  0  0  0  0  0  0  0  # atno 17371 bound_to 10713
  139.9060  135.0179  156.7486 LP  0  0  0  0  0  0  0  0  0  0  0  0  # atno 17394 bound_to 11000
  140.6823  133.9463  155.7918 LP  0  0  0  0  0  0  0  0  0  0  0  0  # atno 17395 bound_to 11000

$$$$
