AV-unprocessed.smi:2390|AV-procd|sdf|9473|dock2
  -GOLD-   2272013103D 1   1.00000     0.00000
 Structure written by MMmdl.
 45 46  0  0  0  0  0  0  0  0  1 V2000
  153.3547  141.6848  160.7056 C   0  0  0  0  0  0  0  0  0  0  0  0
  152.5281  142.7958  160.0928 C   0  0  0  0  0  0  0  0  0  0  0  0
  152.5003  144.0813  160.6679 C   0  0  0  0  0  0  0  0  0  0  0  0
  151.7126  145.0675  160.0472 C   0  0  0  0  0  0  0  0  0  0  0  0
  150.9894  144.7298  158.8868 C   0  0  0  0  0  0  0  0  0  0  0  0
  151.0683  143.4143  158.3769 C   0  0  0  0  0  0  0  0  0  0  0  0
  150.2970  143.1716  157.2089 N   0  0  0  0  0  0  0  0  0  0  0  0
  150.2250  142.0421  156.4822 C   0  0  0  0  0  0  0  0  0  0  0  0
  150.8601  141.0115  156.7075 O   0  0  0  0  0  0  0  0  0  0  0  0
  149.3575  142.1738  155.4678 N   0  0  0  0  0  0  0  0  0  0  0  0
  148.9819  141.1267  154.5166 C   0  0  2  0  0  0  0  0  0  0  0  0
  147.8059  141.6201  153.6546 C   0  0  0  0  0  0  0  0  0  0  0  0
  148.7026  139.7753  155.2512 C   0  0  2  0  0  0  0  0  0  0  0  0
  147.8343  140.0365  156.5102 C   0  0  0  0  0  0  0  0  0  0  0  0
  149.9253  138.9879  155.5513 N   0  0  0  0  0  0  0  0  0  0  0  0
  150.8816  138.9579  154.4374 C   0  0  0  0  0  0  0  0  0  0  0  0
  152.1419  138.1361  154.7581 C   0  0  0  0  0  0  0  0  0  0  0  0
  151.7727  136.8109  155.1135 O   0  0  0  0  0  0  0  0  0  0  0  0
  150.8984  136.7834  156.2330 C   0  0  0  0  0  0  0  0  0  0  0  0
  149.6312  137.5986  155.9222 C   0  0  0  0  0  0  0  0  0  0  0  0
  151.8327  142.4712  158.9820 N   0  0  0  0  0  0  0  0  0  0  0  0
  154.0232  142.0695  161.4763 H   0  0  0  0  0  0  0  0  0  0  0  0
  153.9622  141.1959  159.9432 H   0  0  0  0  0  0  0  0  0  0  0  0
  152.7040  140.9367  161.1589 H   0  0  0  0  0  0  0  0  0  0  0  0
  153.0662  144.3081  161.5594 H   0  0  0  0  0  0  0  0  0  0  0  0
  151.6630  146.0666  160.4542 H   0  0  0  0  0  0  0  0  0  0  0  0
  150.3790  145.4760  158.3991 H   0  0  0  0  0  0  0  0  0  0  0  0
  149.7168  143.9392  156.9048 H   0  0  0  0  0  0  0  0  0  0  0  0
  148.8865  143.0605  155.3644 H   0  0  0  0  0  0  0  0  0  0  0  0
  149.7782  140.9899  153.7883 H   0  0  0  0  0  0  0  0  0  0  0  0
  147.4558  140.8363  152.9824 H   0  0  0  0  0  0  0  0  0  0  0  0
  148.1126  142.4646  153.0363 H   0  0  0  0  0  0  0  0  0  0  0  0
  146.9585  141.9562  154.2507 H   0  0  0  0  0  0  0  0  0  0  0  0
  148.0915  139.1768  154.5736 H   0  0  0  0  0  0  0  0  0  0  0  0
  146.9868  140.6870  156.3049 H   0  0  0  0  0  0  0  0  0  0  0  0
  148.4157  140.4964  157.3099 H   0  0  0  0  0  0  0  0  0  0  0  0
  147.3977  139.1182  156.9013 H   0  0  0  0  0  0  0  0  0  0  0  0
  150.4003  138.5513  153.5469 H   0  0  0  0  0  0  0  0  0  0  0  0
  151.2225  139.9576  154.1824 H   0  0  0  0  0  0  0  0  0  0  0  0
  152.8018  138.1008  153.8912 H   0  0  0  0  0  0  0  0  0  0  0  0
  152.7061  138.5971  155.5706 H   0  0  0  0  0  0  0  0  0  0  0  0
  150.6385  135.7484  156.4554 H   0  0  0  0  0  0  0  0  0  0  0  0
  151.4066  137.1815  157.1128 H   0  0  0  0  0  0  0  0  0  0  0  0
  149.0053  137.5617  156.8122 H   0  0  0  0  0  0  0  0  0  0  0  0
  149.0736  137.1116  155.1209 H   0  0  0  0  0  0  0  0  0  0  0  0
  1  2  1  0  0  0  0
  1 22  1  0  0  0  0
  1 23  1  0  0  0  0
  1 24  1  0  0  0  0
  2 21  1  0  0  0  0
  2  3  2  0  0  0  0
  3  4  1  0  0  0  0
  3 25  1  0  0  0  0
  4  5  2  0  0  0  0
  4 26  1  0  0  0  0
  5  6  1  0  0  0  0
  5 27  1  0  0  0  0
  6  7  1  0  0  0  0
  6 21  2  0  0  0  0
  7  8  1  0  0  0  0
  7 28  1  0  0  0  0
  8  9  2  0  0  0  0
  8 10  1  0  0  0  0
 10 11  1  0  0  0  0
 10 29  1  0  0  0  0
 11 12  1  0  0  0  0
 11 13  1  0  0  0  0
 11 30  1  0  0  0  0
 12 31  1  0  0  0  0
 12 32  1  0  0  0  0
 12 33  1  0  0  0  0
 13 14  1  0  0  0  0
 13 15  1  0  0  0  0
 13 34  1  0  0  0  0
 14 35  1  0  0  0  0
 14 36  1  0  0  0  0
 14 37  1  0  0  0  0
 15 20  1  0  0  0  0
 15 16  1  0  0  0  0
 16 17  1  0  0  0  0
 16 38  1  0  0  0  0
 16 39  1  0  0  0  0
 17 18  1  0  0  0  0
 17 40  1  0  0  0  0
 17 41  1  0  0  0  0
 18 19  1  0  0  0  0
 19 20  1  0  0  0  0
 19 42  1  0  0  0  0
 19 43  1  0  0  0  0
 20 44  1  0  0  0  0
 20 45  1  0  0  0  0
M  END
> <s_m_source_file>
AV-unprocessed.smi

> <i_m_source_file_index>
2390

> <i_lp_mmshare_version>
43012

> <i_f3d_flags>
0

> <s_epik_input>
W0NIM11jMVtjSF1bY0hdW2NIXWMobjEpW05IXUMoPU8pW05IXVtDQEhdKFtDSDNdKVtDQEhdKFtDSDNdKU4yW0NIMl1bQ0gyXU9bQ0gyXVtDSDJdMg==

> <s_epik_cmdline>
J2VwaWtfcHl0aG9uJywgJy1waCcsICc3LjAnLCAnLXRuJywgJzgnLCAnLW1hJywgJzIwMCcsICctbWV0YWxfYmluZGluZycsICctaW1hZScsICc8aW5maWxlLm1hZT4nLCAnLW9tYWUnLCAnPG91dGZpbGUubWFlPic=

> <r_epik_Ionization_Penalty>
0.266074

> <r_epik_Ionization_Penalty_Charging>
0

> <r_epik_Ionization_Penalty_Neutral>
0.266074

> <r_epik_State_Penalty>
0.257924

> <r_epik_Charging_Adjusted_Penalty>
0.257924

> <i_epik_Tot_Q>
0

> <i_epik_Tot_abs_Q>
0

> <r_epik_Metal_State_Penalty>
0.257919

> <b_epik_Metal_Only>
0

> <s_lp_Force_Field>
OPLS_2005

> <r_lp_Energy>
37.1524

> <b_lp_Chiralities_Consistent>
1

> <s_lp_Variant>
AV-unprocessed.smi:2390-1

> <Gold.Version>
5.8.1

> <Gold.Id.Protein>
6NUR|6NUR_protein|mol2

> <Gold.PLP.Fitness>
49.3229

> <Gold.PLP.PLP>
-41.7445

> <Gold.PLP.part.hbond>
-3.0000

> <Gold.PLP.part.metal>
0.0000

> <Gold.PLP.part.buried>
-6.1710

> <Gold.PLP.part.nonpolar>
-32.2893

> <Gold.PLP.part.repulsive>
0.3471

> <Gold.PLP.ligand.clash>
0.0000

> <Gold.PLP.ligand.torsion>
0.7197

> <Gold.PLP.Chemscore.Hbond>
2.9680

> <Gold.PLP.Chemscore.CHOScore>
0.0000

> <Gold.PLP.Chemscore.Metal>
0.0000

> <Gold.Chemscore.Hbonds>
donor molecule, donor type, donor heavy atom, donor atom, acceptor molecule, acceptor atom, score
      L1  H     7    28       P1  8028  1.00
      L1  H    10    29       P1  8028  0.98
      P1  H 10752 10764       L1    18  1.00

> <Gold.PLP.Chemscore.Internal.Correction>
0.1138

> <Gold.Rescore>
     Score         DG    S(hbond)    S(metal)    S(lipo)     H(rot)  DE(clash)    DE(int)     intcor
     18.10     -23.18       2.78        0.00     103.35       1.44       0.07       5.01       ----

> <Gold.Chemscore.Fitness>
18.0969

> <Gold.Chemscore.DG>
-23.1757

> <Gold.Chemscore.ZeroCoef>
-5.4800

> <Gold.Chemscore.Hbond>
2.7814

> <Gold.Chemscore.Metal>
0.0000

> <Gold.Chemscore.Lipo>
103.3454

> <Gold.Chemscore.Internal_Hbond>
0.0000

> <Gold.Chemscore.DEClash>
0.0698

> <Gold.Chemscore.DEInternal>
5.0090

> <Gold.Chemscore.Rot>
1.4396

> <Gold.Chemscore.Internal.Correction>
   9.000000E+99

> <Gold.Chemscore.Hbonds>
donor molecule, donor type, donor heavy atom, donor atom, acceptor molecule, acceptor atom, score
      L1  H     7    28       P1  8028  0.85
      L1  H    10    29       P1  8028  0.93
      P1  H 10752 10764       L1    18  0.89

> <Gold.Chemscore.Hbond.Weighted>
-9.2897

> <Gold.Chemscore.Metal.Weighted>
-0.0000

> <Gold.Chemscore.Lipo.Weighted>
-12.0914

> <Gold.Chemscore.Internal_Hbond.Weighted>
0.0000

> <Gold.Chemscore.DEClash.Weighted>
0.0698

> <Gold.Chemscore.DEInternal.Weighted>
5.0090

> <Gold.Chemscore.Rot.Weighted>
3.6855

> <Gold.Chemscore.Internal.Correction.Weighted>
   9.000000E+99

> <Gold.Protein.RotatedTorsions>
[ 6907 6896 6895 6894 ] final  155.53 input  -60.11 | X-H torsion
[ 7974 7965 7964 7962 ] final  -92.36 input  175.53 | X-H torsion
[ 8008 7997 7996 7995 ] final    8.24 input   59.86 | X-H torsion
[ 10167 10162 10161 10158 ] final -131.01 input  -65.29 | X-H torsion
[ 10718 10713 10712 10709 ] final   27.60 input   66.30 | X-H torsion
[ 10763 10752 10751 10750 ] final  -49.56 input  -60.55 | X-H torsion
[ 11005 11000 10999 10996 ] final   16.83 input  -57.11 | X-H torsion

> <Gold.Protein.ActiveResidues>
 VAL166  LYS551  ARG553  GLY616  TRP617  ASP618  TYR619  PRO620  LYS621  CYS622 
 ASP623  PHE694  ASN695  SER759  ASP760  ASP761  ALA762  ILE779  LEU786  VAL792 
 PHE793  MET794  SER795  GLU796  ALA797  LYS798  CYS799  TRP800  GLU811  SER814 

> <Gold.Protein.RotatedAtoms>
  152.0429  133.3985  159.4344 H   0  0  0  0  0  0  0  0  0  0  0  0  # atno 6907 bound_to 6896
  150.6874  134.3395  159.4871 H   0  0  0  0  0  0  0  0  0  0  0  0  # atno 6908 bound_to 6896
  152.1195  134.9215  160.0614 H   0  0  0  0  0  0  0  0  0  0  0  0  # atno 6909 bound_to 6896
  145.4008  140.9537  143.2288 H   0  0  0  0  0  0  0  0  0  0  0  0  # atno 7974 bound_to 7965
  154.7643  140.2790  155.6189 H   0  0  0  0  0  0  0  0  0  0  0  0  # atno 8008 bound_to 7997
  156.2922  140.2654  156.2357 H   0  0  0  0  0  0  0  0  0  0  0  0  # atno 8009 bound_to 7997
  154.9978  140.0373  157.2337 H   0  0  0  0  0  0  0  0  0  0  0  0  # atno 8010 bound_to 7997
  139.9233  143.6357  152.2548 H   0  0  0  0  0  0  0  0  0  0  0  0  # atno 10167 bound_to 10162
  157.2223  130.6985  149.6276 H   0  0  0  0  0  0  0  0  0  0  0  0  # atno 10718 bound_to 10713
  154.0960  135.6570  153.4860 H   0  0  0  0  0  0  0  0  0  0  0  0  # atno 10763 bound_to 10752
  153.0305  135.5214  154.7333 H   0  0  0  0  0  0  0  0  0  0  0  0  # atno 10764 bound_to 10752
  154.6471  135.2996  155.0001 H   0  0  0  0  0  0  0  0  0  0  0  0  # atno 10765 bound_to 10752
  140.4427  134.1305  155.7692 H   0  0  0  0  0  0  0  0  0  0  0  0  # atno 11005 bound_to 11000
  144.8375  139.5526  143.6915 LP  0  0  0  0  0  0  0  0  0  0  0  0  # atno 17320 bound_to 7965
  146.2752  139.6736  142.9268 LP  0  0  0  0  0  0  0  0  0  0  0  0  # atno 17321 bound_to 7965
  139.6843  144.7653  151.1552 LP  0  0  0  0  0  0  0  0  0  0  0  0  # atno 17342 bound_to 10162
  140.7656  143.5680  150.9027 LP  0  0  0  0  0  0  0  0  0  0  0  0  # atno 17343 bound_to 10162
  155.9681  130.4516  150.5740 LP  0  0  0  0  0  0  0  0  0  0  0  0  # atno 17370 bound_to 10713
  157.3563  131.0742  151.1673 LP  0  0  0  0  0  0  0  0  0  0  0  0  # atno 17371 bound_to 10713
  141.1698  133.8630  157.1604 LP  0  0  0  0  0  0  0  0  0  0  0  0  # atno 17394 bound_to 11000
  140.0059  135.0008  157.0291 LP  0  0  0  0  0  0  0  0  0  0  0  0  # atno 17395 bound_to 11000

$$$$
