AV-unprocessed.smi:2519|AV-procd|sdf|9903|dock4
  -GOLD-   2272013543D 1   1.00000     0.00000
 Structure written by MMmdl.
 43 44  0  0  0  0  0  0  0  0  1 V2000
  155.4842  140.0285  161.4773 C   0  0  0  0  0  0  0  0  0  0  0  0
  154.5671  141.0404  160.9767 N   0  0  0  0  0  0  0  0  0  0  0  0
  153.8916  140.9499  159.8191 C   0  0  0  0  0  0  0  0  0  0  0  0
  153.9806  139.9792  159.0657 O   0  0  0  0  0  0  0  0  0  0  0  0
  152.9932  142.1129  159.4841 C   0  0  0  0  0  0  0  0  0  0  0  0
  153.1053  143.3240  160.2029 C   0  0  0  0  0  0  0  0  0  0  0  0
  152.2485  144.3888  159.8723 C   0  0  0  0  0  0  0  0  0  0  0  0
  151.3108  144.2118  158.8384 C   0  0  0  0  0  0  0  0  0  0  0  0
  151.2540  142.9746  158.1618 C   0  0  0  0  0  0  0  0  0  0  0  0
  150.2808  142.8937  157.1318 N   0  0  0  0  0  0  0  0  0  0  0  0
  149.5965  141.8107  156.7118 C   0  0  0  0  0  0  0  0  0  0  0  0
  149.6740  140.6929  157.2191 O   0  0  0  0  0  0  0  0  0  0  0  0
  148.7832  142.0421  155.6648 N   0  0  0  0  0  0  0  0  0  0  0  0
  147.9028  141.1032  154.9608 C   0  0  2  0  0  0  0  0  0  0  0  0
  147.2986  141.7808  153.7160 C   0  0  0  0  0  0  0  0  0  0  0  0
  146.2671  142.8605  154.0855 C   0  0  0  0  0  0  0  0  0  0  0  0
  145.1678  142.2988  155.0007 C   0  0  0  0  0  0  0  0  0  0  0  0
  145.7566  141.6501  156.2709 C   0  0  1  0  0  0  0  0  0  0  0  0
  144.6574  141.0961  157.2003 C   0  0  0  0  0  0  0  0  0  0  0  0
  145.1896  140.5670  158.3023 F   0  0  0  0  0  0  0  0  0  0  0  0
  143.8216  142.0734  157.5518 F   0  0  0  0  0  0  0  0  0  0  0  0
  143.9548  140.1566  156.5669 F   0  0  0  0  0  0  0  0  0  0  0  0
  146.7846  140.5639  155.8818 C   0  0  0  0  0  0  0  0  0  0  0  0
  152.0847  141.9558  158.4906 N   0  0  0  0  0  0  0  0  0  0  0  0
  155.8412  140.3092  162.4683 H   0  0  0  0  0  0  0  0  0  0  0  0
  156.3475  139.9301  160.8182 H   0  0  0  0  0  0  0  0  0  0  0  0
  154.9919  139.0584  161.5547 H   0  0  0  0  0  0  0  0  0  0  0  0
  154.4350  141.8698  161.5386 H   0  0  0  0  0  0  0  0  0  0  0  0
  153.8308  143.4440  160.9943 H   0  0  0  0  0  0  0  0  0  0  0  0
  152.3091  145.3272  160.4035 H   0  0  0  0  0  0  0  0  0  0  0  0
  150.6454  145.0200  158.5711 H   0  0  0  0  0  0  0  0  0  0  0  0
  150.1021  143.7538  156.6350 H   0  0  0  0  0  0  0  0  0  0  0  0
  148.7578  142.9933  155.3266 H   0  0  0  0  0  0  0  0  0  0  0  0
  148.5067  140.2639  154.6116 H   0  0  0  0  0  0  0  0  0  0  0  0
  148.0876  142.2128  153.0991 H   0  0  0  0  0  0  0  0  0  0  0  0
  146.8132  141.0240  153.0985 H   0  0  0  0  0  0  0  0  0  0  0  0
  146.7651  143.6945  154.5815 H   0  0  0  0  0  0  0  0  0  0  0  0
  145.8195  143.2682  153.1789 H   0  0  0  0  0  0  0  0  0  0  0  0
  144.4814  143.1010  155.2728 H   0  0  0  0  0  0  0  0  0  0  0  0
  144.5791  141.5641  154.4501 H   0  0  0  0  0  0  0  0  0  0  0  0
  146.2839  142.4277  156.8259 H   0  0  0  0  0  0  0  0  0  0  0  0
  146.2688  139.7517  155.3679 H   0  0  0  0  0  0  0  0  0  0  0  0
  147.2152  140.1185  156.7786 H   0  0  0  0  0  0  0  0  0  0  0  0
  1  2  1  0  0  0  0
  1 25  1  0  0  0  0
  1 26  1  0  0  0  0
  1 27  1  0  0  0  0
  2  3  1  0  0  0  0
  2 28  1  0  0  0  0
  3  4  2  0  0  0  0
  3  5  1  0  0  0  0
  5 24  1  0  0  0  0
  5  6  2  0  0  0  0
  6  7  1  0  0  0  0
  6 29  1  0  0  0  0
  7  8  2  0  0  0  0
  7 30  1  0  0  0  0
  8  9  1  0  0  0  0
  8 31  1  0  0  0  0
  9 10  1  0  0  0  0
  9 24  2  0  0  0  0
 10 11  1  0  0  0  0
 10 32  1  0  0  0  0
 11 12  2  0  0  0  0
 11 13  1  0  0  0  0
 13 14  1  0  0  0  0
 13 33  1  0  0  0  0
 14 23  1  0  0  0  0
 14 15  1  0  0  0  0
 14 34  1  0  0  0  0
 15 16  1  0  0  0  0
 15 35  1  0  0  0  0
 15 36  1  0  0  0  0
 16 17  1  0  0  0  0
 16 37  1  0  0  0  0
 16 38  1  0  0  0  0
 17 18  1  0  0  0  0
 17 39  1  0  0  0  0
 17 40  1  0  0  0  0
 18 19  1  0  0  0  0
 18 23  1  0  0  0  0
 18 41  1  0  0  0  0
 19 20  1  0  0  0  0
 19 21  1  0  0  0  0
 19 22  1  0  0  0  0
 23 42  1  0  0  0  0
 23 43  1  0  0  0  0
M  END
> <s_m_source_file>
AV-unprocessed.smi

> <i_m_source_file_index>
2519

> <i_lp_mmshare_version>
43012

> <i_f3d_flags>
0

> <s_epik_input>
W0NIM11bTkhdQyg9TyljMVtjSF1bY0hdW2NIXWMobjEpW05IXUMoPU8pW05IXVtDQEBIXTJbQ0gyXVtDSDJdW0NIMl1bQ0BASF0oQyhGKShGKUYpW0NIMl0y

> <s_epik_cmdline>
J2VwaWtfcHl0aG9uJywgJy1waCcsICc3LjAnLCAnLXRuJywgJzgnLCAnLW1hJywgJzIwMCcsICctbWV0YWxfYmluZGluZycsICctaW1hZScsICc8aW5maWxlLm1hZT4nLCAnLW9tYWUnLCAnPG91dGZpbGUubWFlPic=

> <r_lp_tautomer_probability>
1

> <r_epik_Ionization_Penalty>
3.74915e-05

> <r_epik_Ionization_Penalty_Charging>
0

> <r_epik_Ionization_Penalty_Neutral>
3.74915e-05

> <r_epik_State_Penalty>
-0

> <r_epik_Charging_Adjusted_Penalty>
0

> <i_epik_Tot_Q>
0

> <i_epik_Tot_abs_Q>
0

> <r_epik_Metal_State_Penalty>
-0

> <b_epik_Metal_Only>
0

> <s_lp_Force_Field>
OPLS_2005

> <r_lp_Energy>
26.8043

> <b_lp_Chiralities_Consistent>
1

> <s_lp_Variant>
AV-unprocessed.smi:2519-1

> <Gold.Version>
5.8.1

> <Gold.Id.Protein>
6NUR|6NUR_protein|mol2

> <Gold.PLP.Fitness>
47.7069

> <Gold.PLP.PLP>
-39.4794

> <Gold.PLP.part.hbond>
-3.3892

> <Gold.PLP.part.metal>
0.0000

> <Gold.PLP.part.buried>
-7.0337

> <Gold.PLP.part.nonpolar>
-30.4519

> <Gold.PLP.part.repulsive>
0.1727

> <Gold.PLP.ligand.clash>
0.0000

> <Gold.PLP.ligand.torsion>
0.3187

> <Gold.PLP.Chemscore.Hbond>
2.9440

> <Gold.PLP.Chemscore.CHOScore>
0.0000

> <Gold.PLP.Chemscore.Metal>
0.0000

> <Gold.Chemscore.Hbonds>
donor molecule, donor type, donor heavy atom, donor atom, acceptor molecule, acceptor atom, score
      L1  H    10    32       P1  8028  0.94
      L1  H    13    33       P1  8028  1.00
      P1  H  7997  8008       L1     4  1.00

> <Gold.PLP.Chemscore.Internal.Correction>
0.0329

> <Gold.Rescore>
     Score         DG    S(hbond)    S(metal)    S(lipo)     H(rot)  DE(clash)    DE(int)     intcor
     20.46     -21.79       2.83        0.00      80.62       1.00       0.01       1.32       ----

> <Gold.Chemscore.Fitness>
20.4578

> <Gold.Chemscore.DG>
-21.7920

> <Gold.Chemscore.ZeroCoef>
-5.4800

> <Gold.Chemscore.Hbond>
2.8260

> <Gold.Chemscore.Metal>
0.0000

> <Gold.Chemscore.Lipo>
80.6249

> <Gold.Chemscore.Internal_Hbond>
0.0000

> <Gold.Chemscore.DEClash>
0.0139

> <Gold.Chemscore.DEInternal>
1.3203

> <Gold.Chemscore.Rot>
1.0000

> <Gold.Chemscore.Internal.Correction>
   9.000000E+99

> <Gold.Chemscore.Hbonds>
donor molecule, donor type, donor heavy atom, donor atom, acceptor molecule, acceptor atom, score
      L1  H    10    32       P1  8028  0.91
      L1  H    13    33       P1  8028  0.94
      P1  H  7997  8008       L1     4  0.89

> <Gold.Chemscore.Hbond.Weighted>
-9.4389

> <Gold.Chemscore.Metal.Weighted>
-0.0000

> <Gold.Chemscore.Lipo.Weighted>
-9.4331

> <Gold.Chemscore.Internal_Hbond.Weighted>
0.0000

> <Gold.Chemscore.DEClash.Weighted>
0.0139

> <Gold.Chemscore.DEInternal.Weighted>
1.3203

> <Gold.Chemscore.Rot.Weighted>
2.5600

> <Gold.Chemscore.Internal.Correction.Weighted>
   9.000000E+99

> <Gold.Protein.RotatedTorsions>
[ 6907 6896 6895 6894 ] final -165.54 input  -60.11 | X-H torsion
[ 7974 7965 7964 7962 ] final  -38.79 input  175.53 | X-H torsion
[ 8008 7997 7996 7995 ] final -112.36 input   59.86 | X-H torsion
[ 10167 10162 10161 10158 ] final   45.31 input  -65.29 | X-H torsion
[ 10718 10713 10712 10709 ] final   54.62 input   66.30 | X-H torsion
[ 10763 10752 10751 10750 ] final  -91.43 input  -60.55 | X-H torsion
[ 11005 11000 10999 10996 ] final   43.66 input  -57.11 | X-H torsion

> <Gold.Protein.ActiveResidues>
 VAL166  LYS551  ARG553  GLY616  TRP617  ASP618  TYR619  PRO620  LYS621  CYS622 
 ASP623  PHE694  ASN695  SER759  ASP760  ASP761  ALA762  ILE779  LEU786  VAL792 
 PHE793  MET794  SER795  GLU796  ALA797  LYS798  CYS799  TRP800  GLU811  SER814 

> <Gold.Protein.RotatedAtoms>
  151.4294  133.3675  159.2766 H   0  0  0  0  0  0  0  0  0  0  0  0  # atno 6907 bound_to 6896
  150.9236  134.8655  159.7516 H   0  0  0  0  0  0  0  0  0  0  0  0  # atno 6908 bound_to 6896
  152.4994  134.4233  159.9540 H   0  0  0  0  0  0  0  0  0  0  0  0  # atno 6909 bound_to 6896
  146.0455  140.6552  142.9067 H   0  0  0  0  0  0  0  0  0  0  0  0  # atno 7974 bound_to 7965
  155.0039  140.0394  157.2372 H   0  0  0  0  0  0  0  0  0  0  0  0  # atno 8008 bound_to 7997
  154.7519  140.2768  155.6262 H   0  0  0  0  0  0  0  0  0  0  0  0  # atno 8009 bound_to 7997
  156.2887  140.2645  156.2275 H   0  0  0  0  0  0  0  0  0  0  0  0  # atno 8010 bound_to 7997
  140.3254  144.2654  150.6176 H   0  0  0  0  0  0  0  0  0  0  0  0  # atno 10167 bound_to 10162
  157.5273  130.8606  149.8639 H   0  0  0  0  0  0  0  0  0  0  0  0  # atno 10718 bound_to 10713
  154.6759  135.5268  153.8199 H   0  0  0  0  0  0  0  0  0  0  0  0  # atno 10763 bound_to 10752
  153.0532  135.6540  154.0651 H   0  0  0  0  0  0  0  0  0  0  0  0  # atno 10764 bound_to 10752
  154.0545  135.2966  155.3315 H   0  0  0  0  0  0  0  0  0  0  0  0  # atno 10765 bound_to 10752
  140.1624  134.4324  155.8309 H   0  0  0  0  0  0  0  0  0  0  0  0  # atno 11005 bound_to 11000
  144.7096  140.3986  143.7091 LP  0  0  0  0  0  0  0  0  0  0  0  0  # atno 17320 bound_to 7965
  145.6813  139.1619  143.2699 LP  0  0  0  0  0  0  0  0  0  0  0  0  # atno 17321 bound_to 7965
  140.5445  143.2217  151.8029 LP  0  0  0  0  0  0  0  0  0  0  0  0  # atno 17342 bound_to 10162
  139.4866  144.4557  151.9601 LP  0  0  0  0  0  0  0  0  0  0  0  0  # atno 17343 bound_to 10162
  156.0396  130.3742  150.1470 LP  0  0  0  0  0  0  0  0  0  0  0  0  # atno 17370 bound_to 10713
  156.9656  130.9818  151.3470 LP  0  0  0  0  0  0  0  0  0  0  0  0  # atno 17371 bound_to 10713
  141.2210  133.6919  156.7618 LP  0  0  0  0  0  0  0  0  0  0  0  0  # atno 17394 bound_to 11000
  140.2473  134.8567  157.3633 LP  0  0  0  0  0  0  0  0  0  0  0  0  # atno 17395 bound_to 11000

$$$$
