#       Name:                AV-unprocessed.smi:195
#       Creating user name   scv26
#       Creation time:       Thu Mar 26 19:37:23 2020


#       File generated by GOLD software.
#

@<TRIPOS>MOLECULE
AV-unprocessed.smi:195
    56    59     1
SMALL
NO_CHARGES


@<TRIPOS>ATOM
      1 ****        -3.6117   4.2112  -3.1831 N.1            1 S1                 0.0000
      2 ****        -3.6801   3.1655  -2.6929 C.1            1 S1                 0.0000
      3 ****        -3.7659   1.8358  -2.0687 C.3            1 S1                 0.0000
      4 ****        -4.6558   1.8039  -0.8226 C.3            1 S1                 0.0000
      5 ****        -5.9761   1.8681  -1.3199 O.3            1 S1                 0.0000
      6 ****        -4.3982   0.6911   0.1980 C.3            1 S1                 0.0000
      7 ****        -3.6935   1.6761   1.0148 N.3            1 S1                 0.0000
      8 ****        -2.2688   1.5797   0.9290 C.ar           1 S1                 0.0000
      9 ****        -1.5188   2.6422   0.5282 N.ar           1 S1                 0.0000
     10 ****        -0.1875   2.5610   0.4492 C.ar           1 S1                 0.0000
     11 ****         0.6017   1.5247   0.7322 N.ar           1 S1                 0.0000
     12 ****        -0.1310   0.4576   1.1572 C.ar           1 S1                 0.0000
     13 ****        -1.5483   0.4035   1.2865 C.ar           1 S1                 0.0000
     14 ****        -1.9291  -0.8479   1.7578 N.2            1 S1                 0.0000
     15 ****        -0.8043  -1.4969   1.8914 C.2            1 S1                 0.0000
     16 ****         0.3242  -0.7879   1.5494 N.pl3          1 S1                 0.0000
     17 ****         1.6981  -1.2564   1.5948 C.3            1 S1                 0.0000
     18 ****         2.2181  -1.6822   0.2073 C.3            1 S1                 0.0000
     19 ****         1.4227  -2.7474  -0.2779 O.3            1 S1                 0.0000
     20 ****         3.6893  -2.1364   0.2461 C.3            1 S1                 0.0000
     21 ****         4.2609  -2.5417  -1.1148 C.3            1 S1                 0.0000
     22 ****         5.7392  -2.3041  -0.9125 C.3            1 S1                 0.0000
     23 ****         5.7303  -1.0266  -0.0805 C.3            1 S1                 0.0000
     24 ****         4.5299  -1.0705   0.6866 O.3            1 S1                 0.0000
     25 ****        -4.3435   2.7838   0.3135 C.3            1 S1                 0.0000
     26 ****        -4.1182   1.1314  -2.8229 H              1 S1                 0.0000
     27 ****        -2.7463   1.5375  -1.8261 H              1 S1                 0.0000
     28 ****        -6.5540   1.8464  -0.5724 H              1 S1                 0.0000
     29 ****        -5.3041   0.3316   0.6878 H              1 S1                 0.0000
     30 ****        -3.7902  -0.1304  -0.1831 H              1 S1                 0.0000
     31 ****         0.3163   3.4552   0.1124 H              1 S1                 0.0000
     32 ****        -0.7674  -2.5184   2.2412 H              1 S1                 0.0000
     33 ****         2.3139  -0.4531   2.0009 H              1 S1                 0.0000
     34 ****         1.7632  -2.0853   2.3011 H              1 S1                 0.0000
     35 ****         2.1196  -0.8459  -0.4864 H              1 S1                 0.0000
     36 ****         1.5239  -3.4856   0.3035 H              1 S1                 0.0000
     37 ****         3.8126  -2.9646   0.9462 H              1 S1                 0.0000
     38 ****         4.0276  -3.5719  -1.3852 H              1 S1                 0.0000
     39 ****         3.8838  -1.8879  -1.9027 H              1 S1                 0.0000
     40 ****         6.1764  -3.1243  -0.3414 H              1 S1                 0.0000
     41 ****         6.2920  -2.2024  -1.8466 H              1 S1                 0.0000
     42 ****         6.6102  -0.9385   0.5574 H              1 S1                 0.0000
     43 ****         5.6931  -0.1506  -0.7295 H              1 S1                 0.0000
     44 ****        -3.7186   3.6309   0.0319 H              1 S1                 0.0000
     45 ****        -5.2363   3.1176   0.8443 H              1 S1                 0.0000
     46 ****        -3.5526   5.1151  -3.6068 LP             1 S1                 0.0000
     47 ****        -6.1568   1.0863  -1.9166 LP             1 S1                 0.0000
     48 ****        -6.1092   2.7164  -1.8325 LP             1 S1                 0.0000
     49 ****        -3.7565   1.6622   2.0127 LP             1 S1                 0.0000
     50 ****        -1.9728   3.5003   0.2882 LP             1 S1                 0.0000
     51 ****         1.5978   1.5299   0.6444 LP             1 S1                 0.0000
     52 ****        -2.8538  -1.1760   1.9505 LP             1 S1                 0.0000
     53 ****         1.7213  -2.9994  -1.1984 LP             1 S1                 0.0000
     54 ****         0.4631  -2.4673  -0.3038 LP             1 S1                 0.0000
     55 ****         4.7605  -1.2105   1.6495 LP             1 S1                 0.0000
     56 ****         4.0423  -0.2035   0.5833 LP             1 S1                 0.0000
@<TRIPOS>BOND
    1    1    2 3     
    2    2    3 1     
    3    3    4 1     
    4    3   26 1     
    5    3   27 1     
    6    4   25 1     
    7    4    5 1     
    8    4    6 1     
    9    5   28 1     
   10    6    7 1     
   11    6   29 1     
   12    6   30 1     
   13    7    8 1     
   14    7   25 1     
   15    8   13 ar    
   16    8    9 ar    
   17    9   10 ar    
   18   10   11 ar    
   19   10   31 1     
   20   11   12 ar    
   21   12   16 1     
   22   12   13 ar    
   23   13   14 1     
   24   14   15 2     
   25   15   16 1     
   26   15   32 1     
   27   16   17 1     
   28   17   18 1     
   29   17   33 1     
   30   17   34 1     
   31   18   19 1     
   32   18   20 1     
   33   18   35 1     
   34   19   36 1     
   35   20   24 1     
   36   20   21 1     
   37   20   37 1     
   38   21   22 1     
   39   21   38 1     
   40   21   39 1     
   41   22   23 1     
   42   22   40 1     
   43   22   41 1     
   44   23   24 1     
   45   23   42 1     
   46   23   43 1     
   47   25   44 1     
   48   25   45 1     
   49    1   46 1     
   50    5   47 1     
   51    5   48 1     
   52    7   49 1     
   53    9   50 1     
   54   11   51 1     
   55   14   52 1     
   56   19   53 1     
   57   19   54 1     
   58   24   55 1     
   59   24   56 1     
@<TRIPOS>SUBSTRUCTURE
      1 S1             1
@<TRIPOS>SET
LONE_PAIRS      STATIC     ATOMS    <user>   **** ""
11 46 47 48 49 50 51 52 53 54 55 56
DONOR_HYDROGENS      STATIC     ATOMS    <user>   **** ""
2 28 36
ATOM$BLUE        STATIC     ATOMS    COLORGROUP SYSTEM
11 46 47 48 49 50 51 52 53 54 55 56
ATOM$RED        STATIC     ATOMS    COLORGROUP SYSTEM
2 28 36
