AV-unprocessed.smi:176|AV-procd|sdf|1435|dock8
  -GOLD-   2262019223D 1   1.00000     0.00000
 Structure written by MMmdl.
 57 61  0  0  0  0  0  0  0  0  1 V2000
  142.9052  144.8534  153.7319 O   0  0  0  0  0  0  0  0  0  0  0  0
  142.5343  144.8429  155.0963 C   0  0  0  0  0  0  0  0  0  0  0  0
  142.7512  143.4721  155.7647 C   0  0  0  0  0  0  0  0  0  0  0  0
  141.3896  142.7538  155.6553 C   0  0  0  0  0  0  0  0  0  0  0  0
  140.9507  142.5770  154.3237 O   0  0  0  0  0  0  0  0  0  0  0  0
  143.9900  142.6695  155.3035 C   0  0  0  0  0  0  0  0  0  0  0  0
  144.3243  142.3331  156.7623 C   0  0  0  0  0  0  0  0  0  0  0  0
  145.6810  142.2807  157.2245 N   0  0  0  0  0  0  0  0  0  0  0  0
  146.1613  142.7266  158.4355 C   0  0  0  0  0  0  0  0  0  0  0  0
  147.4502  142.6064  158.6018 N   0  0  0  0  0  0  0  0  0  0  0  0
  147.8992  142.0643  157.4030 C   0  0  0  0  0  0  0  0  0  0  0  0
  149.1787  141.6918  156.8998 C   0  0  0  0  0  0  0  0  0  0  0  0
  150.3166  141.7919  157.6348 N   0  0  0  0  0  0  0  0  0  0  0  0
  150.6508  140.6781  158.5224 C   0  0  0  0  0  0  0  0  0  0  0  0
  152.1131  140.7694  158.9870 C   0  0  0  0  0  0  0  0  0  0  0  0
  152.4506  142.1389  159.6173 C   0  0  2  0  0  0  0  0  0  0  0  0
  153.8597  142.1647  159.7630 O   0  0  0  0  0  0  0  0  0  0  0  0
  151.8324  142.3119  161.0268 C   0  0  0  0  0  0  0  0  0  0  0  0
  152.0994  143.7069  161.6201 C   0  0  0  0  0  0  0  0  0  0  0  0
  151.6324  144.8214  160.6723 C   0  0  0  0  0  0  0  0  0  0  0  0
  152.2688  144.6753  159.2795 C   0  0  0  0  0  0  0  0  0  0  0  0
  152.0223  143.2830  158.6577 C   0  0  2  0  0  0  0  0  0  0  0  0
  150.5556  143.1181  158.2014 C   0  0  0  0  0  0  0  0  0  0  0  0
  149.2329  141.2164  155.6262 N   0  0  0  0  0  0  0  0  0  0  0  0
  148.1183  141.1022  154.8984 C   0  0  0  0  0  0  0  0  0  0  0  0
  146.8637  141.3969  155.2423 N   0  0  0  0  0  0  0  0  0  0  0  0
  146.8002  141.8779  156.5169 C   0  0  0  0  0  0  0  0  0  0  0  0
  143.4029  143.4898  157.1659 C   0  0  0  0  0  0  0  0  0  0  0  0
  142.4570  144.1468  153.2925 H   0  0  0  0  0  0  0  0  0  0  0  0
  143.1130  145.6159  155.6030 H   0  0  0  0  0  0  0  0  0  0  0  0
  141.4878  145.1434  155.1574 H   0  0  0  0  0  0  0  0  0  0  0  0
  141.4364  141.7682  156.1198 H   0  0  0  0  0  0  0  0  0  0  0  0
  140.6157  143.3107  156.1846 H   0  0  0  0  0  0  0  0  0  0  0  0
  141.6880  142.3089  153.7967 H   0  0  0  0  0  0  0  0  0  0  0  0
  143.7664  141.7988  154.6864 H   0  0  0  0  0  0  0  0  0  0  0  0
  144.7571  143.2859  154.8334 H   0  0  0  0  0  0  0  0  0  0  0  0
  143.8818  141.3772  157.0445 H   0  0  0  0  0  0  0  0  0  0  0  0
  145.5227  143.1422  159.2012 H   0  0  0  0  0  0  0  0  0  0  0  0
  149.9785  140.6821  159.3810 H   0  0  0  0  0  0  0  0  0  0  0  0
  150.5002  139.7303  158.0039 H   0  0  0  0  0  0  0  0  0  0  0  0
  152.3315  139.9619  159.6869 H   0  0  0  0  0  0  0  0  0  0  0  0
  152.7540  140.6000  158.1201 H   0  0  0  0  0  0  0  0  0  0  0  0
  154.1093  143.0031  160.1203 H   0  0  0  0  0  0  0  0  0  0  0  0
  150.7540  142.1578  160.9826 H   0  0  0  0  0  0  0  0  0  0  0  0
  152.2151  141.5466  161.7033 H   0  0  0  0  0  0  0  0  0  0  0  0
  151.5930  143.8024  162.5809 H   0  0  0  0  0  0  0  0  0  0  0  0
  153.1643  143.8244  161.8248 H   0  0  0  0  0  0  0  0  0  0  0  0
  150.5455  144.8028  160.5910 H   0  0  0  0  0  0  0  0  0  0  0  0
  151.8879  145.7942  161.0930 H   0  0  0  0  0  0  0  0  0  0  0  0
  151.8922  145.4542  158.6155 H   0  0  0  0  0  0  0  0  0  0  0  0
  153.3426  144.8480  159.3622 H   0  0  0  0  0  0  0  0  0  0  0  0
  152.6338  143.2162  157.7560 H   0  0  0  0  0  0  0  0  0  0  0  0
  150.3161  143.9027  157.4848 H   0  0  0  0  0  0  0  0  0  0  0  0
  149.8734  143.2540  159.0408 H   0  0  0  0  0  0  0  0  0  0  0  0
  148.2505  140.7164  153.8984 H   0  0  0  0  0  0  0  0  0  0  0  0
  143.9603  144.4032  157.3778 H   0  0  0  0  0  0  0  0  0  0  0  0
  142.7264  143.2545  157.9882 H   0  0  0  0  0  0  0  0  0  0  0  0
  1  2  1  0  0  0  0
  1 29  1  0  0  0  0
  2  3  1  0  0  0  0
  2 30  1  0  0  0  0
  2 31  1  0  0  0  0
  3 28  1  0  0  0  0
  3  4  1  0  0  0  0
  3  6  1  0  0  0  0
  4  5  1  0  0  0  0
  4 32  1  0  0  0  0
  4 33  1  0  0  0  0
  5 34  1  0  0  0  0
  6  7  1  0  0  0  0
  6 35  1  0  0  0  0
  6 36  1  0  0  0  0
  7  8  1  0  0  0  0
  7 28  1  0  0  0  0
  7 37  1  0  0  0  0
  8 27  1  0  0  0  0
  8  9  1  0  0  0  0
  9 10  2  0  0  0  0
  9 38  1  0  0  0  0
 10 11  1  0  0  0  0
 11 27  2  0  0  0  0
 11 12  1  0  0  0  0
 12 13  1  0  0  0  0
 12 24  2  0  0  0  0
 13 23  1  0  0  0  0
 13 14  1  0  0  0  0
 14 15  1  0  0  0  0
 14 39  1  0  0  0  0
 14 40  1  0  0  0  0
 15 16  1  0  0  0  0
 15 41  1  0  0  0  0
 15 42  1  0  0  0  0
 16 22  1  0  0  0  0
 16 17  1  0  0  0  0
 16 18  1  0  0  0  0
 17 43  1  0  0  0  0
 18 19  1  0  0  0  0
 18 44  1  0  0  0  0
 18 45  1  0  0  0  0
 19 20  1  0  0  0  0
 19 46  1  0  0  0  0
 19 47  1  0  0  0  0
 20 21  1  0  0  0  0
 20 48  1  0  0  0  0
 20 49  1  0  0  0  0
 21 22  1  0  0  0  0
 21 50  1  0  0  0  0
 21 51  1  0  0  0  0
 22 23  1  0  0  0  0
 22 52  1  0  0  0  0
 23 53  1  0  0  0  0
 23 54  1  0  0  0  0
 24 25  1  0  0  0  0
 25 26  2  0  0  0  0
 25 55  1  0  0  0  0
 26 27  1  0  0  0  0
 28 56  1  0  0  0  0
 28 57  1  0  0  0  0
M  END
> <s_m_source_file>
AV-unprocessed.smi

> <i_m_source_file_index>
176

> <i_lp_mmshare_version>
43012

> <i_f3d_flags>
0

> <s_epik_input>
W09IXVtDSDJdQzEoW0NIMl1bT0hdKVtDSDJdW0NIXShbQ0gyXTEpbihbY0hdbjIpYyhjMjMpbltjSF1uYzNOKFtDSDJdW0NIMl00KVtDSDJdW0NAQEhdKFtDQF00NVtPSF0pW0NIMl1bQ0gyXVtDSDJdW0NIMl01

> <s_epik_cmdline>
J2VwaWtfcHl0aG9uJywgJy1waCcsICc3LjAnLCAnLXRuJywgJzgnLCAnLW1hJywgJzIwMCcsICctbWV0YWxfYmluZGluZycsICctaW1hZScsICc8aW5maWxlLm1hZT4nLCAnLW9tYWUnLCAnPG91dGZpbGUubWFlPic=

> <r_lp_tautomer_probability>
1

> <r_epik_Ionization_Penalty>
0.00642876

> <r_epik_Ionization_Penalty_Charging>
0

> <r_epik_Ionization_Penalty_Neutral>
0.00642876

> <r_epik_State_Penalty>
0.00467813

> <r_epik_Charging_Adjusted_Penalty>
0.00467813

> <i_epik_Tot_Q>
0

> <i_epik_Tot_abs_Q>
0

> <r_epik_Metal_State_Penalty>
-0

> <b_epik_Metal_Only>
0

> <s_lp_Force_Field>
OPLS_2005

> <r_lp_Energy>
56.0126

> <b_lp_Chiralities_Consistent>
1

> <s_lp_Variant>
AV-unprocessed.smi:176-3

> <Gold.Version>
5.8.1

> <Gold.Id.Protein>
6NUR|6NUR_protein|mol2

> <Gold.PLP.Fitness>
48.0643

> <Gold.PLP.PLP>
-42.4201

> <Gold.PLP.part.hbond>
-3.6492

> <Gold.PLP.part.metal>
0.0000

> <Gold.PLP.part.buried>
-4.1145

> <Gold.PLP.part.nonpolar>
-36.5249

> <Gold.PLP.part.repulsive>
0.4787

> <Gold.PLP.ligand.clash>
0.0000

> <Gold.PLP.ligand.torsion>
1.7718

> <Gold.PLP.Chemscore.Hbond>
2.8149

> <Gold.PLP.Chemscore.CHOScore>
0.0000

> <Gold.PLP.Chemscore.Metal>
0.0000

> <Gold.Chemscore.Hbonds>
donor molecule, donor type, donor heavy atom, donor atom, acceptor molecule, acceptor atom, score
      L1  H     1    29       P1 10174  0.93
      L1  H     5    34       P1 10174  0.94

> <Gold.PLP.Chemscore.Internal.Correction>
0.7431

> <Gold.Rescore>
     Score         DG    S(hbond)    S(metal)    S(lipo)     H(rot)  DE(clash)    DE(int)     intcor
     13.11     -15.95       1.99        0.00     113.97       3.71       0.56       2.29       ----

> <Gold.Chemscore.Fitness>
13.1057

> <Gold.Chemscore.DG>
-15.9542

> <Gold.Chemscore.ZeroCoef>
-5.4800

> <Gold.Chemscore.Hbond>
1.9879

> <Gold.Chemscore.Metal>
0.0000

> <Gold.Chemscore.Lipo>
113.9705

> <Gold.Chemscore.Internal_Hbond>
0.0000

> <Gold.Chemscore.DEClash>
0.5603

> <Gold.Chemscore.DEInternal>
2.2882

> <Gold.Chemscore.Rot>
3.7109

> <Gold.Chemscore.Internal.Correction>
   9.000000E+99

> <Gold.Chemscore.Hbonds>
donor molecule, donor type, donor heavy atom, donor atom, acceptor molecule, acceptor atom, score
      L1  H     1    29       P1 10174  0.85
      L1  H     5    34       P1 10174  0.84

> <Gold.Chemscore.Hbond.Weighted>
-6.6396

> <Gold.Chemscore.Metal.Weighted>
-0.0000

> <Gold.Chemscore.Lipo.Weighted>
-13.3346

> <Gold.Chemscore.Internal_Hbond.Weighted>
0.0000

> <Gold.Chemscore.DEClash.Weighted>
0.5603

> <Gold.Chemscore.DEInternal.Weighted>
2.2882

> <Gold.Chemscore.Rot.Weighted>
9.5000

> <Gold.Chemscore.Internal.Correction.Weighted>
   9.000000E+99

> <Gold.Protein.RotatedTorsions>
[ 6907 6896 6895 6894 ] final  166.21 input  -60.11 | X-H torsion
[ 7974 7965 7964 7962 ] final   -9.09 input  175.53 | X-H torsion
[ 8008 7997 7996 7995 ] final -137.02 input   59.86 | X-H torsion
[ 10167 10162 10161 10158 ] final -128.06 input  -65.29 | X-H torsion
[ 10718 10713 10712 10709 ] final  158.28 input   66.30 | X-H torsion
[ 10763 10752 10751 10750 ] final  144.92 input  -60.55 | X-H torsion
[ 11005 11000 10999 10996 ] final   85.91 input  -57.11 | X-H torsion

> <Gold.Protein.ActiveResidues>
 VAL166  LYS551  ARG553  GLY616  TRP617  ASP618  TYR619  PRO620  LYS621  CYS622 
 ASP623  PHE694  ASN695  SER759  ASP760  ASP761  ALA762  ILE779  LEU786  VAL792 
 PHE793  MET794  SER795  GLU796  ALA797  LYS798  CYS799  TRP800  GLU811  SER814 

> <Gold.Protein.RotatedAtoms>
  151.8825  133.3498  159.3770 H   0  0  0  0  0  0  0  0  0  0  0  0  # atno 6907 bound_to 6896
  150.7124  134.5004  159.5568 H   0  0  0  0  0  0  0  0  0  0  0  0  # atno 6908 bound_to 6896
  152.2559  134.8085  160.0489 H   0  0  0  0  0  0  0  0  0  0  0  0  # atno 6909 bound_to 6896
  146.2262  140.2564  142.8349 H   0  0  0  0  0  0  0  0  0  0  0  0  # atno 7974 bound_to 7965
  155.4049  140.0508  157.3035 H   0  0  0  0  0  0  0  0  0  0  0  0  # atno 8008 bound_to 7997
  154.4973  140.2143  155.9380 H   0  0  0  0  0  0  0  0  0  0  0  0  # atno 8009 bound_to 7997
  156.1422  140.3152  155.8518 H   0  0  0  0  0  0  0  0  0  0  0  0  # atno 8010 bound_to 7997
  139.9543  143.6021  152.2465 H   0  0  0  0  0  0  0  0  0  0  0  0  # atno 10167 bound_to 10162
  157.1800  131.0630  151.2137 H   0  0  0  0  0  0  0  0  0  0  0  0  # atno 10718 bound_to 10713
  153.9969  135.2927  155.3406 H   0  0  0  0  0  0  0  0  0  0  0  0  # atno 10763 bound_to 10752
  154.7182  135.5120  153.8774 H   0  0  0  0  0  0  0  0  0  0  0  0  # atno 10764 bound_to 10752
  153.0784  135.6671  154.0215 H   0  0  0  0  0  0  0  0  0  0  0  0  # atno 10765 bound_to 10752
  139.8959  134.8319  156.2647 H   0  0  0  0  0  0  0  0  0  0  0  0  # atno 11005 bound_to 11000
  144.9372  140.8040  143.5652 LP  0  0  0  0  0  0  0  0  0  0  0  0  # atno 17320 bound_to 7965
  145.2513  139.2030  143.4941 LP  0  0  0  0  0  0  0  0  0  0  0  0  # atno 17321 bound_to 7965
  139.6604  144.7662  151.1974 LP  0  0  0  0  0  0  0  0  0  0  0  0  # atno 17342 bound_to 10162
  140.7573  143.6019  150.8691 LP  0  0  0  0  0  0  0  0  0  0  0  0  # atno 17343 bound_to 10162
  157.3961  130.7308  149.6733 LP  0  0  0  0  0  0  0  0  0  0  0  0  # atno 17370 bound_to 10713
  155.9726  130.4133  150.4076 LP  0  0  0  0  0  0  0  0  0  0  0  0  # atno 17371 bound_to 10713
  141.0140  133.7079  156.1158 LP  0  0  0  0  0  0  0  0  0  0  0  0  # atno 17394 bound_to 11000
  140.7328  134.4236  157.5564 LP  0  0  0  0  0  0  0  0  0  0  0  0  # atno 17395 bound_to 11000

$$$$
