AV-unprocessed.smi:2945|AV-procd|sdf|11276|dock9
  -GOLD-   2272016173D 1   1.00000     0.00000
 Structure written by MMmdl.
 36 37  0  0  0  0  0  0  0  0  1 V2000
  149.0457  123.9340  150.4800 C   0  0  0  0  0  0  0  0  0  0  0  0
  148.5594  125.2383  151.0119 C   0  0  0  0  0  0  0  0  0  0  0  0
  148.4951  126.4947  150.4781 C   0  0  0  0  0  0  0  0  0  0  0  0
  147.9237  127.2598  151.5293 C   0  0  0  0  0  0  0  0  0  0  0  0
  147.6867  128.6491  151.3710 N   0  0  0  0  0  0  0  0  0  0  0  0
  146.6203  129.3519  151.7893 C   0  0  0  0  0  0  0  0  0  0  0  0
  145.6525  128.8810  152.3873 O   0  0  0  0  0  0  0  0  0  0  0  0
  146.7412  130.6494  151.4706 N   0  0  0  0  0  0  0  0  0  0  0  0
  145.7611  131.6988  151.7499 C   0  0  2  0  0  0  0  0  0  0  0  0
  144.5346  131.4806  150.8419 C   0  0  0  0  0  0  0  0  0  0  0  0
  143.4849  132.5857  151.0257 C   0  0  0  0  0  0  0  0  0  0  0  0
  144.1000  133.9701  150.7836 C   0  0  0  0  0  0  0  0  0  0  0  0
  145.3093  134.2023  151.7013 C   0  0  0  0  0  0  0  0  0  0  0  0
  146.3801  133.1044  151.5349 C   0  0  1  0  0  0  0  0  0  0  0  0
  147.5755  133.3761  152.4655 C   0  0  0  0  0  0  0  0  0  0  0  0
  147.6638  126.5366  152.6078 N   0  0  0  0  0  0  0  0  0  0  0  0
  148.0701  125.2372  152.2817 O   0  0  0  0  0  0  0  0  0  0  0  0
  149.3082  124.0168  149.4253 H   0  0  0  0  0  0  0  0  0  0  0  0
  148.2782  123.1659  150.5779 H   0  0  0  0  0  0  0  0  0  0  0  0
  149.9298  123.6008  151.0236 H   0  0  0  0  0  0  0  0  0  0  0  0
  148.8067  126.8116  149.4940 H   0  0  0  0  0  0  0  0  0  0  0  0
  148.4070  129.1630  150.8858 H   0  0  0  0  0  0  0  0  0  0  0  0
  147.5775  130.9372  150.9842 H   0  0  0  0  0  0  0  0  0  0  0  0
  145.4214  131.6300  152.7851 H   0  0  0  0  0  0  0  0  0  0  0  0
  144.8482  131.4543  149.7971 H   0  0  0  0  0  0  0  0  0  0  0  0
  144.0826  130.5105  151.0521 H   0  0  0  0  0  0  0  0  0  0  0  0
  142.6510  132.4246  150.3420 H   0  0  0  0  0  0  0  0  0  0  0  0
  143.0734  132.5372  152.0348 H   0  0  0  0  0  0  0  0  0  0  0  0
  144.4075  134.0582  149.7408 H   0  0  0  0  0  0  0  0  0  0  0  0
  143.3507  134.7443  150.9521 H   0  0  0  0  0  0  0  0  0  0  0  0
  145.7422  135.1805  151.4884 H   0  0  0  0  0  0  0  0  0  0  0  0
  144.9744  134.2346  152.7390 H   0  0  0  0  0  0  0  0  0  0  0  0
  146.7471  133.1579  150.5086 H   0  0  0  0  0  0  0  0  0  0  0  0
  147.2845  133.2999  153.5137 H   0  0  0  0  0  0  0  0  0  0  0  0
  147.9781  134.3763  152.3045 H   0  0  0  0  0  0  0  0  0  0  0  0
  148.3892  132.6714  152.2945 H   0  0  0  0  0  0  0  0  0  0  0  0
  1  2  1  0  0  0  0
  1 18  1  0  0  0  0
  1 19  1  0  0  0  0
  1 20  1  0  0  0  0
  2 17  1  0  0  0  0
  2  3  2  0  0  0  0
  3  4  1  0  0  0  0
  3 21  1  0  0  0  0
  4  5  1  0  0  0  0
  4 16  2  0  0  0  0
  5  6  1  0  0  0  0
  5 22  1  0  0  0  0
  6  7  2  0  0  0  0
  6  8  1  0  0  0  0
  8  9  1  0  0  0  0
  8 23  1  0  0  0  0
  9 14  1  0  0  0  0
  9 10  1  0  0  0  0
  9 24  1  0  0  0  0
 10 11  1  0  0  0  0
 10 25  1  0  0  0  0
 10 26  1  0  0  0  0
 11 12  1  0  0  0  0
 11 27  1  0  0  0  0
 11 28  1  0  0  0  0
 12 13  1  0  0  0  0
 12 29  1  0  0  0  0
 12 30  1  0  0  0  0
 13 14  1  0  0  0  0
 13 31  1  0  0  0  0
 13 32  1  0  0  0  0
 14 15  1  0  0  0  0
 14 33  1  0  0  0  0
 15 34  1  0  0  0  0
 15 35  1  0  0  0  0
 15 36  1  0  0  0  0
 16 17  1  0  0  0  0
M  END
> <s_m_source_file>
AV-unprocessed.smi

> <i_m_source_file_index>
2945

> <i_lp_mmshare_version>
43012

> <i_f3d_flags>
0

> <s_epik_input>
W0NIM11jMVtjSF1jKG5vMSlbTkhdQyg9TylbTkhdW0NAQEhdMltDSDJdW0NIMl1bQ0gyXVtDSDJdW0NASF0yW0NIM10=

> <s_epik_cmdline>
J2VwaWtfcHl0aG9uJywgJy1waCcsICc3LjAnLCAnLXRuJywgJzgnLCAnLW1hJywgJzIwMCcsICctbWV0YWxfYmluZGluZycsICctaW1hZScsICc8aW5maWxlLm1hZT4nLCAnLW9tYWUnLCAnPG91dGZpbGUubWFlPic=

> <r_lp_tautomer_probability>
1

> <r_epik_Ionization_Penalty>
2.357e-05

> <r_epik_Ionization_Penalty_Charging>
0

> <r_epik_Ionization_Penalty_Neutral>
2.357e-05

> <r_epik_State_Penalty>
-0

> <r_epik_Charging_Adjusted_Penalty>
0

> <i_epik_Tot_Q>
0

> <i_epik_Tot_abs_Q>
0

> <r_epik_Metal_State_Penalty>
-0

> <b_epik_Metal_Only>
0

> <s_lp_Force_Field>
OPLS_2005

> <r_lp_Energy>
8.52615

> <b_lp_Chiralities_Consistent>
1

> <s_lp_Variant>
AV-unprocessed.smi:2945-1

> <Gold.Version>
5.8.1

> <Gold.Id.Protein>
6NUR|6NUR_protein|mol2

> <Gold.PLP.Fitness>
42.1458

> <Gold.PLP.PLP>
-38.1499

> <Gold.PLP.part.hbond>
-3.6630

> <Gold.PLP.part.metal>
0.0000

> <Gold.PLP.part.buried>
-5.9329

> <Gold.PLP.part.nonpolar>
-28.6345

> <Gold.PLP.part.repulsive>
0.3074

> <Gold.PLP.ligand.clash>
0.0000

> <Gold.PLP.ligand.torsion>
0.4400

> <Gold.PLP.Chemscore.Hbond>
1.6240

> <Gold.PLP.Chemscore.CHOScore>
0.0000

> <Gold.PLP.Chemscore.Metal>
0.0000

> <Gold.Chemscore.Hbonds>
donor molecule, donor type, donor heavy atom, donor atom, acceptor molecule, acceptor atom, score
      L1  H     5    22       P1 10747  0.58
      L1  H     8    23       P1 10747  1.00

> <Gold.PLP.Chemscore.Internal.Correction>
0.0040

> <Gold.Rescore>
     Score         DG    S(hbond)    S(metal)    S(lipo)     H(rot)  DE(clash)    DE(int)     intcor
     13.90     -14.53       1.00        0.00      70.74       1.00       0.11       0.53       ----

> <Gold.Chemscore.Fitness>
13.8952

> <Gold.Chemscore.DG>
-14.5312

> <Gold.Chemscore.ZeroCoef>
-5.4800

> <Gold.Chemscore.Hbond>
0.9983

> <Gold.Chemscore.Metal>
0.0000

> <Gold.Chemscore.Lipo>
70.7421

> <Gold.Chemscore.Internal_Hbond>
0.0000

> <Gold.Chemscore.DEClash>
0.1077

> <Gold.Chemscore.DEInternal>
0.5283

> <Gold.Chemscore.Rot>
1.0000

> <Gold.Chemscore.Internal.Correction>
   9.000000E+99

> <Gold.Chemscore.Hbonds>
donor molecule, donor type, donor heavy atom, donor atom, acceptor molecule, acceptor atom, score
      L1  H     5    22       P1 10747  0.04
      L1  H     8    23       P1 10747  0.96

> <Gold.Chemscore.Hbond.Weighted>
-3.3344

> <Gold.Chemscore.Metal.Weighted>
-0.0000

> <Gold.Chemscore.Lipo.Weighted>
-8.2768

> <Gold.Chemscore.Internal_Hbond.Weighted>
0.0000

> <Gold.Chemscore.DEClash.Weighted>
0.1077

> <Gold.Chemscore.DEInternal.Weighted>
0.5283

> <Gold.Chemscore.Rot.Weighted>
2.5600

> <Gold.Chemscore.Internal.Correction.Weighted>
   9.000000E+99

> <Gold.Protein.RotatedTorsions>
[ 6907 6896 6895 6894 ] final  -33.48 input  -60.11 | X-H torsion
[ 7974 7965 7964 7962 ] final  176.24 input  175.53 | X-H torsion
[ 8008 7997 7996 7995 ] final -179.72 input   59.86 | X-H torsion
[ 10167 10162 10161 10158 ] final   33.18 input  -65.29 | X-H torsion
[ 10718 10713 10712 10709 ] final   12.35 input   66.30 | X-H torsion
[ 10763 10752 10751 10750 ] final   -9.24 input  -60.55 | X-H torsion
[ 11005 11000 10999 10996 ] final  -24.20 input  -57.11 | X-H torsion

> <Gold.Protein.ActiveResidues>
 VAL166  LYS551  ARG553  GLY616  TRP617  ASP618  TYR619  PRO620  LYS621  CYS622 
 ASP623  PHE694  ASN695  SER759  ASP760  ASP761  ALA762  ILE779  LEU786  VAL792 
 PHE793  MET794  SER795  GLU796  ALA797  LYS798  CYS799  TRP800  GLU811  SER814 

> <Gold.Protein.RotatedAtoms>
  151.0650  134.9761  159.8279 H   0  0  0  0  0  0  0  0  0  0  0  0  # atno 6907 bound_to 6896
  152.5401  134.2370  159.8857 H   0  0  0  0  0  0  0  0  0  0  0  0  # atno 6908 bound_to 6896
  151.2392  133.4365  159.2640 H   0  0  0  0  0  0  0  0  0  0  0  0  # atno 6909 bound_to 6896
  144.7187  140.0067  143.6440 H   0  0  0  0  0  0  0  0  0  0  0  0  # atno 7974 bound_to 7965
  156.0337  140.1288  157.0230 H   0  0  0  0  0  0  0  0  0  0  0  0  # atno 8008 bound_to 7997
  154.4361  140.1044  156.6207 H   0  0  0  0  0  0  0  0  0  0  0  0  # atno 8009 bound_to 7997
  155.5769  140.3467  155.4532 H   0  0  0  0  0  0  0  0  0  0  0  0  # atno 8010 bound_to 7997
  140.4431  144.1159  150.6177 H   0  0  0  0  0  0  0  0  0  0  0  0  # atno 10167 bound_to 10162
  157.0088  130.6109  149.5705 H   0  0  0  0  0  0  0  0  0  0  0  0  # atno 10718 bound_to 10713
  153.4519  135.7015  153.6103 H   0  0  0  0  0  0  0  0  0  0  0  0  # atno 10763 bound_to 10752
  153.4434  135.3775  155.2242 H   0  0  0  0  0  0  0  0  0  0  0  0  # atno 10764 bound_to 10752
  154.8728  135.3979  154.3933 H   0  0  0  0  0  0  0  0  0  0  0  0  # atno 10765 bound_to 10752
  140.8823  133.7645  156.0317 H   0  0  0  0  0  0  0  0  0  0  0  0  # atno 11005 bound_to 11000
  146.0292  139.3319  143.0766 LP  0  0  0  0  0  0  0  0  0  0  0  0  # atno 17320 bound_to 7965
  145.8474  140.9548  143.0767 LP  0  0  0  0  0  0  0  0  0  0  0  0  # atno 17321 bound_to 7965
  140.4296  143.2574  151.9613 LP  0  0  0  0  0  0  0  0  0  0  0  0  # atno 17342 bound_to 10162
  139.4791  144.5756  151.8016 LP  0  0  0  0  0  0  0  0  0  0  0  0  # atno 17343 bound_to 10162
  156.0143  130.5237  150.8088 LP  0  0  0  0  0  0  0  0  0  0  0  0  # atno 17370 bound_to 10713
  157.5336  131.0937  150.9923 LP  0  0  0  0  0  0  0  0  0  0  0  0  # atno 17371 bound_to 10713
  140.8446  134.3026  157.5300 LP  0  0  0  0  0  0  0  0  0  0  0  0  # atno 17394 bound_to 11000
  139.8721  134.9435  156.3854 LP  0  0  0  0  0  0  0  0  0  0  0  0  # atno 17395 bound_to 11000

$$$$
