AV-unprocessed.smi:148|AV-procd|sdf|1214|dock7
  -GOLD-   2262018393D 1   1.00000     0.00000
 Structure written by MMmdl.
 63 67  0  0  0  0  0  0  0  0  1 V2000
  148.7793  132.7584  152.9606 O   0  0  0  0  0  0  0  0  0  0  0  0
  149.3164  132.7540  154.2669 C   0  0  0  0  0  0  0  0  0  0  0  0
  149.1216  134.1245  154.9581 C   0  0  2  0  0  0  0  0  0  0  0  0
  150.2578  134.4184  155.9728 C   0  0  0  0  0  0  0  0  0  0  0  0
  150.3045  135.8153  156.3676 N   0  0  0  0  0  0  0  0  0  0  0  0
  149.7882  136.3586  157.5217 C   0  0  0  0  0  0  0  0  0  0  0  0
  149.9424  137.6483  157.6458 N   0  0  0  0  0  0  0  0  0  0  0  0
  150.6177  138.0225  156.4898 C   0  0  0  0  0  0  0  0  0  0  0  0
  151.0858  139.2609  155.9644 C   0  0  0  0  0  0  0  0  0  0  0  0
  150.9313  140.4662  156.5597 N   0  0  0  0  0  0  0  0  0  0  0  0
  151.9501  140.6282  157.5982 C   0  0  0  0  0  0  0  0  0  0  0  0
  151.9778  142.0612  158.1464 C   0  0  0  0  0  0  0  0  0  0  0  0
  150.5858  142.4727  158.6365 C   0  0  0  0  0  0  0  0  0  0  0  0
  149.5702  142.3052  157.4994 C   0  0  0  0  0  0  0  0  0  0  0  0
  149.5621  140.8547  156.9500 C   0  0  1  0  0  0  0  0  0  0  0  0
  148.4962  140.6316  155.8275 C   0  0  1  0  0  0  0  0  0  0  0  0
  147.0606  141.0252  156.2303 C   0  0  0  0  0  0  0  0  0  0  0  0
  146.3715  141.5450  154.9586 C   0  0  0  0  0  0  0  0  0  0  0  0
  147.3531  141.2941  153.8127 C   0  0  0  0  0  0  0  0  0  0  0  0
  148.7267  141.3403  154.4798 C   0  0  2  0  0  0  0  0  0  0  0  0
  149.6936  140.6940  153.6793 O   0  0  0  0  0  0  0  0  0  0  0  0
  151.7488  139.2392  154.7819 N   0  0  0  0  0  0  0  0  0  0  0  0
  151.9172  138.0847  154.1307 C   0  0  0  0  0  0  0  0  0  0  0  0
  151.5157  136.8612  154.4824 N   0  0  0  0  0  0  0  0  0  0  0  0
  150.8680  136.8776  155.6827 C   0  0  0  0  0  0  0  0  0  0  0  0
  147.6979  134.2661  155.5654 C   0  0  2  0  0  0  0  0  0  0  0  0
  146.5448  133.8009  154.6736 C   0  0  0  0  0  0  0  0  0  0  0  0
  145.5499  134.9610  154.7141 C   0  0  0  0  0  0  0  0  0  0  0  0
  145.8665  135.6448  155.9156 O   0  0  0  0  0  0  0  0  0  0  0  0
  147.2814  135.6789  155.9974 C   0  0  0  0  0  0  0  0  0  0  0  0
  149.4882  132.6563  152.3440 H   0  0  0  0  0  0  0  0  0  0  0  0
  148.8529  131.9559  154.8471 H   0  0  0  0  0  0  0  0  0  0  0  0
  150.3730  132.5044  154.1745 H   0  0  0  0  0  0  0  0  0  0  0  0
  149.1978  134.8829  154.1772 H   0  0  0  0  0  0  0  0  0  0  0  0
  150.1428  133.8282  156.8809 H   0  0  0  0  0  0  0  0  0  0  0  0
  151.2284  134.1513  155.5560 H   0  0  0  0  0  0  0  0  0  0  0  0
  149.2822  135.7645  158.2689 H   0  0  0  0  0  0  0  0  0  0  0  0
  151.7475  139.9289  158.4109 H   0  0  0  0  0  0  0  0  0  0  0  0
  152.9345  140.3750  157.2008 H   0  0  0  0  0  0  0  0  0  0  0  0
  152.7008  142.1367  158.9588 H   0  0  0  0  0  0  0  0  0  0  0  0
  152.3116  142.7463  157.3659 H   0  0  0  0  0  0  0  0  0  0  0  0
  150.2935  141.8597  159.4900 H   0  0  0  0  0  0  0  0  0  0  0  0
  150.5988  143.5069  158.9816 H   0  0  0  0  0  0  0  0  0  0  0  0
  148.5847  142.5966  157.8594 H   0  0  0  0  0  0  0  0  0  0  0  0
  149.8316  143.0093  156.7101 H   0  0  0  0  0  0  0  0  0  0  0  0
  149.2830  140.2102  157.7835 H   0  0  0  0  0  0  0  0  0  0  0  0
  148.4233  139.5659  155.6088 H   0  0  0  0  0  0  0  0  0  0  0  0
  146.5327  140.1626  156.6390 H   0  0  0  0  0  0  0  0  0  0  0  0
  147.0371  141.7955  156.9996 H   0  0  0  0  0  0  0  0  0  0  0  0
  145.4089  141.0638  154.7828 H   0  0  0  0  0  0  0  0  0  0  0  0
  146.1883  142.6159  155.0561 H   0  0  0  0  0  0  0  0  0  0  0  0
  147.1724  140.3026  153.3941 H   0  0  0  0  0  0  0  0  0  0  0  0
  147.2514  142.0192  153.0047 H   0  0  0  0  0  0  0  0  0  0  0  0
  149.0103  142.3826  154.6171 H   0  0  0  0  0  0  0  0  0  0  0  0
  149.3509  140.6116  152.8020 H   0  0  0  0  0  0  0  0  0  0  0  0
  152.4458  138.1520  153.1913 H   0  0  0  0  0  0  0  0  0  0  0  0
  147.6468  133.6400  156.4574 H   0  0  0  0  0  0  0  0  0  0  0  0
  146.8380  133.5595  153.6526 H   0  0  0  0  0  0  0  0  0  0  0  0
  146.0925  132.9027  155.0961 H   0  0  0  0  0  0  0  0  0  0  0  0
  145.7054  135.6307  153.8668 H   0  0  0  0  0  0  0  0  0  0  0  0
  144.5120  134.6279  154.7010 H   0  0  0  0  0  0  0  0  0  0  0  0
  147.6171  135.9244  157.0050 H   0  0  0  0  0  0  0  0  0  0  0  0
  147.6484  136.4504  155.3217 H   0  0  0  0  0  0  0  0  0  0  0  0
  1  2  1  0  0  0  0
  1 31  1  0  0  0  0
  2  3  1  0  0  0  0
  2 32  1  0  0  0  0
  2 33  1  0  0  0  0
  3  4  1  0  0  0  0
  3 26  1  0  0  0  0
  3 34  1  0  0  0  0
  4  5  1  0  0  0  0
  4 35  1  0  0  0  0
  4 36  1  0  0  0  0
  5 25  1  0  0  0  0
  5  6  1  0  0  0  0
  6  7  2  0  0  0  0
  6 37  1  0  0  0  0
  7  8  1  0  0  0  0
  8 25  2  0  0  0  0
  8  9  1  0  0  0  0
  9 10  1  0  0  0  0
  9 22  2  0  0  0  0
 10 15  1  0  0  0  0
 10 11  1  0  0  0  0
 11 12  1  0  0  0  0
 11 38  1  0  0  0  0
 11 39  1  0  0  0  0
 12 13  1  0  0  0  0
 12 40  1  0  0  0  0
 12 41  1  0  0  0  0
 13 14  1  0  0  0  0
 13 42  1  0  0  0  0
 13 43  1  0  0  0  0
 14 15  1  0  0  0  0
 14 44  1  0  0  0  0
 14 45  1  0  0  0  0
 15 16  1  0  0  0  0
 15 46  1  0  0  0  0
 16 20  1  0  0  0  0
 16 17  1  0  0  0  0
 16 47  1  0  0  0  0
 17 18  1  0  0  0  0
 17 48  1  0  0  0  0
 17 49  1  0  0  0  0
 18 19  1  0  0  0  0
 18 50  1  0  0  0  0
 18 51  1  0  0  0  0
 19 20  1  0  0  0  0
 19 52  1  0  0  0  0
 19 53  1  0  0  0  0
 20 21  1  0  0  0  0
 20 54  1  0  0  0  0
 21 55  1  0  0  0  0
 22 23  1  0  0  0  0
 23 24  2  0  0  0  0
 23 56  1  0  0  0  0
 24 25  1  0  0  0  0
 26 30  1  0  0  0  0
 26 27  1  0  0  0  0
 26 57  1  0  0  0  0
 27 28  1  0  0  0  0
 27 58  1  0  0  0  0
 27 59  1  0  0  0  0
 28 29  1  0  0  0  0
 28 60  1  0  0  0  0
 28 61  1  0  0  0  0
 29 30  1  0  0  0  0
 30 62  1  0  0  0  0
 30 63  1  0  0  0  0
M  END
> <s_m_source_file>
AV-unprocessed.smi

> <i_m_source_file_index>
148

> <i_lp_mmshare_version>
43012

> <i_f3d_flags>
0

> <s_epik_input>
W0NIMl0xT1tDSDJdW0NIMl1bQ0BIXTFbQ0BIXShbQ0gyXVtPSF0pW0NIMl1uKFtjSF1uMiljKGMyMyluW2NIXW5jM040W0NIMl1bQ0gyXVtDSDJdW0NIMl1bQ0BIXTRbQ0BASF01W0NIMl1bQ0gyXVtDSDJdW0NASF01W09IXQ==

> <s_epik_cmdline>
J2VwaWtfcHl0aG9uJywgJy1waCcsICc3LjAnLCAnLXRuJywgJzgnLCAnLW1hJywgJzIwMCcsICctbWV0YWxfYmluZGluZycsICctaW1hZScsICc8aW5maWxlLm1hZT4nLCAnLW9tYWUnLCAnPG91dGZpbGUubWFlPic=

> <r_lp_tautomer_probability>
1

> <r_epik_Ionization_Penalty>
0.00556303

> <r_epik_Ionization_Penalty_Charging>
0

> <r_epik_Ionization_Penalty_Neutral>
0.00556303

> <r_epik_State_Penalty>
0.00401767

> <r_epik_Charging_Adjusted_Penalty>
0.00401767

> <i_epik_Tot_Q>
0

> <i_epik_Tot_abs_Q>
0

> <r_epik_Metal_State_Penalty>
-0

> <b_epik_Metal_Only>
0

> <s_lp_Force_Field>
OPLS_2005

> <r_lp_Energy>
68.8384

> <b_lp_Chiralities_Consistent>
1

> <s_lp_Variant>
AV-unprocessed.smi:148-13

> <Gold.Version>
5.8.1

> <Gold.Id.Protein>
6NUR|6NUR_protein|mol2

> <Gold.PLP.Fitness>
45.7020

> <Gold.PLP.PLP>
-38.6193

> <Gold.PLP.part.hbond>
-5.4525

> <Gold.PLP.part.metal>
0.0000

> <Gold.PLP.part.buried>
-6.5019

> <Gold.PLP.part.nonpolar>
-26.5000

> <Gold.PLP.part.repulsive>
0.5266

> <Gold.PLP.ligand.clash>
0.0000

> <Gold.PLP.ligand.torsion>
1.1600

> <Gold.PLP.Chemscore.Hbond>
3.0000

> <Gold.PLP.Chemscore.CHOScore>
0.0000

> <Gold.PLP.Chemscore.Metal>
0.0000

> <Gold.Chemscore.Hbonds>
donor molecule, donor type, donor heavy atom, donor atom, acceptor molecule, acceptor atom, score
      L1  H    21    55       P1  7957  0.94
      P1  H  7989  7998       L1    22  0.91
      P1  H 10752 10764       L1    24  1.00

> <Gold.PLP.Chemscore.Internal.Correction>
0.4027

> <Gold.Rescore>
     Score         DG    S(hbond)    S(metal)    S(lipo)     H(rot)  DE(clash)    DE(int)     intcor
     10.48     -14.57       2.47        0.00      79.97       3.32       0.31       3.78       ----

> <Gold.Chemscore.Fitness>
10.4797

> <Gold.Chemscore.DG>
-14.5729

> <Gold.Chemscore.ZeroCoef>
-5.4800

> <Gold.Chemscore.Hbond>
2.4661

> <Gold.Chemscore.Metal>
0.0000

> <Gold.Chemscore.Lipo>
79.9674

> <Gold.Chemscore.Internal_Hbond>
0.0000

> <Gold.Chemscore.DEClash>
0.3094

> <Gold.Chemscore.DEInternal>
3.7838

> <Gold.Chemscore.Rot>
3.3203

> <Gold.Chemscore.Internal.Correction>
   9.000000E+99

> <Gold.Chemscore.Hbonds>
donor molecule, donor type, donor heavy atom, donor atom, acceptor molecule, acceptor atom, score
      L1  H    21    55       P1  7957  0.92
      P1  H  7989  7998       L1    22  0.68
      P1  H 10752 10764       L1    24  0.68

> <Gold.Chemscore.Hbond.Weighted>
-8.2368

> <Gold.Chemscore.Metal.Weighted>
-0.0000

> <Gold.Chemscore.Lipo.Weighted>
-9.3562

> <Gold.Chemscore.Internal_Hbond.Weighted>
0.0000

> <Gold.Chemscore.DEClash.Weighted>
0.3094

> <Gold.Chemscore.DEInternal.Weighted>
3.7838

> <Gold.Chemscore.Rot.Weighted>
8.5000

> <Gold.Chemscore.Internal.Correction.Weighted>
   9.000000E+99

> <Gold.Protein.RotatedTorsions>
[ 6907 6896 6895 6894 ] final  -84.70 input  -60.11 | X-H torsion
[ 7974 7965 7964 7962 ] final  179.84 input  175.53 | X-H torsion
[ 8008 7997 7996 7995 ] final   -8.57 input   59.86 | X-H torsion
[ 10167 10162 10161 10158 ] final -125.29 input  -65.29 | X-H torsion
[ 10718 10713 10712 10709 ] final -118.77 input   66.30 | X-H torsion
[ 10763 10752 10751 10750 ] final  -80.17 input  -60.55 | X-H torsion
[ 11005 11000 10999 10996 ] final  -89.73 input  -57.11 | X-H torsion

> <Gold.Protein.ActiveResidues>
 VAL166  LYS551  ARG553  GLY616  TRP617  ASP618  TYR619  PRO620  LYS621  CYS622 
 ASP623  PHE694  ASN695  SER759  ASP760  ASP761  ALA762  ILE779  LEU786  VAL792 
 PHE793  MET794  SER795  GLU796  ALA797  LYS798  CYS799  TRP800  GLU811  SER814 

> <Gold.Protein.RotatedAtoms>
  150.6874  134.3318  159.4830 H   0  0  0  0  0  0  0  0  0  0  0  0  # atno 6907 bound_to 6896
  152.1182  134.9222  160.0573 H   0  0  0  0  0  0  0  0  0  0  0  0  # atno 6908 bound_to 6896
  152.0438  133.3954  159.4385 H   0  0  0  0  0  0  0  0  0  0  0  0  # atno 6909 bound_to 6896
  144.7142  140.0609  143.6432 H   0  0  0  0  0  0  0  0  0  0  0  0  # atno 7974 bound_to 7965
  154.5728  140.2377  155.8166 H   0  0  0  0  0  0  0  0  0  0  0  0  # atno 8008 bound_to 7997
  156.2120  140.3023  155.9712 H   0  0  0  0  0  0  0  0  0  0  0  0  # atno 8009 bound_to 7997
  155.2681  140.0417  157.2994 H   0  0  0  0  0  0  0  0  0  0  0  0  # atno 8010 bound_to 7997
  139.9837  143.5715  152.2368 H   0  0  0  0  0  0  0  0  0  0  0  0  # atno 10167 bound_to 10162
  156.1131  130.6264  150.9333 H   0  0  0  0  0  0  0  0  0  0  0  0  # atno 10718 bound_to 10713
  154.5479  135.5670  153.6896 H   0  0  0  0  0  0  0  0  0  0  0  0  # atno 10763 bound_to 10752
  152.9981  135.6243  154.2414 H   0  0  0  0  0  0  0  0  0  0  0  0  # atno 10764 bound_to 10752
  154.2348  135.2864  155.2856 H   0  0  0  0  0  0  0  0  0  0  0  0  # atno 10765 bound_to 10752
  141.1579  133.7648  156.9637 H   0  0  0  0  0  0  0  0  0  0  0  0  # atno 11005 bound_to 11000
  145.9865  139.2981  143.1010 LP  0  0  0  0  0  0  0  0  0  0  0  0  # atno 17320 bound_to 7965
  145.8952  140.9278  143.0531 LP  0  0  0  0  0  0  0  0  0  0  0  0  # atno 17321 bound_to 7965
  139.6391  144.7653  151.2377 LP  0  0  0  0  0  0  0  0  0  0  0  0  # atno 17342 bound_to 10162
  140.7480  143.6348  150.8389 LP  0  0  0  0  0  0  0  0  0  0  0  0  # atno 17343 bound_to 10162
  157.6313  131.0921  150.8435 LP  0  0  0  0  0  0  0  0  0  0  0  0  # atno 17370 bound_to 10713
  156.8543  130.5091  149.5309 LP  0  0  0  0  0  0  0  0  0  0  0  0  # atno 17371 bound_to 10713
  140.1176  134.9437  157.2156 LP  0  0  0  0  0  0  0  0  0  0  0  0  # atno 17394 bound_to 11000
  140.3113  134.3020  155.7266 LP  0  0  0  0  0  0  0  0  0  0  0  0  # atno 17395 bound_to 11000

$$$$
