#       Name:                AV-unprocessed.smi:901
#       Creating user name   scv26
#       Creation time:       Fri Mar 27 01:57:58 2020


#       File generated by GOLD software.
#

@<TRIPOS>MOLECULE
AV-unprocessed.smi:901
    48    49     1
SMALL
NO_CHARGES


@<TRIPOS>ATOM
      1 ****        -4.1472   0.2855   4.1232 C.3            1 S1                 0.0000
      2 ****        -2.9878  -0.1139   3.2321 C.2            1 S1                 0.0000
      3 ****        -1.6754   0.5787   3.5558 C.3            1 S1                 0.0000
      4 ****        -3.1379  -1.0121   2.2395 C.2            1 S1                 0.0000
      5 ****        -2.0953  -1.4792   1.2871 C.3            1 S1                 0.0000
      6 ****        -1.3909  -0.5186   0.3443 C.3            1 S1                 0.0000
      7 ****         0.0748  -0.7044   0.0968 C.2            1 S1                 0.0000
      8 ****         0.6765  -1.7364   0.3944 O.2            1 S1                 0.0000
      9 ****         0.6517   0.3737  -0.4640 N.am           1 S1                 0.0000
     10 ****         2.0080   0.5623  -0.8363 C.2            1 S1                 0.0000
     11 ****         3.0679  -0.3782  -0.6644 C.2            1 S1                 0.0000
     12 ****         4.1526   0.2759  -1.1744 C.2            1 S1                 0.0000
     13 ****         3.7254   1.5144  -1.6098 N.pl3          1 S1                 0.0000
     14 ****         4.5060   2.5698  -2.2304 C.3            1 S1                 0.0000
     15 ****         4.7041   2.3048  -3.7238 C.2            1 S1                 0.0000
     16 ****         5.7724   1.5864  -4.0797 N.am           1 S1                 0.0000
     17 ****         3.9030   2.7426  -4.5466 O.2            1 S1                 0.0000
     18 ****         2.4023   1.6918  -1.3989 N.2            1 S1                 0.0000
     19 ****        -2.3795  -1.5427  -0.2040 C.3            1 S1                 0.0000
     20 ****        -1.9484  -2.7810  -0.9819 C.3            1 S1                 0.0000
     21 ****        -3.6856  -1.0173  -0.7813 C.3            1 S1                 0.0000
     22 ****        -3.9241   0.0476   5.1636 H              1 S1                 0.0000
     23 ****        -5.0654  -0.2338   3.8462 H              1 S1                 0.0000
     24 ****        -4.3286   1.3580   4.0477 H              1 S1                 0.0000
     25 ****        -1.7616   1.6502   3.3746 H              1 S1                 0.0000
     26 ****        -0.8434   0.2005   2.9635 H              1 S1                 0.0000
     27 ****        -1.4240   0.4301   4.6062 H              1 S1                 0.0000
     28 ****        -4.1107  -1.4607   2.1006 H              1 S1                 0.0000
     29 ****        -1.5255  -2.3086   1.7025 H              1 S1                 0.0000
     30 ****        -1.7344   0.5154   0.3483 H              1 S1                 0.0000
     31 ****         0.0416   1.1557  -0.6526 H              1 S1                 0.0000
     32 ****         3.0551  -1.3706  -0.2406 H              1 S1                 0.0000
     33 ****         5.1830  -0.0346  -1.2653 H              1 S1                 0.0000
     34 ****         4.0024   3.5275  -2.0881 H              1 S1                 0.0000
     35 ****         5.4703   2.6375  -1.7252 H              1 S1                 0.0000
     36 ****         5.9470   1.3872  -5.0537 H              1 S1                 0.0000
     37 ****         6.4048   1.2462  -3.3695 H              1 S1                 0.0000
     38 ****        -1.6133  -2.5020  -1.9812 H              1 S1                 0.0000
     39 ****        -2.7815  -3.4775  -1.0790 H              1 S1                 0.0000
     40 ****        -1.1401  -3.3117  -0.4804 H              1 S1                 0.0000
     41 ****        -3.5697  -0.8008  -1.8436 H              1 S1                 0.0000
     42 ****        -3.9956  -0.0990  -0.2817 H              1 S1                 0.0000
     43 ****        -4.4790  -1.7554  -0.6608 H              1 S1                 0.0000
     44 ****         0.1856  -2.4962   0.8206 LP             1 S1                 0.0000
     45 ****         1.6562  -1.8149   0.2099 LP             1 S1                 0.0000
     46 ****         3.1144   3.2765  -4.2416 LP             1 S1                 0.0000
     47 ****         4.0398   2.5649  -5.5212 LP             1 S1                 0.0000
     48 ****         1.8479   2.4946  -1.6184 LP             1 S1                 0.0000
@<TRIPOS>BOND
    1    1    2 1     
    2    1   22 1     
    3    1   23 1     
    4    1   24 1     
    5    2    3 1     
    6    2    4 2     
    7    3   25 1     
    8    3   26 1     
    9    3   27 1     
   10    4    5 1     
   11    4   28 1     
   12    5   19 1     
   13    5    6 1     
   14    5   29 1     
   15    6    7 1     
   16    6   19 1     
   17    6   30 1     
   18    7    8 2     
   19    7    9 am    
   20    9   10 1     
   21    9   31 1     
   22   10   18 2     
   23   10   11 1     
   24   11   12 2     
   25   11   32 1     
   26   12   13 1     
   27   12   33 1     
   28   13   14 1     
   29   13   18 1     
   30   14   15 1     
   31   14   34 1     
   32   14   35 1     
   33   15   16 am    
   34   15   17 2     
   35   16   36 1     
   36   16   37 1     
   37   19   20 1     
   38   19   21 1     
   39   20   38 1     
   40   20   39 1     
   41   20   40 1     
   42   21   41 1     
   43   21   42 1     
   44   21   43 1     
   45    8   44 1     
   46    8   45 1     
   47   17   46 1     
   48   17   47 1     
   49   18   48 1     
@<TRIPOS>SUBSTRUCTURE
      1 S1             1
@<TRIPOS>SET
LONE_PAIRS      STATIC     ATOMS    <user>   **** ""
5 44 45 46 47 48
DONOR_HYDROGENS      STATIC     ATOMS    <user>   **** ""
3 31 36 37
ATOM$BLUE        STATIC     ATOMS    COLORGROUP SYSTEM
5 44 45 46 47 48
ATOM$RED        STATIC     ATOMS    COLORGROUP SYSTEM
3 31 36 37
