AV-unprocessed.smi:69|AV-procd|sdf|646|dock5
  -GOLD-   2262016543D 1   1.00000     0.00000
 Structure written by MMmdl.
 32 34  0  0  0  0  0  0  0  0  1 V2000
  145.3988  133.7204  154.0607 N   0  0  0  0  0  0  0  0  0  0  0  0
  145.3040  135.0250  153.7698 C   0  0  0  0  0  0  0  0  0  0  0  0
  144.4482  135.4050  152.7922 N   0  0  0  0  0  0  0  0  0  0  0  0
  144.3351  136.7011  152.4843 C   0  0  0  0  0  0  0  0  0  0  0  0
  144.9707  137.7456  153.0213 N   0  0  0  0  0  0  0  0  0  0  0  0
  145.8323  137.3612  154.0081 C   0  0  0  0  0  0  0  0  0  0  0  0
  146.0559  136.0239  154.4385 C   0  0  0  0  0  0  0  0  0  0  0  0
  146.9986  136.0054  155.4575 N   0  0  0  0  0  0  0  0  0  0  0  0
  147.3117  137.2633  155.6174 C   0  0  0  0  0  0  0  0  0  0  0  0
  146.6527  138.1482  154.7918 N   0  0  0  0  0  0  0  0  0  0  0  0
  146.7927  139.6391  154.7539 C   0  0  1  0  0  0  0  0  0  0  0  0
  147.6288  140.0331  155.7955 O   0  0  0  0  0  0  0  0  0  0  0  0
  148.3972  141.1539  155.3758 C   0  0  1  0  0  0  0  0  0  0  0  0
  149.6272  141.3495  156.2795 C   0  0  0  0  0  0  0  0  0  0  0  0
  150.3251  142.5172  155.9023 O   0  0  0  0  0  0  0  0  0  0  0  0
  148.6972  140.8397  153.9023 C   0  0  1  0  0  0  0  0  0  0  0  0
  149.8355  140.0040  153.7785 O   0  0  0  0  0  0  0  0  0  0  0  0
  147.4111  140.1580  153.4376 C   0  0  1  0  0  0  0  0  0  0  0  0
  147.6169  139.1863  152.4241 O   0  0  0  0  0  0  0  0  0  0  0  0
  145.7830  140.0171  154.9224 H   0  0  0  0  0  0  0  0  0  0  0  0
  147.7609  142.0405  155.4100 H   0  0  0  0  0  0  0  0  0  0  0  0
  148.8919  141.7484  153.3319 H   0  0  0  0  0  0  0  0  0  0  0  0
  146.7301  140.9144  153.0452 H   0  0  0  0  0  0  0  0  0  0  0  0
  146.0292  133.4119  154.7870 H   0  0  0  0  0  0  0  0  0  0  0  0
  144.8368  133.0500  153.5570 H   0  0  0  0  0  0  0  0  0  0  0  0
  143.6350  136.9361  151.6965 H   0  0  0  0  0  0  0  0  0  0  0  0
  148.0349  137.5838  156.3531 H   0  0  0  0  0  0  0  0  0  0  0  0
  149.3434  141.4008  157.3311 H   0  0  0  0  0  0  0  0  0  0  0  0
  150.3143  140.5103  156.1668 H   0  0  0  0  0  0  0  0  0  0  0  0
  149.6995  143.2164  155.7887 H   0  0  0  0  0  0  0  0  0  0  0  0
  149.7245  139.4626  153.0116 H   0  0  0  0  0  0  0  0  0  0  0  0
  148.3886  139.4237  151.9331 H   0  0  0  0  0  0  0  0  0  0  0  0
  1  2  1  0  0  0  0
  1 24  1  0  0  0  0
  1 25  1  0  0  0  0
  2  7  1  0  0  0  0
  2  3  2  0  0  0  0
  3  4  1  0  0  0  0
  4  5  2  0  0  0  0
  4 26  1  0  0  0  0
  5  6  1  0  0  0  0
  6 10  1  0  0  0  0
  6  7  2  0  0  0  0
  7  8  1  0  0  0  0
  8  9  2  0  0  0  0
  9 10  1  0  0  0  0
  9 27  1  0  0  0  0
 10 11  1  0  0  0  0
 11 20  1  0  0  0  0
 11 18  1  0  0  0  0
 11 12  1  0  0  0  0
 12 13  1  0  0  0  0
 13 21  1  0  0  0  0
 13 14  1  0  0  0  0
 13 16  1  0  0  0  0
 14 15  1  0  0  0  0
 14 28  1  0  0  0  0
 14 29  1  0  0  0  0
 15 30  1  0  0  0  0
 16 22  1  0  0  0  0
 16 17  1  0  0  0  0
 16 18  1  0  0  0  0
 17 31  1  0  0  0  0
 18 23  1  0  0  0  0
 18 19  1  0  0  0  0
 19 32  1  0  0  0  0
M  END
> <s_m_source_file>
AV-unprocessed.smi

> <i_m_source_file_index>
69

> <i_lp_mmshare_version>
43012

> <i_f3d_flags>
0

> <s_epik_input>
bjFbY0hdbmMoW05IMl0pYyhjMTIpbltjSF1uMltDQEBIXTNPW0NASF0oW0NIMl1bT0hdKVtDQEBIXShbT0hdKVtDQEhdM1tPSF0=

> <s_epik_cmdline>
J2VwaWtfcHl0aG9uJywgJy1waCcsICc3LjAnLCAnLXRuJywgJzgnLCAnLW1hJywgJzIwMCcsICctbWV0YWxfYmluZGluZycsICctaW1hZScsICc8aW5maWxlLm1hZT4nLCAnLW9tYWUnLCAnPG91dGZpbGUubWFlPic=

> <r_lp_tautomer_probability>
1

> <r_epik_Ionization_Penalty>
0.000428445

> <r_epik_Ionization_Penalty_Charging>
0

> <r_epik_Ionization_Penalty_Neutral>
0.000428445

> <r_epik_State_Penalty>
-0

> <r_epik_Charging_Adjusted_Penalty>
0

> <i_epik_Tot_Q>
0

> <i_epik_Tot_abs_Q>
0

> <r_epik_Metal_State_Penalty>
-0

> <b_epik_Metal_Only>
0

> <s_epik_Chemistry_Notes>
This compound contains an acetal/aminal-like group ( X-CH(R)-Y where X, Y are N, S, or O) that may be acid/base labile, releasing an aldehyde.

> <s_lp_Force_Field>
OPLS_2005

> <r_lp_Energy>
45.7014

> <b_lp_Chiralities_Consistent>
1

> <s_lp_Variant>
AV-unprocessed.smi:69-4

> <Gold.Version>
5.8.1

> <Gold.Id.Protein>
6NUR|6NUR_protein|mol2

> <Gold.PLP.Fitness>
30.4741

> <Gold.PLP.PLP>
-17.3649

> <Gold.PLP.part.hbond>
-3.9773

> <Gold.PLP.part.metal>
0.0000

> <Gold.PLP.part.buried>
-3.5603

> <Gold.PLP.part.nonpolar>
-10.2695

> <Gold.PLP.part.repulsive>
0.4927

> <Gold.PLP.ligand.clash>
0.0000

> <Gold.PLP.ligand.torsion>
0.0827

> <Gold.PLP.Chemscore.Hbond>
3.4240

> <Gold.PLP.Chemscore.CHOScore>
1.0000

> <Gold.PLP.Chemscore.Metal>
0.0000

> <Gold.Chemscore.Hbonds>
donor molecule, donor type, donor heavy atom, donor atom, acceptor molecule, acceptor atom, score
      L1  H    15    30       P1  8028  1.00
      L1  H    17    31       P1  7957  0.56
      L1  H    19    32       P1  7957  1.00
      P1  H  7989  7998       L1    17  0.77
      L1  C     4    26       P1 10171  1.00

> <Gold.PLP.Chemscore.Internal.Correction>
0.0026

> <Gold.Rescore>
     Score         DG    S(hbond)    S(metal)    S(lipo)     H(rot)  DE(clash)    DE(int)     intcor
      7.93      -8.27       2.97        0.00      27.09       4.03       0.04       0.30       ----

> <Gold.Chemscore.Fitness>
7.9317

> <Gold.Chemscore.DG>
-8.2682

> <Gold.Chemscore.ZeroCoef>
-5.4800

> <Gold.Chemscore.Hbond>
2.9730

> <Gold.Chemscore.Metal>
0.0000

> <Gold.Chemscore.Lipo>
27.0877

> <Gold.Chemscore.Internal_Hbond>
0.0000

> <Gold.Chemscore.DEClash>
0.0358

> <Gold.Chemscore.DEInternal>
0.3007

> <Gold.Chemscore.Rot>
4.0277

> <Gold.Chemscore.Internal.Correction>
   9.000000E+99

> <Gold.Chemscore.Hbonds>
donor molecule, donor type, donor heavy atom, donor atom, acceptor molecule, acceptor atom, score
      L1  H    15    30       P1  8028  1.00
      L1  H    17    31       P1  7957  0.55
      L1  H    19    32       P1  7957  0.95
      P1  H  7989  7998       L1    17  0.29

> <Gold.Chemscore.Hbond.Weighted>
-9.9299

> <Gold.Chemscore.Metal.Weighted>
-0.0000

> <Gold.Chemscore.Lipo.Weighted>
-3.1693

> <Gold.Chemscore.Internal_Hbond.Weighted>
0.0000

> <Gold.Chemscore.DEClash.Weighted>
0.0358

> <Gold.Chemscore.DEInternal.Weighted>
0.3007

> <Gold.Chemscore.Rot.Weighted>
10.3110

> <Gold.Chemscore.Internal.Correction.Weighted>
   9.000000E+99

> <Gold.Protein.RotatedTorsions>
[ 6907 6896 6895 6894 ] final  120.33 input  -60.11 | X-H torsion
[ 7974 7965 7964 7962 ] final   82.02 input  175.53 | X-H torsion
[ 8008 7997 7996 7995 ] final -156.53 input   59.86 | X-H torsion
[ 10167 10162 10161 10158 ] final  159.11 input  -65.29 | X-H torsion
[ 10718 10713 10712 10709 ] final -174.15 input   66.30 | X-H torsion
[ 10763 10752 10751 10750 ] final  165.89 input  -60.55 | X-H torsion
[ 11005 11000 10999 10996 ] final  -16.41 input  -57.11 | X-H torsion

> <Gold.Protein.ActiveResidues>
 VAL166  LYS551  ARG553  GLY616  TRP617  ASP618  TYR619  PRO620  LYS621  CYS622 
 ASP623  PHE694  ASN695  SER759  ASP760  ASP761  ALA762  ILE779  LEU786  VAL792 
 PHE793  MET794  SER795  GLU796  ALA797  LYS798  CYS799  TRP800  GLU811  SER814 

> <Gold.Protein.RotatedAtoms>
  152.4406  133.7440  159.6656 H   0  0  0  0  0  0  0  0  0  0  0  0  # atno 6907 bound_to 6896
  150.8296  133.8103  159.3110 H   0  0  0  0  0  0  0  0  0  0  0  0  # atno 6908 bound_to 6896
  151.5761  135.1063  160.0058 H   0  0  0  0  0  0  0  0  0  0  0  0  # atno 6909 bound_to 6896
  145.6306  139.2404  143.2087 H   0  0  0  0  0  0  0  0  0  0  0  0  # atno 7974 bound_to 7965
  155.7187  140.0787  157.2340 H   0  0  0  0  0  0  0  0  0  0  0  0  # atno 8008 bound_to 7997
  154.4048  140.1617  156.2431 H   0  0  0  0  0  0  0  0  0  0  0  0  # atno 8009 bound_to 7997
  155.9217  140.3397  155.6181 H   0  0  0  0  0  0  0  0  0  0  0  0  # atno 8010 bound_to 7997
  139.4830  144.4760  151.8510 H   0  0  0  0  0  0  0  0  0  0  0  0  # atno 10167 bound_to 10162
  156.7809  130.9483  151.3120 H   0  0  0  0  0  0  0  0  0  0  0  0  # atno 10718 bound_to 10713
  154.3307  135.2755  155.2473 H   0  0  0  0  0  0  0  0  0  0  0  0  # atno 10763 bound_to 10752
  154.4786  135.5864  153.6376 H   0  0  0  0  0  0  0  0  0  0  0  0  # atno 10764 bound_to 10752
  152.9867  135.6106  154.3500 H   0  0  0  0  0  0  0  0  0  0  0  0  # atno 10765 bound_to 10752
  140.8064  133.8174  155.9520 H   0  0  0  0  0  0  0  0  0  0  0  0  # atno 11005 bound_to 11000
  146.1360  140.7122  142.9390 LP  0  0  0  0  0  0  0  0  0  0  0  0  # atno 17320 bound_to 7965
  144.7195  140.4325  143.7019 LP  0  0  0  0  0  0  0  0  0  0  0  0  # atno 17321 bound_to 7965
  140.4233  144.2214  150.5887 LP  0  0  0  0  0  0  0  0  0  0  0  0  # atno 17342 bound_to 10162
  140.4852  143.2365  151.8898 LP  0  0  0  0  0  0  0  0  0  0  0  0  # atno 17343 bound_to 10162
  157.6647  130.8997  149.9905 LP  0  0  0  0  0  0  0  0  0  0  0  0  # atno 17370 bound_to 10713
  156.1219  130.3645  149.9874 LP  0  0  0  0  0  0  0  0  0  0  0  0  # atno 17371 bound_to 10713
  140.9242  134.2103  157.4907 LP  0  0  0  0  0  0  0  0  0  0  0  0  # atno 17394 bound_to 11000
  139.8717  134.9805  156.5079 LP  0  0  0  0  0  0  0  0  0  0  0  0  # atno 17395 bound_to 11000

$$$$
