AV-unprocessed.smi:2955|AV-procd|sdf|11302|dock8
  -GOLD-   2272016203D 1   1.00000     0.00000
 Structure written by MMmdl.
 45 47  0  0  0  0  0  0  0  0  1 V2000
  146.9337  142.0304  157.7873 C   0  0  0  0  0  0  0  0  0  0  0  0
  147.4929  141.4318  156.5128 C   0  0  0  0  0  0  0  0  0  0  0  0
  146.6927  141.3528  155.3557 C   0  0  0  0  0  0  0  0  0  0  0  0
  147.2194  140.7998  154.1742 C   0  0  0  0  0  0  0  0  0  0  0  0
  148.5449  140.3270  154.1477 C   0  0  0  0  0  0  0  0  0  0  0  0
  149.3606  140.3998  155.2955 C   0  0  0  0  0  0  0  0  0  0  0  0
  150.6467  139.9166  155.1811 O   0  0  0  0  0  0  0  0  0  0  0  0
  151.5825  140.2482  156.1982 C   0  0  0  0  0  0  0  0  0  0  0  0
  151.2612  139.4700  157.4815 C   0  0  0  0  0  0  0  0  0  0  0  0
  152.0286  139.9444  158.6258 N   0  0  0  0  0  0  0  0  0  0  0  0
  152.8834  139.2609  159.4339 C   0  0  0  0  0  0  0  0  0  0  0  0
  153.1970  137.7966  159.2523 C   0  0  1  0  0  0  0  0  0  0  0  0
  154.0457  137.2364  160.4027 C   0  0  0  0  0  0  0  0  0  0  0  0
  151.9378  137.0672  159.1469 N   0  0  0  0  0  0  0  0  0  0  0  0
  151.5931  136.3099  158.0980 C   0  0  0  0  0  0  0  0  0  0  0  0
  152.3119  136.1570  157.1137 O   0  0  0  0  0  0  0  0  0  0  0  0
  153.4119  139.9674  160.4371 N   0  0  0  0  0  0  0  0  0  0  0  0
  152.8813  141.2259  160.2433 C   0  0  0  0  0  0  0  0  0  0  0  0
  153.0691  142.4236  160.9698 C   0  0  0  0  0  0  0  0  0  0  0  0
  152.4111  143.6074  160.5765 C   0  0  0  0  0  0  0  0  0  0  0  0
  151.5585  143.6101  159.4538 C   0  0  0  0  0  0  0  0  0  0  0  0
  151.3566  142.4266  158.7180 C   0  0  0  0  0  0  0  0  0  0  0  0
  152.0149  141.2471  159.1153 C   0  0  0  0  0  0  0  0  0  0  0  0
  148.8208  140.9580  156.4825 C   0  0  0  0  0  0  0  0  0  0  0  0
  145.8441  142.0660  157.7624 H   0  0  0  0  0  0  0  0  0  0  0  0
  147.3072  143.0460  157.9201 H   0  0  0  0  0  0  0  0  0  0  0  0
  147.2326  141.4386  158.6529 H   0  0  0  0  0  0  0  0  0  0  0  0
  145.6751  141.7155  155.3700 H   0  0  0  0  0  0  0  0  0  0  0  0
  146.6064  140.7386  153.2870 H   0  0  0  0  0  0  0  0  0  0  0  0
  148.9379  139.9026  153.2358 H   0  0  0  0  0  0  0  0  0  0  0  0
  152.5959  140.0082  155.8720 H   0  0  0  0  0  0  0  0  0  0  0  0
  151.5409  141.3180  156.4086 H   0  0  0  0  0  0  0  0  0  0  0  0
  150.2016  139.5792  157.7137 H   0  0  0  0  0  0  0  0  0  0  0  0
  151.4179  138.4010  157.3436 H   0  0  0  0  0  0  0  0  0  0  0  0
  153.7678  137.6386  158.3390 H   0  0  0  0  0  0  0  0  0  0  0  0
  154.9767  137.7933  160.5057 H   0  0  0  0  0  0  0  0  0  0  0  0
  154.3017  136.1910  160.2284 H   0  0  0  0  0  0  0  0  0  0  0  0
  153.5198  137.2956  161.3564 H   0  0  0  0  0  0  0  0  0  0  0  0
  151.2817  137.1625  159.9086 H   0  0  0  0  0  0  0  0  0  0  0  0
  150.6000  135.8519  158.2294 H   0  0  0  0  0  0  0  0  0  0  0  0
  153.7212  142.4318  161.8308 H   0  0  0  0  0  0  0  0  0  0  0  0
  152.5619  144.5172  161.1388 H   0  0  0  0  0  0  0  0  0  0  0  0
  151.0589  144.5210  159.1582 H   0  0  0  0  0  0  0  0  0  0  0  0
  150.7041  142.4264  157.8575 H   0  0  0  0  0  0  0  0  0  0  0  0
  149.4088  141.0350  157.3845 H   0  0  0  0  0  0  0  0  0  0  0  0
  1  2  1  0  0  0  0
  1 25  1  0  0  0  0
  1 26  1  0  0  0  0
  1 27  1  0  0  0  0
  2 24  1  0  0  0  0
  2  3  2  0  0  0  0
  3  4  1  0  0  0  0
  3 28  1  0  0  0  0
  4  5  2  0  0  0  0
  4 29  1  0  0  0  0
  5  6  1  0  0  0  0
  5 30  1  0  0  0  0
  6  7  1  0  0  0  0
  6 24  2  0  0  0  0
  7  8  1  0  0  0  0
  8  9  1  0  0  0  0
  8 31  1  0  0  0  0
  8 32  1  0  0  0  0
  9 10  1  0  0  0  0
  9 33  1  0  0  0  0
  9 34  1  0  0  0  0
 10 23  1  0  0  0  0
 10 11  1  0  0  0  0
 11 12  1  0  0  0  0
 11 17  2  0  0  0  0
 12 13  1  0  0  0  0
 12 14  1  0  0  0  0
 12 35  1  0  0  0  0
 13 36  1  0  0  0  0
 13 37  1  0  0  0  0
 13 38  1  0  0  0  0
 14 15  1  0  0  0  0
 14 39  1  0  0  0  0
 15 16  2  0  0  0  0
 15 40  1  0  0  0  0
 17 18  1  0  0  0  0
 18 23  2  0  0  0  0
 18 19  1  0  0  0  0
 19 20  2  0  0  0  0
 19 41  1  0  0  0  0
 20 21  1  0  0  0  0
 20 42  1  0  0  0  0
 21 22  2  0  0  0  0
 21 43  1  0  0  0  0
 22 23  1  0  0  0  0
 22 44  1  0  0  0  0
 24 45  1  0  0  0  0
M  END
> <s_m_source_file>
AV-unprocessed.smi

> <i_m_source_file_index>
2955

> <i_lp_mmshare_version>
43012

> <i_f3d_flags>
0

> <s_epik_input>
W0NIM11jMVtjSF1bY0hdW2NIXWMoW2NIXTEpT1tDSDJdW0NIMl1uKGMobjIpW0NASF0oW0NIM10pW05IXVtDSF09TyljKGMyMylbY0hdW2NIXVtjSF1bY0hdMw==

> <s_epik_cmdline>
J2VwaWtfcHl0aG9uJywgJy1waCcsICc3LjAnLCAnLXRuJywgJzgnLCAnLW1hJywgJzIwMCcsICctbWV0YWxfYmluZGluZycsICctaW1hZScsICc8aW5maWxlLm1hZT4nLCAnLW9tYWUnLCAnPG91dGZpbGUubWFlPic=

> <r_lp_tautomer_probability>
1

> <r_epik_Ionization_Penalty>
0.0917757

> <r_epik_Ionization_Penalty_Charging>
0

> <r_epik_Ionization_Penalty_Neutral>
0.0917757

> <r_epik_State_Penalty>
0.0820948

> <r_epik_Charging_Adjusted_Penalty>
0.0820948

> <i_epik_Tot_Q>
0

> <i_epik_Tot_abs_Q>
0

> <r_epik_Metal_State_Penalty>
0.0709956

> <b_epik_Metal_Only>
0

> <s_lp_Force_Field>
OPLS_2005

> <r_lp_Energy>
12.9149

> <b_lp_Chiralities_Consistent>
1

> <s_lp_Variant>
AV-unprocessed.smi:2955-2

> <Gold.Version>
5.8.1

> <Gold.Id.Protein>
6NUR|6NUR_protein|mol2

> <Gold.PLP.Fitness>
49.3494

> <Gold.PLP.PLP>
-43.9933

> <Gold.PLP.part.hbond>
-2.0000

> <Gold.PLP.part.metal>
0.0000

> <Gold.PLP.part.buried>
-4.5202

> <Gold.PLP.part.nonpolar>
-36.5416

> <Gold.PLP.part.repulsive>
0.1805

> <Gold.PLP.ligand.clash>
0.0000

> <Gold.PLP.ligand.torsion>
0.3687

> <Gold.PLP.Chemscore.Hbond>
2.0000

> <Gold.PLP.Chemscore.CHOScore>
0.0000

> <Gold.PLP.Chemscore.Metal>
0.0000

> <Gold.Chemscore.Hbonds>
donor molecule, donor type, donor heavy atom, donor atom, acceptor molecule, acceptor atom, score
      P1  H  7989  7998       L1     7  0.62
      P1  H 10752 10764       L1    16  0.07

> <Gold.PLP.Chemscore.Internal.Correction>
0.0935

> <Gold.Rescore>
     Score         DG    S(hbond)    S(metal)    S(lipo)     H(rot)  DE(clash)    DE(int)     intcor
     17.50     -18.97       1.68        0.00     116.99       2.26       0.57       0.90       ----

> <Gold.Chemscore.Fitness>
17.5029

> <Gold.Chemscore.DG>
-18.9734

> <Gold.Chemscore.ZeroCoef>
-5.4800

> <Gold.Chemscore.Hbond>
1.6755

> <Gold.Chemscore.Metal>
0.0000

> <Gold.Chemscore.Lipo>
116.9891

> <Gold.Chemscore.Internal_Hbond>
0.0000

> <Gold.Chemscore.DEClash>
0.5733

> <Gold.Chemscore.DEInternal>
0.8972

> <Gold.Chemscore.Rot>
2.2619

> <Gold.Chemscore.Internal.Correction>
   9.000000E+99

> <Gold.Chemscore.Hbonds>
donor molecule, donor type, donor heavy atom, donor atom, acceptor molecule, acceptor atom, score
      P1  H  7989  7998       L1     7  0.10
      P1  H 10752 10764       L1    16  0.10

> <Gold.Chemscore.Hbond.Weighted>
-5.5962

> <Gold.Chemscore.Metal.Weighted>
-0.0000

> <Gold.Chemscore.Lipo.Weighted>
-13.6877

> <Gold.Chemscore.Internal_Hbond.Weighted>
0.0000

> <Gold.Chemscore.DEClash.Weighted>
0.5733

> <Gold.Chemscore.DEInternal.Weighted>
0.8972

> <Gold.Chemscore.Rot.Weighted>
5.7906

> <Gold.Chemscore.Internal.Correction.Weighted>
   9.000000E+99

> <Gold.Protein.RotatedTorsions>
[ 6907 6896 6895 6894 ] final  154.08 input  -60.11 | X-H torsion
[ 7974 7965 7964 7962 ] final -116.16 input  175.53 | X-H torsion
[ 8008 7997 7996 7995 ] final  152.13 input   59.86 | X-H torsion
[ 10167 10162 10161 10158 ] final  -38.03 input  -65.29 | X-H torsion
[ 10718 10713 10712 10709 ] final  108.00 input   66.30 | X-H torsion
[ 10763 10752 10751 10750 ] final  -40.41 input  -60.55 | X-H torsion
[ 11005 11000 10999 10996 ] final  -33.76 input  -57.11 | X-H torsion

> <Gold.Protein.ActiveResidues>
 VAL166  LYS551  ARG553  GLY616  TRP617  ASP618  TYR619  PRO620  LYS621  CYS622 
 ASP623  PHE694  ASN695  SER759  ASP760  ASP761  ALA762  ILE779  LEU786  VAL792 
 PHE793  MET794  SER795  GLU796  ALA797  LYS798  CYS799  TRP800  GLU811  SER814 

> <Gold.Protein.RotatedAtoms>
  152.0635  133.4073  159.4427 H   0  0  0  0  0  0  0  0  0  0  0  0  # atno 6907 bound_to 6896
  150.6865  134.3173  159.4781 H   0  0  0  0  0  0  0  0  0  0  0  0  # atno 6908 bound_to 6896
  152.0997  134.9350  160.0620 H   0  0  0  0  0  0  0  0  0  0  0  0  # atno 6909 bound_to 6896
  145.1000  140.8545  143.3932 H   0  0  0  0  0  0  0  0  0  0  0  0  # atno 7974 bound_to 7965
  156.2643  140.2029  156.6286 H   0  0  0  0  0  0  0  0  0  0  0  0  # atno 8008 bound_to 7997
  154.6701  140.0551  157.0180 H   0  0  0  0  0  0  0  0  0  0  0  0  # atno 8009 bound_to 7997
  155.1150  140.3219  155.4515 H   0  0  0  0  0  0  0  0  0  0  0  0  # atno 8010 bound_to 7997
  140.7103  143.3303  151.2584 H   0  0  0  0  0  0  0  0  0  0  0  0  # atno 10167 bound_to 10162
  157.6605  131.0884  150.6239 H   0  0  0  0  0  0  0  0  0  0  0  0  # atno 10718 bound_to 10713
  153.9455  135.6756  153.4744 H   0  0  0  0  0  0  0  0  0  0  0  0  # atno 10763 bound_to 10752
  153.0910  135.4874  154.8687 H   0  0  0  0  0  0  0  0  0  0  0  0  # atno 10764 bound_to 10752
  154.7354  135.3148  154.8779 H   0  0  0  0  0  0  0  0  0  0  0  0  # atno 10765 bound_to 10752
  140.9661  133.7136  156.1447 H   0  0  0  0  0  0  0  0  0  0  0  0  # atno 11005 bound_to 11000
  145.0967  139.2852  143.5707 LP  0  0  0  0  0  0  0  0  0  0  0  0  # atno 17320 bound_to 7965
  146.3530  140.0521  142.8635 LP  0  0  0  0  0  0  0  0  0  0  0  0  # atno 17321 bound_to 7965
  139.6783  143.9899  152.2794 LP  0  0  0  0  0  0  0  0  0  0  0  0  # atno 17342 bound_to 10162
  139.9520  144.6614  150.8162 LP  0  0  0  0  0  0  0  0  0  0  0  0  # atno 17343 bound_to 10162
  156.6543  130.4494  149.5709 LP  0  0  0  0  0  0  0  0  0  0  0  0  # atno 17370 bound_to 10713
  156.2114  130.6681  151.1274 LP  0  0  0  0  0  0  0  0  0  0  0  0  # atno 17371 bound_to 10713
  140.7397  134.4164  157.5556 LP  0  0  0  0  0  0  0  0  0  0  0  0  # atno 17394 bound_to 11000
  139.8895  134.8828  156.2418 LP  0  0  0  0  0  0  0  0  0  0  0  0  # atno 17395 bound_to 11000

$$$$
