AV-unprocessed.smi:1741|AV-procd|sdf|7017|dock7
  -GOLD-   22720 8233D 1   1.00000     0.00000
 Structure written by MMmdl.
 38 39  0  0  0  0  0  0  0  0  1 V2000
  151.6335  141.1087  157.4461 C   0  0  0  0  0  0  0  0  0  0  0  0
  152.3557  139.8810  156.8795 C   0  0  0  0  0  0  0  0  0  0  0  0
  151.5354  139.1778  155.9131 N   0  0  0  0  0  0  0  0  0  0  0  0
  151.1371  137.8560  155.9347 C   0  0  0  0  0  0  0  0  0  0  0  0
  150.3903  137.6771  154.8049 C   0  0  0  0  0  0  0  0  0  0  0  0
  149.7372  136.5104  154.3333 N   0  0  0  0  0  0  0  0  0  0  0  0
  149.7202  135.2965  154.9076 C   0  0  0  0  0  0  0  0  0  0  0  0
  150.2907  135.0050  155.9589 O   0  0  0  0  0  0  0  0  0  0  0  0
  148.9990  134.4293  154.1829 N   0  0  0  0  0  0  0  0  0  0  0  0
  148.7942  133.0160  154.4927 C   0  0  1  0  0  0  0  0  0  0  0  0
  148.0167  132.9071  155.8137 C   0  0  0  0  0  0  0  0  0  0  0  0
  148.0628  132.3384  153.3171 C   0  0  2  0  0  0  0  0  0  0  0  0
  146.7350  132.9911  152.9294 C   0  0  0  0  0  0  0  0  0  0  0  0
  146.0145  131.8451  152.2582 C   0  0  0  0  0  0  0  0  0  0  0  0
  146.4316  130.6641  153.1286 C   0  0  0  0  0  0  0  0  0  0  0  0
  147.7145  130.9961  153.6534 O   0  0  0  0  0  0  0  0  0  0  0  0
  150.3773  138.9338  154.1462 C   0  0  0  0  0  0  0  0  0  0  0  0
  151.0743  139.8358  154.8207 N   0  0  0  0  0  0  0  0  0  0  0  0
  152.2636  141.6303  158.1667 H   0  0  0  0  0  0  0  0  0  0  0  0
  150.7117  140.8239  157.9540 H   0  0  0  0  0  0  0  0  0  0  0  0
  151.3770  141.8147  156.6557 H   0  0  0  0  0  0  0  0  0  0  0  0
  153.2852  140.1805  156.3937 H   0  0  0  0  0  0  0  0  0  0  0  0
  152.6260  139.1942  157.6831 H   0  0  0  0  0  0  0  0  0  0  0  0
  151.4186  137.1852  156.7330 H   0  0  0  0  0  0  0  0  0  0  0  0
  149.2348  136.6092  153.4632 H   0  0  0  0  0  0  0  0  0  0  0  0
  148.5737  134.7677  153.3323 H   0  0  0  0  0  0  0  0  0  0  0  0
  149.7546  132.5161  154.6309 H   0  0  0  0  0  0  0  0  0  0  0  0
  147.8879  131.8674  156.1148 H   0  0  0  0  0  0  0  0  0  0  0  0
  147.0260  133.3552  155.7306 H   0  0  0  0  0  0  0  0  0  0  0  0
  148.5453  133.4138  156.6218 H   0  0  0  0  0  0  0  0  0  0  0  0
  148.7104  132.3015  152.4392 H   0  0  0  0  0  0  0  0  0  0  0  0
  146.1857  133.3075  153.8173 H   0  0  0  0  0  0  0  0  0  0  0  0
  146.8595  133.8557  152.2766 H   0  0  0  0  0  0  0  0  0  0  0  0
  144.9338  131.9820  152.2138 H   0  0  0  0  0  0  0  0  0  0  0  0
  146.3864  131.7142  151.2412 H   0  0  0  0  0  0  0  0  0  0  0  0
  145.7395  130.5413  153.9626 H   0  0  0  0  0  0  0  0  0  0  0  0
  146.4598  129.7277  152.5710 H   0  0  0  0  0  0  0  0  0  0  0  0
  149.8983  139.2153  153.2200 H   0  0  0  0  0  0  0  0  0  0  0  0
  1  2  1  0  0  0  0
  1 19  1  0  0  0  0
  1 20  1  0  0  0  0
  1 21  1  0  0  0  0
  2  3  1  0  0  0  0
  2 22  1  0  0  0  0
  2 23  1  0  0  0  0
  3 18  1  0  0  0  0
  3  4  1  0  0  0  0
  4  5  2  0  0  0  0
  4 24  1  0  0  0  0
  5  6  1  0  0  0  0
  5 17  1  0  0  0  0
  6  7  1  0  0  0  0
  6 25  1  0  0  0  0
  7  8  2  0  0  0  0
  7  9  1  0  0  0  0
  9 10  1  0  0  0  0
  9 26  1  0  0  0  0
 10 11  1  0  0  0  0
 10 12  1  0  0  0  0
 10 27  1  0  0  0  0
 11 28  1  0  0  0  0
 11 29  1  0  0  0  0
 11 30  1  0  0  0  0
 12 16  1  0  0  0  0
 12 13  1  0  0  0  0
 12 31  1  0  0  0  0
 13 14  1  0  0  0  0
 13 32  1  0  0  0  0
 13 33  1  0  0  0  0
 14 15  1  0  0  0  0
 14 34  1  0  0  0  0
 14 35  1  0  0  0  0
 15 16  1  0  0  0  0
 15 36  1  0  0  0  0
 15 37  1  0  0  0  0
 17 18  2  0  0  0  0
 17 38  1  0  0  0  0
M  END
> <s_m_source_file>
AV-unprocessed.smi

> <i_m_source_file_index>
1741

> <i_lp_mmshare_version>
43012

> <i_f3d_flags>
0

> <s_epik_input>
W0NIM11bQ0gyXW4xW2NIXWMoW2NIXW4xKVtOSF1DKD1PKVtOSF1bQ0BIXShbQ0gzXSlbQ0BASF0yW0NIMl1bQ0gyXVtDSDJdTzI=

> <s_epik_cmdline>
J2VwaWtfcHl0aG9uJywgJy1waCcsICc3LjAnLCAnLXRuJywgJzgnLCAnLW1hJywgJzIwMCcsICctbWV0YWxfYmluZGluZycsICctaW1hZScsICc8aW5maWxlLm1hZT4nLCAnLW9tYWUnLCAnPG91dGZpbGUubWFlPic=

> <r_lp_tautomer_probability>
1

> <r_epik_Ionization_Penalty>
0.000179292

> <r_epik_Ionization_Penalty_Charging>
0

> <r_epik_Ionization_Penalty_Neutral>
0.000179292

> <r_epik_State_Penalty>
-0

> <r_epik_Charging_Adjusted_Penalty>
0

> <i_epik_Tot_Q>
0

> <i_epik_Tot_abs_Q>
0

> <r_epik_Metal_State_Penalty>
-0

> <b_epik_Metal_Only>
0

> <s_lp_Force_Field>
OPLS_2005

> <r_lp_Energy>
22.1754

> <b_lp_Chiralities_Consistent>
1

> <s_lp_Variant>
AV-unprocessed.smi:1741-2

> <Gold.Version>
5.8.1

> <Gold.Id.Protein>
6NUR|6NUR_protein|mol2

> <Gold.PLP.Fitness>
38.7182

> <Gold.PLP.PLP>
-27.3605

> <Gold.PLP.part.hbond>
-3.6984

> <Gold.PLP.part.metal>
0.0000

> <Gold.PLP.part.buried>
-1.6792

> <Gold.PLP.part.nonpolar>
-22.1082

> <Gold.PLP.part.repulsive>
0.2393

> <Gold.PLP.ligand.clash>
0.0000

> <Gold.PLP.ligand.torsion>
0.0780

> <Gold.PLP.Chemscore.Hbond>
2.8320

> <Gold.PLP.Chemscore.CHOScore>
1.0000

> <Gold.PLP.Chemscore.Metal>
0.0000

> <Gold.Chemscore.Hbonds>
donor molecule, donor type, donor heavy atom, donor atom, acceptor molecule, acceptor atom, score
      L1  H     6    25       P1  7948  1.00
      L1  H     9    26       P1  7948  0.67
      P1  H  7989  7998       L1    18  1.00
      L1  C    17    38       P1  7957  1.00

> <Gold.PLP.Chemscore.Internal.Correction>
0.0177

> <Gold.Rescore>
     Score         DG    S(hbond)    S(metal)    S(lipo)     H(rot)  DE(clash)    DE(int)     intcor
     14.21     -15.57       1.91        0.00      61.82       1.38       0.05       1.31       ----

> <Gold.Chemscore.Fitness>
14.2116

> <Gold.Chemscore.DG>
-15.5689

> <Gold.Chemscore.ZeroCoef>
-5.4800

> <Gold.Chemscore.Hbond>
1.9119

> <Gold.Chemscore.Metal>
0.0000

> <Gold.Chemscore.Lipo>
61.8238

> <Gold.Chemscore.Internal_Hbond>
0.0000

> <Gold.Chemscore.DEClash>
0.0515

> <Gold.Chemscore.DEInternal>
1.3058

> <Gold.Chemscore.Rot>
1.3790

> <Gold.Chemscore.Internal.Correction>
   9.000000E+99

> <Gold.Chemscore.Hbonds>
donor molecule, donor type, donor heavy atom, donor atom, acceptor molecule, acceptor atom, score
      L1  H     6    25       P1  7948  0.91
      L1  H     9    26       P1  7948  0.36
      P1  H  7989  7998       L1    18  0.30

> <Gold.Chemscore.Hbond.Weighted>
-6.3857

> <Gold.Chemscore.Metal.Weighted>
-0.0000

> <Gold.Chemscore.Lipo.Weighted>
-7.2334

> <Gold.Chemscore.Internal_Hbond.Weighted>
0.0000

> <Gold.Chemscore.DEClash.Weighted>
0.0515

> <Gold.Chemscore.DEInternal.Weighted>
1.3058

> <Gold.Chemscore.Rot.Weighted>
3.5302

> <Gold.Chemscore.Internal.Correction.Weighted>
   9.000000E+99

> <Gold.Protein.RotatedTorsions>
[ 6907 6896 6895 6894 ] final  -41.75 input  -60.11 | X-H torsion
[ 7974 7965 7964 7962 ] final -143.46 input  175.53 | X-H torsion
[ 8008 7997 7996 7995 ] final -113.92 input   59.86 | X-H torsion
[ 10167 10162 10161 10158 ] final -122.62 input  -65.29 | X-H torsion
[ 10718 10713 10712 10709 ] final   30.61 input   66.30 | X-H torsion
[ 10763 10752 10751 10750 ] final  145.22 input  -60.55 | X-H torsion
[ 11005 11000 10999 10996 ] final  -63.18 input  -57.11 | X-H torsion

> <Gold.Protein.ActiveResidues>
 VAL166  LYS551  ARG553  GLY616  TRP617  ASP618  TYR619  PRO620  LYS621  CYS622 
 ASP623  PHE694  ASN695  SER759  ASP760  ASP761  ALA762  ILE779  LEU786  VAL792 
 PHE793  MET794  SER795  GLU796  ALA797  LYS798  CYS799  TRP800  GLU811  SER814 

> <Gold.Protein.RotatedAtoms>
  150.9631  134.9016  159.7742 H   0  0  0  0  0  0  0  0  0  0  0  0  # atno 6907 bound_to 6896
  152.5163  134.3644  159.9306 H   0  0  0  0  0  0  0  0  0  0  0  0  # atno 6908 bound_to 6896
  151.3656  133.3833  159.2729 H   0  0  0  0  0  0  0  0  0  0  0  0  # atno 6909 bound_to 6896
  144.8368  140.5831  143.5479 H   0  0  0  0  0  0  0  0  0  0  0  0  # atno 7974 bound_to 7965
  155.0283  140.0393  157.2464 H   0  0  0  0  0  0  0  0  0  0  0  0  # atno 8008 bound_to 7997
  154.7318  140.2732  155.6425 H   0  0  0  0  0  0  0  0  0  0  0  0  # atno 8009 bound_to 7997
  156.2843  140.2682  156.2021 H   0  0  0  0  0  0  0  0  0  0  0  0  # atno 8010 bound_to 7997
  140.0123  143.5429  152.2258 H   0  0  0  0  0  0  0  0  0  0  0  0  # atno 10167 bound_to 10162
  157.2619  130.7165  149.6458 H   0  0  0  0  0  0  0  0  0  0  0  0  # atno 10718 bound_to 10713
  154.0018  135.2922  155.3402 H   0  0  0  0  0  0  0  0  0  0  0  0  # atno 10763 bound_to 10752
  154.7154  135.5131  153.8733 H   0  0  0  0  0  0  0  0  0  0  0  0  # atno 10764 bound_to 10752
  153.0762  135.6664  154.0259 H   0  0  0  0  0  0  0  0  0  0  0  0  # atno 10765 bound_to 10752
  141.1384  133.6649  156.5641 H   0  0  0  0  0  0  0  0  0  0  0  0  # atno 11005 bound_to 11000
  145.4779  139.1498  143.3778 LP  0  0  0  0  0  0  0  0  0  0  0  0  # atno 17320 bound_to 7965
  146.2665  140.4914  142.8832 LP  0  0  0  0  0  0  0  0  0  0  0  0  # atno 17321 bound_to 7965
  139.6197  144.7626  151.2768 LP  0  0  0  0  0  0  0  0  0  0  0  0  # atno 17342 bound_to 10162
  140.7376  143.6672  150.8113 LP  0  0  0  0  0  0  0  0  0  0  0  0  # atno 17343 bound_to 10162
  155.9664  130.4395  150.5260 LP  0  0  0  0  0  0  0  0  0  0  0  0  # atno 17370 bound_to 10713
  157.3166  131.0674  151.1962 LP  0  0  0  0  0  0  0  0  0  0  0  0  # atno 17371 bound_to 10713
  140.3965  134.7394  157.4754 LP  0  0  0  0  0  0  0  0  0  0  0  0  # atno 17394 bound_to 11000
  140.0527  134.6107  155.8842 LP  0  0  0  0  0  0  0  0  0  0  0  0  # atno 17395 bound_to 11000

$$$$
