AV-unprocessed.smi:1728|AV-procd|sdf|6967|dock3
  -GOLD-   22720 8183D 1   1.00000     0.00000
 Structure written by MMmdl.
 46 47  0  0  0  0  0  0  0  0  1 V2000
  151.8385  145.6064  159.8712 C   0  0  0  0  0  0  0  0  0  0  0  0
  151.5353  144.5103  159.0152 O   0  0  0  0  0  0  0  0  0  0  0  0
  152.1480  143.2948  159.2553 C   0  0  0  0  0  0  0  0  0  0  0  0
  153.0391  143.2130  160.2753 N   0  0  0  0  0  0  0  0  0  0  0  0
  153.6350  142.0271  160.5145 C   0  0  0  0  0  0  0  0  0  0  0  0
  153.3726  140.8681  159.7619 C   0  0  0  0  0  0  0  0  0  0  0  0
  152.4482  140.9497  158.7042 C   0  0  0  0  0  0  0  0  0  0  0  0
  151.8230  142.1915  158.4311 C   0  0  0  0  0  0  0  0  0  0  0  0
  150.8642  142.3941  157.3985 N   0  0  0  0  0  0  0  0  0  0  0  0
  150.5786  141.6218  156.3363 C   0  0  0  0  0  0  0  0  0  0  0  0
  151.1267  140.5570  156.0538 O   0  0  0  0  0  0  0  0  0  0  0  0
  149.6075  142.1673  155.5942 N   0  0  0  0  0  0  0  0  0  0  0  0
  149.0546  141.5715  154.3818 C   0  0  0  0  0  0  0  0  0  0  0  0
  147.5437  141.2333  154.5301 C   0  0  0  0  0  0  0  0  0  0  0  0
  146.7838  142.5766  154.3840 C   0  0  0  0  0  0  0  0  0  0  0  0
  147.1494  140.3493  153.3225 C   0  0  0  0  0  0  0  0  0  0  0  0
  147.2506  140.5923  155.8429 N   0  0  0  0  0  0  0  0  0  0  0  0
  145.8288  140.3440  156.1074 C   0  0  0  0  0  0  0  0  0  0  0  0
  145.5912  139.7970  157.5255 C   0  0  0  0  0  0  0  0  0  0  0  0
  146.3508  138.6096  157.7161 O   0  0  0  0  0  0  0  0  0  0  0  0
  147.7444  138.8208  157.5255 C   0  0  0  0  0  0  0  0  0  0  0  0
  147.9980  139.3570  156.1067 C   0  0  0  0  0  0  0  0  0  0  0  0
  151.2756  146.4816  159.5477 H   0  0  0  0  0  0  0  0  0  0  0  0
  152.8982  145.8629  159.8339 H   0  0  0  0  0  0  0  0  0  0  0  0
  151.5565  145.3953  160.9036 H   0  0  0  0  0  0  0  0  0  0  0  0
  154.3383  141.9998  161.3335 H   0  0  0  0  0  0  0  0  0  0  0  0
  153.8666  139.9361  159.9932 H   0  0  0  0  0  0  0  0  0  0  0  0
  152.2344  140.0569  158.1389 H   0  0  0  0  0  0  0  0  0  0  0  0
  150.3592  143.2669  157.4540 H   0  0  0  0  0  0  0  0  0  0  0  0
  149.2080  143.0457  155.8916 H   0  0  0  0  0  0  0  0  0  0  0  0
  149.2040  142.2621  153.5495 H   0  0  0  0  0  0  0  0  0  0  0  0
  149.6357  140.6850  154.1251 H   0  0  0  0  0  0  0  0  0  0  0  0
  147.1209  143.1346  153.5097 H   0  0  0  0  0  0  0  0  0  0  0  0
  146.9287  143.2187  155.2536 H   0  0  0  0  0  0  0  0  0  0  0  0
  145.7111  142.4330  154.2546 H   0  0  0  0  0  0  0  0  0  0  0  0
  147.3739  140.8513  152.3806 H   0  0  0  0  0  0  0  0  0  0  0  0
  146.0840  140.1207  153.3089 H   0  0  0  0  0  0  0  0  0  0  0  0
  147.6912  139.4039  153.3107 H   0  0  0  0  0  0  0  0  0  0  0  0
  145.2478  141.2585  156.0037 H   0  0  0  0  0  0  0  0  0  0  0  0
  145.4303  139.6311  155.3855 H   0  0  0  0  0  0  0  0  0  0  0  0
  145.8665  140.5386  158.2771 H   0  0  0  0  0  0  0  0  0  0  0  0
  144.5349  139.5704  157.6713 H   0  0  0  0  0  0  0  0  0  0  0  0
  148.1210  139.5190  158.2745 H   0  0  0  0  0  0  0  0  0  0  0  0
  148.2711  137.8780  157.6734 H   0  0  0  0  0  0  0  0  0  0  0  0
  147.7218  138.5876  155.3858 H   0  0  0  0  0  0  0  0  0  0  0  0
  149.0692  139.5191  156.0023 H   0  0  0  0  0  0  0  0  0  0  0  0
  1  2  1  0  0  0  0
  1 23  1  0  0  0  0
  1 24  1  0  0  0  0
  1 25  1  0  0  0  0
  2  3  1  0  0  0  0
  3  8  1  0  0  0  0
  3  4  2  0  0  0  0
  4  5  1  0  0  0  0
  5  6  2  0  0  0  0
  5 26  1  0  0  0  0
  6  7  1  0  0  0  0
  6 27  1  0  0  0  0
  7  8  2  0  0  0  0
  7 28  1  0  0  0  0
  8  9  1  0  0  0  0
  9 10  1  0  0  0  0
  9 29  1  0  0  0  0
 10 11  2  0  0  0  0
 10 12  1  0  0  0  0
 12 13  1  0  0  0  0
 12 30  1  0  0  0  0
 13 14  1  0  0  0  0
 13 31  1  0  0  0  0
 13 32  1  0  0  0  0
 14 15  1  0  0  0  0
 14 16  1  0  0  0  0
 14 17  1  0  0  0  0
 15 33  1  0  0  0  0
 15 34  1  0  0  0  0
 15 35  1  0  0  0  0
 16 36  1  0  0  0  0
 16 37  1  0  0  0  0
 16 38  1  0  0  0  0
 17 22  1  0  0  0  0
 17 18  1  0  0  0  0
 18 19  1  0  0  0  0
 18 39  1  0  0  0  0
 18 40  1  0  0  0  0
 19 20  1  0  0  0  0
 19 41  1  0  0  0  0
 19 42  1  0  0  0  0
 20 21  1  0  0  0  0
 21 22  1  0  0  0  0
 21 43  1  0  0  0  0
 21 44  1  0  0  0  0
 22 45  1  0  0  0  0
 22 46  1  0  0  0  0
M  END
> <s_m_source_file>
AV-unprocessed.smi

> <i_m_source_file_index>
1728

> <i_lp_mmshare_version>
43012

> <i_f3d_flags>
0

> <s_epik_input>
W0NIM11PYzFuW2NIXVtjSF1bY0hdYzFbTkhdQyg9TylbTkhdW0NIMl1DKFtDSDNdKShbQ0gzXSlOMltDSDJdW0NIMl1PW0NIMl1bQ0gyXTI=

> <s_epik_cmdline>
J2VwaWtfcHl0aG9uJywgJy1waCcsICc3LjAnLCAnLXRuJywgJzgnLCAnLW1hJywgJzIwMCcsICctbWV0YWxfYmluZGluZycsICctaW1hZScsICc8aW5maWxlLm1hZT4nLCAnLW9tYWUnLCAnPG91dGZpbGUubWFlPic=

> <r_lp_tautomer_probability>
1

> <r_epik_Ionization_Penalty>
0.266086

> <r_epik_Ionization_Penalty_Charging>
0

> <r_epik_Ionization_Penalty_Neutral>
0.266086

> <r_epik_State_Penalty>
0.257924

> <r_epik_Charging_Adjusted_Penalty>
0.257924

> <i_epik_Tot_Q>
0

> <i_epik_Tot_abs_Q>
0

> <r_epik_Metal_State_Penalty>
0.257921

> <b_epik_Metal_Only>
0

> <s_lp_Force_Field>
OPLS_2005

> <r_lp_Energy>
44.4816

> <b_lp_Chiralities_Consistent>
1

> <s_lp_Variant>
AV-unprocessed.smi:1728-1

> <Gold.Version>
5.8.1

> <Gold.Id.Protein>
6NUR|6NUR_protein|mol2

> <Gold.PLP.Fitness>
40.5610

> <Gold.PLP.PLP>
-37.9931

> <Gold.PLP.part.hbond>
-1.0000

> <Gold.PLP.part.metal>
0.0000

> <Gold.PLP.part.buried>
-6.0277

> <Gold.PLP.part.nonpolar>
-31.3325

> <Gold.PLP.part.repulsive>
0.3065

> <Gold.PLP.ligand.clash>
0.0000

> <Gold.PLP.ligand.torsion>
0.2484

> <Gold.PLP.Chemscore.Hbond>
1.0000

> <Gold.PLP.Chemscore.CHOScore>
0.0000

> <Gold.PLP.Chemscore.Metal>
0.0000

> <Gold.Chemscore.Hbonds>
donor molecule, donor type, donor heavy atom, donor atom, acceptor molecule, acceptor atom, score
      L1  H    12    30       P1  8028  1.00

> <Gold.PLP.Chemscore.Internal.Correction>
0.0647

> <Gold.Rescore>
     Score         DG    S(hbond)    S(metal)    S(lipo)     H(rot)  DE(clash)    DE(int)     intcor
     15.59     -18.61       2.35        0.00      82.30       1.70       1.61       1.41       ----

> <Gold.Chemscore.Fitness>
15.5891

> <Gold.Chemscore.DG>
-18.6118

> <Gold.Chemscore.ZeroCoef>
-5.4800

> <Gold.Chemscore.Hbond>
2.3536

> <Gold.Chemscore.Metal>
0.0000

> <Gold.Chemscore.Lipo>
82.2990

> <Gold.Chemscore.Internal_Hbond>
0.0000

> <Gold.Chemscore.DEClash>
1.6124

> <Gold.Chemscore.DEInternal>
1.4104

> <Gold.Chemscore.Rot>
1.7024

> <Gold.Chemscore.Internal.Correction>
   9.000000E+99

> <Gold.Chemscore.Hbonds>
donor molecule, donor type, donor heavy atom, donor atom, acceptor molecule, acceptor atom, score
      L1  H    12    30       P1  8028  0.96

> <Gold.Chemscore.Hbond.Weighted>
-7.8611

> <Gold.Chemscore.Metal.Weighted>
-0.0000

> <Gold.Chemscore.Lipo.Weighted>
-9.6290

> <Gold.Chemscore.Internal_Hbond.Weighted>
0.0000

> <Gold.Chemscore.DEClash.Weighted>
1.6124

> <Gold.Chemscore.DEInternal.Weighted>
1.4104

> <Gold.Chemscore.Rot.Weighted>
4.3583

> <Gold.Chemscore.Internal.Correction.Weighted>
   9.000000E+99

> <Gold.Protein.RotatedTorsions>
[ 6907 6896 6895 6894 ] final   68.80 input  -60.11 | X-H torsion
[ 7974 7965 7964 7962 ] final   89.08 input  175.53 | X-H torsion
[ 8008 7997 7996 7995 ] final -150.97 input   59.86 | X-H torsion
[ 10167 10162 10161 10158 ] final -143.45 input  -65.29 | X-H torsion
[ 10718 10713 10712 10709 ] final -105.02 input   66.30 | X-H torsion
[ 10763 10752 10751 10750 ] final  160.60 input  -60.55 | X-H torsion
[ 11005 11000 10999 10996 ] final   26.73 input  -57.11 | X-H torsion

> <Gold.Protein.ActiveResidues>
 VAL166  LYS551  ARG553  GLY616  TRP617  ASP618  TYR619  PRO620  LYS621  CYS622 
 ASP623  PHE694  ASN695  SER759  ASP760  ASP761  ALA762  ILE779  LEU786  VAL792 
 PHE793  MET794  SER795  GLU796  ALA797  LYS798  CYS799  TRP800  GLU811  SER814 

> <Gold.Protein.RotatedAtoms>
  152.4644  134.5109  159.9753 H   0  0  0  0  0  0  0  0  0  0  0  0  # atno 6907 bound_to 6896
  151.5150  133.3471  159.2899 H   0  0  0  0  0  0  0  0  0  0  0  0  # atno 6908 bound_to 6896
  150.8622  134.8005  159.7153 H   0  0  0  0  0  0  0  0  0  0  0  0  # atno 6909 bound_to 6896
  145.5372  139.2286  143.2586 H   0  0  0  0  0  0  0  0  0  0  0  0  # atno 7974 bound_to 7965
  155.6319  140.0692  157.2646 H   0  0  0  0  0  0  0  0  0  0  0  0  # atno 8008 bound_to 7997
  154.4204  140.1766  156.1531 H   0  0  0  0  0  0  0  0  0  0  0  0  # atno 8009 bound_to 7997
  155.9925  140.3344  155.6770 H   0  0  0  0  0  0  0  0  0  0  0  0  # atno 8010 bound_to 7997
  139.7992  143.7857  152.2657 H   0  0  0  0  0  0  0  0  0  0  0  0  # atno 10167 bound_to 10162
  156.0328  130.5543  150.7479 H   0  0  0  0  0  0  0  0  0  0  0  0  # atno 10718 bound_to 10713
  154.2500  135.2772  155.2820 H   0  0  0  0  0  0  0  0  0  0  0  0  # atno 10763 bound_to 10752
  154.5473  135.5685  153.6894 H   0  0  0  0  0  0  0  0  0  0  0  0  # atno 10764 bound_to 10752
  152.9982  135.6266  154.2647 H   0  0  0  0  0  0  0  0  0  0  0  0  # atno 10765 bound_to 10752
  140.3339  134.2407  155.7698 H   0  0  0  0  0  0  0  0  0  0  0  0  # atno 11005 bound_to 11000
  146.2005  140.6190  142.9104 LP  0  0  0  0  0  0  0  0  0  0  0  0  # atno 17320 bound_to 7965
  144.7595  140.5389  143.6745 LP  0  0  0  0  0  0  0  0  0  0  0  0  # atno 17321 bound_to 7965
  139.7972  144.7388  150.9874 LP  0  0  0  0  0  0  0  0  0  0  0  0  # atno 17342 bound_to 10162
  140.7820  143.4381  151.0592 LP  0  0  0  0  0  0  0  0  0  0  0  0  # atno 17343 bound_to 10162
  157.5031  131.0920  151.0290 LP  0  0  0  0  0  0  0  0  0  0  0  0  # atno 17370 bound_to 10713
  157.0665  130.5847  149.5395 LP  0  0  0  0  0  0  0  0  0  0  0  0  # atno 17371 bound_to 10713
  141.2056  133.7855  157.0223 LP  0  0  0  0  0  0  0  0  0  0  0  0  # atno 17394 bound_to 11000
  140.0837  134.9633  157.1666 LP  0  0  0  0  0  0  0  0  0  0  0  0  # atno 17395 bound_to 11000

$$$$
