AV-unprocessed.smi:282|AV-procd|sdf|2121|dock4
  -GOLD-   2262021423D 1   1.00000     0.00000
 Structure written by MMmdl.
 65 69  0  0  0  0  0  0  0  0  2 V2000
  148.8867  129.0459  153.7034 C   0  0  0  0  0  0  0  0  0  0  0  0
  148.9270  130.5362  154.0673 C   0  0  0  0  0  0  0  0  0  0  0  0
  147.5328  131.1666  154.3046 C   0  0  2  0  0  0  0  0  0  0  0  0
  146.5070  130.8122  153.2078 C   0  0  0  0  0  0  0  0  0  0  0  0
  146.8006  131.5146  151.9299 N   0  3  1  0  0  0  0  0  0  0  0  0
  145.8966  131.1253  150.8163 C   0  0  0  0  0  0  0  0  0  0  0  0
  144.5028  131.7683  150.9485 C   0  0  0  0  0  0  0  0  0  0  0  0
  144.6099  133.2938  151.0778 C   0  0  0  0  0  0  0  0  0  0  0  0
  145.5482  133.6693  152.2334 C   0  0  0  0  0  0  0  0  0  0  0  0
  146.9286  132.9948  152.0712 C   0  0  1  0  0  0  0  0  0  0  0  0
  147.9022  133.3694  153.2063 C   0  0  0  0  0  0  0  0  0  0  0  0
  147.6104  132.6242  154.4303 N   0  0  0  0  0  0  0  0  0  0  0  0
  148.0869  133.1129  155.6038 C   0  0  0  0  0  0  0  0  0  0  0  0
  149.1843  133.9157  155.6013 N   0  0  0  0  0  0  0  0  0  0  0  0
  149.6704  134.3970  156.7492 C   0  0  0  0  0  0  0  0  0  0  0  0
  149.2172  134.2108  157.9900 N   0  0  0  0  0  0  0  0  0  0  0  0
  148.1086  133.4164  157.9983 C   0  0  0  0  0  0  0  0  0  0  0  0
  147.4867  132.8262  156.8621 C   0  0  0  0  0  0  0  0  0  0  0  0
  146.3800  132.0860  157.2608 N   0  0  0  0  0  0  0  0  0  0  0  0
  146.3542  132.2247  158.5580 C   0  0  0  0  0  0  0  0  0  0  0  0
  147.3440  133.0240  159.0838 N   0  0  0  0  0  0  0  0  0  0  0  0
  147.5521  133.3514  160.4860 C   0  0  0  0  0  0  0  0  0  0  0  0
  146.4821  134.2915  161.1297 C   0  0  0  0  0  0  0  0  0  0  0  0
  145.1143  133.5651  161.2682 C   0  0  0  0  0  0  0  0  0  0  0  0
  145.1247  132.5081  162.2079 O   0  0  0  0  0  0  0  0  0  0  0  0
  146.9170  134.8594  162.5059 C   0  0  0  0  0  0  0  0  0  0  0  0
  148.0888  135.8505  162.3949 C   0  0  0  0  0  0  0  0  0  0  0  0
  147.7360  136.9201  161.5273 O   0  0  0  0  0  0  0  0  0  0  0  0
  147.4622  136.4888  160.2006 C   0  0  0  0  0  0  0  0  0  0  0  0
  146.2710  135.5115  160.1976 C   0  0  0  0  0  0  0  0  0  0  0  0
  149.8963  128.6386  153.6462 H   0  0  0  0  0  0  0  0  0  0  0  0
  148.4149  128.8749  152.7365 H   0  0  0  0  0  0  0  0  0  0  0  0
  148.3413  128.4719  154.4530 H   0  0  0  0  0  0  0  0  0  0  0  0
  149.5234  130.6368  154.9749 H   0  0  0  0  0  0  0  0  0  0  0  0
  149.4678  131.0807  153.2930 H   0  0  0  0  0  0  0  0  0  0  0  0
  147.1520  130.7512  155.2363 H   0  0  0  0  0  0  0  0  0  0  0  0
  146.4731  129.7364  153.0405 H   0  0  0  0  0  0  0  0  0  0  0  0
  145.5118  131.0896  153.5558 H   0  0  0  0  0  0  0  0  0  0  0  0
  146.3536  131.4426  149.8781 H   0  0  0  0  0  0  0  0  0  0  0  0
  145.8141  130.0392  150.7634 H   0  0  0  0  0  0  0  0  0  0  0  0
  143.8947  131.5131  150.0801 H   0  0  0  0  0  0  0  0  0  0  0  0
  143.9804  131.3611  151.8145 H   0  0  0  0  0  0  0  0  0  0  0  0
  144.9896  133.7145  150.1459 H   0  0  0  0  0  0  0  0  0  0  0  0
  143.6230  133.7291  151.2369 H   0  0  0  0  0  0  0  0  0  0  0  0
  145.6663  134.7529  152.2666 H   0  0  0  0  0  0  0  0  0  0  0  0
  145.0939  133.3850  153.1831 H   0  0  0  0  0  0  0  0  0  0  0  0
  147.3615  133.3681  151.1418 H   0  0  0  0  0  0  0  0  0  0  0  0
  148.9262  133.1537  152.8995 H   0  0  0  0  0  0  0  0  0  0  0  0
  147.8525  134.4435  153.3913 H   0  0  0  0  0  0  0  0  0  0  0  0
  150.5463  135.0226  156.6607 H   0  0  0  0  0  0  0  0  0  0  0  0
  145.6007  131.7514  159.1702 H   0  0  0  0  0  0  0  0  0  0  0  0
  147.6206  132.4070  161.0233 H   0  0  0  0  0  0  0  0  0  0  0  0
  148.5395  133.8053  160.5785 H   0  0  0  0  0  0  0  0  0  0  0  0
  144.3420  134.2626  161.5943 H   0  0  0  0  0  0  0  0  0  0  0  0
  144.7892  133.1751  160.3031 H   0  0  0  0  0  0  0  0  0  0  0  0
  144.9882  131.6950  161.7463 H   0  0  0  0  0  0  0  0  0  0  0  0
  146.0741  135.3827  162.9599 H   0  0  0  0  0  0  0  0  0  0  0  0
  147.1720  134.0619  163.2025 H   0  0  0  0  0  0  0  0  0  0  0  0
  148.3179  136.2634  163.3773 H   0  0  0  0  0  0  0  0  0  0  0  0
  148.9974  135.3614  162.0424 H   0  0  0  0  0  0  0  0  0  0  0  0
  147.2224  137.3637  159.5961 H   0  0  0  0  0  0  0  0  0  0  0  0
  148.3534  136.0441  159.7573 H   0  0  0  0  0  0  0  0  0  0  0  0
  146.0645  135.1815  159.1787 H   0  0  0  0  0  0  0  0  0  0  0  0
  145.3887  136.0689  160.5149 H   0  0  0  0  0  0  0  0  0  0  0  0
  147.7180  131.1871  151.6636 H   0  0  0  0  0  0  0  0  0  0  0  0
  1  2  1  0  0  0  0
  1 31  1  0  0  0  0
  1 32  1  0  0  0  0
  1 33  1  0  0  0  0
  2  3  1  0  0  0  0
  2 34  1  0  0  0  0
  2 35  1  0  0  0  0
  3 12  1  0  0  0  0
  3  4  1  0  0  0  0
  3 36  1  0  0  0  0
  4  5  1  0  0  0  0
  4 37  1  0  0  0  0
  4 38  1  0  0  0  0
  5 10  1  0  0  0  0
  5  6  1  0  0  0  0
  5 65  1  0  0  0  0
  6  7  1  0  0  0  0
  6 39  1  0  0  0  0
  6 40  1  0  0  0  0
  7  8  1  0  0  0  0
  7 41  1  0  0  0  0
  7 42  1  0  0  0  0
  8  9  1  0  0  0  0
  8 43  1  0  0  0  0
  8 44  1  0  0  0  0
  9 10  1  0  0  0  0
  9 45  1  0  0  0  0
  9 46  1  0  0  0  0
 10 11  1  0  0  0  0
 10 47  1  0  0  0  0
 11 12  1  0  0  0  0
 11 48  1  0  0  0  0
 11 49  1  0  0  0  0
 12 13  1  0  0  0  0
 13 18  1  0  0  0  0
 13 14  2  0  0  0  0
 14 15  1  0  0  0  0
 15 16  2  0  0  0  0
 15 50  1  0  0  0  0
 16 17  1  0  0  0  0
 17 21  1  0  0  0  0
 17 18  2  0  0  0  0
 18 19  1  0  0  0  0
 19 20  2  0  0  0  0
 20 21  1  0  0  0  0
 20 51  1  0  0  0  0
 21 22  1  0  0  0  0
 22 23  1  0  0  0  0
 22 52  1  0  0  0  0
 22 53  1  0  0  0  0
 23 30  1  0  0  0  0
 23 24  1  0  0  0  0
 23 26  1  0  0  0  0
 24 25  1  0  0  0  0
 24 54  1  0  0  0  0
 24 55  1  0  0  0  0
 25 56  1  0  0  0  0
 26 27  1  0  0  0  0
 26 57  1  0  0  0  0
 26 58  1  0  0  0  0
 27 28  1  0  0  0  0
 27 59  1  0  0  0  0
 27 60  1  0  0  0  0
 28 29  1  0  0  0  0
 29 30  1  0  0  0  0
 29 61  1  0  0  0  0
 29 62  1  0  0  0  0
 30 63  1  0  0  0  0
 30 64  1  0  0  0  0
M  CHG  1   5   1
M  END
> <s_m_source_file>
AV-unprocessed.smi

> <i_m_source_file_index>
282

> <i_lp_mmshare_version>
43012

> <i_f3d_flags>
0

> <s_epik_input>
W0NIMl0xW0NIMl1bQ0gyXVtDSDJdW0NAQEhdKE4xMilbQ0gyXU4oW0NAQEhdKFtDSDJdMilbQ0gyXVtDSDNdKWMobltjSF1uMyljKGMzNCluW2NIXW40W0NIMl1DNShbQ0gyXVtPSF0pW0NIMl1bQ0gyXU9bQ0gyXVtDSDJdNQ==

> <s_epik_cmdline>
J2VwaWtfcHl0aG9uJywgJy1waCcsICc3LjAnLCAnLXRuJywgJzgnLCAnLW1hJywgJzIwMCcsICctbWV0YWxfYmluZGluZycsICctaW1hZScsICc8aW5maWxlLm1hZT4nLCAnLW9tYWUnLCAnPG91dGZpbGUubWFlPic=

> <r_lp_tautomer_probability>
1

> <r_epik_Ionization_Penalty>
0.00308583

> <r_epik_Ionization_Penalty_Charging>
0.00300384

> <r_epik_Ionization_Penalty_Neutral>
8.19894e-05

> <r_epik_State_Penalty>
-0

> <r_epik_Charging_Adjusted_Penalty>
0.00300384

> <i_epik_Tot_Q>
1

> <i_epik_Tot_abs_Q>
1

> <r_epik_Metal_State_Penalty>
-0

> <b_epik_Metal_Only>
0

> <s_lp_Force_Field>
OPLS_2005

> <r_lp_Energy>
61.1987

> <b_lp_Chiralities_Consistent>
1

> <s_lp_Variant>
AV-unprocessed.smi:282-5

> <Gold.Version>
5.8.1

> <Gold.Id.Protein>
6NUR|6NUR_protein|mol2

> <Gold.PLP.Fitness>
49.1125

> <Gold.PLP.PLP>
-40.8146

> <Gold.PLP.part.hbond>
-4.3300

> <Gold.PLP.part.metal>
0.0000

> <Gold.PLP.part.buried>
-6.0231

> <Gold.PLP.part.nonpolar>
-29.9607

> <Gold.PLP.part.repulsive>
0.0734

> <Gold.PLP.ligand.clash>
0.0000

> <Gold.PLP.ligand.torsion>
0.9371

> <Gold.PLP.Chemscore.Hbond>
3.2965

> <Gold.PLP.Chemscore.CHOScore>
0.0000

> <Gold.PLP.Chemscore.Metal>
0.0000

> <Gold.Chemscore.Hbonds>
donor molecule, donor type, donor heavy atom, donor atom, acceptor molecule, acceptor atom, score
      L1  H     5    65       P1 10747  0.98
      P1  H  6896  6907       L1    16  1.00
      P1  H  6931  6943       L1    28  1.00
      P1  H  6934  6947       L1    28  0.18

> <Gold.PLP.Chemscore.Internal.Correction>
0.2824

> <Gold.Rescore>
     Score         DG    S(hbond)    S(metal)    S(lipo)     H(rot)  DE(clash)    DE(int)     intcor
     19.20     -21.33       2.78        0.00     104.23       2.20       1.28       0.85       ----

> <Gold.Chemscore.Fitness>
19.1982

> <Gold.Chemscore.DG>
-21.3324

> <Gold.Chemscore.ZeroCoef>
-5.4800

> <Gold.Chemscore.Hbond>
2.7846

> <Gold.Chemscore.Metal>
0.0000

> <Gold.Chemscore.Lipo>
104.2278

> <Gold.Chemscore.Internal_Hbond>
0.0000

> <Gold.Chemscore.DEClash>
1.2798

> <Gold.Chemscore.DEInternal>
0.8544

> <Gold.Chemscore.Rot>
2.2042

> <Gold.Chemscore.Internal.Correction>
   9.000000E+99

> <Gold.Chemscore.Hbonds>
donor molecule, donor type, donor heavy atom, donor atom, acceptor molecule, acceptor atom, score
      L1  H     5    65       P1 10747  0.93
      P1  H  6896  6907       L1    16  0.82
      P1  H  6931  6943       L1    28  0.44
      P1  H  6934  6947       L1    28  0.01

> <Gold.Chemscore.Hbond.Weighted>
-9.3006

> <Gold.Chemscore.Metal.Weighted>
-0.0000

> <Gold.Chemscore.Lipo.Weighted>
-12.1947

> <Gold.Chemscore.Internal_Hbond.Weighted>
0.0000

> <Gold.Chemscore.DEClash.Weighted>
1.2798

> <Gold.Chemscore.DEInternal.Weighted>
0.8544

> <Gold.Chemscore.Rot.Weighted>
5.6429

> <Gold.Chemscore.Internal.Correction.Weighted>
   9.000000E+99

> <Gold.Protein.RotatedTorsions>
[ 6907 6896 6895 6894 ] final -101.20 input  -60.11 | X-H torsion
[ 7974 7965 7964 7962 ] final  158.62 input  175.53 | X-H torsion
[ 8008 7997 7996 7995 ] final  -31.60 input   59.86 | X-H torsion
[ 10167 10162 10161 10158 ] final   -6.11 input  -65.29 | X-H torsion
[ 10718 10713 10712 10709 ] final   94.39 input   66.30 | X-H torsion
[ 10763 10752 10751 10750 ] final   -4.89 input  -60.55 | X-H torsion
[ 11005 11000 10999 10996 ] final  115.67 input  -57.11 | X-H torsion

> <Gold.Protein.ActiveResidues>
 VAL166  LYS551  ARG553  GLY616  TRP617  ASP618  TYR619  PRO620  LYS621  CYS622 
 ASP623  PHE694  ASN695  SER759  ASP760  ASP761  ALA762  ILE779  LEU786  VAL792 
 PHE793  MET794  SER795  GLU796  ALA797  LYS798  CYS799  TRP800  GLU811  SER814 

> <Gold.Protein.RotatedAtoms>
  150.7145  134.0770  159.3884 H   0  0  0  0  0  0  0  0  0  0  0  0  # atno 6907 bound_to 6896
  151.8754  135.0471  160.0493 H   0  0  0  0  0  0  0  0  0  0  0  0  # atno 6908 bound_to 6896
  152.2610  133.5262  159.5418 H   0  0  0  0  0  0  0  0  0  0  0  0  # atno 6909 bound_to 6896
  144.7835  139.7504  143.6250 H   0  0  0  0  0  0  0  0  0  0  0  0  # atno 7974 bound_to 7965
  154.4208  140.1760  156.1592 H   0  0  0  0  0  0  0  0  0  0  0  0  # atno 8008 bound_to 7997
  155.9852  140.3374  155.6676 H   0  0  0  0  0  0  0  0  0  0  0  0  # atno 8009 bound_to 7997
  155.6447  140.0684  157.2597 H   0  0  0  0  0  0  0  0  0  0  0  0  # atno 8010 bound_to 7997
  140.6986  143.6232  150.8593 H   0  0  0  0  0  0  0  0  0  0  0  0  # atno 10167 bound_to 10162
  157.6948  131.0511  150.4179 H   0  0  0  0  0  0  0  0  0  0  0  0  # atno 10718 bound_to 10713
  153.3910  135.7002  153.6495 H   0  0  0  0  0  0  0  0  0  0  0  0  # atno 10763 bound_to 10752
  153.5068  135.3640  155.2567 H   0  0  0  0  0  0  0  0  0  0  0  0  # atno 10764 bound_to 10752
  154.8702  135.4125  154.3226 H   0  0  0  0  0  0  0  0  0  0  0  0  # atno 10765 bound_to 10752
  139.9017  134.9587  156.7081 H   0  0  0  0  0  0  0  0  0  0  0  0  # atno 11005 bound_to 11000
  146.2056  139.5378  142.9715 LP  0  0  0  0  0  0  0  0  0  0  0  0  # atno 17320 bound_to 7965
  145.5984  141.0359  143.2032 LP  0  0  0  0  0  0  0  0  0  0  0  0  # atno 17321 bound_to 7965
  139.9952  143.5804  152.2896 LP  0  0  0  0  0  0  0  0  0  0  0  0  # atno 17342 bound_to 10162
  139.6473  144.7659  151.2217 LP  0  0  0  0  0  0  0  0  0  0  0  0  # atno 17343 bound_to 10162
  156.4557  130.4021  149.6608 LP  0  0  0  0  0  0  0  0  0  0  0  0  # atno 17370 bound_to 10713
  156.3741  130.7545  151.2532 LP  0  0  0  0  0  0  0  0  0  0  0  0  # atno 17371 bound_to 10713
  140.7097  133.9234  155.8076 LP  0  0  0  0  0  0  0  0  0  0  0  0  # atno 17394 bound_to 11000
  141.0309  134.0757  157.4014 LP  0  0  0  0  0  0  0  0  0  0  0  0  # atno 17395 bound_to 11000

$$$$
