AV-unprocessed.smi:2761|AV-procd|sdf|10632|dock1
  -GOLD-   2272015 83D 1   1.00000     0.00000
 Structure written by MMmdl.
 27 28  0  0  0  0  0  0  0  0  1 V2000
  150.4174  141.2048  159.1067 O   0  0  0  0  0  0  0  0  0  0  0  0
  150.8230  141.9740  158.2327 C   0  0  0  0  0  0  0  0  0  0  0  0
  151.3481  141.5904  157.0481 N   0  0  0  0  0  0  0  0  0  0  0  0
  151.5268  140.2928  156.5559 C   0  0  0  0  0  0  0  0  0  0  0  0
  150.4108  139.8759  155.7413 C   0  0  0  0  0  0  0  0  0  0  0  0
  150.4555  138.6381  155.2027 C   0  0  0  0  0  0  0  0  0  0  0  0
  151.5959  137.7533  155.4379 C   0  0  0  0  0  0  0  0  0  0  0  0
  151.7046  136.6179  154.9812 O   0  0  0  0  0  0  0  0  0  0  0  0
  152.5535  138.3087  156.2268 N   0  0  0  0  0  0  0  0  0  0  0  0
  152.5770  139.5685  156.8137 N   0  0  0  0  0  0  0  0  0  0  0  0
  150.7684  143.4910  158.4747 C   0  0  2  0  0  0  0  0  0  0  0  0
  152.1497  144.1703  158.3265 C   0  0  0  0  0  0  0  0  0  0  0  0
  152.0239  145.5595  158.6012 O   0  0  0  0  0  0  0  0  0  0  0  0
  151.5427  145.7866  159.9182 C   0  0  0  0  0  0  0  0  0  0  0  0
  150.1628  145.1262  160.0637 C   0  0  0  0  0  0  0  0  0  0  0  0
  150.2852  143.7361  159.7946 O   0  0  0  0  0  0  0  0  0  0  0  0
  151.6379  142.3472  156.4459 H   0  0  0  0  0  0  0  0  0  0  0  0
  149.5523  140.5024  155.5463 H   0  0  0  0  0  0  0  0  0  0  0  0
  149.6371  138.2936  154.5879 H   0  0  0  0  0  0  0  0  0  0  0  0
  153.3738  137.7574  156.4349 H   0  0  0  0  0  0  0  0  0  0  0  0
  150.0696  143.9145  157.7512 H   0  0  0  0  0  0  0  0  0  0  0  0
  152.8848  143.7222  158.9976 H   0  0  0  0  0  0  0  0  0  0  0  0
  152.5305  144.0572  157.3108 H   0  0  0  0  0  0  0  0  0  0  0  0
  152.2452  145.3882  160.6520 H   0  0  0  0  0  0  0  0  0  0  0  0
  151.4698  146.8604  160.0910 H   0  0  0  0  0  0  0  0  0  0  0  0
  149.7828  145.2609  161.0765 H   0  0  0  0  0  0  0  0  0  0  0  0
  149.4392  145.5801  159.3849 H   0  0  0  0  0  0  0  0  0  0  0  0
  1  2  2  0  0  0  0
  2  3  1  0  0  0  0
  2 11  1  0  0  0  0
  3 17  1  0  0  0  0
  3  4  1  0  0  0  0
  4  5  1  0  0  0  0
  4 10  2  0  0  0  0
  5  6  2  0  0  0  0
  5 18  1  0  0  0  0
  6  7  1  0  0  0  0
  6 19  1  0  0  0  0
  7  8  2  0  0  0  0
  7  9  1  0  0  0  0
  9 10  1  0  0  0  0
  9 20  1  0  0  0  0
 11 16  1  0  0  0  0
 11 12  1  0  0  0  0
 11 21  1  0  0  0  0
 12 13  1  0  0  0  0
 12 22  1  0  0  0  0
 12 23  1  0  0  0  0
 13 14  1  0  0  0  0
 14 15  1  0  0  0  0
 14 24  1  0  0  0  0
 14 25  1  0  0  0  0
 15 16  1  0  0  0  0
 15 26  1  0  0  0  0
 15 27  1  0  0  0  0
M  END
> <s_m_source_file>
AV-unprocessed.smi

> <i_m_source_file_index>
2761

> <i_lp_mmshare_version>
43012

> <i_f3d_flags>
0

> <s_epik_input>
TzFbQ0gyXVtDSDJdT1tDSDJdW0NASF0xQyg9TylbTkhdYzJbY0hdW2NIXWMoW09IXSlubjI=

> <s_epik_cmdline>
J2VwaWtfcHl0aG9uJywgJy1waCcsICc3LjAnLCAnLXRuJywgJzgnLCAnLW1hJywgJzIwMCcsICctbWV0YWxfYmluZGluZycsICctaW1hZScsICc8aW5maWxlLm1hZT4nLCAnLW9tYWUnLCAnPG91dGZpbGUubWFlPic=

> <r_lp_tautomer_probability>
1

> <r_epik_Ionization_Penalty>
0.000593199

> <r_epik_Ionization_Penalty_Charging>
0.000590119

> <r_epik_Ionization_Penalty_Neutral>
3.08036e-06

> <r_epik_State_Penalty>
-0

> <r_epik_Charging_Adjusted_Penalty>
0.000590119

> <i_epik_Tot_Q>
0

> <i_epik_Tot_abs_Q>
0

> <r_epik_Metal_State_Penalty>
0.240077

> <b_epik_Metal_Only>
0

> <s_lp_Force_Field>
OPLS_2005

> <r_lp_Energy>
26.3482

> <b_lp_Chiralities_Consistent>
1

> <s_lp_Variant>
AV-unprocessed.smi:2761-1

> <Gold.Version>
5.8.1

> <Gold.Id.Protein>
6NUR|6NUR_protein|mol2

> <Gold.PLP.Fitness>
35.2830

> <Gold.PLP.PLP>
-30.8370

> <Gold.PLP.part.hbond>
-3.3982

> <Gold.PLP.part.metal>
0.0000

> <Gold.PLP.part.buried>
-4.0640

> <Gold.PLP.part.nonpolar>
-24.6039

> <Gold.PLP.part.repulsive>
1.0975

> <Gold.PLP.ligand.clash>
0.0000

> <Gold.PLP.ligand.torsion>
0.7777

> <Gold.PLP.Chemscore.Hbond>
2.0000

> <Gold.PLP.Chemscore.CHOScore>
0.0000

> <Gold.PLP.Chemscore.Metal>
0.0000

> <Gold.Chemscore.Hbonds>
donor molecule, donor type, donor heavy atom, donor atom, acceptor molecule, acceptor atom, score
      P1  H  7997  8010       L1    10  1.00
      P1  H 10752 10764       L1     8  1.00

> <Gold.PLP.Chemscore.Internal.Correction>
0.0015

> <Gold.Rescore>
     Score         DG    S(hbond)    S(metal)    S(lipo)     H(rot)  DE(clash)    DE(int)     intcor
     14.96     -15.79       1.92        0.00      55.15       1.00       0.03       0.80       ----

> <Gold.Chemscore.Fitness>
14.9607

> <Gold.Chemscore.DG>
-15.7904

> <Gold.Chemscore.ZeroCoef>
-5.4800

> <Gold.Chemscore.Hbond>
1.9215

> <Gold.Chemscore.Metal>
0.0000

> <Gold.Chemscore.Lipo>
55.1506

> <Gold.Chemscore.Internal_Hbond>
0.0000

> <Gold.Chemscore.DEClash>
0.0343

> <Gold.Chemscore.DEInternal>
0.7953

> <Gold.Chemscore.Rot>
1.0000

> <Gold.Chemscore.Internal.Correction>
   9.000000E+99

> <Gold.Chemscore.Hbonds>
donor molecule, donor type, donor heavy atom, donor atom, acceptor molecule, acceptor atom, score
      P1  H  7997  8010       L1    10  0.30
      P1  H 10752 10764       L1     8  1.00

> <Gold.Chemscore.Hbond.Weighted>
-6.4177

> <Gold.Chemscore.Metal.Weighted>
-0.0000

> <Gold.Chemscore.Lipo.Weighted>
-6.4526

> <Gold.Chemscore.Internal_Hbond.Weighted>
0.0000

> <Gold.Chemscore.DEClash.Weighted>
0.0343

> <Gold.Chemscore.DEInternal.Weighted>
0.7953

> <Gold.Chemscore.Rot.Weighted>
2.5600

> <Gold.Chemscore.Internal.Correction.Weighted>
   9.000000E+99

> <Gold.Protein.RotatedTorsions>
[ 6907 6896 6895 6894 ] final  -28.84 input  -60.11 | X-H torsion
[ 7974 7965 7964 7962 ] final  -51.54 input  175.53 | X-H torsion
[ 8008 7997 7996 7995 ] final   75.13 input   59.86 | X-H torsion
[ 10167 10162 10161 10158 ] final -111.94 input  -65.29 | X-H torsion
[ 10718 10713 10712 10709 ] final  177.11 input   66.30 | X-H torsion
[ 10763 10752 10751 10750 ] final  -59.95 input  -60.55 | X-H torsion
[ 11005 11000 10999 10996 ] final  136.45 input  -57.11 | X-H torsion

> <Gold.Protein.ActiveResidues>
 VAL166  LYS551  ARG553  GLY616  TRP617  ASP618  TYR619  PRO620  LYS621  CYS622 
 ASP623  PHE694  ASN695  SER759  ASP760  ASP761  ALA762  ILE779  LEU786  VAL792 
 PHE793  MET794  SER795  GLU796  ALA797  LYS798  CYS799  TRP800  GLU811  SER814 

> <Gold.Protein.RotatedAtoms>
  151.1274  135.0112  159.8566 H   0  0  0  0  0  0  0  0  0  0  0  0  # atno 6907 bound_to 6896
  152.5450  134.1651  159.8584 H   0  0  0  0  0  0  0  0  0  0  0  0  # atno 6908 bound_to 6896
  151.1714  133.4736  159.2627 H   0  0  0  0  0  0  0  0  0  0  0  0  # atno 6909 bound_to 6896
  145.9178  140.7860  142.9662 H   0  0  0  0  0  0  0  0  0  0  0  0  # atno 7974 bound_to 7965
  155.8084  140.3474  155.5443 H   0  0  0  0  0  0  0  0  0  0  0  0  # atno 8008 bound_to 7997
  155.8466  140.0949  157.1721 H   0  0  0  0  0  0  0  0  0  0  0  0  # atno 8009 bound_to 7997
  154.4006  140.1384  156.3780 H   0  0  0  0  0  0  0  0  0  0  0  0  # atno 8010 bound_to 7997
  140.1282  143.4384  152.1645 H   0  0  0  0  0  0  0  0  0  0  0  0  # atno 10167 bound_to 10162
  156.9102  130.9907  151.3022 H   0  0  0  0  0  0  0  0  0  0  0  0  # atno 10718 bound_to 10713
  154.2616  135.6307  153.5276 H   0  0  0  0  0  0  0  0  0  0  0  0  # atno 10763 bound_to 10752
  152.9895  135.5589  154.5698 H   0  0  0  0  0  0  0  0  0  0  0  0  # atno 10764 bound_to 10752
  154.5248  135.2884  155.1206 H   0  0  0  0  0  0  0  0  0  0  0  0  # atno 10765 bound_to 10752
  140.0047  134.9464  157.0149 H   0  0  0  0  0  0  0  0  0  0  0  0  # atno 11005 bound_to 11000
  144.6749  140.1927  143.7395 LP  0  0  0  0  0  0  0  0  0  0  0  0  # atno 17320 bound_to 7965
  145.8589  139.2213  143.1728 LP  0  0  0  0  0  0  0  0  0  0  0  0  # atno 17321 bound_to 7965
  139.5533  144.7354  151.4368 LP  0  0  0  0  0  0  0  0  0  0  0  0  # atno 17342 bound_to 10162
  140.6833  143.8033  150.7151 LP  0  0  0  0  0  0  0  0  0  0  0  0  # atno 17343 bound_to 10162
  157.5972  130.8486  149.8747 LP  0  0  0  0  0  0  0  0  0  0  0  0  # atno 17370 bound_to 10713
  156.0540  130.3712  150.1135 LP  0  0  0  0  0  0  0  0  0  0  0  0  # atno 17371 bound_to 10713
  140.4663  134.1432  155.7197 LP  0  0  0  0  0  0  0  0  0  0  0  0  # atno 17394 bound_to 11000
  141.1668  133.8687  157.1690 LP  0  0  0  0  0  0  0  0  0  0  0  0  # atno 17395 bound_to 11000

$$$$
