AV-unprocessed.smi:2363|AV-procd|sdf|9415|dock2
  -GOLD-   2272013 53D 1   1.00000     0.00000
 Structure written by MMmdl.
 44 45  0  0  0  0  0  0  0  0  1 V2000
  152.4927  139.0680  156.0470 C   0  0  0  0  0  0  0  0  0  0  0  0
  152.4605  138.7327  154.5523 C   0  0  0  0  0  0  0  0  0  0  0  0
  151.0634  138.3093  154.0755 C   0  0  0  0  0  0  0  0  0  0  0  0
  150.0898  139.3710  154.2614 N   0  0  0  0  0  0  0  0  0  0  0  0
  150.4668  140.5337  154.8376 N   0  0  0  0  0  0  0  0  0  0  0  0
  149.3674  141.2758  154.8661 C   0  0  0  0  0  0  0  0  0  0  0  0
  148.2339  140.6156  154.3118 C   0  0  0  0  0  0  0  0  0  0  0  0
  148.7485  139.4027  153.9426 C   0  0  0  0  0  0  0  0  0  0  0  0
  148.1147  138.3473  153.3654 N   0  0  0  0  0  0  0  0  0  0  0  0
  146.8148  138.0100  153.4283 C   0  0  0  0  0  0  0  0  0  0  0  0
  145.9403  138.6423  154.0207 O   0  0  0  0  0  0  0  0  0  0  0  0
  146.5779  136.8778  152.7500 N   0  0  0  0  0  0  0  0  0  0  0  0
  145.2734  136.2351  152.5932 C   0  0  2  0  0  0  0  0  0  0  0  0
  144.7893  135.7434  153.9708 C   0  0  0  0  0  0  0  0  0  0  0  0
  145.3638  135.1045  151.5345 C   0  0  0  0  0  0  0  0  0  0  0  0
  144.0476  134.3065  151.4133 C   0  0  0  0  0  0  0  0  0  0  0  0
  144.1853  133.1500  150.4103 C   0  0  0  0  0  0  0  0  0  0  0  0
  145.2545  132.2958  150.7962 O   0  0  0  0  0  0  0  0  0  0  0  0
  146.5121  132.9593  150.7984 C   0  0  0  0  0  0  0  0  0  0  0  0
  146.5028  134.1056  151.8228 C   0  0  0  0  0  0  0  0  0  0  0  0
  153.4942  139.3672  156.3570 H   0  0  0  0  0  0  0  0  0  0  0  0
  152.2024  138.2066  156.6490 H   0  0  0  0  0  0  0  0  0  0  0  0
  151.8124  139.8868  156.2823 H   0  0  0  0  0  0  0  0  0  0  0  0
  152.7954  139.6000  153.9821 H   0  0  0  0  0  0  0  0  0  0  0  0
  153.1751  137.9342  154.3483 H   0  0  0  0  0  0  0  0  0  0  0  0
  151.0900  138.0363  153.0192 H   0  0  0  0  0  0  0  0  0  0  0  0
  150.7252  137.4262  154.6187 H   0  0  0  0  0  0  0  0  0  0  0  0
  149.4236  142.2677  155.2897 H   0  0  0  0  0  0  0  0  0  0  0  0
  147.2245  140.9861  154.2160 H   0  0  0  0  0  0  0  0  0  0  0  0
  148.7067  137.7351  152.8235 H   0  0  0  0  0  0  0  0  0  0  0  0
  147.3588  136.4277  152.2953 H   0  0  0  0  0  0  0  0  0  0  0  0
  144.5610  136.9775  152.2277 H   0  0  0  0  0  0  0  0  0  0  0  0
  143.7682  135.3658  153.9298 H   0  0  0  0  0  0  0  0  0  0  0  0
  144.7926  136.5527  154.7016 H   0  0  0  0  0  0  0  0  0  0  0  0
  145.4272  134.9473  154.3560 H   0  0  0  0  0  0  0  0  0  0  0  0
  145.5633  135.5646  150.5652 H   0  0  0  0  0  0  0  0  0  0  0  0
  143.7689  133.9057  152.3888 H   0  0  0  0  0  0  0  0  0  0  0  0
  143.2275  134.9516  151.0976 H   0  0  0  0  0  0  0  0  0  0  0  0
  143.2639  132.5680  150.3829 H   0  0  0  0  0  0  0  0  0  0  0  0
  144.3523  133.5278  149.4005 H   0  0  0  0  0  0  0  0  0  0  0  0
  147.2890  132.2378  151.0520 H   0  0  0  0  0  0  0  0  0  0  0  0
  146.7403  133.3330  149.7989 H   0  0  0  0  0  0  0  0  0  0  0  0
  147.4716  134.6033  151.7963 H   0  0  0  0  0  0  0  0  0  0  0  0
  146.3892  133.6936  152.8263 H   0  0  0  0  0  0  0  0  0  0  0  0
  1  2  1  0  0  0  0
  1 21  1  0  0  0  0
  1 22  1  0  0  0  0
  1 23  1  0  0  0  0
  2  3  1  0  0  0  0
  2 24  1  0  0  0  0
  2 25  1  0  0  0  0
  3  4  1  0  0  0  0
  3 26  1  0  0  0  0
  3 27  1  0  0  0  0
  4  8  1  0  0  0  0
  4  5  1  0  0  0  0
  5  6  2  0  0  0  0
  6  7  1  0  0  0  0
  6 28  1  0  0  0  0
  7  8  2  0  0  0  0
  7 29  1  0  0  0  0
  8  9  1  0  0  0  0
  9 10  1  0  0  0  0
  9 30  1  0  0  0  0
 10 11  2  0  0  0  0
 10 12  1  0  0  0  0
 12 13  1  0  0  0  0
 12 31  1  0  0  0  0
 13 14  1  0  0  0  0
 13 15  1  0  0  0  0
 13 32  1  0  0  0  0
 14 33  1  0  0  0  0
 14 34  1  0  0  0  0
 14 35  1  0  0  0  0
 15 20  1  0  0  0  0
 15 16  1  0  0  0  0
 15 36  1  0  0  0  0
 16 17  1  0  0  0  0
 16 37  1  0  0  0  0
 16 38  1  0  0  0  0
 17 18  1  0  0  0  0
 17 39  1  0  0  0  0
 17 40  1  0  0  0  0
 18 19  1  0  0  0  0
 19 20  1  0  0  0  0
 19 41  1  0  0  0  0
 19 42  1  0  0  0  0
 20 43  1  0  0  0  0
 20 44  1  0  0  0  0
M  END
> <s_m_source_file>
AV-unprocessed.smi

> <i_m_source_file_index>
2363

> <i_lp_mmshare_version>
43012

> <i_f3d_flags>
0

> <s_epik_input>
W0NIM11bQ0gyXVtDSDJdbjFuW2NIXVtjSF1jMVtOSF1DKD1PKVtOSF1bQ0BIXShbQ0gzXSlbQ0hdMltDSDJdW0NIMl1PW0NIMl1bQ0gyXTI=

> <s_epik_cmdline>
J2VwaWtfcHl0aG9uJywgJy1waCcsICc3LjAnLCAnLXRuJywgJzgnLCAnLW1hJywgJzIwMCcsICctbWV0YWxfYmluZGluZycsICctaW1hZScsICc8aW5maWxlLm1hZT4nLCAnLW9tYWUnLCAnPG91dGZpbGUubWFlPic=

> <r_lp_tautomer_probability>
1

> <r_epik_Ionization_Penalty>
3.26671e-05

> <r_epik_Ionization_Penalty_Charging>
0

> <r_epik_Ionization_Penalty_Neutral>
3.26671e-05

> <r_epik_State_Penalty>
-0

> <r_epik_Charging_Adjusted_Penalty>
0

> <i_epik_Tot_Q>
0

> <i_epik_Tot_abs_Q>
0

> <r_epik_Metal_State_Penalty>
-0

> <b_epik_Metal_Only>
0

> <s_lp_Force_Field>
OPLS_2005

> <r_lp_Energy>
15.2489

> <b_lp_Chiralities_Consistent>
1

> <s_lp_Variant>
AV-unprocessed.smi:2363-1

> <Gold.Version>
5.8.1

> <Gold.Id.Protein>
6NUR|6NUR_protein|mol2

> <Gold.PLP.Fitness>
47.1390

> <Gold.PLP.PLP>
-36.8208

> <Gold.PLP.part.hbond>
-3.8094

> <Gold.PLP.part.metal>
0.0000

> <Gold.PLP.part.buried>
-3.0735

> <Gold.PLP.part.nonpolar>
-30.9415

> <Gold.PLP.part.repulsive>
0.4262

> <Gold.PLP.ligand.clash>
0.0000

> <Gold.PLP.ligand.torsion>
0.2754

> <Gold.PLP.Chemscore.Hbond>
2.5952

> <Gold.PLP.Chemscore.CHOScore>
1.0000

> <Gold.PLP.Chemscore.Metal>
0.0000

> <Gold.Chemscore.Hbonds>
donor molecule, donor type, donor heavy atom, donor atom, acceptor molecule, acceptor atom, score
      L1  H     9    30       P1  7948  1.00
      L1  H    12    31       P1  7948  1.00
      P1  H  7989  7998       L1     5  0.60
      L1  C     6    28       P1  8028  0.99

> <Gold.PLP.Chemscore.Internal.Correction>
0.0834

> <Gold.Rescore>
     Score         DG    S(hbond)    S(metal)    S(lipo)     H(rot)  DE(clash)    DE(int)     intcor
     14.57     -17.06       1.96        0.00      76.25       1.52       0.08       2.41       ----

> <Gold.Chemscore.Fitness>
14.5728

> <Gold.Chemscore.DG>
-17.0632

> <Gold.Chemscore.ZeroCoef>
-5.4800

> <Gold.Chemscore.Hbond>
1.9602

> <Gold.Chemscore.Metal>
0.0000

> <Gold.Chemscore.Lipo>
76.2510

> <Gold.Chemscore.Internal_Hbond>
0.0000

> <Gold.Chemscore.DEClash>
0.0808

> <Gold.Chemscore.DEInternal>
2.4096

> <Gold.Chemscore.Rot>
1.5176

> <Gold.Chemscore.Internal.Correction>
   9.000000E+99

> <Gold.Chemscore.Hbonds>
donor molecule, donor type, donor heavy atom, donor atom, acceptor molecule, acceptor atom, score
      L1  H     9    30       P1  7948  0.96
      L1  H    12    31       P1  7948  0.99
      P1  H  7989  7998       L1     5  0.04

> <Gold.Chemscore.Hbond.Weighted>
-6.5470

> <Gold.Chemscore.Metal.Weighted>
-0.0000

> <Gold.Chemscore.Lipo.Weighted>
-8.9214

> <Gold.Chemscore.Internal_Hbond.Weighted>
0.0000

> <Gold.Chemscore.DEClash.Weighted>
0.0808

> <Gold.Chemscore.DEInternal.Weighted>
2.4096

> <Gold.Chemscore.Rot.Weighted>
3.8851

> <Gold.Chemscore.Internal.Correction.Weighted>
   9.000000E+99

> <Gold.Protein.RotatedTorsions>
[ 6907 6896 6895 6894 ] final    9.19 input  -60.11 | X-H torsion
[ 7974 7965 7964 7962 ] final   34.62 input  175.53 | X-H torsion
[ 8008 7997 7996 7995 ] final   94.65 input   59.86 | X-H torsion
[ 10167 10162 10161 10158 ] final  156.02 input  -65.29 | X-H torsion
[ 10718 10713 10712 10709 ] final  -82.82 input   66.30 | X-H torsion
[ 10763 10752 10751 10750 ] final  129.60 input  -60.55 | X-H torsion
[ 11005 11000 10999 10996 ] final  135.96 input  -57.11 | X-H torsion

> <Gold.Protein.ActiveResidues>
 VAL166  LYS551  ARG553  GLY616  TRP617  ASP618  TYR619  PRO620  LYS621  CYS622 
 ASP623  PHE694  ASN695  SER759  ASP760  ASP761  ALA762  ILE779  LEU786  VAL792 
 PHE793  MET794  SER795  GLU796  ALA797  LYS798  CYS799  TRP800  GLU811  SER814 

> <Gold.Protein.RotatedAtoms>
  151.7182  135.0899  160.0279 H   0  0  0  0  0  0  0  0  0  0  0  0  # atno 6907 bound_to 6896
  152.3618  133.6302  159.6029 H   0  0  0  0  0  0  0  0  0  0  0  0  # atno 6908 bound_to 6896
  150.7610  133.9327  159.3473 H   0  0  0  0  0  0  0  0  0  0  0  0  # atno 6909 bound_to 6896
  146.1340  139.6246  142.9207 H   0  0  0  0  0  0  0  0  0  0  0  0  # atno 7974 bound_to 7965
  156.0603  140.3297  155.7453 H   0  0  0  0  0  0  0  0  0  0  0  0  # atno 8008 bound_to 7997
  155.5466  140.0606  157.2876 H   0  0  0  0  0  0  0  0  0  0  0  0  # atno 8009 bound_to 7997
  154.4478  140.1901  156.0632 H   0  0  0  0  0  0  0  0  0  0  0  0  # atno 8010 bound_to 7997
  139.4821  144.5047  151.8116 H   0  0  0  0  0  0  0  0  0  0  0  0  # atno 10167 bound_to 10162
  156.0027  130.4646  150.4163 H   0  0  0  0  0  0  0  0  0  0  0  0  # atno 10718 bound_to 10713
  153.7444  135.3219  155.3310 H   0  0  0  0  0  0  0  0  0  0  0  0  # atno 10763 bound_to 10752
  154.8284  135.4552  154.0995 H   0  0  0  0  0  0  0  0  0  0  0  0  # atno 10764 bound_to 10752
  153.2179  135.6944  153.8117 H   0  0  0  0  0  0  0  0  0  0  0  0  # atno 10765 bound_to 10752
  140.0014  134.9477  157.0080 H   0  0  0  0  0  0  0  0  0  0  0  0  # atno 11005 bound_to 11000
  145.5197  141.0432  143.2442 LP  0  0  0  0  0  0  0  0  0  0  0  0  # atno 17320 bound_to 7965
  144.7720  139.6713  143.7190 LP  0  0  0  0  0  0  0  0  0  0  0  0  # atno 17321 bound_to 7965
  140.4543  144.1811  150.5900 LP  0  0  0  0  0  0  0  0  0  0  0  0  # atno 17342 bound_to 10162
  140.4552  143.2471  151.9295 LP  0  0  0  0  0  0  0  0  0  0  0  0  # atno 17343 bound_to 10162
  157.2222  131.0485  151.2540 LP  0  0  0  0  0  0  0  0  0  0  0  0  # atno 17370 bound_to 10713
  157.3790  130.7221  149.6617 LP  0  0  0  0  0  0  0  0  0  0  0  0  # atno 17371 bound_to 10713
  140.4721  134.1376  155.7204 LP  0  0  0  0  0  0  0  0  0  0  0  0  # atno 17394 bound_to 11000
  141.1644  133.8730  157.1755 LP  0  0  0  0  0  0  0  0  0  0  0  0  # atno 17395 bound_to 11000

$$$$
