AV-unprocessed.smi:281|AV-procd|sdf|2114|dock10
  -GOLD-   2262021413D 1   1.00000     0.00000
 Structure written by MMmdl.
 55 59  0  0  0  0  0  0  0  0  1 V2000
  148.3520  140.9226  154.2563 C   0  0  0  0  0  0  0  0  0  0  0  0
  148.5130  139.6573  155.1042 C   0  0  1  0  0  0  0  0  0  0  0  0
  147.7699  138.4575  154.4962 C   0  0  0  0  0  0  0  0  0  0  0  0
  148.0352  137.2681  155.2902 N   0  0  0  0  0  0  0  0  0  0  0  0
  147.2841  136.2027  154.9438 C   0  0  0  0  0  0  0  0  0  0  0  0
  147.4127  135.0862  155.7008 N   0  0  0  0  0  0  0  0  0  0  0  0
  146.6961  133.9966  155.4086 C   0  0  0  0  0  0  0  0  0  0  0  0
  145.8147  133.8159  154.4223 N   0  0  0  0  0  0  0  0  0  0  0  0
  145.6865  134.9384  153.6575 C   0  0  0  0  0  0  0  0  0  0  0  0
  146.3744  136.1693  153.8493 C   0  0  0  0  0  0  0  0  0  0  0  0
  145.9798  137.0882  152.8845 N   0  0  0  0  0  0  0  0  0  0  0  0
  145.1095  136.4369  152.1627 C   0  0  0  0  0  0  0  0  0  0  0  0
  144.8816  135.1345  152.5484 N   0  0  0  0  0  0  0  0  0  0  0  0
  143.9730  134.1837  151.9250 C   0  0  0  0  0  0  0  0  0  0  0  0
  144.3225  133.8613  150.4511 C   0  0  1  0  0  0  0  0  0  0  0  0
  144.1195  135.0216  149.6654 O   0  0  0  0  0  0  0  0  0  0  0  0
  145.7701  133.3937  150.2831 C   0  0  0  0  0  0  0  0  0  0  0  0
  145.6345  131.9074  149.9759 C   0  0  0  0  0  0  0  0  0  0  0  0
  144.4428  131.8579  149.2125 O   0  0  0  0  0  0  0  0  0  0  0  0
  143.4992  132.6988  149.8600 C   0  0  0  0  0  0  0  0  0  0  0  0
  149.4574  136.9748  155.4041 C   0  0  0  0  0  0  0  0  0  0  0  0
  150.2335  138.1912  155.9606 C   0  0  1  0  0  0  0  0  0  0  0  0
  149.9864  138.4450  157.4542 C   0  0  0  0  0  0  0  0  0  0  0  0
  151.2757  138.0004  158.1311 C   0  0  0  0  0  0  0  0  0  0  0  0
  152.2577  138.3455  157.1724 O   0  0  0  0  0  0  0  0  0  0  0  0
  151.7592  137.9322  155.9089 C   0  0  2  0  0  0  0  0  0  0  0  0
  152.5232  138.6317  154.7755 C   0  0  0  0  0  0  0  0  0  0  0  0
  149.9068  139.3556  155.1895 O   0  0  0  0  0  0  0  0  0  0  0  0
  147.3024  141.2032  154.1645 H   0  0  0  0  0  0  0  0  0  0  0  0
  148.7499  140.7773  153.2517 H   0  0  0  0  0  0  0  0  0  0  0  0
  148.8825  141.7622  154.7064 H   0  0  0  0  0  0  0  0  0  0  0  0
  148.1174  139.8603  156.1000 H   0  0  0  0  0  0  0  0  0  0  0  0
  146.6972  138.6541  154.4688 H   0  0  0  0  0  0  0  0  0  0  0  0
  148.0969  138.2973  153.4680 H   0  0  0  0  0  0  0  0  0  0  0  0
  146.8514  133.1473  156.0576 H   0  0  0  0  0  0  0  0  0  0  0  0
  144.6094  136.8934  151.3210 H   0  0  0  0  0  0  0  0  0  0  0  0
  143.9737  133.2698  152.5211 H   0  0  0  0  0  0  0  0  0  0  0  0
  142.9620  134.5878  151.9903 H   0  0  0  0  0  0  0  0  0  0  0  0
  144.6981  134.9832  148.9192 H   0  0  0  0  0  0  0  0  0  0  0  0
  146.2453  133.8872  149.4335 H   0  0  0  0  0  0  0  0  0  0  0  0
  146.3935  133.5809  151.1582 H   0  0  0  0  0  0  0  0  0  0  0  0
  146.4865  131.5104  149.4235 H   0  0  0  0  0  0  0  0  0  0  0  0
  145.5122  131.3262  150.8913 H   0  0  0  0  0  0  0  0  0  0  0  0
  143.0277  132.1103  150.6472 H   0  0  0  0  0  0  0  0  0  0  0  0
  142.7142  133.0213  149.1747 H   0  0  0  0  0  0  0  0  0  0  0  0
  149.6060  136.1042  156.0449 H   0  0  0  0  0  0  0  0  0  0  0  0
  149.8503  136.7159  154.4200 H   0  0  0  0  0  0  0  0  0  0  0  0
  149.8528  139.5116  157.6386 H   0  0  0  0  0  0  0  0  0  0  0  0
  149.1091  137.9304  157.8472 H   0  0  0  0  0  0  0  0  0  0  0  0
  151.4468  138.5009  159.0845 H   0  0  0  0  0  0  0  0  0  0  0  0
  151.2812  136.9222  158.2985 H   0  0  0  0  0  0  0  0  0  0  0  0
  151.9436  136.8584  155.8394 H   0  0  0  0  0  0  0  0  0  0  0  0
  152.1305  138.3397  153.8013 H   0  0  0  0  0  0  0  0  0  0  0  0
  153.5802  138.3669  154.8008 H   0  0  0  0  0  0  0  0  0  0  0  0
  152.4539  139.7168  154.8563 H   0  0  0  0  0  0  0  0  0  0  0  0
  1  2  1  0  0  0  0
  1 29  1  0  0  0  0
  1 30  1  0  0  0  0
  1 31  1  0  0  0  0
  2 28  1  0  0  0  0
  2  3  1  0  0  0  0
  2 32  1  0  0  0  0
  3  4  1  0  0  0  0
  3 33  1  0  0  0  0
  3 34  1  0  0  0  0
  4  5  1  0  0  0  0
  4 21  1  0  0  0  0
  5 10  1  0  0  0  0
  5  6  2  0  0  0  0
  6  7  1  0  0  0  0
  7  8  2  0  0  0  0
  7 35  1  0  0  0  0
  8  9  1  0  0  0  0
  9 13  1  0  0  0  0
  9 10  2  0  0  0  0
 10 11  1  0  0  0  0
 11 12  2  0  0  0  0
 12 13  1  0  0  0  0
 12 36  1  0  0  0  0
 13 14  1  0  0  0  0
 14 15  1  0  0  0  0
 14 37  1  0  0  0  0
 14 38  1  0  0  0  0
 15 20  1  0  0  0  0
 15 16  1  0  0  0  0
 15 17  1  0  0  0  0
 16 39  1  0  0  0  0
 17 18  1  0  0  0  0
 17 40  1  0  0  0  0
 17 41  1  0  0  0  0
 18 19  1  0  0  0  0
 18 42  1  0  0  0  0
 18 43  1  0  0  0  0
 19 20  1  0  0  0  0
 20 44  1  0  0  0  0
 20 45  1  0  0  0  0
 21 22  1  0  0  0  0
 21 46  1  0  0  0  0
 21 47  1  0  0  0  0
 22 26  1  0  0  0  0
 22 23  1  0  0  0  0
 22 28  1  0  0  0  0
 23 24  1  0  0  0  0
 23 48  1  0  0  0  0
 23 49  1  0  0  0  0
 24 25  1  0  0  0  0
 24 50  1  0  0  0  0
 24 51  1  0  0  0  0
 25 26  1  0  0  0  0
 26 27  1  0  0  0  0
 26 52  1  0  0  0  0
 27 53  1  0  0  0  0
 27 54  1  0  0  0  0
 27 55  1  0  0  0  0
M  END
> <s_m_source_file>
AV-unprocessed.smi

> <i_m_source_file_index>
281

> <i_lp_mmshare_version>
43012

> <i_f3d_flags>
0

> <s_epik_input>
W0NIM11bQ0BASF0xT1tDSDJdW0NIMl1bQ0BAXTEyW0NIMl1OKFtDSDJdW0NASF0oTzIpW0NIM10pYyhuW2NIXW4zKWMoYzM0KW5bY0hdbjRbQ0gyXVtDQEBdNShbT0hdKVtDSDJdW0NIMl1PW0NIMl01

> <s_epik_cmdline>
J2VwaWtfcHl0aG9uJywgJy1waCcsICc3LjAnLCAnLXRuJywgJzgnLCAnLW1hJywgJzIwMCcsICctbWV0YWxfYmluZGluZycsICctaW1hZScsICc8aW5maWxlLm1hZT4nLCAnLW9tYWUnLCAnPG91dGZpbGUubWFlPic=

> <r_lp_tautomer_probability>
1

> <r_epik_Ionization_Penalty>
0.00571331

> <r_epik_Ionization_Penalty_Charging>
0

> <r_epik_Ionization_Penalty_Neutral>
0.00571331

> <r_epik_State_Penalty>
0.00399586

> <r_epik_Charging_Adjusted_Penalty>
0.00399586

> <i_epik_Tot_Q>
0

> <i_epik_Tot_abs_Q>
0

> <r_epik_Metal_State_Penalty>
-0

> <b_epik_Metal_Only>
0

> <s_lp_Force_Field>
OPLS_2005

> <r_lp_Energy>
55.7735

> <b_lp_Chiralities_Consistent>
1

> <s_lp_Variant>
AV-unprocessed.smi:281-14

> <Gold.Version>
5.8.1

> <Gold.Id.Protein>
6NUR|6NUR_protein|mol2

> <Gold.PLP.Fitness>
38.0122

> <Gold.PLP.PLP>
-30.9300

> <Gold.PLP.part.hbond>
-2.4278

> <Gold.PLP.part.metal>
0.0000

> <Gold.PLP.part.buried>
-4.4261

> <Gold.PLP.part.nonpolar>
-25.4220

> <Gold.PLP.part.repulsive>
0.6172

> <Gold.PLP.ligand.clash>
0.0000

> <Gold.PLP.ligand.torsion>
0.1063

> <Gold.PLP.Chemscore.Hbond>
1.3900

> <Gold.PLP.Chemscore.CHOScore>
1.0000

> <Gold.PLP.Chemscore.Metal>
0.0000

> <Gold.Chemscore.Hbonds>
donor molecule, donor type, donor heavy atom, donor atom, acceptor molecule, acceptor atom, score
      L1  H    16    39       P1  7921  1.00
      P1  H 10785 10796       L1    19  0.33
      L1  C    12    36       P1 10171  1.00

> <Gold.PLP.Chemscore.Internal.Correction>
0.1248

> <Gold.Rescore>
     Score         DG    S(hbond)    S(metal)    S(lipo)     H(rot)  DE(clash)    DE(int)     intcor
     12.50     -15.57       1.50        0.00      89.08       2.09       0.52       2.55       ----

> <Gold.Chemscore.Fitness>
12.4953

> <Gold.Chemscore.DG>
-15.5668

> <Gold.Chemscore.ZeroCoef>
-5.4800

> <Gold.Chemscore.Hbond>
1.5035

> <Gold.Chemscore.Metal>
0.0000

> <Gold.Chemscore.Lipo>
89.0803

> <Gold.Chemscore.Internal_Hbond>
0.0000

> <Gold.Chemscore.DEClash>
0.5240

> <Gold.Chemscore.DEInternal>
2.5476

> <Gold.Chemscore.Rot>
2.0927

> <Gold.Chemscore.Internal.Correction>
   9.000000E+99

> <Gold.Chemscore.Hbonds>
donor molecule, donor type, donor heavy atom, donor atom, acceptor molecule, acceptor atom, score
      L1  H    16    39       P1  7921  0.99
      P1  H 10785 10796       L1    19  0.11

> <Gold.Chemscore.Hbond.Weighted>
-5.0218

> <Gold.Chemscore.Metal.Weighted>
-0.0000

> <Gold.Chemscore.Lipo.Weighted>
-10.4224

> <Gold.Chemscore.Internal_Hbond.Weighted>
0.0000

> <Gold.Chemscore.DEClash.Weighted>
0.5240

> <Gold.Chemscore.DEInternal.Weighted>
2.5476

> <Gold.Chemscore.Rot.Weighted>
5.3573

> <Gold.Chemscore.Internal.Correction.Weighted>
   9.000000E+99

> <Gold.Protein.RotatedTorsions>
[ 6907 6896 6895 6894 ] final -156.87 input  -60.11 | X-H torsion
[ 7974 7965 7964 7962 ] final  128.42 input  175.53 | X-H torsion
[ 8008 7997 7996 7995 ] final  -83.57 input   59.86 | X-H torsion
[ 10167 10162 10161 10158 ] final  156.96 input  -65.29 | X-H torsion
[ 10718 10713 10712 10709 ] final   45.33 input   66.30 | X-H torsion
[ 10763 10752 10751 10750 ] final   67.01 input  -60.55 | X-H torsion
[ 11005 11000 10999 10996 ] final  132.59 input  -57.11 | X-H torsion

> <Gold.Protein.ActiveResidues>
 VAL166  LYS551  ARG553  GLY616  TRP617  ASP618  TYR619  PRO620  LYS621  CYS622 
 ASP623  PHE694  ASN695  SER759  ASP760  ASP761  ALA762  ILE779  LEU786  VAL792 
 PHE793  MET794  SER795  GLU796  ALA797  LYS798  CYS799  TRP800  GLU811  SER814 

> <Gold.Protein.RotatedAtoms>
  151.2941  133.4152  159.2634 H   0  0  0  0  0  0  0  0  0  0  0  0  # atno 6907 bound_to 6896
  151.0252  134.9499  159.8091 H   0  0  0  0  0  0  0  0  0  0  0  0  # atno 6908 bound_to 6896
  152.5333  134.2903  159.9093 H   0  0  0  0  0  0  0  0  0  0  0  0  # atno 6909 bound_to 6896
  145.0398  139.3973  143.5108 H   0  0  0  0  0  0  0  0  0  0  0  0  # atno 7974 bound_to 7965
  154.6205  140.0617  156.9608 H   0  0  0  0  0  0  0  0  0  0  0  0  # atno 8008 bound_to 7997
  155.1826  140.3300  155.4354 H   0  0  0  0  0  0  0  0  0  0  0  0  # atno 8009 bound_to 7997
  156.2428  140.1895  156.6921 H   0  0  0  0  0  0  0  0  0  0  0  0  # atno 8010 bound_to 7997
  139.4822  144.4961  151.8238 H   0  0  0  0  0  0  0  0  0  0  0  0  # atno 10167 bound_to 10162
  157.4363  130.8055  149.7651 H   0  0  0  0  0  0  0  0  0  0  0  0  # atno 10718 bound_to 10713
  153.0166  135.5299  154.6913 H   0  0  0  0  0  0  0  0  0  0  0  0  # atno 10763 bound_to 10752
  154.6047  135.2872  155.0499 H   0  0  0  0  0  0  0  0  0  0  0  0  # atno 10764 bound_to 10752
  154.1543  135.6558  153.5023 H   0  0  0  0  0  0  0  0  0  0  0  0  # atno 10765 bound_to 10752
  139.9799  134.9551  156.9604 H   0  0  0  0  0  0  0  0  0  0  0  0  # atno 11005 bound_to 11000
  146.3508  139.9992  142.8678 LP  0  0  0  0  0  0  0  0  0  0  0  0  # atno 17320 bound_to 7965
  145.1663  140.9698  143.4348 LP  0  0  0  0  0  0  0  0  0  0  0  0  # atno 17321 bound_to 7965
  140.4449  144.1935  150.5893 LP  0  0  0  0  0  0  0  0  0  0  0  0  # atno 17342 bound_to 10162
  140.4645  143.2436  151.9175 LP  0  0  0  0  0  0  0  0  0  0  0  0  # atno 17343 bound_to 10162
  155.9932  130.3926  150.2911 LP  0  0  0  0  0  0  0  0  0  0  0  0  # atno 17370 bound_to 10713
  157.1072  131.0211  151.3062 LP  0  0  0  0  0  0  0  0  0  0  0  0  # atno 17371 bound_to 10713
  140.5117  134.0996  155.7272 LP  0  0  0  0  0  0  0  0  0  0  0  0  # atno 17394 bound_to 11000
  141.1473  133.9033  157.2185 LP  0  0  0  0  0  0  0  0  0  0  0  0  # atno 17395 bound_to 11000

$$$$
