#       Name:                AV-unprocessed.smi:1535
#       Creating user name   scv26
#       Creation time:       Fri Mar 27 06:34:16 2020


#       File generated by GOLD software.
#

@<TRIPOS>MOLECULE
AV-unprocessed.smi:1535
    51    52     1
SMALL
NO_CHARGES


@<TRIPOS>ATOM
      1 ****        -5.7296   0.6954   3.0292 C.3            1 S1                 0.0000
      2 ****        -4.5030   0.5982   2.1391 C.ar           1 S1                 0.0000
      3 ****        -4.6477   0.7897   0.7467 C.ar           1 S1                 0.0000
      4 ****        -3.5323   0.7092  -0.1151 C.ar           1 S1                 0.0000
      5 ****        -3.4450   0.8621  -1.4882 N.2            1 S1                 0.0000
      6 ****        -2.1462   0.6713  -1.6973 C.2            1 S1                 0.0000
      7 ****        -1.3805   0.4063  -0.6214 N.pl3          1 S1                 0.0000
      8 ****         0.0496   0.1587  -0.6099 C.3            1 S1                 0.0000
      9 ****         0.3977  -1.2945  -0.9929 C.3            1 S1                 0.0000
     10 ****        -0.2090  -2.1805  -0.0740 O.3            1 S1                 0.0000
     11 ****         1.9142  -1.5669  -0.9775 C.3            1 S1                 0.0000
     12 ****         2.6333  -0.8044  -2.0312 N.4            1 S1                 1.0000
     13 ****         2.5700  -1.4684  -3.3544 C.3            1 S1                 0.0000
     14 ****         4.0258  -0.4511  -1.6532 C.3            1 S1                 0.0000
     15 ****         4.0882   0.6962  -0.6248 C.3            1 S1                 0.0000
     16 ****         5.5362   1.0403  -0.2548 C.3            1 S1                 0.0000
     17 ****         3.3750   1.8895  -1.1080 C.1            1 S1                 0.0000
     18 ****         2.8111   2.8241  -1.4896 N.1            1 S1                 0.0000
     19 ****        -2.2580   0.4259   0.4580 C.ar           1 S1                 0.0000
     20 ****        -2.1014   0.2318   1.8419 C.ar           1 S1                 0.0000
     21 ****        -3.2259   0.3205   2.6891 C.ar           1 S1                 0.0000
     22 ****        -3.0464   0.1180   4.1833 C.3            1 S1                 0.0000
     23 ****        -6.6284   0.9020   2.4475 H              1 S1                 0.0000
     24 ****        -5.6105   1.4980   3.7572 H              1 S1                 0.0000
     25 ****        -5.8874  -0.2399   3.5664 H              1 S1                 0.0000
     26 ****        -5.6200   1.0017   0.3272 H              1 S1                 0.0000
     27 ****        -1.7266   0.7236  -2.6915 H              1 S1                 0.0000
     28 ****         0.5148   0.8580  -1.3053 H              1 S1                 0.0000
     29 ****         0.4404   0.3999   0.3795 H              1 S1                 0.0000
     30 ****        -0.0142  -1.5220  -1.9763 H              1 S1                 0.0000
     31 ****        -1.1434  -2.0357  -0.0869 H              1 S1                 0.0000
     32 ****         2.2982  -1.3155   0.0107 H              1 S1                 0.0000
     33 ****         2.1148  -2.6319  -1.1078 H              1 S1                 0.0000
     34 ****         3.1098  -2.4162  -3.3419 H              1 S1                 0.0000
     35 ****         3.0110  -0.8357  -4.1255 H              1 S1                 0.0000
     36 ****         1.5402  -1.6675  -3.6499 H              1 S1                 0.0000
     37 ****         4.5386  -1.3381  -1.2776 H              1 S1                 0.0000
     38 ****         4.5705  -0.1351  -2.5445 H              1 S1                 0.0000
     39 ****         3.5793   0.3984   0.2911 H              1 S1                 0.0000
     40 ****         5.5700   1.8315   0.4947 H              1 S1                 0.0000
     41 ****         6.0968   1.3838  -1.1250 H              1 S1                 0.0000
     42 ****         6.0547   0.1739   0.1567 H              1 S1                 0.0000
     43 ****        -1.1240   0.0179   2.2485 H              1 S1                 0.0000
     44 ****        -2.0060  -0.0892   4.4351 H              1 S1                 0.0000
     45 ****        -3.6485  -0.7216   4.5314 H              1 S1                 0.0000
     46 ****        -3.3504   1.0123   4.7279 H              1 S1                 0.0000
     47 ****         2.1464   0.0748  -2.1344 H              1 S1                 0.0000
     48 ****        -4.1684   1.0631  -2.1488 LP             1 S1                 0.0000
     49 ****         0.1459  -2.0079   0.8448 LP             1 S1                 0.0000
     50 ****        -0.0109  -3.1250  -0.3359 LP             1 S1                 0.0000
     51 ****         2.3234   3.6324  -1.8197 LP             1 S1                 0.0000
@<TRIPOS>BOND
    1    1    2 1     
    2    1   23 1     
    3    1   24 1     
    4    1   25 1     
    5    2   21 ar    
    6    2    3 ar    
    7    3    4 ar    
    8    3   26 1     
    9    4   19 ar    
   10    4    5 1     
   11    5    6 2     
   12    6    7 1     
   13    6   27 1     
   14    7    8 1     
   15    7   19 1     
   16    8    9 1     
   17    8   28 1     
   18    8   29 1     
   19    9   10 1     
   20    9   11 1     
   21    9   30 1     
   22   10   31 1     
   23   11   12 1     
   24   11   32 1     
   25   11   33 1     
   26   12   13 1     
   27   12   14 1     
   28   12   47 1     
   29   13   34 1     
   30   13   35 1     
   31   13   36 1     
   32   14   15 1     
   33   14   37 1     
   34   14   38 1     
   35   15   16 1     
   36   15   17 1     
   37   15   39 1     
   38   16   40 1     
   39   16   41 1     
   40   16   42 1     
   41   17   18 3     
   42   19   20 ar    
   43   20   21 ar    
   44   20   43 1     
   45   21   22 1     
   46   22   44 1     
   47   22   45 1     
   48   22   46 1     
   49    5   48 1     
   50   10   49 1     
   51   10   50 1     
   52   18   51 1     
@<TRIPOS>SUBSTRUCTURE
      1 S1             1
@<TRIPOS>SET
LONE_PAIRS      STATIC     ATOMS    <user>   **** ""
4 48 49 50 51
DONOR_HYDROGENS      STATIC     ATOMS    <user>   **** ""
2 31 47
ATOM$BLUE        STATIC     ATOMS    COLORGROUP SYSTEM
4 48 49 50 51
ATOM$RED        STATIC     ATOMS    COLORGROUP SYSTEM
2 31 47
