AV-unprocessed.smi:3034|AV-procd|sdf|11579|dock1
  -GOLD-   2272016543D 1   1.00000     0.00000
 Structure written by MMmdl.
 31 31  0  0  0  0  0  0  0  0  2 V2000
  149.9470  135.4562  155.4059 C   0  0  0  0  0  0  0  0  0  0  0  0
  150.0458  136.9847  155.3587 C   0  0  0  0  0  0  0  0  0  0  0  0
  151.4857  137.4662  155.1441 C   0  0  0  0  0  0  0  0  0  0  0  0
  151.5993  139.3108  155.2201 S   0  0  0  0  0  0  0  0  0  0  0  0
  153.0189  139.6449  155.0145 O   0  0  0  0  0  0  0  0  0  0  0  0
  150.6601  139.7941  154.1968 O   0  0  0  0  0  0  0  0  0  0  0  0
  151.0548  139.6422  156.7172 N   0  5  0  0  0  0  0  0  0  0  0  0
  151.6377  140.7114  157.5210 C   0  0  0  0  0  0  0  0  0  0  0  0
  150.6549  141.9059  157.6423 C   0  0  2  0  0  0  0  0  0  0  0  0
  150.4655  142.4530  156.3509 O   0  0  0  0  0  0  0  0  0  0  0  0
  151.0668  142.9746  158.6610 C   0  0  0  0  0  0  0  0  0  0  0  0
  152.2120  142.7834  159.4685 C   0  0  0  0  0  0  0  0  0  0  0  0
  152.5709  143.7889  160.3860 C   0  0  0  0  0  0  0  0  0  0  0  0
  151.7715  144.9440  160.4740 C   0  0  0  0  0  0  0  0  0  0  0  0
  150.6409  145.0401  159.6398 C   0  0  0  0  0  0  0  0  0  0  0  0
  150.2872  144.0818  158.7574 N   0  0  0  0  0  0  0  0  0  0  0  0
  148.9160  135.1374  155.5601 H   0  0  0  0  0  0  0  0  0  0  0  0
  150.5477  135.0489  156.2198 H   0  0  0  0  0  0  0  0  0  0  0  0
  150.2983  135.0111  154.4747 H   0  0  0  0  0  0  0  0  0  0  0  0
  149.4108  137.3643  154.5574 H   0  0  0  0  0  0  0  0  0  0  0  0
  149.6537  137.4004  156.2873 H   0  0  0  0  0  0  0  0  0  0  0  0
  152.1429  137.0557  155.9099 H   0  0  0  0  0  0  0  0  0  0  0  0
  151.8516  137.1354  154.1726 H   0  0  0  0  0  0  0  0  0  0  0  0
  151.9118  140.3762  158.5222 H   0  0  0  0  0  0  0  0  0  0  0  0
  152.5667  141.0599  157.0678 H   0  0  0  0  0  0  0  0  0  0  0  0
  149.6804  141.5187  157.9433 H   0  0  0  0  0  0  0  0  0  0  0  0
  149.7238  143.0368  156.3835 H   0  0  0  0  0  0  0  0  0  0  0  0
  152.8134  141.8913  159.3732 H   0  0  0  0  0  0  0  0  0  0  0  0
  153.4460  143.6772  161.0087 H   0  0  0  0  0  0  0  0  0  0  0  0
  152.0185  145.7369  161.1641 H   0  0  0  0  0  0  0  0  0  0  0  0
  150.0030  145.9104  159.6822 H   0  0  0  0  0  0  0  0  0  0  0  0
  1  2  1  0  0  0  0
  1 17  1  0  0  0  0
  1 18  1  0  0  0  0
  1 19  1  0  0  0  0
  2  3  1  0  0  0  0
  2 20  1  0  0  0  0
  2 21  1  0  0  0  0
  3  4  1  0  0  0  0
  3 22  1  0  0  0  0
  3 23  1  0  0  0  0
  4  5  2  0  0  0  0
  4  6  2  0  0  0  0
  4  7  1  0  0  0  0
  7  8  1  0  0  0  0
  8  9  1  0  0  0  0
  8 24  1  0  0  0  0
  8 25  1  0  0  0  0
  9 10  1  0  0  0  0
  9 11  1  0  0  0  0
  9 26  1  0  0  0  0
 10 27  1  0  0  0  0
 11 16  1  0  0  0  0
 11 12  2  0  0  0  0
 12 13  1  0  0  0  0
 12 28  1  0  0  0  0
 13 14  2  0  0  0  0
 13 29  1  0  0  0  0
 14 15  1  0  0  0  0
 14 30  1  0  0  0  0
 15 16  2  0  0  0  0
 15 31  1  0  0  0  0
M  CHG  1   7  -1
M  END
> <s_m_source_file>
AV-unprocessed.smi

> <i_m_source_file_index>
3034

> <i_lp_mmshare_version>
43012

> <i_f3d_flags>
0

> <s_epik_input>
W0NIM11bQ0gyXVtDSDJdUyg9TykoPU8pW05IXVtDSDJdW0NASF0oW09IXSljMVtjSF1bY0hdW2NIXVtjSF1uMQ==

> <s_epik_cmdline>
J2VwaWtfcHl0aG9uJywgJy1waCcsICc3LjAnLCAnLXRuJywgJzgnLCAnLW1hJywgJzIwMCcsICctbWV0YWxfYmluZGluZycsICctaW1hZScsICc8aW5maWxlLm1hZT4nLCAnLW9tYWUnLCAnPG91dGZpbGUubWFlPic=

> <r_epik_Ionization_Penalty>
6.18156

> <r_epik_Ionization_Penalty_Charging>
6.17474

> <r_epik_Ionization_Penalty_Neutral>
0.0068235

> <r_epik_State_Penalty>
6.17598

> <r_epik_Charging_Adjusted_Penalty>
12.3507

> <i_epik_Tot_Q>
-1

> <i_epik_Tot_abs_Q>
1

> <r_epik_Metal_State_Penalty>
2.11803

> <b_epik_Metal_Only>
1

> <s_lp_Force_Field>
OPLS_2005

> <r_lp_Energy>
-0.388479

> <b_lp_Chiralities_Consistent>
1

> <s_lp_Variant>
AV-unprocessed.smi:3034-3

> <Gold.Version>
5.8.1

> <Gold.Id.Protein>
6NUR|6NUR_protein|mol2

> <Gold.PLP.Fitness>
42.3314

> <Gold.PLP.PLP>
-33.7625

> <Gold.PLP.part.hbond>
-3.9545

> <Gold.PLP.part.metal>
0.0000

> <Gold.PLP.part.buried>
-4.9600

> <Gold.PLP.part.nonpolar>
-24.9548

> <Gold.PLP.part.repulsive>
0.3487

> <Gold.PLP.ligand.clash>
0.0000

> <Gold.PLP.ligand.torsion>
0.7450

> <Gold.PLP.Chemscore.Hbond>
3.0000

> <Gold.PLP.Chemscore.CHOScore>
0.0000

> <Gold.PLP.Chemscore.Metal>
0.0000

> <Gold.Chemscore.Hbonds>
donor molecule, donor type, donor heavy atom, donor atom, acceptor molecule, acceptor atom, score
      L1  H    10    27       P1  8028  0.93
      P1  H  7989  7998       L1     6  0.90
      P1  H  7997  8009       L1     5  1.00

> <Gold.PLP.Chemscore.Internal.Correction>
1.0588

> <Gold.Rescore>
     Score         DG    S(hbond)    S(metal)    S(lipo)     H(rot)  DE(clash)    DE(int)     intcor
     18.02     -18.72       2.97        0.00      78.54       2.29       0.03       0.66       ----

> <Gold.Chemscore.Fitness>
18.0224

> <Gold.Chemscore.DG>
-18.7169

> <Gold.Chemscore.ZeroCoef>
-5.4800

> <Gold.Chemscore.Hbond>
2.9667

> <Gold.Chemscore.Metal>
0.0000

> <Gold.Chemscore.Lipo>
78.5414

> <Gold.Chemscore.Internal_Hbond>
0.0000

> <Gold.Chemscore.DEClash>
0.0345

> <Gold.Chemscore.DEInternal>
0.6601

> <Gold.Chemscore.Rot>
2.2895

> <Gold.Chemscore.Internal.Correction>
   9.000000E+99

> <Gold.Chemscore.Hbonds>
donor molecule, donor type, donor heavy atom, donor atom, acceptor molecule, acceptor atom, score
      L1  H    10    27       P1  8028  0.85
      P1  H  7989  7998       L1     6  0.18
      P1  H  7997  8009       L1     5  1.00

> <Gold.Chemscore.Hbond.Weighted>
-9.9088

> <Gold.Chemscore.Metal.Weighted>
-0.0000

> <Gold.Chemscore.Lipo.Weighted>
-9.1893

> <Gold.Chemscore.Internal_Hbond.Weighted>
0.0000

> <Gold.Chemscore.DEClash.Weighted>
0.0345

> <Gold.Chemscore.DEInternal.Weighted>
0.6601

> <Gold.Chemscore.Rot.Weighted>
5.8612

> <Gold.Chemscore.Internal.Correction.Weighted>
   9.000000E+99

> <Gold.Protein.RotatedTorsions>
[ 6907 6896 6895 6894 ] final -165.37 input  -60.11 | X-H torsion
[ 7974 7965 7964 7962 ] final   51.80 input  175.53 | X-H torsion
[ 8008 7997 7996 7995 ] final -141.38 input   59.86 | X-H torsion
[ 10167 10162 10161 10158 ] final   68.58 input  -65.29 | X-H torsion
[ 10718 10713 10712 10709 ] final -171.51 input   66.30 | X-H torsion
[ 10763 10752 10751 10750 ] final  140.44 input  -60.55 | X-H torsion
[ 11005 11000 10999 10996 ] final -111.68 input  -57.11 | X-H torsion

> <Gold.Protein.ActiveResidues>
 VAL166  LYS551  ARG553  GLY616  TRP617  ASP618  TYR619  PRO620  LYS621  CYS622 
 ASP623  PHE694  ASN695  SER759  ASP760  ASP761  ALA762  ILE779  LEU786  VAL792 
 PHE793  MET794  SER795  GLU796  ALA797  LYS798  CYS799  TRP800  GLU811  SER814 

> <Gold.Protein.RotatedAtoms>
  151.4266  133.3682  159.2762 H   0  0  0  0  0  0  0  0  0  0  0  0  # atno 6907 bound_to 6896
  150.9255  134.8673  159.7527 H   0  0  0  0  0  0  0  0  0  0  0  0  # atno 6908 bound_to 6896
  152.5003  134.4207  159.9532 H   0  0  0  0  0  0  0  0  0  0  0  0  # atno 6909 bound_to 6896
  145.9878  139.4307  143.0092 H   0  0  0  0  0  0  0  0  0  0  0  0  # atno 7974 bound_to 7965
  155.4769  140.0557  157.2972 H   0  0  0  0  0  0  0  0  0  0  0  0  # atno 8008 bound_to 7997
  154.4676  140.2025  156.0031 H   0  0  0  0  0  0  0  0  0  0  0  0  # atno 8009 bound_to 7997
  156.1001  140.3220  155.7935 H   0  0  0  0  0  0  0  0  0  0  0  0  # atno 8010 bound_to 7997
  140.0772  144.5102  150.7187 H   0  0  0  0  0  0  0  0  0  0  0  0  # atno 10167 bound_to 10162
  156.7420  130.9346  151.3110 H   0  0  0  0  0  0  0  0  0  0  0  0  # atno 10718 bound_to 10713
  153.9227  135.2999  155.3447 H   0  0  0  0  0  0  0  0  0  0  0  0  # atno 10763 bound_to 10752
  154.7567  135.4954  153.9391 H   0  0  0  0  0  0  0  0  0  0  0  0  # atno 10764 bound_to 10752
  153.1133  135.6764  153.9565 H   0  0  0  0  0  0  0  0  0  0  0  0  # atno 10765 bound_to 10752
  141.0720  133.9364  157.2466 H   0  0  0  0  0  0  0  0  0  0  0  0  # atno 11005 bound_to 11000
  145.7675  140.9910  143.1167 LP  0  0  0  0  0  0  0  0  0  0  0  0  # atno 17320 bound_to 7965
  144.6880  139.9407  143.7475 LP  0  0  0  0  0  0  0  0  0  0  0  0  # atno 17321 bound_to 7965
  140.7096  143.2494  151.4621 LP  0  0  0  0  0  0  0  0  0  0  0  0  # atno 17342 bound_to 10162
  139.5801  144.1729  152.1956 LP  0  0  0  0  0  0  0  0  0  0  0  0  # atno 17343 bound_to 10162
  157.6814  130.9144  150.0278 LP  0  0  0  0  0  0  0  0  0  0  0  0  # atno 17370 bound_to 10713
  156.1458  130.3642  149.9512 LP  0  0  0  0  0  0  0  0  0  0  0  0  # atno 17371 bound_to 10713
  139.9533  135.0171  156.9056 LP  0  0  0  0  0  0  0  0  0  0  0  0  # atno 17394 bound_to 11000
  140.5654  134.0495  155.7412 LP  0  0  0  0  0  0  0  0  0  0  0  0  # atno 17395 bound_to 11000

$$$$
