AV-unprocessed.smi:311|AV-procd|sdf|2304|dock4
  -GOLD-   2262022203D 1   1.00000     0.00000
 Structure written by MMmdl.
 44 46  0  0  0  0  0  0  0  0  2 V2000
  148.7255  135.8491  155.7237 C   0  0  0  0  0  0  0  0  0  0  0  0
  149.4466  134.6350  156.2352 C   0  0  0  0  0  0  0  0  0  0  0  0
  149.7434  134.5450  157.5204 N   0  0  0  0  0  0  0  0  0  0  0  0
  150.3906  133.3160  157.6791 O   0  0  0  0  0  0  0  0  0  0  0  0
  150.4540  132.7040  156.4695 C   0  0  0  0  0  0  0  0  0  0  0  0
  151.1062  131.3633  156.4346 C   0  0  0  0  0  0  0  0  0  0  0  0
  149.8729  133.4857  155.5088 C   0  0  0  0  0  0  0  0  0  0  0  0
  149.7024  133.2053  154.0371 C   0  0  0  0  0  0  0  0  0  0  0  0
  148.2122  133.1497  153.7049 C   0  0  0  0  0  0  0  0  0  0  0  0
  147.5120  132.2459  154.1602 O   0  0  0  0  0  0  0  0  0  0  0  0
  147.7495  134.1050  152.8837 N   0  0  0  0  0  0  0  0  0  0  0  0
  146.3961  134.1668  152.3423 C   0  0  1  0  0  0  0  0  0  0  0  0
  145.8120  135.5861  152.3426 C   0  0  0  0  0  0  0  0  0  0  0  0
  144.9986  135.6932  151.0368 C   0  0  0  0  0  0  0  0  0  0  0  0
  145.0809  134.3719  150.3716 N   0  3  2  0  0  0  0  0  0  0  0  0
  143.8723  133.5401  150.6275 C   0  0  0  0  0  0  0  0  0  0  0  0
  144.0512  132.0935  150.1481 C   0  0  0  0  0  0  0  0  0  0  0  0
  145.2684  131.4579  150.8248 C   0  0  0  0  0  0  0  0  0  0  0  0
  146.5157  132.2874  150.5058 C   0  0  0  0  0  0  0  0  0  0  0  0
  146.3524  133.7840  150.8572 C   0  0  2  0  0  0  0  0  0  0  0  0
  149.1022  136.1456  154.7447 H   0  0  0  0  0  0  0  0  0  0  0  0
  148.8447  136.7012  156.3938 H   0  0  0  0  0  0  0  0  0  0  0  0
  147.6582  135.6518  155.6213 H   0  0  0  0  0  0  0  0  0  0  0  0
  150.7043  130.7540  155.6249 H   0  0  0  0  0  0  0  0  0  0  0  0
  150.9441  130.8268  157.3700 H   0  0  0  0  0  0  0  0  0  0  0  0
  152.1811  131.4623  156.2835 H   0  0  0  0  0  0  0  0  0  0  0  0
  150.1775  133.9770  153.4302 H   0  0  0  0  0  0  0  0  0  0  0  0
  150.1677  132.2625  153.7476 H   0  0  0  0  0  0  0  0  0  0  0  0
  148.4019  134.8073  152.5660 H   0  0  0  0  0  0  0  0  0  0  0  0
  145.7254  133.5219  152.9128 H   0  0  0  0  0  0  0  0  0  0  0  0
  145.1901  135.7539  153.2226 H   0  0  0  0  0  0  0  0  0  0  0  0
  146.5991  136.3417  152.3493 H   0  0  0  0  0  0  0  0  0  0  0  0
  143.9690  136.0080  151.2137 H   0  0  0  0  0  0  0  0  0  0  0  0
  145.4541  136.4367  150.3816 H   0  0  0  0  0  0  0  0  0  0  0  0
  143.6395  133.5397  151.6936 H   0  0  0  0  0  0  0  0  0  0  0  0
  143.0180  133.9933  150.1232 H   0  0  0  0  0  0  0  0  0  0  0  0
  143.1556  131.5137  150.3733 H   0  0  0  0  0  0  0  0  0  0  0  0
  144.1719  132.0718  149.0642 H   0  0  0  0  0  0  0  0  0  0  0  0
  145.1159  131.4040  151.9034 H   0  0  0  0  0  0  0  0  0  0  0  0
  145.4009  130.4329  150.4768 H   0  0  0  0  0  0  0  0  0  0  0  0
  147.3872  131.8675  151.0077 H   0  0  0  0  0  0  0  0  0  0  0  0
  146.7221  132.2022  149.4381 H   0  0  0  0  0  0  0  0  0  0  0  0
  147.1566  134.3240  150.3527 H   0  0  0  0  0  0  0  0  0  0  0  0
  145.1469  134.5036  149.3722 H   0  0  0  0  0  0  0  0  0  0  0  0
  1  2  1  0  0  0  0
  1 21  1  0  0  0  0
  1 22  1  0  0  0  0
  1 23  1  0  0  0  0
  2  7  1  0  0  0  0
  2  3  2  0  0  0  0
  3  4  1  0  0  0  0
  4  5  1  0  0  0  0
  5  6  1  0  0  0  0
  5  7  2  0  0  0  0
  6 24  1  0  0  0  0
  6 25  1  0  0  0  0
  6 26  1  0  0  0  0
  7  8  1  0  0  0  0
  8  9  1  0  0  0  0
  8 27  1  0  0  0  0
  8 28  1  0  0  0  0
  9 10  2  0  0  0  0
  9 11  1  0  0  0  0
 11 12  1  0  0  0  0
 11 29  1  0  0  0  0
 12 20  1  0  0  0  0
 12 13  1  0  0  0  0
 12 30  1  0  0  0  0
 13 14  1  0  0  0  0
 13 31  1  0  0  0  0
 13 32  1  0  0  0  0
 14 15  1  0  0  0  0
 14 33  1  0  0  0  0
 14 34  1  0  0  0  0
 15 20  1  0  0  0  0
 15 16  1  0  0  0  0
 15 44  1  0  0  0  0
 16 17  1  0  0  0  0
 16 35  1  0  0  0  0
 16 36  1  0  0  0  0
 17 18  1  0  0  0  0
 17 37  1  0  0  0  0
 17 38  1  0  0  0  0
 18 19  1  0  0  0  0
 18 39  1  0  0  0  0
 18 40  1  0  0  0  0
 19 20  1  0  0  0  0
 19 41  1  0  0  0  0
 19 42  1  0  0  0  0
 20 43  1  0  0  0  0
M  CHG  1  15   1
M  END
> <s_m_source_file>
AV-unprocessed.smi

> <i_m_source_file_index>
311

> <i_lp_mmshare_version>
43012

> <i_f3d_flags>
0

> <s_epik_input>
W0NIM11jMW5vYyhbQ0gzXSljMVtDSDJdQyg9TylbTkhdW0NASF0oW0NIMl1bQ0gyXTIpW0NAQEhdKE4yMylbQ0gyXVtDSDJdW0NIMl1bQ0gyXTM=

> <s_epik_cmdline>
J2VwaWtfcHl0aG9uJywgJy1waCcsICc3LjAnLCAnLXRuJywgJzgnLCAnLW1hJywgJzIwMCcsICctbWV0YWxfYmluZGluZycsICctaW1hZScsICc8aW5maWxlLm1hZT4nLCAnLW9tYWUnLCAnPG91dGZpbGUubWFlPic=

> <r_epik_Ionization_Penalty>
0.00173669

> <r_epik_Ionization_Penalty_Charging>
0.0017366

> <r_epik_Ionization_Penalty_Neutral>
9.2145e-08

> <r_epik_State_Penalty>
0.00117499

> <r_epik_Charging_Adjusted_Penalty>
0.00291159

> <i_epik_Tot_Q>
1

> <i_epik_Tot_abs_Q>
1

> <r_epik_Metal_State_Penalty>
-0

> <b_epik_Metal_Only>
0

> <s_lp_Force_Field>
OPLS_2005

> <r_lp_Energy>
30.3664

> <b_lp_Chiralities_Consistent>
1

> <s_lp_Variant>
AV-unprocessed.smi:311-8

> <Gold.Version>
5.8.1

> <Gold.Id.Protein>
6NUR|6NUR_protein|mol2

> <Gold.PLP.Fitness>
41.9211

> <Gold.PLP.PLP>
-33.4029

> <Gold.PLP.part.hbond>
-4.0000

> <Gold.PLP.part.metal>
0.0000

> <Gold.PLP.part.buried>
-1.1909

> <Gold.PLP.part.nonpolar>
-27.9202

> <Gold.PLP.part.repulsive>
0.0931

> <Gold.PLP.ligand.clash>
0.0000

> <Gold.PLP.ligand.torsion>
0.2475

> <Gold.PLP.Chemscore.Hbond>
3.0000

> <Gold.PLP.Chemscore.CHOScore>
0.0000

> <Gold.PLP.Chemscore.Metal>
0.0000

> <Gold.Chemscore.Hbonds>
donor molecule, donor type, donor heavy atom, donor atom, acceptor molecule, acceptor atom, score
      L1  H    11    29       P1  7948  1.00
      L1  H    15    44       P1  7921  1.00
      P1  H  6896  6908       L1     4  1.00

> <Gold.PLP.Chemscore.Internal.Correction>
0.0131

> <Gold.Rescore>
     Score         DG    S(hbond)    S(metal)    S(lipo)     H(rot)  DE(clash)    DE(int)     intcor
     19.15     -20.41       2.57        0.00      83.86       1.36       1.06       0.20       ----

> <Gold.Chemscore.Fitness>
19.1473

> <Gold.Chemscore.DG>
-20.4145

> <Gold.Chemscore.ZeroCoef>
-5.4800

> <Gold.Chemscore.Hbond>
2.5736

> <Gold.Chemscore.Metal>
0.0000

> <Gold.Chemscore.Lipo>
83.8600

> <Gold.Chemscore.Internal_Hbond>
0.0000

> <Gold.Chemscore.DEClash>
1.0643

> <Gold.Chemscore.DEInternal>
0.2028

> <Gold.Chemscore.Rot>
1.3567

> <Gold.Chemscore.Internal.Correction>
   9.000000E+99

> <Gold.Chemscore.Hbonds>
donor molecule, donor type, donor heavy atom, donor atom, acceptor molecule, acceptor atom, score
      L1  H    11    29       P1  7948  0.30
      L1  H    15    44       P1  7921  0.92
      P1  H  6896  6908       L1     4  0.28

> <Gold.Chemscore.Hbond.Weighted>
-8.5959

> <Gold.Chemscore.Metal.Weighted>
-0.0000

> <Gold.Chemscore.Lipo.Weighted>
-9.8116

> <Gold.Chemscore.Internal_Hbond.Weighted>
0.0000

> <Gold.Chemscore.DEClash.Weighted>
1.0643

> <Gold.Chemscore.DEInternal.Weighted>
0.2028

> <Gold.Chemscore.Rot.Weighted>
3.4731

> <Gold.Chemscore.Internal.Correction.Weighted>
   9.000000E+99

> <Gold.Protein.RotatedTorsions>
[ 6907 6896 6895 6894 ] final   94.74 input  -60.11 | X-H torsion
[ 7974 7965 7964 7962 ] final -130.55 input  175.53 | X-H torsion
[ 8008 7997 7996 7995 ] final  166.35 input   59.86 | X-H torsion
[ 10167 10162 10161 10158 ] final   18.34 input  -65.29 | X-H torsion
[ 10718 10713 10712 10709 ] final   37.12 input   66.30 | X-H torsion
[ 10763 10752 10751 10750 ] final  130.78 input  -60.55 | X-H torsion
[ 11005 11000 10999 10996 ] final -131.14 input  -57.11 | X-H torsion

> <Gold.Protein.ActiveResidues>
 VAL166  LYS551  ARG553  GLY616  TRP617  ASP618  TYR619  PRO620  LYS621  CYS622 
 ASP623  PHE694  ASN695  SER759  ASP760  ASP761  ALA762  ILE779  LEU786  VAL792 
 PHE793  MET794  SER795  GLU796  ALA797  LYS798  CYS799  TRP800  GLU811  SER814 

> <Gold.Protein.RotatedAtoms>
  152.5448  134.1147  159.8373 H   0  0  0  0  0  0  0  0  0  0  0  0  # atno 6907 bound_to 6896
  151.1210  133.5097  159.2609 H   0  0  0  0  0  0  0  0  0  0  0  0  # atno 6908 bound_to 6896
  151.1779  135.0357  159.8834 H   0  0  0  0  0  0  0  0  0  0  0  0  # atno 6909 bound_to 6896
  144.9464  140.7296  143.4815 H   0  0  0  0  0  0  0  0  0  0  0  0  # atno 7974 bound_to 7965
  156.1725  140.1646  156.8421 H   0  0  0  0  0  0  0  0  0  0  0  0  # atno 8008 bound_to 7997
  154.5272  140.0765  156.8314 H   0  0  0  0  0  0  0  0  0  0  0  0  # atno 8009 bound_to 7997
  155.3482  140.3388  155.4241 H   0  0  0  0  0  0  0  0  0  0  0  0  # atno 8010 bound_to 7997
  140.5660  143.9249  150.6677 H   0  0  0  0  0  0  0  0  0  0  0  0  # atno 10167 bound_to 10162
  157.3431  130.7558  149.6926 H   0  0  0  0  0  0  0  0  0  0  0  0  # atno 10718 bound_to 10713
  153.7637  135.3192  155.3341 H   0  0  0  0  0  0  0  0  0  0  0  0  # atno 10763 bound_to 10752
  154.8221  135.4596  154.0813 H   0  0  0  0  0  0  0  0  0  0  0  0  # atno 10764 bound_to 10752
  153.2051  135.6928  153.8266 H   0  0  0  0  0  0  0  0  0  0  0  0  # atno 10765 bound_to 10752
  140.9284  134.1352  157.4255 H   0  0  0  0  0  0  0  0  0  0  0  0  # atno 11005 bound_to 11000
  145.2912  139.1883  143.4739 LP  0  0  0  0  0  0  0  0  0  0  0  0  # atno 17320 bound_to 7965
  146.3305  140.2889  142.8614 LP  0  0  0  0  0  0  0  0  0  0  0  0  # atno 17321 bound_to 7965
  140.2712  143.3454  152.1236 LP  0  0  0  0  0  0  0  0  0  0  0  0  # atno 17342 bound_to 10162
  139.5093  144.6865  151.5873 LP  0  0  0  0  0  0  0  0  0  0  0  0  # atno 17343 bound_to 10162
  155.9710  130.4162  150.4218 LP  0  0  0  0  0  0  0  0  0  0  0  0  # atno 17370 bound_to 10713
  157.2269  131.0495  151.2515 LP  0  0  0  0  0  0  0  0  0  0  0  0  # atno 17371 bound_to 10713
  139.8791  134.9996  156.5966 LP  0  0  0  0  0  0  0  0  0  0  0  0  # atno 17394 bound_to 11000
  140.7895  133.8594  155.8634 LP  0  0  0  0  0  0  0  0  0  0  0  0  # atno 17395 bound_to 11000

$$$$
