AV-unprocessed.smi:3263|AV-procd|sdf|12490|dock2
  -GOLD-   2272018393D 1   1.00000     0.00000
 Structure written by MMmdl.
 42 44  0  0  0  0  0  0  0  0  2 V2000
  144.2306  136.4547  152.3503 O   0  0  0  0  0  0  0  0  0  0  0  0
  145.4250  136.2973  152.0960 C   0  0  0  0  0  0  0  0  0  0  0  0
  145.9152  134.9878  151.4728 C   0  0  0  0  0  0  0  0  0  0  0  0
  144.8228  134.2673  150.6511 C   0  0  2  0  0  0  0  0  0  0  0  0
  143.6584  133.7134  151.5001 C   0  0  0  0  0  0  0  0  0  0  0  0
  143.5367  132.2574  151.0115 C   0  0  2  0  0  0  0  0  0  0  0  0
  144.7135  131.4375  151.5715 C   0  0  0  0  0  0  0  0  0  0  0  0
  145.9061  131.9498  150.7435 C   0  0  0  0  0  0  0  0  0  0  0  0
  145.2604  133.0207  149.8400 C   0  0  1  0  0  0  0  0  0  0  0  0
  143.9107  132.3780  149.5384 C   0  0  0  0  0  0  0  0  0  0  0  0
  146.3554  137.2374  152.3211 N   0  0  0  0  0  0  0  0  0  0  0  0
  146.0808  138.5721  152.8378 C   0  0  0  0  0  0  0  0  0  0  0  0
  147.1099  139.5927  152.3227 C   0  0  0  0  0  0  0  0  0  0  0  0
  148.2840  139.7510  153.2680 C   0  0  0  0  0  0  0  0  0  0  0  0
  148.5031  140.9345  154.0060 C   0  0  0  0  0  0  0  0  0  0  0  0
  149.6191  141.0130  154.8651 C   0  0  0  0  0  0  0  0  0  0  0  0
  150.4909  139.9090  154.9675 C   0  0  0  0  0  0  0  0  0  0  0  0
  150.2246  138.7523  154.2067 C   0  0  0  0  0  0  0  0  0  0  0  0
  149.1452  138.7154  153.3951 N   0  3  0  0  0  0  0  0  0  0  0  0
  146.7954  135.1761  150.8569 H   0  0  0  0  0  0  0  0  0  0  0  0
  146.2507  134.3346  152.2790 H   0  0  0  0  0  0  0  0  0  0  0  0
  144.4057  134.9907  149.9475 H   0  0  0  0  0  0  0  0  0  0  0  0
  143.8498  133.7660  152.5728 H   0  0  0  0  0  0  0  0  0  0  0  0
  142.7422  134.2708  151.3019 H   0  0  0  0  0  0  0  0  0  0  0  0
  142.5613  131.8107  151.2063 H   0  0  0  0  0  0  0  0  0  0  0  0
  144.8531  131.5914  152.6420 H   0  0  0  0  0  0  0  0  0  0  0  0
  144.5606  130.3706  151.4040 H   0  0  0  0  0  0  0  0  0  0  0  0
  146.7156  132.3356  151.3620 H   0  0  0  0  0  0  0  0  0  0  0  0
  146.3196  131.1417  150.1385 H   0  0  0  0  0  0  0  0  0  0  0  0
  145.8526  133.2590  148.9558 H   0  0  0  0  0  0  0  0  0  0  0  0
  143.9920  131.4146  149.0319 H   0  0  0  0  0  0  0  0  0  0  0  0
  143.2378  133.0241  148.9716 H   0  0  0  0  0  0  0  0  0  0  0  0
  147.3146  137.0222  152.0895 H   0  0  0  0  0  0  0  0  0  0  0  0
  145.0678  138.8739  152.5658 H   0  0  0  0  0  0  0  0  0  0  0  0
  146.1109  138.5303  153.9271 H   0  0  0  0  0  0  0  0  0  0  0  0
  147.4770  139.2885  151.3415 H   0  0  0  0  0  0  0  0  0  0  0  0
  146.6429  140.5690  152.1848 H   0  0  0  0  0  0  0  0  0  0  0  0
  147.8269  141.7724  153.9162 H   0  0  0  0  0  0  0  0  0  0  0  0
  149.8041  141.9095  155.4387 H   0  0  0  0  0  0  0  0  0  0  0  0
  151.3510  139.9489  155.6199 H   0  0  0  0  0  0  0  0  0  0  0  0
  150.8371  137.8626  154.2224 H   0  0  0  0  0  0  0  0  0  0  0  0
  148.9716  137.8682  152.8531 H   0  0  0  0  0  0  0  0  0  0  0  0
  1  2  2  0  0  0  0
  2  3  1  0  0  0  0
  2 11  1  0  0  0  0
  3  4  1  0  0  0  0
  3 20  1  0  0  0  0
  3 21  1  0  0  0  0
  4  9  1  0  0  0  0
  4  5  1  0  0  0  0
  4 22  1  0  0  0  0
  5  6  1  0  0  0  0
  5 23  1  0  0  0  0
  5 24  1  0  0  0  0
  6 10  1  0  0  0  0
  6  7  1  0  0  0  0
  6 25  1  0  0  0  0
  7  8  1  0  0  0  0
  7 26  1  0  0  0  0
  7 27  1  0  0  0  0
  8  9  1  0  0  0  0
  8 28  1  0  0  0  0
  8 29  1  0  0  0  0
  9 10  1  0  0  0  0
  9 30  1  0  0  0  0
 10 31  1  0  0  0  0
 10 32  1  0  0  0  0
 11 12  1  0  0  0  0
 11 33  1  0  0  0  0
 12 13  1  0  0  0  0
 12 34  1  0  0  0  0
 12 35  1  0  0  0  0
 13 14  1  0  0  0  0
 13 36  1  0  0  0  0
 13 37  1  0  0  0  0
 14 19  1  0  0  0  0
 14 15  2  0  0  0  0
 15 16  1  0  0  0  0
 15 38  1  0  0  0  0
 16 17  2  0  0  0  0
 16 39  1  0  0  0  0
 17 18  1  0  0  0  0
 17 40  1  0  0  0  0
 18 19  2  0  0  0  0
 18 41  1  0  0  0  0
 19 42  1  0  0  0  0
M  CHG  1  19   1
M  END
> <s_m_source_file>
AV-unprocessed.smi

> <i_m_source_file_index>
3263

> <i_lp_mmshare_version>
43012

> <i_f3d_flags>
0

> <s_epik_input>
W0NIMl0xW0NIMl1bQ0BASF0oW0NIMl0yKVtDQEBIXShbQ0gyXVtDQEhdMTIpW0NIMl1DKD1PKVtOSF1bQ0gyXVtDSDJdYzNbY0hdW2NIXVtjSF1bY0hdbjM=

> <s_epik_cmdline>
J2VwaWtfcHl0aG9uJywgJy1waCcsICc3LjAnLCAnLXRuJywgJzgnLCAnLW1hJywgJzIwMCcsICctbWV0YWxfYmluZGluZycsICctaW1hZScsICc8aW5maWxlLm1hZT4nLCAnLW9tYWUnLCAnPG91dGZpbGUubWFlPic=

> <r_epik_Ionization_Penalty>
1.83579

> <r_epik_Ionization_Penalty_Charging>
1.83579

> <r_epik_Ionization_Penalty_Neutral>
2.47288e-08

> <r_epik_State_Penalty>
1.95213

> <r_epik_Charging_Adjusted_Penalty>
3.78793

> <i_epik_Tot_Q>
1

> <i_epik_Tot_abs_Q>
1

> <r_epik_Metal_State_Penalty>
1.97847

> <b_epik_Metal_Only>
0

> <s_lp_Force_Field>
OPLS_2005

> <r_lp_Energy>
51.925

> <b_lp_Chiralities_Consistent>
1

> <s_lp_Variant>
AV-unprocessed.smi:3263-5

> <Gold.Version>
5.8.1

> <Gold.Id.Protein>
6NUR|6NUR_protein|mol2

> <Gold.PLP.Fitness>
46.3912

> <Gold.PLP.PLP>
-39.0723

> <Gold.PLP.part.hbond>
-3.0000

> <Gold.PLP.part.metal>
0.0000

> <Gold.PLP.part.buried>
4.9031

> <Gold.PLP.part.nonpolar>
-40.6961

> <Gold.PLP.part.repulsive>
0.2824

> <Gold.PLP.ligand.clash>
0.0000

> <Gold.PLP.ligand.torsion>
0.8645

> <Gold.PLP.Chemscore.Hbond>
3.0000

> <Gold.PLP.Chemscore.CHOScore>
0.0000

> <Gold.PLP.Chemscore.Metal>
0.0000

> <Gold.Chemscore.Hbonds>
donor molecule, donor type, donor heavy atom, donor atom, acceptor molecule, acceptor atom, score
      L1  H    11    33       P1  7948  1.00
      L1  H    19    42       P1  7948  2.00

> <Gold.PLP.Chemscore.Internal.Correction>
0.0478

> <Gold.Rescore>
     Score         DG    S(hbond)    S(metal)    S(lipo)     H(rot)  DE(clash)    DE(int)     intcor
     18.50     -20.66       1.98        0.00     107.37       1.56       0.06       2.10       ----

> <Gold.Chemscore.Fitness>
18.4983

> <Gold.Chemscore.DG>
-20.6579

> <Gold.Chemscore.ZeroCoef>
-5.4800

> <Gold.Chemscore.Hbond>
1.9818

> <Gold.Chemscore.Metal>
0.0000

> <Gold.Chemscore.Lipo>
107.3711

> <Gold.Chemscore.Internal_Hbond>
0.0000

> <Gold.Chemscore.DEClash>
0.0635

> <Gold.Chemscore.DEInternal>
2.0961

> <Gold.Chemscore.Rot>
1.5640

> <Gold.Chemscore.Internal.Correction>
   9.000000E+99

> <Gold.Chemscore.Hbonds>
donor molecule, donor type, donor heavy atom, donor atom, acceptor molecule, acceptor atom, score
      L1  H    11    33       P1  7948  1.00
      L1  H    19    42       P1  7948  1.00

> <Gold.Chemscore.Hbond.Weighted>
-6.6193

> <Gold.Chemscore.Metal.Weighted>
-0.0000

> <Gold.Chemscore.Lipo.Weighted>
-12.5624

> <Gold.Chemscore.Internal_Hbond.Weighted>
0.0000

> <Gold.Chemscore.DEClash.Weighted>
0.0635

> <Gold.Chemscore.DEInternal.Weighted>
2.0961

> <Gold.Chemscore.Rot.Weighted>
4.0038

> <Gold.Chemscore.Internal.Correction.Weighted>
   9.000000E+99

> <Gold.Protein.RotatedTorsions>
[ 6907 6896 6895 6894 ] final  105.44 input  -60.11 | X-H torsion
[ 7974 7965 7964 7962 ] final -155.86 input  175.53 | X-H torsion
[ 8008 7997 7996 7995 ] final  -26.72 input   59.86 | X-H torsion
[ 10167 10162 10161 10158 ] final  -44.23 input  -65.29 | X-H torsion
[ 10718 10713 10712 10709 ] final   31.22 input   66.30 | X-H torsion
[ 10763 10752 10751 10750 ] final   80.46 input  -60.55 | X-H torsion
[ 11005 11000 10999 10996 ] final -168.69 input  -57.11 | X-H torsion

> <Gold.Protein.ActiveResidues>
 VAL166  LYS551  ARG553  GLY616  TRP617  ASP618  TYR619  PRO620  LYS621  CYS622 
 ASP623  PHE694  ASN695  SER759  ASP760  ASP761  ALA762  ILE779  LEU786  VAL792 
 PHE793  MET794  SER795  GLU796  ALA797  LYS798  CYS799  TRP800  GLU811  SER814 

> <Gold.Protein.RotatedAtoms>
  152.5230  133.9528  159.7679 H   0  0  0  0  0  0  0  0  0  0  0  0  # atno 6907 bound_to 6896
  150.9835  133.6213  159.2726 H   0  0  0  0  0  0  0  0  0  0  0  0  # atno 6908 bound_to 6896
  151.3382  135.0863  159.9415 H   0  0  0  0  0  0  0  0  0  0  0  0  # atno 6909 bound_to 6896
  144.7620  140.4190  143.5970 H   0  0  0  0  0  0  0  0  0  0  0  0  # atno 7974 bound_to 7965
  154.4411  140.1892  156.0819 H   0  0  0  0  0  0  0  0  0  0  0  0  # atno 8008 bound_to 7997
  156.0432  140.3317  155.7240 H   0  0  0  0  0  0  0  0  0  0  0  0  # atno 8009 bound_to 7997
  155.5668  140.0609  157.2806 H   0  0  0  0  0  0  0  0  0  0  0  0  # atno 8010 bound_to 7997
  140.6904  143.2941  151.3466 H   0  0  0  0  0  0  0  0  0  0  0  0  # atno 10167 bound_to 10162
  157.2697  130.7202  149.6498 H   0  0  0  0  0  0  0  0  0  0  0  0  # atno 10718 bound_to 10713
  153.1036  135.4801  154.8911 H   0  0  0  0  0  0  0  0  0  0  0  0  # atno 10763 bound_to 10752
  154.7405  135.3081  154.8738 H   0  0  0  0  0  0  0  0  0  0  0  0  # atno 10764 bound_to 10752
  153.9347  135.6840  153.4798 H   0  0  0  0  0  0  0  0  0  0  0  0  # atno 10765 bound_to 10752
  140.5391  134.5540  157.5095 H   0  0  0  0  0  0  0  0  0  0  0  0  # atno 11005 bound_to 11000
  145.6589  139.1578  143.2819 LP  0  0  0  0  0  0  0  0  0  0  0  0  # atno 17320 bound_to 7965
  146.1692  140.6672  142.9241 LP  0  0  0  0  0  0  0  0  0  0  0  0  # atno 17321 bound_to 7965
  139.6302  144.0735  152.2470 LP  0  0  0  0  0  0  0  0  0  0  0  0  # atno 17342 bound_to 10162
  140.0208  144.6155  150.7569 LP  0  0  0  0  0  0  0  0  0  0  0  0  # atno 17343 bound_to 10162
  155.9663  130.4371  150.5163 LP  0  0  0  0  0  0  0  0  0  0  0  0  # atno 17370 bound_to 10713
  157.3085  131.0659  151.2018 LP  0  0  0  0  0  0  0  0  0  0  0  0  # atno 17371 bound_to 10713
  139.9513  134.7612  156.0442 LP  0  0  0  0  0  0  0  0  0  0  0  0  # atno 17394 bound_to 11000
  141.1237  133.6605  156.3281 LP  0  0  0  0  0  0  0  0  0  0  0  0  # atno 17395 bound_to 11000

$$$$
