#       Name:                AV-unprocessed.smi:1444
#       Creating user name   scv26
#       Creation time:       Fri Mar 27 05:56:20 2020


#       File generated by GOLD software.
#

@<TRIPOS>MOLECULE
AV-unprocessed.smi:1444
    51    52     1
SMALL
NO_CHARGES


@<TRIPOS>ATOM
      1 ****        -5.0982  -1.1389  -2.3161 C.3            1 S1                 0.0000
      2 ****        -3.8063  -0.6846  -1.9275 O.3            1 S1                 0.0000
      3 ****        -3.6868   0.5793  -1.3812 C.ar           1 S1                 0.0000
      4 ****        -4.8100   1.3254  -1.2339 N.ar           1 S1                 0.0000
      5 ****        -4.6971   2.5586  -0.7007 C.ar           1 S1                 0.0000
      6 ****        -3.4703   3.1077  -0.2865 C.ar           1 S1                 0.0000
      7 ****        -2.3033   2.3365  -0.4382 C.ar           1 S1                 0.0000
      8 ****        -2.4037   1.0392  -0.9998 C.ar           1 S1                 0.0000
      9 ****        -1.3026   0.1599  -1.2077 N.am           1 S1                 0.0000
     10 ****         0.0081   0.3472  -0.9783 C.2            1 S1                 0.0000
     11 ****         0.5200   1.3618  -0.5075 O.2            1 S1                 0.0000
     12 ****         0.7128  -0.7411  -1.3215 N.am           1 S1                 0.0000
     13 ****         2.1668  -0.8890  -1.2447 C.3            1 S1                 0.0000
     14 ****         2.6390  -1.7682  -2.4106 C.3            1 S1                 0.0000
     15 ****         2.6028  -1.4821   0.1149 C.3            1 S1                 0.0000
     16 ****         2.2210  -0.6320   1.2710 N.4            1 S1                 1.0000
     17 ****         2.0800  -1.3964   2.5321 C.3            1 S1                 0.0000
     18 ****         1.6103  -0.4691   3.6662 C.3            1 S1                 0.0000
     19 ****         2.5268   0.6087   3.8132 O.3            1 S1                 0.0000
     20 ****         2.6132   1.3999   2.6340 C.3            1 S1                 0.0000
     21 ****         3.1175   0.5330   1.4688 C.3            1 S1                 0.0000
     22 ****        -5.0169  -2.1455  -2.7260 H              1 S1                 0.0000
     23 ****        -5.5300  -0.5012  -3.0890 H              1 S1                 0.0000
     24 ****        -5.7793  -1.1832  -1.4650 H              1 S1                 0.0000
     25 ****        -5.6118   3.1239  -0.6007 H              1 S1                 0.0000
     26 ****        -3.4255   4.0997   0.1378 H              1 S1                 0.0000
     27 ****        -1.3672   2.7634  -0.1181 H              1 S1                 0.0000
     28 ****        -1.5521  -0.7353  -1.6028 H              1 S1                 0.0000
     29 ****         0.2025  -1.5274  -1.6968 H              1 S1                 0.0000
     30 ****         2.6332   0.0879  -1.3800 H              1 S1                 0.0000
     31 ****         3.7245  -1.8711  -2.4091 H              1 S1                 0.0000
     32 ****         2.3522  -1.3364  -3.3702 H              1 S1                 0.0000
     33 ****         2.2103  -2.7695  -2.3545 H              1 S1                 0.0000
     34 ****         2.1349  -2.4622   0.2214 H              1 S1                 0.0000
     35 ****         3.6794  -1.6583   0.1330 H              1 S1                 0.0000
     36 ****         1.3597  -2.2045   2.3992 H              1 S1                 0.0000
     37 ****         3.0353  -1.8551   2.7926 H              1 S1                 0.0000
     38 ****         0.6083  -0.0856   3.4661 H              1 S1                 0.0000
     39 ****         1.5589  -1.0203   4.6055 H              1 S1                 0.0000
     40 ****         1.6411   1.8378   2.4013 H              1 S1                 0.0000
     41 ****         3.3012   2.2266   2.8121 H              1 S1                 0.0000
     42 ****         4.1317   0.1868   1.6736 H              1 S1                 0.0000
     43 ****         3.1635   1.1367   0.5630 H              1 S1                 0.0000
     44 ****         1.3040  -0.2630   1.0614 H              1 S1                 0.0000
     45 ****        -3.2274  -0.7095  -2.7426 LP             1 S1                 0.0000
     46 ****        -3.4570  -1.3326  -1.2507 LP             1 S1                 0.0000
     47 ****        -5.7012   0.9690  -1.5143 LP             1 S1                 0.0000
     48 ****        -0.0538   2.1421  -0.2588 LP             1 S1                 0.0000
     49 ****         1.5100   1.4063  -0.3735 LP             1 S1                 0.0000
     50 ****         3.4320   0.2369   4.0195 LP             1 S1                 0.0000
     51 ****         2.2244   1.1887   4.5696 LP             1 S1                 0.0000
@<TRIPOS>BOND
    1    1    2 1     
    2    1   22 1     
    3    1   23 1     
    4    1   24 1     
    5    2    3 1     
    6    3    8 ar    
    7    3    4 ar    
    8    4    5 ar    
    9    5    6 ar    
   10    5   25 1     
   11    6    7 ar    
   12    6   26 1     
   13    7    8 ar    
   14    7   27 1     
   15    8    9 1     
   16    9   10 am    
   17    9   28 1     
   18   10   11 2     
   19   10   12 am    
   20   12   13 1     
   21   12   29 1     
   22   13   14 1     
   23   13   15 1     
   24   13   30 1     
   25   14   31 1     
   26   14   32 1     
   27   14   33 1     
   28   15   16 1     
   29   15   34 1     
   30   15   35 1     
   31   16   21 1     
   32   16   17 1     
   33   16   44 1     
   34   17   18 1     
   35   17   36 1     
   36   17   37 1     
   37   18   19 1     
   38   18   38 1     
   39   18   39 1     
   40   19   20 1     
   41   20   21 1     
   42   20   40 1     
   43   20   41 1     
   44   21   42 1     
   45   21   43 1     
   46    2   45 1     
   47    2   46 1     
   48    4   47 1     
   49   11   48 1     
   50   11   49 1     
   51   19   50 1     
   52   19   51 1     
@<TRIPOS>SUBSTRUCTURE
      1 S1             1
@<TRIPOS>SET
LONE_PAIRS      STATIC     ATOMS    <user>   **** ""
7 45 46 47 48 49 50 51
DONOR_HYDROGENS      STATIC     ATOMS    <user>   **** ""
3 28 29 44
ATOM$BLUE        STATIC     ATOMS    COLORGROUP SYSTEM
7 45 46 47 48 49 50 51
ATOM$RED        STATIC     ATOMS    COLORGROUP SYSTEM
3 28 29 44
