AV-unprocessed.smi:283|AV-procd|sdf|2144|dock3
  -GOLD-   2262021473D 1   1.00000     0.00000
 Structure written by MMmdl.
 48 51  0  0  0  0  0  0  0  0  1 V2000
  151.9514  140.5430  155.6915 C   0  0  0  0  0  0  0  0  0  0  0  0
  150.8208  141.1565  156.5284 C   0  0  1  0  0  0  0  0  0  0  0  0
  149.8459  140.1234  156.8728 N   0  0  0  0  0  0  0  0  0  0  0  0
  149.0695  139.5603  155.9209 C   0  0  0  0  0  0  0  0  0  0  0  0
  148.9096  140.2865  154.7891 N   0  0  0  0  0  0  0  0  0  0  0  0
  148.1835  139.8014  153.7786 C   0  0  0  0  0  0  0  0  0  0  0  0
  147.5427  138.6342  153.6980 N   0  0  0  0  0  0  0  0  0  0  0  0
  147.6831  137.9027  154.8410 C   0  0  0  0  0  0  0  0  0  0  0  0
  148.4199  138.2928  155.9960 C   0  0  0  0  0  0  0  0  0  0  0  0
  148.3173  137.2985  156.9620 N   0  0  0  0  0  0  0  0  0  0  0  0
  147.5826  136.3766  156.4038 C   0  0  0  0  0  0  0  0  0  0  0  0
  147.1631  136.6556  155.1236 N   0  0  0  0  0  0  0  0  0  0  0  0
  146.3282  135.7946  154.2334 C   0  0  1  0  0  0  0  0  0  0  0  0
  145.0183  135.8178  154.7072 O   0  0  0  0  0  0  0  0  0  0  0  0
  144.0987  135.8356  153.6207 C   0  0  2  0  0  0  0  0  0  0  0  0
  143.7689  134.3852  153.2175 C   0  0  0  0  0  0  0  0  0  0  0  0
  143.1018  133.7321  154.2758 O   0  0  0  0  0  0  0  0  0  0  0  0
  144.8484  136.6032  152.5229 C   0  0  1  0  0  0  0  0  0  0  0  0
  144.5575  137.9819  152.6380 O   0  0  0  0  0  0  0  0  0  0  0  0
  146.3267  136.3342  152.7939 C   0  0  2  0  0  0  0  0  0  0  0  0
  146.8026  135.3593  151.8874 O   0  0  0  0  0  0  0  0  0  0  0  0
  151.3990  141.9169  157.7259 C   0  0  0  0  0  0  0  0  0  0  0  0
  151.1592  143.3045  157.8617 C   0  0  0  0  0  0  0  0  0  0  0  0
  151.6865  144.0222  158.9515 C   0  0  0  0  0  0  0  0  0  0  0  0
  152.4533  143.3576  159.9251 C   0  0  0  0  0  0  0  0  0  0  0  0
  152.6849  141.9746  159.8097 C   0  0  0  0  0  0  0  0  0  0  0  0
  152.1591  141.2509  158.7206 C   0  0  0  0  0  0  0  0  0  0  0  0
  152.4631  139.5506  158.6407 Cl  0  0  0  0  0  0  0  0  0  0  0  0
  146.7526  134.7939  154.3293 H   0  0  0  0  0  0  0  0  0  0  0  0
  143.1798  136.3529  153.9027 H   0  0  0  0  0  0  0  0  0  0  0  0
  144.5420  136.2964  151.5216 H   0  0  0  0  0  0  0  0  0  0  0  0
  146.9380  137.2341  152.7039 H   0  0  0  0  0  0  0  0  0  0  0  0
  152.6443  141.3111  155.3463 H   0  0  0  0  0  0  0  0  0  0  0  0
  151.5584  140.0360  154.8097 H   0  0  0  0  0  0  0  0  0  0  0  0
  152.5227  139.8150  156.2684 H   0  0  0  0  0  0  0  0  0  0  0  0
  150.2979  141.8573  155.8803 H   0  0  0  0  0  0  0  0  0  0  0  0
  149.5855  140.1014  157.8480 H   0  0  0  0  0  0  0  0  0  0  0  0
  148.1085  140.4370  152.9086 H   0  0  0  0  0  0  0  0  0  0  0  0
  147.3291  135.4586  156.9142 H   0  0  0  0  0  0  0  0  0  0  0  0
  143.0965  134.3762  152.3594 H   0  0  0  0  0  0  0  0  0  0  0  0
  144.6607  133.8269  152.9322 H   0  0  0  0  0  0  0  0  0  0  0  0
  143.2254  132.8001  154.1774 H   0  0  0  0  0  0  0  0  0  0  0  0
  144.1669  138.2732  151.8270 H   0  0  0  0  0  0  0  0  0  0  0  0
  147.6403  135.6431  151.5544 H   0  0  0  0  0  0  0  0  0  0  0  0
  150.5699  143.8305  157.1252 H   0  0  0  0  0  0  0  0  0  0  0  0
  151.5015  145.0826  159.0398 H   0  0  0  0  0  0  0  0  0  0  0  0
  152.8591  143.9064  160.7622 H   0  0  0  0  0  0  0  0  0  0  0  0
  153.2680  141.4660  160.5634 H   0  0  0  0  0  0  0  0  0  0  0  0
  1  2  1  0  0  0  0
  1 33  1  0  0  0  0
  1 34  1  0  0  0  0
  1 35  1  0  0  0  0
  2  3  1  0  0  0  0
  2 22  1  0  0  0  0
  2 36  1  0  0  0  0
  3  4  1  0  0  0  0
  3 37  1  0  0  0  0
  4  9  1  0  0  0  0
  4  5  2  0  0  0  0
  5  6  1  0  0  0  0
  6  7  2  0  0  0  0
  6 38  1  0  0  0  0
  7  8  1  0  0  0  0
  8 12  1  0  0  0  0
  8  9  2  0  0  0  0
  9 10  1  0  0  0  0
 10 11  2  0  0  0  0
 11 12  1  0  0  0  0
 11 39  1  0  0  0  0
 12 13  1  0  0  0  0
 13 29  1  0  0  0  0
 13 20  1  0  0  0  0
 13 14  1  0  0  0  0
 14 15  1  0  0  0  0
 15 30  1  0  0  0  0
 15 16  1  0  0  0  0
 15 18  1  0  0  0  0
 16 17  1  0  0  0  0
 16 40  1  0  0  0  0
 16 41  1  0  0  0  0
 17 42  1  0  0  0  0
 18 31  1  0  0  0  0
 18 19  1  0  0  0  0
 18 20  1  0  0  0  0
 19 43  1  0  0  0  0
 20 32  1  0  0  0  0
 20 21  1  0  0  0  0
 21 44  1  0  0  0  0
 22 27  1  0  0  0  0
 22 23  2  0  0  0  0
 23 24  1  0  0  0  0
 23 45  1  0  0  0  0
 24 25  2  0  0  0  0
 24 46  1  0  0  0  0
 25 26  1  0  0  0  0
 25 47  1  0  0  0  0
 26 27  2  0  0  0  0
 26 48  1  0  0  0  0
 27 28  1  0  0  0  0
M  END
> <s_m_source_file>
AV-unprocessed.smi

> <i_m_source_file_index>
283

> <i_lp_mmshare_version>
43012

> <i_f3d_flags>
0

> <s_epik_input>
Q2xjMVtjSF1bY0hdW2NIXVtjSF1jMVtDQEhdKFtDSDNdKVtOSF1jKG5bY0hdbjIpYyhjMjMpbltjSF1uM1tDQEBIXTRPW0NASF0oW0NIMl1bT0hdKVtDQEBIXShbT0hdKVtDQEhdNFtPSF0=

> <s_epik_cmdline>
J2VwaWtfcHl0aG9uJywgJy1waCcsICc3LjAnLCAnLXRuJywgJzgnLCAnLW1hJywgJzIwMCcsICctbWV0YWxfYmluZGluZycsICctaW1hZScsICc8aW5maWxlLm1hZT4nLCAnLW9tYWUnLCAnPG91dGZpbGUubWFlPic=

> <r_lp_tautomer_probability>
1

> <r_epik_Ionization_Penalty>
0.000266407

> <r_epik_Ionization_Penalty_Charging>
0

> <r_epik_Ionization_Penalty_Neutral>
0.000266407

> <r_epik_State_Penalty>
-0

> <r_epik_Charging_Adjusted_Penalty>
0

> <i_epik_Tot_Q>
0

> <i_epik_Tot_abs_Q>
0

> <r_epik_Metal_State_Penalty>
-0

> <b_epik_Metal_Only>
0

> <s_epik_Chemistry_Notes>
This compound contains an acetal/aminal-like group ( X-CH(R)-Y where X, Y are N, S, or O) that may be acid/base labile, releasing an aldehyde.

> <s_lp_Force_Field>
OPLS_2005

> <r_lp_Energy>
38.3642

> <b_lp_Chiralities_Consistent>
1

> <s_lp_Variant>
AV-unprocessed.smi:283-20

> <Gold.Version>
5.8.1

> <Gold.Id.Protein>
6NUR|6NUR_protein|mol2

> <Gold.PLP.Fitness>
49.1423

> <Gold.PLP.PLP>
-38.0330

> <Gold.PLP.part.hbond>
-3.8526

> <Gold.PLP.part.metal>
0.0000

> <Gold.PLP.part.buried>
-4.3448

> <Gold.PLP.part.nonpolar>
-30.0894

> <Gold.PLP.part.repulsive>
0.3079

> <Gold.PLP.ligand.clash>
0.0000

> <Gold.PLP.ligand.torsion>
0.5027

> <Gold.PLP.Chemscore.Hbond>
3.0000

> <Gold.PLP.Chemscore.CHOScore>
1.0000

> <Gold.PLP.Chemscore.Metal>
0.0000

> <Gold.Chemscore.Hbonds>
donor molecule, donor type, donor heavy atom, donor atom, acceptor molecule, acceptor atom, score
      L1  H    17    42       P1 10957  0.31
      L1  H    19    43       P1 10171  0.94
      L1  H    21    44       P1  7948  0.73
      L1  C     6    38       P1  7957  0.76

> <Gold.PLP.Chemscore.Internal.Correction>
0.1148

> <Gold.Rescore>
     Score         DG    S(hbond)    S(metal)    S(lipo)     H(rot)  DE(clash)    DE(int)     intcor
     13.69     -15.96       2.98        0.00      94.21       4.10       0.04       2.24       ----

> <Gold.Chemscore.Fitness>
13.6867

> <Gold.Chemscore.DG>
-15.9625

> <Gold.Chemscore.ZeroCoef>
-5.4800

> <Gold.Chemscore.Hbond>
2.9784

> <Gold.Chemscore.Metal>
0.0000

> <Gold.Chemscore.Lipo>
94.2104

> <Gold.Chemscore.Internal_Hbond>
0.0000

> <Gold.Chemscore.DEClash>
0.0383

> <Gold.Chemscore.DEInternal>
2.2376

> <Gold.Chemscore.Rot>
4.0968

> <Gold.Chemscore.Internal.Correction>
   9.000000E+99

> <Gold.Chemscore.Hbonds>
donor molecule, donor type, donor heavy atom, donor atom, acceptor molecule, acceptor atom, score
      L1  H    17    42       P1 10957  0.31
      L1  H    19    43       P1 10171  0.90
      L1  H    21    44       P1  7948  0.65

> <Gold.Chemscore.Hbond.Weighted>
-9.9478

> <Gold.Chemscore.Metal.Weighted>
-0.0000

> <Gold.Chemscore.Lipo.Weighted>
-11.0226

> <Gold.Chemscore.Internal_Hbond.Weighted>
0.0000

> <Gold.Chemscore.DEClash.Weighted>
0.0383

> <Gold.Chemscore.DEInternal.Weighted>
2.2376

> <Gold.Chemscore.Rot.Weighted>
10.4879

> <Gold.Chemscore.Internal.Correction.Weighted>
   9.000000E+99

> <Gold.Protein.RotatedTorsions>
[ 6907 6896 6895 6894 ] final  -57.11 input  -60.11 | X-H torsion
[ 7974 7965 7964 7962 ] final  127.05 input  175.53 | X-H torsion
[ 8008 7997 7996 7995 ] final  -21.44 input   59.86 | X-H torsion
[ 10167 10162 10161 10158 ] final   73.60 input  -65.29 | X-H torsion
[ 10718 10713 10712 10709 ] final -138.14 input   66.30 | X-H torsion
[ 10763 10752 10751 10750 ] final  159.19 input  -60.55 | X-H torsion
[ 11005 11000 10999 10996 ] final  -66.23 input  -57.11 | X-H torsion

> <Gold.Protein.ActiveResidues>
 VAL166  LYS551  ARG553  GLY616  TRP617  ASP618  TYR619  PRO620  LYS621  CYS622 
 ASP623  PHE694  ASN695  SER759  ASP760  ASP761  ALA762  ILE779  LEU786  VAL792 
 PHE793  MET794  SER795  GLU796  ALA797  LYS798  CYS799  TRP800  GLU811  SER814 

> <Gold.Protein.RotatedAtoms>
  150.8112  134.7268  159.6689 H   0  0  0  0  0  0  0  0  0  0  0  0  # atno 6907 bound_to 6896
  152.4232  134.5913  159.9985 H   0  0  0  0  0  0  0  0  0  0  0  0  # atno 6908 bound_to 6896
  151.6123  133.3309  159.3106 H   0  0  0  0  0  0  0  0  0  0  0  0  # atno 6909 bound_to 6896
  145.0549  139.3852  143.5035 H   0  0  0  0  0  0  0  0  0  0  0  0  # atno 7974 bound_to 7965
  154.4705  140.2034  156.0006 H   0  0  0  0  0  0  0  0  0  0  0  0  # atno 8008 bound_to 7997
  156.1003  140.3245  155.7903 H   0  0  0  0  0  0  0  0  0  0  0  0  # atno 8009 bound_to 7997
  155.4809  140.0538  157.2958 H   0  0  0  0  0  0  0  0  0  0  0  0  # atno 8010 bound_to 7997
  140.0228  144.5527  150.7568 H   0  0  0  0  0  0  0  0  0  0  0  0  # atno 10167 bound_to 10162
  156.2960  130.7402  151.1441 H   0  0  0  0  0  0  0  0  0  0  0  0  # atno 10718 bound_to 10713
  154.2278  135.2779  155.2901 H   0  0  0  0  0  0  0  0  0  0  0  0  # atno 10763 bound_to 10752
  154.5649  135.5636  153.7044 H   0  0  0  0  0  0  0  0  0  0  0  0  # atno 10764 bound_to 10752
  153.0027  135.6307  154.2419 H   0  0  0  0  0  0  0  0  0  0  0  0  # atno 10765 bound_to 10752
  141.1476  133.6695  156.6107 H   0  0  0  0  0  0  0  0  0  0  0  0  # atno 11005 bound_to 11000
  146.3520  140.0218  142.8658 LP  0  0  0  0  0  0  0  0  0  0  0  0  # atno 17320 bound_to 7965
  145.1481  140.9608  143.4449 LP  0  0  0  0  0  0  0  0  0  0  0  0  # atno 17321 bound_to 7965
  140.7335  143.2718  151.3864 LP  0  0  0  0  0  0  0  0  0  0  0  0  # atno 17342 bound_to 10162
  139.6128  144.1063  152.2316 LP  0  0  0  0  0  0  0  0  0  0  0  0  # atno 17343 bound_to 10162
  157.7355  131.0571  150.5464 LP  0  0  0  0  0  0  0  0  0  0  0  0  # atno 17370 bound_to 10713
  156.5586  130.4249  149.6074 LP  0  0  0  0  0  0  0  0  0  0  0  0  # atno 17371 bound_to 10713
  140.3616  134.7682  157.4538 LP  0  0  0  0  0  0  0  0  0  0  0  0  # atno 17394 bound_to 11000
  140.0780  134.5770  155.8570 LP  0  0  0  0  0  0  0  0  0  0  0  0  # atno 17395 bound_to 11000

$$$$
