#       Name:                AV-unprocessed.smi:2785
#       Creating user name   scv26
#       Creation time:       Fri Mar 27 15:18:15 2020


#       File generated by GOLD software.
#

@<TRIPOS>MOLECULE
AV-unprocessed.smi:2785
    42    43     1
SMALL
NO_CHARGES


@<TRIPOS>ATOM
      1 ****        -4.1187  -0.7480   2.6911 C.3            1 S1                 0.0000
      2 ****        -3.5120  -0.9570   1.2947 C.3            1 S1                 0.0000
      3 ****        -4.1551  -2.1501   0.5648 C.3            1 S1                 0.0000
      4 ****        -2.0495  -1.0687   1.3875 N.am           1 S1                 0.0000
      5 ****        -1.3667  -2.3511   1.4456 C.3            1 S1                 0.0000
      6 ****         0.0872  -2.0099   1.7867 C.3            1 S1                 0.0000
      7 ****         0.2588  -0.5020   1.5403 C.3            1 S1                 0.0000
      8 ****         0.9735  -0.2803   0.2851 N.am           1 S1                 0.0000
      9 ****         1.6517   0.8325  -0.0323 C.2            1 S1                 0.0000
     10 ****         1.7661   1.7969   0.7246 O.2            1 S1                 0.0000
     11 ****         2.1757   0.7462  -1.2677 N.am           1 S1                 0.0000
     12 ****         2.9391   1.7184  -1.9675 C.ar           1 S1                 0.0000
     13 ****         3.3524   1.3351  -3.2637 C.ar           1 S1                 0.0000
     14 ****         4.1136   2.2293  -4.0415 C.ar           1 S1                 0.0000
     15 ****         4.4412   3.4852  -3.5006 C.ar           1 S1                 0.0000
     16 ****         5.1707   4.3781  -4.2106 F              1 S1                 0.0000
     17 ****         3.9913   3.7896  -2.2026 C.ar           1 S1                 0.0000
     18 ****         3.2619   2.9331  -1.4561 N.ar           1 S1                 0.0000
     19 ****        -1.1911  -0.0396   1.4061 C.2            1 S1                 0.0000
     20 ****        -1.4990   1.1506   1.3467 O.2            1 S1                 0.0000
     21 ****        -5.1992  -0.6156   2.6324 H              1 S1                 0.0000
     22 ****        -3.7061   0.1384   3.1743 H              1 S1                 0.0000
     23 ****        -3.9228  -1.6025   3.3399 H              1 S1                 0.0000
     24 ****        -3.7420  -0.0713   0.6998 H              1 S1                 0.0000
     25 ****        -5.2257  -1.9909   0.4339 H              1 S1                 0.0000
     26 ****        -4.0310  -3.0811   1.1185 H              1 S1                 0.0000
     27 ****        -3.7233  -2.2857  -0.4271 H              1 S1                 0.0000
     28 ****        -1.8103  -3.0100   2.1932 H              1 S1                 0.0000
     29 ****        -1.4257  -2.8418   0.4732 H              1 S1                 0.0000
     30 ****         0.2654  -2.2200   2.8423 H              1 S1                 0.0000
     31 ****         0.7923  -2.6216   1.2218 H              1 S1                 0.0000
     32 ****         0.7540  -0.0154   2.3825 H              1 S1                 0.0000
     33 ****         0.9304  -1.0224  -0.3975 H              1 S1                 0.0000
     34 ****         2.0015  -0.1117  -1.7696 H              1 S1                 0.0000
     35 ****         3.0905   0.3659  -3.6631 H              1 S1                 0.0000
     36 ****         4.4393   1.9557  -5.0343 H              1 S1                 0.0000
     37 ****         4.2219   4.7433  -1.7515 H              1 S1                 0.0000
     38 ****         1.3408   1.7755   1.6294 LP             1 S1                 0.0000
     39 ****         2.2843   2.6014   0.4345 LP             1 S1                 0.0000
     40 ****         2.9631   3.1908  -0.5372 LP             1 S1                 0.0000
     41 ****        -2.4609   1.4154   1.2779 LP             1 S1                 0.0000
     42 ****        -0.7873   1.8528   1.3672 LP             1 S1                 0.0000
@<TRIPOS>BOND
    1    1    2 1     
    2    1   21 1     
    3    1   22 1     
    4    1   23 1     
    5    2    3 1     
    6    2    4 1     
    7    2   24 1     
    8    3   25 1     
    9    3   26 1     
   10    3   27 1     
   11    4   19 am    
   12    4    5 1     
   13    5    6 1     
   14    5   28 1     
   15    5   29 1     
   16    6    7 1     
   17    6   30 1     
   18    6   31 1     
   19    7    8 1     
   20    7   19 1     
   21    7   32 1     
   22    8    9 am    
   23    8   33 1     
   24    9   10 2     
   25    9   11 am    
   26   11   12 1     
   27   11   34 1     
   28   12   18 ar    
   29   12   13 ar    
   30   13   14 ar    
   31   13   35 1     
   32   14   15 ar    
   33   14   36 1     
   34   15   16 1     
   35   15   17 ar    
   36   17   18 ar    
   37   17   37 1     
   38   19   20 2     
   39   10   38 1     
   40   10   39 1     
   41   18   40 1     
   42   20   41 1     
   43   20   42 1     
@<TRIPOS>SUBSTRUCTURE
      1 S1             1
@<TRIPOS>SET
LONE_PAIRS      STATIC     ATOMS    <user>   **** ""
5 38 39 40 41 42
DONOR_HYDROGENS      STATIC     ATOMS    <user>   **** ""
2 33 34
ATOM$BLUE        STATIC     ATOMS    COLORGROUP SYSTEM
5 38 39 40 41 42
ATOM$RED        STATIC     ATOMS    COLORGROUP SYSTEM
2 33 34
