AV-unprocessed.smi:1244|AV-procd|sdf|5222|dock5
  -GOLD-   22720 4323D 1   1.00000     0.00000
 Structure written by MMmdl.
 54 56  0  0  0  0  0  0  0  0  1 V2000
  150.7588  143.3488  158.3222 C   0  0  0  0  0  0  0  0  0  0  0  0
  151.5075  142.1513  157.7279 C   0  0  2  0  0  0  0  0  0  0  0  0
  150.6064  141.2916  156.8203 C   0  0  0  0  0  0  0  0  0  0  0  0
  151.3008  140.1053  156.3250 N   0  0  0  0  0  0  0  0  0  0  0  0
  150.4518  139.2681  155.4793 C   0  0  0  0  0  0  0  0  0  0  0  0
  151.2138  138.2893  154.5659 C   0  0  0  0  0  0  0  0  0  0  0  0
  150.4180  137.1055  154.2648 N   0  0  0  0  0  0  0  0  0  0  0  0
  150.5952  135.8979  154.8185 C   0  0  0  0  0  0  0  0  0  0  0  0
  151.4512  135.6572  155.6701 O   0  0  0  0  0  0  0  0  0  0  0  0
  149.7393  134.9976  154.3076 N   0  0  0  0  0  0  0  0  0  0  0  0
  149.6511  133.6104  154.6130 C   0  0  0  0  0  0  0  0  0  0  0  0
  150.6226  132.9556  155.4080 C   0  0  0  0  0  0  0  0  0  0  0  0
  150.4596  131.5915  155.7063 C   0  0  0  0  0  0  0  0  0  0  0  0
  149.3236  130.9312  155.2069 C   0  0  0  0  0  0  0  0  0  0  0  0
  148.3827  131.5444  154.4606 N   0  0  0  0  0  0  0  0  0  0  0  0
  148.5279  132.8604  154.1691 C   0  0  0  0  0  0  0  0  0  0  0  0
  147.5441  133.4650  153.3571 N   0  0  0  0  0  0  0  0  0  0  0  0
  147.5506  132.9850  151.9767 C   0  0  0  0  0  0  0  0  0  0  0  0
  146.0864  132.8774  151.5440 C   0  0  0  0  0  0  0  0  0  0  0  0
  145.3494  132.6696  152.8608 C   0  0  0  0  0  0  0  0  0  0  0  0
  146.1607  133.5298  153.8270 C   0  0  0  0  0  0  0  0  0  0  0  0
  151.8130  139.3488  157.4621 C   0  0  0  0  0  0  0  0  0  0  0  0
  152.7205  140.2062  158.3649 C   0  0  2  0  0  0  0  0  0  0  0  0
  153.2013  139.4398  159.6012 C   0  0  0  0  0  0  0  0  0  0  0  0
  151.9917  141.3498  158.8017 O   0  0  0  0  0  0  0  0  0  0  0  0
  150.3812  144.0043  157.5370 H   0  0  0  0  0  0  0  0  0  0  0  0
  151.4150  143.9399  158.9615 H   0  0  0  0  0  0  0  0  0  0  0  0
  149.9107  143.0242  158.9255 H   0  0  0  0  0  0  0  0  0  0  0  0
  152.3576  142.5210  157.1521 H   0  0  0  0  0  0  0  0  0  0  0  0
  149.7139  140.9927  157.3723 H   0  0  0  0  0  0  0  0  0  0  0  0
  150.2673  141.9056  155.9867 H   0  0  0  0  0  0  0  0  0  0  0  0
  149.7937  138.6821  156.1223 H   0  0  0  0  0  0  0  0  0  0  0  0
  149.7958  139.8980  154.8764 H   0  0  0  0  0  0  0  0  0  0  0  0
  151.4627  138.7597  153.6154 H   0  0  0  0  0  0  0  0  0  0  0  0
  152.1583  137.9948  155.0265 H   0  0  0  0  0  0  0  0  0  0  0  0
  149.6907  137.2100  153.5726 H   0  0  0  0  0  0  0  0  0  0  0  0
  149.1638  135.3105  153.5395 H   0  0  0  0  0  0  0  0  0  0  0  0
  151.4779  133.4814  155.8047 H   0  0  0  0  0  0  0  0  0  0  0  0
  151.1852  131.0658  156.3091 H   0  0  0  0  0  0  0  0  0  0  0  0
  149.1633  129.8838  155.4156 H   0  0  0  0  0  0  0  0  0  0  0  0
  148.1063  133.6623  151.3277 H   0  0  0  0  0  0  0  0  0  0  0  0
  148.0278  132.0048  151.9201 H   0  0  0  0  0  0  0  0  0  0  0  0
  145.7651  133.8145  151.0872 H   0  0  0  0  0  0  0  0  0  0  0  0
  145.9145  132.0752  150.8259 H   0  0  0  0  0  0  0  0  0  0  0  0
  144.2985  132.9561  152.8145 H   0  0  0  0  0  0  0  0  0  0  0  0
  145.4052  131.6215  153.1585 H   0  0  0  0  0  0  0  0  0  0  0  0
  146.0177  133.2224  154.8630 H   0  0  0  0  0  0  0  0  0  0  0  0
  145.8366  134.5686  153.7598 H   0  0  0  0  0  0  0  0  0  0  0  0
  150.9804  138.9581  158.0495 H   0  0  0  0  0  0  0  0  0  0  0  0
  152.3749  138.4845  157.1055 H   0  0  0  0  0  0  0  0  0  0  0  0
  153.5921  140.5377  157.7977 H   0  0  0  0  0  0  0  0  0  0  0  0
  153.7763  138.5583  159.3169 H   0  0  0  0  0  0  0  0  0  0  0  0
  152.3610  139.1097  160.2127 H   0  0  0  0  0  0  0  0  0  0  0  0
  153.8400  140.0670  160.2235 H   0  0  0  0  0  0  0  0  0  0  0  0
  1  2  1  0  0  0  0
  1 26  1  0  0  0  0
  1 27  1  0  0  0  0
  1 28  1  0  0  0  0
  2 25  1  0  0  0  0
  2  3  1  0  0  0  0
  2 29  1  0  0  0  0
  3  4  1  0  0  0  0
  3 30  1  0  0  0  0
  3 31  1  0  0  0  0
  4  5  1  0  0  0  0
  4 22  1  0  0  0  0
  5  6  1  0  0  0  0
  5 32  1  0  0  0  0
  5 33  1  0  0  0  0
  6  7  1  0  0  0  0
  6 34  1  0  0  0  0
  6 35  1  0  0  0  0
  7  8  1  0  0  0  0
  7 36  1  0  0  0  0
  8  9  2  0  0  0  0
  8 10  1  0  0  0  0
 10 11  1  0  0  0  0
 10 37  1  0  0  0  0
 11 16  1  0  0  0  0
 11 12  2  0  0  0  0
 12 13  1  0  0  0  0
 12 38  1  0  0  0  0
 13 14  2  0  0  0  0
 13 39  1  0  0  0  0
 14 15  1  0  0  0  0
 14 40  1  0  0  0  0
 15 16  2  0  0  0  0
 16 17  1  0  0  0  0
 17 21  1  0  0  0  0
 17 18  1  0  0  0  0
 18 19  1  0  0  0  0
 18 41  1  0  0  0  0
 18 42  1  0  0  0  0
 19 20  1  0  0  0  0
 19 43  1  0  0  0  0
 19 44  1  0  0  0  0
 20 21  1  0  0  0  0
 20 45  1  0  0  0  0
 20 46  1  0  0  0  0
 21 47  1  0  0  0  0
 21 48  1  0  0  0  0
 22 23  1  0  0  0  0
 22 49  1  0  0  0  0
 22 50  1  0  0  0  0
 23 24  1  0  0  0  0
 23 25  1  0  0  0  0
 23 51  1  0  0  0  0
 24 52  1  0  0  0  0
 24 53  1  0  0  0  0
 24 54  1  0  0  0  0
M  END
> <s_m_source_file>
AV-unprocessed.smi

> <i_m_source_file_index>
1244

> <i_lp_mmshare_version>
43012

> <i_f3d_flags>
0

> <s_epik_input>
W0NIM11bQ0BASF0xW0NIMl1OKFtDSDJdW0NASF0oTzEpW0NIM10pW0NIMl1bQ0gyXVtOSF1DKD1PKVtOSF1jMltjSF1bY0hdW2NIXW5jMk4zW0NIMl1bQ0gyXVtDSDJdW0NIMl0z

> <s_epik_cmdline>
J2VwaWtfcHl0aG9uJywgJy1waCcsICc3LjAnLCAnLXRuJywgJzgnLCAnLW1hJywgJzIwMCcsICctbWV0YWxfYmluZGluZycsICctaW1hZScsICc8aW5maWxlLm1hZT4nLCAnLW9tYWUnLCAnPG91dGZpbGUubWFlPic=

> <r_lp_tautomer_probability>
1

> <r_epik_Ionization_Penalty>
0.363951

> <r_epik_Ionization_Penalty_Charging>
0

> <r_epik_Ionization_Penalty_Neutral>
0.363951

> <r_epik_State_Penalty>
0.349372

> <r_epik_Charging_Adjusted_Penalty>
0.349372

> <i_epik_Tot_Q>
0

> <i_epik_Tot_abs_Q>
0

> <r_epik_Metal_State_Penalty>
0.333054

> <b_epik_Metal_Only>
0

> <s_lp_Force_Field>
OPLS_2005

> <r_lp_Energy>
48.0273

> <b_lp_Chiralities_Consistent>
1

> <s_lp_Variant>
AV-unprocessed.smi:1244-2

> <Gold.Version>
5.8.1

> <Gold.Id.Protein>
6NUR|6NUR_protein|mol2

> <Gold.PLP.Fitness>
44.8705

> <Gold.PLP.PLP>
-37.3590

> <Gold.PLP.part.hbond>
-4.5236

> <Gold.PLP.part.metal>
0.0000

> <Gold.PLP.part.buried>
-3.2830

> <Gold.PLP.part.nonpolar>
-30.2122

> <Gold.PLP.part.repulsive>
0.3784

> <Gold.PLP.ligand.clash>
0.0000

> <Gold.PLP.ligand.torsion>
0.5399

> <Gold.PLP.Chemscore.Hbond>
2.8160

> <Gold.PLP.Chemscore.CHOScore>
0.0000

> <Gold.PLP.Chemscore.Metal>
0.0000

> <Gold.Chemscore.Hbonds>
donor molecule, donor type, donor heavy atom, donor atom, acceptor molecule, acceptor atom, score
      L1  H     7    36       P1  7948  0.69
      L1  H    10    37       P1  7948  0.99
      P1  H 10752 10764       L1     9  1.00

> <Gold.PLP.Chemscore.Internal.Correction>
0.1432

> <Gold.Rescore>
     Score         DG    S(hbond)    S(metal)    S(lipo)     H(rot)  DE(clash)    DE(int)     intcor
     17.03     -19.30       2.01        0.00      94.63       1.55       0.33       1.93       ----

> <Gold.Chemscore.Fitness>
17.0322

> <Gold.Chemscore.DG>
-19.3003

> <Gold.Chemscore.ZeroCoef>
-5.4800

> <Gold.Chemscore.Hbond>
2.0093

> <Gold.Chemscore.Metal>
0.0000

> <Gold.Chemscore.Lipo>
94.6321

> <Gold.Chemscore.Internal_Hbond>
0.0000

> <Gold.Chemscore.DEClash>
0.3331

> <Gold.Chemscore.DEInternal>
1.9350

> <Gold.Chemscore.Rot>
1.5479

> <Gold.Chemscore.Internal.Correction>
   9.000000E+99

> <Gold.Chemscore.Hbonds>
donor molecule, donor type, donor heavy atom, donor atom, acceptor molecule, acceptor atom, score
      L1  H     7    36       P1  7948  0.50
      L1  H    10    37       P1  7948  0.37
      P1  H 10752 10764       L1     9  0.78

> <Gold.Chemscore.Hbond.Weighted>
-6.7110

> <Gold.Chemscore.Metal.Weighted>
-0.0000

> <Gold.Chemscore.Lipo.Weighted>
-11.0720

> <Gold.Chemscore.Internal_Hbond.Weighted>
0.0000

> <Gold.Chemscore.DEClash.Weighted>
0.3331

> <Gold.Chemscore.DEInternal.Weighted>
1.9350

> <Gold.Chemscore.Rot.Weighted>
3.9627

> <Gold.Chemscore.Internal.Correction.Weighted>
   9.000000E+99

> <Gold.Protein.RotatedTorsions>
[ 6907 6896 6895 6894 ] final   78.46 input  -60.11 | X-H torsion
[ 7974 7965 7964 7962 ] final -172.50 input  175.53 | X-H torsion
[ 8008 7997 7996 7995 ] final  174.94 input   59.86 | X-H torsion
[ 10167 10162 10161 10158 ] final   95.09 input  -65.29 | X-H torsion
[ 10718 10713 10712 10709 ] final -134.73 input   66.30 | X-H torsion
[ 10763 10752 10751 10750 ] final  -37.99 input  -60.55 | X-H torsion
[ 11005 11000 10999 10996 ] final  177.99 input  -57.11 | X-H torsion

> <Gold.Protein.ActiveResidues>
 VAL166  LYS551  ARG553  GLY616  TRP617  ASP618  TYR619  PRO620  LYS621  CYS622 
 ASP623  PHE694  ASN695  SER759  ASP760  ASP761  ALA762  ILE779  LEU786  VAL792 
 PHE793  MET794  SER795  GLU796  ALA797  LYS798  CYS799  TRP800  GLU811  SER814 

> <Gold.Protein.RotatedAtoms>
  152.5160  134.3661  159.9301 H   0  0  0  0  0  0  0  0  0  0  0  0  # atno 6907 bound_to 6896
  151.3614  133.3882  159.2698 H   0  0  0  0  0  0  0  0  0  0  0  0  # atno 6908 bound_to 6896
  150.9649  134.9050  159.7811 H   0  0  0  0  0  0  0  0  0  0  0  0  # atno 6909 bound_to 6896
  144.7146  140.1763  143.6362 H   0  0  0  0  0  0  0  0  0  0  0  0  # atno 7974 bound_to 7965
  156.0922  140.1421  156.9577 H   0  0  0  0  0  0  0  0  0  0  0  0  # atno 8008 bound_to 7997
  154.4649  140.0930  156.7040 H   0  0  0  0  0  0  0  0  0  0  0  0  # atno 8009 bound_to 7997
  155.4900  140.3447  155.4355 H   0  0  0  0  0  0  0  0  0  0  0  0  # atno 8010 bound_to 7997
  139.8022  144.6809  150.9750 H   0  0  0  0  0  0  0  0  0  0  0  0  # atno 10167 bound_to 10162
  156.2586  130.7196  151.1121 H   0  0  0  0  0  0  0  0  0  0  0  0  # atno 10718 bound_to 10713
  153.9054  135.6798  153.4753 H   0  0  0  0  0  0  0  0  0  0  0  0  # atno 10763 bound_to 10752
  153.1107  135.4784  154.9027 H   0  0  0  0  0  0  0  0  0  0  0  0  # atno 10764 bound_to 10752
  154.7554  135.3196  154.8434 H   0  0  0  0  0  0  0  0  0  0  0  0  # atno 10765 bound_to 10752
  140.3902  134.6869  157.4503 H   0  0  0  0  0  0  0  0  0  0  0  0  # atno 11005 bound_to 11000
  145.8897  139.2369  143.1557 LP  0  0  0  0  0  0  0  0  0  0  0  0  # atno 17320 bound_to 7965
  145.9915  140.8598  143.0064 LP  0  0  0  0  0  0  0  0  0  0  0  0  # atno 17321 bound_to 7965
  140.7820  143.4270  151.0752 LP  0  0  0  0  0  0  0  0  0  0  0  0  # atno 17342 bound_to 10162
  139.7942  143.8176  152.3155 LP  0  0  0  0  0  0  0  0  0  0  0  0  # atno 17343 bound_to 10162
  157.7242  131.0661  150.6006 LP  0  0  0  0  0  0  0  0  0  0  0  0  # atno 17370 bound_to 10713
  156.6092  130.4375  149.5866 LP  0  0  0  0  0  0  0  0  0  0  0  0  # atno 17371 bound_to 10713
  140.0412  134.6264  155.8978 LP  0  0  0  0  0  0  0  0  0  0  0  0  # atno 17394 bound_to 11000
  141.1893  133.6565  156.5364 LP  0  0  0  0  0  0  0  0  0  0  0  0  # atno 17395 bound_to 11000

$$$$
