AV-unprocessed.smi:3298|AV-procd|sdf|12640|dock5
  -GOLD-   2272018573D 1   1.00000     0.00000
 Structure written by MMmdl.
 35 36  0  0  0  0  0  0  0  0  1 V2000
  153.7700  141.5279  160.6741 C   0  0  0  0  0  0  0  0  0  0  0  0
  152.8310  142.5800  160.1220 C   0  0  0  0  0  0  0  0  0  0  0  0
  152.1025  142.3459  158.9370 C   0  0  0  0  0  0  0  0  0  0  0  0
  151.2434  143.3553  158.4553 C   0  0  0  0  0  0  0  0  0  0  0  0
  150.5127  143.0867  157.2661 N   0  0  0  0  0  0  0  0  0  0  0  0
  150.5651  142.0043  156.4704 C   0  0  0  0  0  0  0  0  0  0  0  0
  151.2767  141.0163  156.6516 O   0  0  0  0  0  0  0  0  0  0  0  0
  149.7140  142.1195  155.4410 N   0  0  0  0  0  0  0  0  0  0  0  0
  149.5112  141.1075  154.4105 C   0  0  2  0  0  0  0  0  0  0  0  0
  148.1402  141.2384  153.8061 C   0  0  0  0  0  0  0  0  0  0  0  0
  147.4364  140.1112  153.8789 C   0  0  0  0  0  0  0  0  0  0  0  0
  148.1894  138.9934  154.5543 C   0  0  2  0  0  0  0  0  0  0  0  0
  147.4189  138.3816  155.7372 C   0  0  0  0  0  0  0  0  0  0  0  0
  147.1436  139.3645  156.7132 O   0  0  0  0  0  0  0  0  0  0  0  0
  149.5225  139.6625  154.9763 C   0  0  0  0  0  0  0  0  0  0  0  0
  151.1359  144.5520  159.2041 C   0  0  0  0  0  0  0  0  0  0  0  0
  151.9059  144.6844  160.3767 C   0  0  0  0  0  0  0  0  0  0  0  0
  152.7394  143.7252  160.8317 N   0  0  0  0  0  0  0  0  0  0  0  0
  150.2500  141.2218  153.6154 H   0  0  0  0  0  0  0  0  0  0  0  0
  148.3891  138.2238  153.8073 H   0  0  0  0  0  0  0  0  0  0  0  0
  154.0516  140.8110  159.9024 H   0  0  0  0  0  0  0  0  0  0  0  0
  153.2896  140.9847  161.4880 H   0  0  0  0  0  0  0  0  0  0  0  0
  154.6825  141.9862  161.0572 H   0  0  0  0  0  0  0  0  0  0  0  0
  152.2058  141.4109  158.4057 H   0  0  0  0  0  0  0  0  0  0  0  0
  149.8221  143.7808  157.0207 H   0  0  0  0  0  0  0  0  0  0  0  0
  149.1619  142.9615  155.3679 H   0  0  0  0  0  0  0  0  0  0  0  0
  147.7955  142.1565  153.3531 H   0  0  0  0  0  0  0  0  0  0  0  0
  146.4355  139.9795  153.4949 H   0  0  0  0  0  0  0  0  0  0  0  0
  146.4730  137.9609  155.3948 H   0  0  0  0  0  0  0  0  0  0  0  0
  147.9871  137.5706  156.1945 H   0  0  0  0  0  0  0  0  0  0  0  0
  147.6447  140.1395  156.5099 H   0  0  0  0  0  0  0  0  0  0  0  0
  150.3769  139.1038  154.5925 H   0  0  0  0  0  0  0  0  0  0  0  0
  149.6200  139.6693  156.0633 H   0  0  0  0  0  0  0  0  0  0  0  0
  150.4785  145.3573  158.9158 H   0  0  0  0  0  0  0  0  0  0  0  0
  151.8453  145.5850  160.9694 H   0  0  0  0  0  0  0  0  0  0  0  0
  1  2  1  0  0  0  0
  1 21  1  0  0  0  0
  1 22  1  0  0  0  0
  1 23  1  0  0  0  0
  2 18  1  0  0  0  0
  2  3  2  0  0  0  0
  3  4  1  0  0  0  0
  3 24  1  0  0  0  0
  4  5  1  0  0  0  0
  4 16  2  0  0  0  0
  5  6  1  0  0  0  0
  5 25  1  0  0  0  0
  6  7  2  0  0  0  0
  6  8  1  0  0  0  0
  8  9  1  0  0  0  0
  8 26  1  0  0  0  0
  9 19  1  0  0  0  0
  9 15  1  0  0  0  0
  9 10  1  0  0  0  0
 10 11  2  0  0  0  0
 10 27  1  0  0  0  0
 11 12  1  0  0  0  0
 11 28  1  0  0  0  0
 12 20  1  0  0  0  0
 12 13  1  0  0  0  0
 12 15  1  0  0  0  0
 13 14  1  0  0  0  0
 13 29  1  0  0  0  0
 13 30  1  0  0  0  0
 14 31  1  0  0  0  0
 15 32  1  0  0  0  0
 15 33  1  0  0  0  0
 16 17  1  0  0  0  0
 16 34  1  0  0  0  0
 17 18  2  0  0  0  0
 17 35  1  0  0  0  0
M  END
> <s_m_source_file>
AV-unprocessed.smi

> <i_m_source_file_index>
3298

> <i_lp_mmshare_version>
43012

> <i_f3d_flags>
0

> <s_epik_input>
W0NIM11jMVtjSF1jKFtjSF1bY0hdbjEpW05IXUMoPU8pW05IXVtDQEBIXTJbQ0hdPVtDSF1bQ0BASF0oW0NIMl0yKVtDSDJdW09IXQ==

> <s_epik_cmdline>
J2VwaWtfcHl0aG9uJywgJy1waCcsICc3LjAnLCAnLXRuJywgJzgnLCAnLW1hJywgJzIwMCcsICctbWV0YWxfYmluZGluZycsICctaW1hZScsICc8aW5maWxlLm1hZT4nLCAnLW9tYWUnLCAnPG91dGZpbGUubWFlPic=

> <r_epik_Ionization_Penalty>
0.379275

> <r_epik_Ionization_Penalty_Charging>
0

> <r_epik_Ionization_Penalty_Neutral>
0.379275

> <r_epik_State_Penalty>
0.377195

> <r_epik_Charging_Adjusted_Penalty>
0.377195

> <i_epik_Tot_Q>
0

> <i_epik_Tot_abs_Q>
0

> <r_epik_Metal_State_Penalty>
0.22815

> <b_epik_Metal_Only>
0

> <s_lp_Force_Field>
OPLS_2005

> <r_lp_Energy>
20.8901

> <b_lp_Chiralities_Consistent>
1

> <s_lp_Variant>
AV-unprocessed.smi:3298-1

> <Gold.Version>
5.8.1

> <Gold.Id.Protein>
6NUR|6NUR_protein|mol2

> <Gold.PLP.Fitness>
40.8366

> <Gold.PLP.PLP>
-35.5014

> <Gold.PLP.part.hbond>
-2.0000

> <Gold.PLP.part.metal>
0.0000

> <Gold.PLP.part.buried>
-2.2660

> <Gold.PLP.part.nonpolar>
-30.8207

> <Gold.PLP.part.repulsive>
0.2739

> <Gold.PLP.ligand.clash>
0.0000

> <Gold.PLP.ligand.torsion>
0.3278

> <Gold.PLP.Chemscore.Hbond>
1.9920

> <Gold.PLP.Chemscore.CHOScore>
0.0000

> <Gold.PLP.Chemscore.Metal>
0.0000

> <Gold.Chemscore.Hbonds>
donor molecule, donor type, donor heavy atom, donor atom, acceptor molecule, acceptor atom, score
      L1  H     5    25       P1  8028  0.99
      L1  H     8    26       P1  8028  1.00

> <Gold.PLP.Chemscore.Internal.Correction>
0.0148

> <Gold.Rescore>
     Score         DG    S(hbond)    S(metal)    S(lipo)     H(rot)  DE(clash)    DE(int)     intcor
     15.73     -18.85       1.94        0.00      97.95       1.78       0.23       2.89       ----

> <Gold.Chemscore.Fitness>
15.7257

> <Gold.Chemscore.DG>
-18.8521

> <Gold.Chemscore.ZeroCoef>
-5.4800

> <Gold.Chemscore.Hbond>
1.9365

> <Gold.Chemscore.Metal>
0.0000

> <Gold.Chemscore.Lipo>
97.9483

> <Gold.Chemscore.Internal_Hbond>
0.0000

> <Gold.Chemscore.DEClash>
0.2330

> <Gold.Chemscore.DEInternal>
2.8934

> <Gold.Chemscore.Rot>
1.7796

> <Gold.Chemscore.Internal.Correction>
   9.000000E+99

> <Gold.Chemscore.Hbonds>
donor molecule, donor type, donor heavy atom, donor atom, acceptor molecule, acceptor atom, score
      L1  H     5    25       P1  8028  0.88
      L1  H     8    26       P1  8028  0.97

> <Gold.Chemscore.Hbond.Weighted>
-6.4680

> <Gold.Chemscore.Metal.Weighted>
-0.0000

> <Gold.Chemscore.Lipo.Weighted>
-11.4599

> <Gold.Chemscore.Internal_Hbond.Weighted>
0.0000

> <Gold.Chemscore.DEClash.Weighted>
0.2330

> <Gold.Chemscore.DEInternal.Weighted>
2.8934

> <Gold.Chemscore.Rot.Weighted>
4.5558

> <Gold.Chemscore.Internal.Correction.Weighted>
   9.000000E+99

> <Gold.Protein.RotatedTorsions>
[ 6907 6896 6895 6894 ] final  -81.09 input  -60.11 | X-H torsion
[ 7974 7965 7964 7962 ] final   29.03 input  175.53 | X-H torsion
[ 8008 7997 7996 7995 ] final   66.47 input   59.86 | X-H torsion
[ 10167 10162 10161 10158 ] final  171.78 input  -65.29 | X-H torsion
[ 10718 10713 10712 10709 ] final -143.96 input   66.30 | X-H torsion
[ 10763 10752 10751 10750 ] final  135.46 input  -60.55 | X-H torsion
[ 11005 11000 10999 10996 ] final   19.26 input  -57.11 | X-H torsion

> <Gold.Protein.ActiveResidues>
 VAL166  LYS551  ARG553  GLY616  TRP617  ASP618  TYR619  PRO620  LYS621  CYS622 
 ASP623  PHE694  ASN695  SER759  ASP760  ASP761  ALA762  ILE779  LEU786  VAL792 
 PHE793  MET794  SER795  GLU796  ALA797  LYS798  CYS799  TRP800  GLU811  SER814 

> <Gold.Protein.RotatedAtoms>
  150.6918  134.3870  159.5059 H   0  0  0  0  0  0  0  0  0  0  0  0  # atno 6907 bound_to 6896
  152.1664  134.8867  160.0547 H   0  0  0  0  0  0  0  0  0  0  0  0  # atno 6908 bound_to 6896
  151.9910  133.3756  159.4181 H   0  0  0  0  0  0  0  0  0  0  0  0  # atno 6909 bound_to 6896
  146.1695  139.6976  142.8978 H   0  0  0  0  0  0  0  0  0  0  0  0  # atno 7974 bound_to 7965
  155.6778  140.3496  155.4843 H   0  0  0  0  0  0  0  0  0  0  0  0  # atno 8008 bound_to 7997
  155.9632  140.1141  157.0900 H   0  0  0  0  0  0  0  0  0  0  0  0  # atno 8009 bound_to 7997
  154.4148  140.1171  156.5194 H   0  0  0  0  0  0  0  0  0  0  0  0  # atno 8010 bound_to 7997
  139.5057  144.3447  151.9983 H   0  0  0  0  0  0  0  0  0  0  0  0  # atno 10167 bound_to 10162
  156.3643  130.7755  151.1927 H   0  0  0  0  0  0  0  0  0  0  0  0  # atno 10718 bound_to 10713
  153.8404  135.3092  155.3425 H   0  0  0  0  0  0  0  0  0  0  0  0  # atno 10763 bound_to 10752
  154.7935  135.4769  154.0110 H   0  0  0  0  0  0  0  0  0  0  0  0  # atno 10764 bound_to 10752
  153.1579  135.6855  153.8877 H   0  0  0  0  0  0  0  0  0  0  0  0  # atno 10765 bound_to 10752
  140.4157  134.1572  155.7669 H   0  0  0  0  0  0  0  0  0  0  0  0  # atno 11005 bound_to 11000
  145.4379  141.0420  143.2874 LP  0  0  0  0  0  0  0  0  0  0  0  0  # atno 17320 bound_to 7965
  144.8141  139.5908  143.7016 LP  0  0  0  0  0  0  0  0  0  0  0  0  # atno 17321 bound_to 7965
  140.2885  144.3781  150.6096 LP  0  0  0  0  0  0  0  0  0  0  0  0  # atno 17342 bound_to 10162
  140.5965  143.2167  151.7155 LP  0  0  0  0  0  0  0  0  0  0  0  0  # atno 17343 bound_to 10162
  157.7477  131.0391  150.4533 LP  0  0  0  0  0  0  0  0  0  0  0  0  # atno 17370 bound_to 10713
  156.4749  130.4061  149.6496 LP  0  0  0  0  0  0  0  0  0  0  0  0  # atno 17371 bound_to 10713
  141.1804  133.8426  157.1278 LP  0  0  0  0  0  0  0  0  0  0  0  0  # atno 17394 bound_to 11000
  140.0236  134.9934  157.0641 LP  0  0  0  0  0  0  0  0  0  0  0  0  # atno 17395 bound_to 11000

$$$$
