AV-unprocessed.smi:581|AV-procd|sdf|2993|dock3
  -GOLD-   2262023493D 1   1.00000     0.00000
 Structure written by MMmdl.
 35 36  0  0  0  0  0  0  0  0  2 V2000
  155.5667  139.8935  161.0354 C   0  0  0  0  0  0  0  0  0  0  0  0
  154.2375  140.2305  160.3851 C   0  0  0  0  0  0  0  0  0  0  0  0
  153.8974  141.5377  160.3835 N   0  0  0  0  0  0  0  0  0  0  0  0
  152.7295  141.8834  159.8296 C   0  0  0  0  0  0  0  0  0  0  0  0
  152.3843  143.2413  159.8387 N   0  0  0  0  0  0  0  0  0  0  0  0
  152.5165  144.0904  158.6526 C   0  0  0  0  0  0  0  0  0  0  0  0
  151.4108  145.1590  158.6227 C   0  0  0  0  0  0  0  0  0  0  0  0
  151.4299  145.9075  159.8321 O   0  0  0  0  0  0  0  0  0  0  0  0
  151.1786  145.0823  160.9629 C   0  0  0  0  0  0  0  0  0  0  0  0
  152.2759  144.0113  161.0802 C   0  0  0  0  0  0  0  0  0  0  0  0
  151.8653  141.0263  159.2717 N   0  0  0  0  0  0  0  0  0  0  0  0
  152.1832  139.7144  159.2593 C   0  0  0  0  0  0  0  0  0  0  0  0
  151.2933  138.8468  158.6956 O   0  0  0  0  0  0  0  0  0  0  0  0
  153.3958  139.2449  159.8160 C   0  0  0  0  0  0  0  0  0  0  0  0
  153.7582  137.7641  159.8119 C   0  0  0  0  0  0  0  0  0  0  0  0
  153.9755  137.2257  158.3833 C   0  0  0  0  0  0  0  0  0  0  0  0
  154.1684  135.7042  158.3315 C   0  0  0  0  0  0  0  0  0  0  0  0
  154.1567  135.1082  159.4305 O   0  0  0  0  0  0  0  0  0  0  0  0
  154.3312  135.1548  157.2189 O   0  5  0  0  0  0  0  0  0  0  0  0
  151.5312  137.9429  158.8307 H   0  0  0  0  0  0  0  0  0  0  0  0
  155.4395  139.1166  161.7893 H   0  0  0  0  0  0  0  0  0  0  0  0
  156.0032  140.7653  161.5244 H   0  0  0  0  0  0  0  0  0  0  0  0
  156.2749  139.5377  160.2871 H   0  0  0  0  0  0  0  0  0  0  0  0
  152.4610  143.5169  157.7278 H   0  0  0  0  0  0  0  0  0  0  0  0
  153.4975  144.5661  158.6715 H   0  0  0  0  0  0  0  0  0  0  0  0
  151.5687  145.8371  157.7839 H   0  0  0  0  0  0  0  0  0  0  0  0
  150.4312  144.7001  158.4802 H   0  0  0  0  0  0  0  0  0  0  0  0
  151.1650  145.7037  161.8585 H   0  0  0  0  0  0  0  0  0  0  0  0
  150.1927  144.6214  160.8802 H   0  0  0  0  0  0  0  0  0  0  0  0
  153.2382  144.4834  161.2804 H   0  0  0  0  0  0  0  0  0  0  0  0
  152.0500  143.3825  161.9406 H   0  0  0  0  0  0  0  0  0  0  0  0
  152.9781  137.1964  160.3193 H   0  0  0  0  0  0  0  0  0  0  0  0
  154.6590  137.6165  160.4090 H   0  0  0  0  0  0  0  0  0  0  0  0
  153.1236  137.4835  157.7535 H   0  0  0  0  0  0  0  0  0  0  0  0
  154.8510  137.7000  157.9380 H   0  0  0  0  0  0  0  0  0  0  0  0
  1 21  1  0  0  0  0
  1 22  1  0  0  0  0
  1 23  1  0  0  0  0
  1  2  1  0  0  0  0
  2 14  2  0  0  0  0
  2  3  1  0  0  0  0
  3  4  2  0  0  0  0
  4  5  1  0  0  0  0
  4 11  1  0  0  0  0
  5 10  1  0  0  0  0
  5  6  1  0  0  0  0
  6  7  1  0  0  0  0
  6 24  1  0  0  0  0
  6 25  1  0  0  0  0
  7  8  1  0  0  0  0
  7 26  1  0  0  0  0
  7 27  1  0  0  0  0
  8  9  1  0  0  0  0
  9 10  1  0  0  0  0
  9 28  1  0  0  0  0
  9 29  1  0  0  0  0
 10 30  1  0  0  0  0
 10 31  1  0  0  0  0
 11 12  2  0  0  0  0
 12 13  1  0  0  0  0
 12 14  1  0  0  0  0
 13 20  1  0  0  0  0
 14 15  1  0  0  0  0
 15 16  1  0  0  0  0
 15 32  1  0  0  0  0
 15 33  1  0  0  0  0
 16 17  1  0  0  0  0
 16 34  1  0  0  0  0
 16 35  1  0  0  0  0
 17 18  2  0  0  0  0
 17 19  1  0  0  0  0
M  CHG  1  19  -1
M  END
> <s_m_source_file>
AV-unprocessed.smi

> <i_m_source_file_index>
581

> <i_lp_mmshare_version>
43012

> <i_f3d_flags>
0

> <s_epik_input>
W0NIMl0xW0NIMl1PW0NIMl1bQ0gyXU4xYyhuYzJbQ0gzXSlbbkhdYyg9TyljMltDSDJdW0NIMl1DKD1PKVtPSF0=

> <s_epik_cmdline>
J2VwaWtfcHl0aG9uJywgJy1waCcsICc3LjAnLCAnLXRuJywgJzgnLCAnLW1hJywgJzIwMCcsICctbWV0YWxfYmluZGluZycsICctaW1hZScsICc8aW5maWxlLm1hZT4nLCAnLW9tYWUnLCAnPG91dGZpbGUubWFlPic=

> <r_lp_tautomer_probability>
0.0131408

> <r_epik_Ionization_Penalty>
9.14148

> <r_epik_Ionization_Penalty_Charging>
0.00124504

> <r_epik_Ionization_Penalty_Neutral>
9.14023

> <r_epik_State_Penalty>
2.72329

> <r_epik_Charging_Adjusted_Penalty>
2.72453

> <i_epik_Tot_Q>
-1

> <i_epik_Tot_abs_Q>
1

> <r_epik_Metal_State_Penalty>
2.96989

> <b_epik_Metal_Only>
0

> <s_lp_Force_Field>
OPLS_2005

> <r_lp_Energy>
10.3836

> <b_lp_Chiralities_Consistent>
1

> <s_lp_Variant>
AV-unprocessed.smi:581-3

> <Gold.Version>
5.8.1

> <Gold.Id.Protein>
6NUR|6NUR_protein|mol2

> <Gold.PLP.Fitness>
45.2928

> <Gold.PLP.PLP>
-35.8050

> <Gold.PLP.part.hbond>
-3.6569

> <Gold.PLP.part.metal>
0.0000

> <Gold.PLP.part.buried>
-3.6183

> <Gold.PLP.part.nonpolar>
-29.0160

> <Gold.PLP.part.repulsive>
0.2028

> <Gold.PLP.ligand.clash>
0.0000

> <Gold.PLP.ligand.torsion>
1.3016

> <Gold.PLP.Chemscore.Hbond>
4.0000

> <Gold.PLP.Chemscore.CHOScore>
0.0000

> <Gold.PLP.Chemscore.Metal>
0.0000

> <Gold.Chemscore.Hbonds>
donor molecule, donor type, donor heavy atom, donor atom, acceptor molecule, acceptor atom, score
      P1  H  6896  6908       L1    18  2.00
      P1  H 10752 10764       L1    19  2.00

> <Gold.PLP.Chemscore.Internal.Correction>
0.0909

> <Gold.Rescore>
     Score         DG    S(hbond)    S(metal)    S(lipo)     H(rot)  DE(clash)    DE(int)     intcor
     13.11     -14.34       1.85        0.00      77.12       2.48       0.07       1.16       ----

> <Gold.Chemscore.Fitness>
13.1057

> <Gold.Chemscore.DG>
-14.3376

> <Gold.Chemscore.ZeroCoef>
-5.4800

> <Gold.Chemscore.Hbond>
1.8494

> <Gold.Chemscore.Metal>
0.0000

> <Gold.Chemscore.Lipo>
77.1173

> <Gold.Chemscore.Internal_Hbond>
0.0000

> <Gold.Chemscore.DEClash>
0.0688

> <Gold.Chemscore.DEInternal>
1.1631

> <Gold.Chemscore.Rot>
2.4774

> <Gold.Chemscore.Internal.Correction>
   9.000000E+99

> <Gold.Chemscore.Hbonds>
donor molecule, donor type, donor heavy atom, donor atom, acceptor molecule, acceptor atom, score
      P1  H  6896  6908       L1    18  0.82
      P1  H 10752 10764       L1    19  1.00

> <Gold.Chemscore.Hbond.Weighted>
-6.1769

> <Gold.Chemscore.Metal.Weighted>
-0.0000

> <Gold.Chemscore.Lipo.Weighted>
-9.0227

> <Gold.Chemscore.Internal_Hbond.Weighted>
0.0000

> <Gold.Chemscore.DEClash.Weighted>
0.0688

> <Gold.Chemscore.DEInternal.Weighted>
1.1631

> <Gold.Chemscore.Rot.Weighted>
6.3420

> <Gold.Chemscore.Internal.Correction.Weighted>
   9.000000E+99

> <Gold.Protein.RotatedTorsions>
[ 6907 6896 6895 6894 ] final  -61.69 input  -60.11 | X-H torsion
[ 7974 7965 7964 7962 ] final  104.20 input  175.53 | X-H torsion
[ 8008 7997 7996 7995 ] final   60.07 input   59.86 | X-H torsion
[ 10167 10162 10161 10158 ] final -115.48 input  -65.29 | X-H torsion
[ 10718 10713 10712 10709 ] final    2.41 input   66.30 | X-H torsion
[ 10763 10752 10751 10750 ] final   33.27 input  -60.55 | X-H torsion
[ 11005 11000 10999 10996 ] final   25.45 input  -57.11 | X-H torsion

> <Gold.Protein.ActiveResidues>
 VAL166  LYS551  ARG553  GLY616  TRP617  ASP618  TYR619  PRO620  LYS621  CYS622 
 ASP623  PHE694  ASN695  SER759  ASP760  ASP761  ALA762  ILE779  LEU786  VAL792 
 PHE793  MET794  SER795  GLU796  ALA797  LYS798  CYS799  TRP800  GLU811  SER814 

> <Gold.Protein.RotatedAtoms>
  150.7767  134.6670  159.6370 H   0  0  0  0  0  0  0  0  0  0  0  0  # atno 6907 bound_to 6896
  152.3839  134.6545  160.0142 H   0  0  0  0  0  0  0  0  0  0  0  0  # atno 6908 bound_to 6896
  151.6866  133.3275  159.3269 H   0  0  0  0  0  0  0  0  0  0  0  0  # atno 6909 bound_to 6896
  145.3359  139.2474  143.3636 H   0  0  0  0  0  0  0  0  0  0  0  0  # atno 7974 bound_to 7965
  155.5764  140.3491  155.4528 H   0  0  0  0  0  0  0  0  0  0  0  0  # atno 8008 bound_to 7997
  156.0406  140.1295  157.0185 H   0  0  0  0  0  0  0  0  0  0  0  0  # atno 8009 bound_to 7997
  154.4390  140.1025  156.6217 H   0  0  0  0  0  0  0  0  0  0  0  0  # atno 8010 bound_to 7997
  140.0897  143.4711  152.1877 H   0  0  0  0  0  0  0  0  0  0  0  0  # atno 10167 bound_to 10162
  156.8627  130.5592  149.5662 H   0  0  0  0  0  0  0  0  0  0  0  0  # atno 10718 bound_to 10713
  153.0220  135.6391  154.1485 H   0  0  0  0  0  0  0  0  0  0  0  0  # atno 10763 bound_to 10752
  154.1218  135.2846  155.3208 H   0  0  0  0  0  0  0  0  0  0  0  0  # atno 10764 bound_to 10752
  154.6258  135.5509  153.7687 H   0  0  0  0  0  0  0  0  0  0  0  0  # atno 10765 bound_to 10752
  140.3477  134.2264  155.7683 H   0  0  0  0  0  0  0  0  0  0  0  0  # atno 11005 bound_to 11000
  146.3027  140.3946  142.8698 LP  0  0  0  0  0  0  0  0  0  0  0  0  # atno 17320 bound_to 7965
  144.8828  140.7423  143.5976 LP  0  0  0  0  0  0  0  0  0  0  0  0  # atno 17321 bound_to 7965
  139.5732  144.7474  151.3835 LP  0  0  0  0  0  0  0  0  0  0  0  0  # atno 17342 bound_to 10162
  140.7035  143.7572  150.7442 LP  0  0  0  0  0  0  0  0  0  0  0  0  # atno 17343 bound_to 10162
  156.0768  130.5788  150.9489 LP  0  0  0  0  0  0  0  0  0  0  0  0  # atno 17370 bound_to 10713
  157.6241  131.0927  150.8567 LP  0  0  0  0  0  0  0  0  0  0  0  0  # atno 17371 bound_to 10713
  141.2021  133.7946  157.0408 LP  0  0  0  0  0  0  0  0  0  0  0  0  # atno 17394 bound_to 11000
  140.0729  134.9692  157.1497 LP  0  0  0  0  0  0  0  0  0  0  0  0  # atno 17395 bound_to 11000

$$$$
