AV-unprocessed.smi:906|AV-procd|sdf|4103|dock8
  -GOLD-   22720 1593D 1   1.00000     0.00000
 Structure written by MMmdl.
 48 49  0  0  0  0  0  0  0  0  2 V2000
  151.5284  145.1144  159.1042 C   0  0  0  0  0  0  0  0  0  0  0  0
  151.6171  143.7221  158.5161 C   0  0  0  0  0  0  0  0  0  0  0  0
  152.3307  142.6821  159.1494 C   0  0  0  0  0  0  0  0  0  0  0  0
  152.3699  141.4073  158.5469 C   0  0  0  0  0  0  0  0  0  0  0  0
  151.6948  141.1983  157.3246 C   0  0  0  0  0  0  0  0  0  0  0  0
  151.7128  139.8396  156.6526 C   0  0  0  0  0  0  0  0  0  0  0  0
  151.3822  138.7038  157.6347 C   0  0  0  0  0  0  0  0  0  0  0  0
  150.6895  137.6056  156.9712 N   0  0  0  0  0  0  0  0  0  0  0  0
  150.1063  136.5688  157.5970 C   0  0  0  0  0  0  0  0  0  0  0  0
  150.0977  136.4690  158.8249 O   0  0  0  0  0  0  0  0  0  0  0  0
  149.5044  135.6741  156.7745 N   0  0  0  0  0  0  0  0  0  0  0  0
  149.6115  135.6114  155.3097 C   0  0  0  0  0  0  0  0  0  0  0  0
  150.4461  134.3739  154.9277 C   0  0  0  0  0  0  0  0  0  0  0  0
  149.8157  133.1554  155.4508 N   0  0  0  0  0  0  0  0  0  0  0  0
  150.4917  131.9400  154.9654 C   0  0  1  0  0  0  0  0  0  0  0  0
  151.6092  131.4301  155.9019 C   0  0  0  0  0  0  0  0  0  0  0  0
  149.4830  130.8270  154.5934 C   0  0  0  0  0  0  0  0  0  0  0  0
  148.6398  131.2616  153.6561 F   0  0  0  0  0  0  0  0  0  0  0  0
  150.1493  129.7850  154.0967 F   0  0  0  0  0  0  0  0  0  0  0  0
  148.7822  130.4076  155.6468 F   0  0  0  0  0  0  0  0  0  0  0  0
  149.6473  133.2356  156.9085 C   0  0  0  0  0  0  0  0  0  0  0  0
  148.8173  134.4807  157.2754 C   0  0  0  0  0  0  0  0  0  0  0  0
  150.9958  142.2751  156.7382 C   0  0  0  0  0  0  0  0  0  0  0  0
  150.9822  143.4811  157.3469 N   0  3  0  0  0  0  0  0  0  0  0  0
  152.3516  145.2971  159.7954 H   0  0  0  0  0  0  0  0  0  0  0  0
  150.5907  145.2355  159.6474 H   0  0  0  0  0  0  0  0  0  0  0  0
  151.5723  145.8699  158.3192 H   0  0  0  0  0  0  0  0  0  0  0  0
  152.8421  142.8562  160.0851 H   0  0  0  0  0  0  0  0  0  0  0  0
  152.9108  140.6007  159.0205 H   0  0  0  0  0  0  0  0  0  0  0  0
  150.9985  139.8489  155.8283 H   0  0  0  0  0  0  0  0  0  0  0  0
  152.6942  139.6746  156.2056 H   0  0  0  0  0  0  0  0  0  0  0  0
  152.2999  138.3107  158.0732 H   0  0  0  0  0  0  0  0  0  0  0  0
  150.7777  139.0770  158.4633 H   0  0  0  0  0  0  0  0  0  0  0  0
  150.6505  137.6309  155.9626 H   0  0  0  0  0  0  0  0  0  0  0  0
  148.6115  135.5366  154.8791 H   0  0  0  0  0  0  0  0  0  0  0  0
  150.0545  136.4997  154.8605 H   0  0  0  0  0  0  0  0  0  0  0  0
  150.5216  134.3128  153.8416 H   0  0  0  0  0  0  0  0  0  0  0  0
  151.4595  134.4786  155.3160 H   0  0  0  0  0  0  0  0  0  0  0  0
  150.9681  132.2207  154.0250 H   0  0  0  0  0  0  0  0  0  0  0  0
  152.1473  130.6032  155.4385 H   0  0  0  0  0  0  0  0  0  0  0  0
  151.2129  131.0617  156.8480 H   0  0  0  0  0  0  0  0  0  0  0  0
  152.3452  132.2020  156.1229 H   0  0  0  0  0  0  0  0  0  0  0  0
  149.1347  132.3526  157.2844 H   0  0  0  0  0  0  0  0  0  0  0  0
  150.6175  133.2836  157.4040 H   0  0  0  0  0  0  0  0  0  0  0  0
  148.6559  134.5102  158.3538 H   0  0  0  0  0  0  0  0  0  0  0  0
  147.8231  134.4182  156.8298 H   0  0  0  0  0  0  0  0  0  0  0  0
  150.4494  142.2084  155.8084 H   0  0  0  0  0  0  0  0  0  0  0  0
  150.4697  144.2441  156.9042 H   0  0  0  0  0  0  0  0  0  0  0  0
  1  2  1  0  0  0  0
  1 25  1  0  0  0  0
  1 26  1  0  0  0  0
  1 27  1  0  0  0  0
  2 24  1  0  0  0  0
  2  3  2  0  0  0  0
  3  4  1  0  0  0  0
  3 28  1  0  0  0  0
  4  5  2  0  0  0  0
  4 29  1  0  0  0  0
  5  6  1  0  0  0  0
  5 23  1  0  0  0  0
  6  7  1  0  0  0  0
  6 30  1  0  0  0  0
  6 31  1  0  0  0  0
  7  8  1  0  0  0  0
  7 32  1  0  0  0  0
  7 33  1  0  0  0  0
  8  9  1  0  0  0  0
  8 34  1  0  0  0  0
  9 10  2  0  0  0  0
  9 11  1  0  0  0  0
 11 22  1  0  0  0  0
 11 12  1  0  0  0  0
 12 13  1  0  0  0  0
 12 35  1  0  0  0  0
 12 36  1  0  0  0  0
 13 14  1  0  0  0  0
 13 37  1  0  0  0  0
 13 38  1  0  0  0  0
 14 15  1  0  0  0  0
 14 21  1  0  0  0  0
 15 16  1  0  0  0  0
 15 17  1  0  0  0  0
 15 39  1  0  0  0  0
 16 40  1  0  0  0  0
 16 41  1  0  0  0  0
 16 42  1  0  0  0  0
 17 18  1  0  0  0  0
 17 19  1  0  0  0  0
 17 20  1  0  0  0  0
 21 22  1  0  0  0  0
 21 43  1  0  0  0  0
 21 44  1  0  0  0  0
 22 45  1  0  0  0  0
 22 46  1  0  0  0  0
 23 24  2  0  0  0  0
 23 47  1  0  0  0  0
 24 48  1  0  0  0  0
M  CHG  1  24   1
M  END
> <s_m_source_file>
AV-unprocessed.smi

> <i_m_source_file_index>
906

> <i_lp_mmshare_version>
43012

> <i_f3d_flags>
0

> <s_epik_input>
W0NIM11jMVtjSF1bY0hdYyhbY0hdbjEpW0NIMl1bQ0gyXVtOSF1DKD1PKU4yW0NIMl1bQ0gyXU4oW0NASF0oW0NIM10pQyhGKShGKUYpW0NIMl1bQ0gyXTI=

> <s_epik_cmdline>
J2VwaWtfcHl0aG9uJywgJy1waCcsICc3LjAnLCAnLXRuJywgJzgnLCAnLW1hJywgJzIwMCcsICctbWV0YWxfYmluZGluZycsICctaW1hZScsICc8aW5maWxlLm1hZT4nLCAnLW9tYWUnLCAnPG91dGZpbGUubWFlPic=

> <r_epik_Ionization_Penalty>
1.4413

> <r_epik_Ionization_Penalty_Charging>
1.42075

> <r_epik_Ionization_Penalty_Neutral>
0.0205507

> <r_epik_State_Penalty>
1.52216

> <r_epik_Charging_Adjusted_Penalty>
2.94291

> <i_epik_Tot_Q>
1

> <i_epik_Tot_abs_Q>
1

> <r_epik_Metal_State_Penalty>
1.57308

> <b_epik_Metal_Only>
0

> <s_lp_Force_Field>
OPLS_2005

> <r_lp_Energy>
53.1846

> <b_lp_Chiralities_Consistent>
1

> <s_lp_Variant>
AV-unprocessed.smi:906-4

> <Gold.Version>
5.8.1

> <Gold.Id.Protein>
6NUR|6NUR_protein|mol2

> <Gold.PLP.Fitness>
44.7564

> <Gold.PLP.PLP>
-38.1096

> <Gold.PLP.part.hbond>
-2.0000

> <Gold.PLP.part.metal>
0.0000

> <Gold.PLP.part.buried>
-6.1056

> <Gold.PLP.part.nonpolar>
-29.8410

> <Gold.PLP.part.repulsive>
0.0303

> <Gold.PLP.ligand.clash>
0.0000

> <Gold.PLP.ligand.torsion>
1.2836

> <Gold.PLP.Chemscore.Hbond>
2.8560

> <Gold.PLP.Chemscore.CHOScore>
0.0000

> <Gold.PLP.Chemscore.Metal>
0.0000

> <Gold.Chemscore.Hbonds>
donor molecule, donor type, donor heavy atom, donor atom, acceptor molecule, acceptor atom, score
      L1  H    24    48       P1  8028  1.81
      P1  H  6896  6907       L1    10  1.00

> <Gold.PLP.Chemscore.Internal.Correction>
0.6460

> <Gold.Rescore>
     Score         DG    S(hbond)    S(metal)    S(lipo)     H(rot)  DE(clash)    DE(int)     intcor
     18.31     -19.59       1.96        0.00     100.75       1.66       0.07       1.20       ----

> <Gold.Chemscore.Fitness>
18.3130

> <Gold.Chemscore.DG>
-19.5871

> <Gold.Chemscore.ZeroCoef>
-5.4800

> <Gold.Chemscore.Hbond>
1.9632

> <Gold.Chemscore.Metal>
0.0000

> <Gold.Chemscore.Lipo>
100.7477

> <Gold.Chemscore.Internal_Hbond>
0.0000

> <Gold.Chemscore.DEClash>
0.0740

> <Gold.Chemscore.DEInternal>
1.2001

> <Gold.Chemscore.Rot>
1.6553

> <Gold.Chemscore.Internal.Correction>
   9.000000E+99

> <Gold.Chemscore.Hbonds>
donor molecule, donor type, donor heavy atom, donor atom, acceptor molecule, acceptor atom, score
      L1  H    24    48       P1  8028  0.79
      P1  H  6896  6907       L1    10  0.97

> <Gold.Chemscore.Hbond.Weighted>
-6.5572

> <Gold.Chemscore.Metal.Weighted>
-0.0000

> <Gold.Chemscore.Lipo.Weighted>
-11.7875

> <Gold.Chemscore.Internal_Hbond.Weighted>
0.0000

> <Gold.Chemscore.DEClash.Weighted>
0.0740

> <Gold.Chemscore.DEInternal.Weighted>
1.2001

> <Gold.Chemscore.Rot.Weighted>
4.2376

> <Gold.Chemscore.Internal.Correction.Weighted>
   9.000000E+99

> <Gold.Protein.RotatedTorsions>
[ 6907 6896 6895 6894 ] final  -42.64 input  -60.11 | X-H torsion
[ 7974 7965 7964 7962 ] final  141.98 input  175.53 | X-H torsion
[ 8008 7997 7996 7995 ] final  168.52 input   59.86 | X-H torsion
[ 10167 10162 10161 10158 ] final  177.80 input  -65.29 | X-H torsion
[ 10718 10713 10712 10709 ] final   -7.69 input   66.30 | X-H torsion
[ 10763 10752 10751 10750 ] final  -72.26 input  -60.55 | X-H torsion
[ 11005 11000 10999 10996 ] final  -58.72 input  -57.11 | X-H torsion

> <Gold.Protein.ActiveResidues>
 VAL166  LYS551  ARG553  GLY616  TRP617  ASP618  TYR619  PRO620  LYS621  CYS622 
 ASP623  PHE694  ASN695  SER759  ASP760  ASP761  ALA762  ILE779  LEU786  VAL792 
 PHE793  MET794  SER795  GLU796  ALA797  LYS798  CYS799  TRP800  GLU811  SER814 

> <Gold.Protein.RotatedAtoms>
  150.9529  134.8927  159.7682 H   0  0  0  0  0  0  0  0  0  0  0  0  # atno 6907 bound_to 6896
  152.5126  134.3781  159.9351 H   0  0  0  0  0  0  0  0  0  0  0  0  # atno 6908 bound_to 6896
  151.3796  133.3785  159.2743 H   0  0  0  0  0  0  0  0  0  0  0  0  # atno 6909 bound_to 6896
  144.9048  139.5373  143.5736 H   0  0  0  0  0  0  0  0  0  0  0  0  # atno 7974 bound_to 7965
  156.1539  140.1588  156.8724 H   0  0  0  0  0  0  0  0  0  0  0  0  # atno 8008 bound_to 7997
  154.5097  140.0804  156.8001 H   0  0  0  0  0  0  0  0  0  0  0  0  # atno 8009 bound_to 7997
  155.3841  140.3406  155.4250 H   0  0  0  0  0  0  0  0  0  0  0  0  # atno 8010 bound_to 7997
  139.5268  144.2755  152.0591 H   0  0  0  0  0  0  0  0  0  0  0  0  # atno 10167 bound_to 10162
  156.7135  130.5129  149.5886 H   0  0  0  0  0  0  0  0  0  0  0  0  # atno 10718 bound_to 10713
  154.4432  135.5935  153.6143 H   0  0  0  0  0  0  0  0  0  0  0  0  # atno 10763 bound_to 10752
  152.9807  135.6003  154.3696 H   0  0  0  0  0  0  0  0  0  0  0  0  # atno 10764 bound_to 10752
  154.3549  135.2841  155.2331 H   0  0  0  0  0  0  0  0  0  0  0  0  # atno 10765 bound_to 10752
  141.1219  133.6613  156.4963 H   0  0  0  0  0  0  0  0  0  0  0  0  # atno 11005 bound_to 11000
  146.3128  139.7808  142.9007 LP  0  0  0  0  0  0  0  0  0  0  0  0  # atno 17320 bound_to 7965
  145.3554  141.0315  143.3315 LP  0  0  0  0  0  0  0  0  0  0  0  0  # atno 17321 bound_to 7965
  140.2213  144.4463  150.6341 LP  0  0  0  0  0  0  0  0  0  0  0  0  # atno 17342 bound_to 10162
  140.6417  143.2205  151.6276 LP  0  0  0  0  0  0  0  0  0  0  0  0  # atno 17343 bound_to 10162
  156.1644  130.6396  151.0760 LP  0  0  0  0  0  0  0  0  0  0  0  0  # atno 17370 bound_to 10713
  157.6927  131.0805  150.7061 LP  0  0  0  0  0  0  0  0  0  0  0  0  # atno 17371 bound_to 10713
  140.4482  134.6953  157.5026 LP  0  0  0  0  0  0  0  0  0  0  0  0  # atno 17394 bound_to 11000
  140.0183  134.6585  155.9276 LP  0  0  0  0  0  0  0  0  0  0  0  0  # atno 17395 bound_to 11000

$$$$
