AV-unprocessed.smi:1791|AV-procd|sdf|7218|dock4
  -GOLD-   22720 8463D 1   1.00000     0.00000
 Structure written by MMmdl.
 38 39  0  0  0  0  0  0  0  0  1 V2000
  154.3802  140.7844  161.3020 C   0  0  0  0  0  0  0  0  0  0  0  0
  153.9630  142.1084  160.9863 O   0  0  0  0  0  0  0  0  0  0  0  0
  152.9334  142.2723  160.0820 C   0  0  0  0  0  0  0  0  0  0  0  0
  152.5348  143.5806  159.7429 C   0  0  0  0  0  0  0  0  0  0  0  0
  151.4792  143.7565  158.8274 C   0  0  0  0  0  0  0  0  0  0  0  0
  150.8483  142.6120  158.2830 C   0  0  0  0  0  0  0  0  0  0  0  0
  149.7781  142.6456  157.3479 N   0  0  0  0  0  0  0  0  0  0  0  0
  149.0994  141.6223  156.8015 C   0  0  0  0  0  0  0  0  0  0  0  0
  149.2715  140.4317  157.0597 O   0  0  0  0  0  0  0  0  0  0  0  0
  148.1974  142.0677  155.9148 N   0  0  0  0  0  0  0  0  0  0  0  0
  147.2914  141.2414  155.1187 C   0  0  2  0  0  0  0  0  0  0  0  0
  148.0102  140.8186  153.8293 C   0  0  0  0  0  0  0  0  0  0  0  0
  145.9900  142.0128  154.8235 C   0  0  2  0  0  0  0  0  0  0  0  0
  146.1235  143.1343  153.7908 C   0  0  0  0  0  0  0  0  0  0  0  0
  145.0002  144.0939  154.1530 C   0  0  0  0  0  0  0  0  0  0  0  0
  144.5546  143.6407  155.5459 C   0  0  0  0  0  0  0  0  0  0  0  0
  145.5504  142.7219  155.9713 O   0  0  0  0  0  0  0  0  0  0  0  0
  151.3340  141.3477  158.6753 C   0  0  0  0  0  0  0  0  0  0  0  0
  152.3446  141.1722  159.5521 N   0  0  0  0  0  0  0  0  0  0  0  0
  155.1863  140.8245  162.0342 H   0  0  0  0  0  0  0  0  0  0  0  0
  154.7593  140.2653  160.4205 H   0  0  0  0  0  0  0  0  0  0  0  0
  153.5667  140.2027  161.7378 H   0  0  0  0  0  0  0  0  0  0  0  0
  153.0311  144.4359  160.1773 H   0  0  0  0  0  0  0  0  0  0  0  0
  151.1876  144.7596  158.5598 H   0  0  0  0  0  0  0  0  0  0  0  0
  149.5467  143.5627  156.9948 H   0  0  0  0  0  0  0  0  0  0  0  0
  148.1333  143.0650  155.7727 H   0  0  0  0  0  0  0  0  0  0  0  0
  147.0359  140.3319  155.6652 H   0  0  0  0  0  0  0  0  0  0  0  0
  147.3749  140.1800  153.2148 H   0  0  0  0  0  0  0  0  0  0  0  0
  148.9182  140.2575  154.0528 H   0  0  0  0  0  0  0  0  0  0  0  0
  148.2918  141.6836  153.2279 H   0  0  0  0  0  0  0  0  0  0  0  0
  145.2020  141.3222  154.5155 H   0  0  0  0  0  0  0  0  0  0  0  0
  147.0838  143.6393  153.9052 H   0  0  0  0  0  0  0  0  0  0  0  0
  146.0564  142.7710  152.7649 H   0  0  0  0  0  0  0  0  0  0  0  0
  145.3587  145.1237  154.1602 H   0  0  0  0  0  0  0  0  0  0  0  0
  144.1734  144.0310  153.4449 H   0  0  0  0  0  0  0  0  0  0  0  0
  144.4589  144.4702  156.2468 H   0  0  0  0  0  0  0  0  0  0  0  0
  143.5935  143.1273  155.4927 H   0  0  0  0  0  0  0  0  0  0  0  0
  150.8939  140.4445  158.2784 H   0  0  0  0  0  0  0  0  0  0  0  0
  1  2  1  0  0  0  0
  1 20  1  0  0  0  0
  1 21  1  0  0  0  0
  1 22  1  0  0  0  0
  2  3  1  0  0  0  0
  3 19  1  0  0  0  0
  3  4  2  0  0  0  0
  4  5  1  0  0  0  0
  4 23  1  0  0  0  0
  5  6  2  0  0  0  0
  5 24  1  0  0  0  0
  6  7  1  0  0  0  0
  6 18  1  0  0  0  0
  7  8  1  0  0  0  0
  7 25  1  0  0  0  0
  8  9  2  0  0  0  0
  8 10  1  0  0  0  0
 10 11  1  0  0  0  0
 10 26  1  0  0  0  0
 11 12  1  0  0  0  0
 11 13  1  0  0  0  0
 11 27  1  0  0  0  0
 12 28  1  0  0  0  0
 12 29  1  0  0  0  0
 12 30  1  0  0  0  0
 13 17  1  0  0  0  0
 13 14  1  0  0  0  0
 13 31  1  0  0  0  0
 14 15  1  0  0  0  0
 14 32  1  0  0  0  0
 14 33  1  0  0  0  0
 15 16  1  0  0  0  0
 15 34  1  0  0  0  0
 15 35  1  0  0  0  0
 16 17  1  0  0  0  0
 16 36  1  0  0  0  0
 16 37  1  0  0  0  0
 18 19  2  0  0  0  0
 18 38  1  0  0  0  0
M  END
> <s_m_source_file>
AV-unprocessed.smi

> <i_m_source_file_index>
1791

> <i_lp_mmshare_version>
43012

> <i_f3d_flags>
0

> <s_epik_input>
W0NIM11PYzFbY0hdW2NIXWMoW2NIXW4xKVtOSF1DKD1PKVtOSF1bQ0BIXShbQ0gzXSlbQ0BASF0yW0NIMl1bQ0gyXVtDSDJdTzI=

> <s_epik_cmdline>
J2VwaWtfcHl0aG9uJywgJy1waCcsICc3LjAnLCAnLXRuJywgJzgnLCAnLW1hJywgJzIwMCcsICctbWV0YWxfYmluZGluZycsICctaW1hZScsICc8aW5maWxlLm1hZT4nLCAnLW9tYWUnLCAnPG91dGZpbGUubWFlPic=

> <r_lp_tautomer_probability>
1

> <r_epik_Ionization_Penalty>
9.18737e-05

> <r_epik_Ionization_Penalty_Charging>
0

> <r_epik_Ionization_Penalty_Neutral>
9.18737e-05

> <r_epik_State_Penalty>
-0

> <r_epik_Charging_Adjusted_Penalty>
0

> <i_epik_Tot_Q>
0

> <i_epik_Tot_abs_Q>
0

> <r_epik_Metal_State_Penalty>
-0

> <b_epik_Metal_Only>
0

> <s_lp_Force_Field>
OPLS_2005

> <r_lp_Energy>
20.7661

> <b_lp_Chiralities_Consistent>
1

> <s_lp_Variant>
AV-unprocessed.smi:1791-1

> <Gold.Version>
5.8.1

> <Gold.Id.Protein>
6NUR|6NUR_protein|mol2

> <Gold.PLP.Fitness>
41.8221

> <Gold.PLP.PLP>
-36.9750

> <Gold.PLP.part.hbond>
-2.3552

> <Gold.PLP.part.metal>
0.0000

> <Gold.PLP.part.buried>
-5.2551

> <Gold.PLP.part.nonpolar>
-29.6293

> <Gold.PLP.part.repulsive>
0.2382

> <Gold.PLP.ligand.clash>
0.0000

> <Gold.PLP.ligand.torsion>
0.6009

> <Gold.PLP.Chemscore.Hbond>
2.0000

> <Gold.PLP.Chemscore.CHOScore>
0.0000

> <Gold.PLP.Chemscore.Metal>
0.0000

> <Gold.Chemscore.Hbonds>
donor molecule, donor type, donor heavy atom, donor atom, acceptor molecule, acceptor atom, score
      L1  H     7    25       P1  8028  1.00
      L1  H    10    26       P1  8028  1.00

> <Gold.PLP.Chemscore.Internal.Correction>
0.0490

> <Gold.Rescore>
     Score         DG    S(hbond)    S(metal)    S(lipo)     H(rot)  DE(clash)    DE(int)     intcor
     15.29     -17.30       1.82        0.00      81.29       1.47       0.19       1.82       ----

> <Gold.Chemscore.Fitness>
15.2883

> <Gold.Chemscore.DG>
-17.2981

> <Gold.Chemscore.ZeroCoef>
-5.4800

> <Gold.Chemscore.Hbond>
1.8168

> <Gold.Chemscore.Metal>
0.0000

> <Gold.Chemscore.Lipo>
81.2931

> <Gold.Chemscore.Internal_Hbond>
0.0000

> <Gold.Chemscore.DEClash>
0.1903

> <Gold.Chemscore.DEInternal>
1.8195

> <Gold.Chemscore.Rot>
1.4693

> <Gold.Chemscore.Internal.Correction>
   9.000000E+99

> <Gold.Chemscore.Hbonds>
donor molecule, donor type, donor heavy atom, donor atom, acceptor molecule, acceptor atom, score
      L1  H     7    25       P1  8028  0.91
      L1  H    10    26       P1  8028  0.80

> <Gold.Chemscore.Hbond.Weighted>
-6.0681

> <Gold.Chemscore.Metal.Weighted>
-0.0000

> <Gold.Chemscore.Lipo.Weighted>
-9.5113

> <Gold.Chemscore.Internal_Hbond.Weighted>
0.0000

> <Gold.Chemscore.DEClash.Weighted>
0.1903

> <Gold.Chemscore.DEInternal.Weighted>
1.8195

> <Gold.Chemscore.Rot.Weighted>
3.7613

> <Gold.Chemscore.Internal.Correction.Weighted>
   9.000000E+99

> <Gold.Protein.RotatedTorsions>
[ 6907 6896 6895 6894 ] final  147.07 input  -60.11 | X-H torsion
[ 7974 7965 7964 7962 ] final  -37.33 input  175.53 | X-H torsion
[ 8008 7997 7996 7995 ] final   93.69 input   59.86 | X-H torsion
[ 10167 10162 10161 10158 ] final  159.73 input  -65.29 | X-H torsion
[ 10718 10713 10712 10709 ] final   52.74 input   66.30 | X-H torsion
[ 10763 10752 10751 10750 ] final  160.83 input  -60.55 | X-H torsion
[ 11005 11000 10999 10996 ] final   68.25 input  -57.11 | X-H torsion

> <Gold.Protein.ActiveResidues>
 VAL166  LYS551  ARG553  GLY616  TRP617  ASP618  TYR619  PRO620  LYS621  CYS622 
 ASP623  PHE694  ASN695  SER759  ASP760  ASP761  ALA762  ILE779  LEU786  VAL792 
 PHE793  MET794  SER795  GLU796  ALA797  LYS798  CYS799  TRP800  GLU811  SER814 

> <Gold.Protein.RotatedAtoms>
  152.1596  133.4573  159.4853 H   0  0  0  0  0  0  0  0  0  0  0  0  # atno 6907 bound_to 6896
  150.6905  134.2088  159.4360 H   0  0  0  0  0  0  0  0  0  0  0  0  # atno 6908 bound_to 6896
  151.9990  134.9938  160.0615 H   0  0  0  0  0  0  0  0  0  0  0  0  # atno 6909 bound_to 6896
  146.0584  140.6383  142.9008 H   0  0  0  0  0  0  0  0  0  0  0  0  # atno 7974 bound_to 7965
  156.0496  140.3309  155.7336 H   0  0  0  0  0  0  0  0  0  0  0  0  # atno 8008 bound_to 7997
  155.5621  140.0620  157.2844 H   0  0  0  0  0  0  0  0  0  0  0  0  # atno 8009 bound_to 7997
  154.4429  140.1875  156.0782 H   0  0  0  0  0  0  0  0  0  0  0  0  # atno 8010 bound_to 7997
  139.4834  144.4702  151.8586 H   0  0  0  0  0  0  0  0  0  0  0  0  # atno 10167 bound_to 10162
  157.5103  130.8496  149.8426 H   0  0  0  0  0  0  0  0  0  0  0  0  # atno 10718 bound_to 10713
  154.2536  135.2770  155.2807 H   0  0  0  0  0  0  0  0  0  0  0  0  # atno 10763 bound_to 10752
  154.5444  135.5693  153.6871 H   0  0  0  0  0  0  0  0  0  0  0  0  # atno 10764 bound_to 10752
  152.9976  135.6259  154.2684 H   0  0  0  0  0  0  0  0  0  0  0  0  # atno 10765 bound_to 10752
  139.9722  134.6881  156.0424 H   0  0  0  0  0  0  0  0  0  0  0  0  # atno 11005 bound_to 11000
  144.7161  140.4214  143.7043 LP  0  0  0  0  0  0  0  0  0  0  0  0  # atno 17320 bound_to 7965
  145.6603  139.1580  143.2812 LP  0  0  0  0  0  0  0  0  0  0  0  0  # atno 17321 bound_to 7965
  140.4170  144.2293  150.5887 LP  0  0  0  0  0  0  0  0  0  0  0  0  # atno 17342 bound_to 10162
  140.4910  143.2347  151.8818 LP  0  0  0  0  0  0  0  0  0  0  0  0  # atno 17343 bound_to 10162
  156.0285  130.3772  150.1755 LP  0  0  0  0  0  0  0  0  0  0  0  0  # atno 17370 bound_to 10713
  156.9945  130.9903  151.3406 LP  0  0  0  0  0  0  0  0  0  0  0  0  # atno 17371 bound_to 10713
  141.1401  133.6566  156.3706 LP  0  0  0  0  0  0  0  0  0  0  0  0  # atno 17394 bound_to 11000
  140.5269  134.6250  157.5337 LP  0  0  0  0  0  0  0  0  0  0  0  0  # atno 17395 bound_to 11000

$$$$
