AV-unprocessed.smi:1717|AV-procd|sdf|6919|dock2
  -GOLD-   22720 8123D 1   1.00000     0.00000
 Structure written by MMmdl.
 41 42  0  0  0  0  0  0  0  0  2 V2000
  145.6703  132.9728  150.6465 C   0  0  0  0  0  0  0  0  0  0  0  0
  145.7249  134.4206  150.5125 N   0  0  0  0  0  0  0  0  0  0  0  0
  145.5368  135.2779  151.5253 C   0  0  0  0  0  0  0  0  0  0  0  0
  145.2899  134.9185  152.6771 O   0  0  0  0  0  0  0  0  0  0  0  0
  145.6246  136.7677  151.1790 C   0  0  0  0  0  0  0  0  0  0  0  0
  146.3976  137.5498  152.1781 N   0  3  2  0  0  0  0  0  0  0  0  0
  145.7060  137.6352  153.4897 C   0  0  0  0  0  0  0  0  0  0  0  0
  146.5925  138.3228  154.5446 C   0  0  0  0  0  0  0  0  0  0  0  0
  147.0668  139.7126  154.0857 C   0  0  2  0  0  0  0  0  0  0  0  0
  145.9542  140.6623  154.0985 N   0  0  0  0  0  0  0  0  0  0  0  0
  145.9790  141.8775  154.6649 C   0  0  0  0  0  0  0  0  0  0  0  0
  146.9665  142.3415  155.2340 O   0  0  0  0  0  0  0  0  0  0  0  0
  144.8010  142.5061  154.5235 N   0  0  0  0  0  0  0  0  0  0  0  0
  144.4586  143.7999  154.9900 C   0  0  0  0  0  0  0  0  0  0  0  0
  144.7778  144.4261  156.2309 C   0  0  0  0  0  0  0  0  0  0  0  0
  144.2718  145.6496  156.2944 N   0  0  0  0  0  0  0  0  0  0  0  0
  143.6347  145.8097  155.1127 N   0  0  0  0  0  0  0  0  0  0  0  0
  143.7225  144.7086  154.2899 C   0  0  0  0  0  0  0  0  0  0  0  0
  147.7168  139.6043  152.6916 C   0  0  0  0  0  0  0  0  0  0  0  0
  146.7988  138.8935  151.6825 C   0  0  0  0  0  0  0  0  0  0  0  0
  143.1498  146.6664  154.8858 H   0  0  0  0  0  0  0  0  0  0  0  0
  145.8686  132.5021  149.6836 H   0  0  0  0  0  0  0  0  0  0  0  0
  144.6852  132.6508  150.9869 H   0  0  0  0  0  0  0  0  0  0  0  0
  146.4175  132.6191  151.3584 H   0  0  0  0  0  0  0  0  0  0  0  0
  145.9162  134.7910  149.5924 H   0  0  0  0  0  0  0  0  0  0  0  0
  146.0495  136.9079  150.1836 H   0  0  0  0  0  0  0  0  0  0  0  0
  144.5992  137.1370  151.1365 H   0  0  0  0  0  0  0  0  0  0  0  0
  144.7648  138.1744  153.3718 H   0  0  0  0  0  0  0  0  0  0  0  0
  145.4537  136.6329  153.8379 H   0  0  0  0  0  0  0  0  0  0  0  0
  146.0585  138.3984  155.4927 H   0  0  0  0  0  0  0  0  0  0  0  0
  147.4638  137.6954  154.7380 H   0  0  0  0  0  0  0  0  0  0  0  0
  147.8158  140.0660  154.7969 H   0  0  0  0  0  0  0  0  0  0  0  0
  145.0949  140.3645  153.6604 H   0  0  0  0  0  0  0  0  0  0  0  0
  144.0733  142.0099  154.0305 H   0  0  0  0  0  0  0  0  0  0  0  0
  145.3431  144.0524  157.0717 H   0  0  0  0  0  0  0  0  0  0  0  0
  143.2677  144.6719  153.3108 H   0  0  0  0  0  0  0  0  0  0  0  0
  147.9932  140.5903  152.3163 H   0  0  0  0  0  0  0  0  0  0  0  0
  148.6496  139.0450  152.7760 H   0  0  0  0  0  0  0  0  0  0  0  0
  147.3226  138.8018  150.7306 H   0  0  0  0  0  0  0  0  0  0  0  0
  145.9088  139.4953  151.4922 H   0  0  0  0  0  0  0  0  0  0  0  0
  147.2490  137.0299  152.3396 H   0  0  0  0  0  0  0  0  0  0  0  0
  1  2  1  0  0  0  0
  1 22  1  0  0  0  0
  1 23  1  0  0  0  0
  1 24  1  0  0  0  0
  2  3  1  0  0  0  0
  2 25  1  0  0  0  0
  3  4  2  0  0  0  0
  3  5  1  0  0  0  0
  5  6  1  0  0  0  0
  5 26  1  0  0  0  0
  5 27  1  0  0  0  0
  6 20  1  0  0  0  0
  6  7  1  0  0  0  0
  6 41  1  0  0  0  0
  7  8  1  0  0  0  0
  7 28  1  0  0  0  0
  7 29  1  0  0  0  0
  8  9  1  0  0  0  0
  8 30  1  0  0  0  0
  8 31  1  0  0  0  0
  9 10  1  0  0  0  0
  9 19  1  0  0  0  0
  9 32  1  0  0  0  0
 10 11  1  0  0  0  0
 10 33  1  0  0  0  0
 11 12  2  0  0  0  0
 11 13  1  0  0  0  0
 13 14  1  0  0  0  0
 13 34  1  0  0  0  0
 14 18  2  0  0  0  0
 14 15  1  0  0  0  0
 15 16  2  0  0  0  0
 15 35  1  0  0  0  0
 16 17  1  0  0  0  0
 17 21  1  0  0  0  0
 17 18  1  0  0  0  0
 18 36  1  0  0  0  0
 19 20  1  0  0  0  0
 19 37  1  0  0  0  0
 19 38  1  0  0  0  0
 20 39  1  0  0  0  0
 20 40  1  0  0  0  0
M  CHG  1   6   1
M  END
> <s_m_source_file>
AV-unprocessed.smi

> <i_m_source_file_index>
1717

> <i_lp_mmshare_version>
43012

> <i_f3d_flags>
0

> <s_epik_input>
W0NIM11bTkhdQyg9TylbQ0gyXU4xW0NIMl1bQ0gyXVtDSF0oW0NIMl1bQ0gyXTEpW05IXUMoPU8pW05IXWMyW2NIXW5bbkhdW2NIXTI=

> <s_epik_cmdline>
J2VwaWtfcHl0aG9uJywgJy1waCcsICc3LjAnLCAnLXRuJywgJzgnLCAnLW1hJywgJzIwMCcsICctbWV0YWxfYmluZGluZycsICctaW1hZScsICc8aW5maWxlLm1hZT4nLCAnLW9tYWUnLCAnPG91dGZpbGUubWFlPic=

> <r_lp_tautomer_probability>
0.5

> <r_epik_Ionization_Penalty>
0.838906

> <r_epik_Ionization_Penalty_Charging>
0.838844

> <r_epik_Ionization_Penalty_Neutral>
6.24243e-05

> <r_epik_State_Penalty>
0.8734

> <r_epik_Charging_Adjusted_Penalty>
1.71224

> <i_epik_Tot_Q>
1

> <i_epik_Tot_abs_Q>
1

> <r_epik_Metal_State_Penalty>
0.877921

> <b_epik_Metal_Only>
0

> <s_lp_Force_Field>
OPLS_2005

> <r_lp_Energy>
16.7427

> <b_lp_Chiralities_Consistent>
1

> <s_lp_Variant>
AV-unprocessed.smi:1717-3

> <Gold.Version>
5.8.1

> <Gold.Id.Protein>
6NUR|6NUR_protein|mol2

> <Gold.PLP.Fitness>
38.1362

> <Gold.PLP.PLP>
-24.1246

> <Gold.PLP.part.hbond>
-4.3168

> <Gold.PLP.part.metal>
0.0000

> <Gold.PLP.part.buried>
2.1667

> <Gold.PLP.part.nonpolar>
-23.2923

> <Gold.PLP.part.repulsive>
0.5897

> <Gold.PLP.ligand.clash>
0.0000

> <Gold.PLP.ligand.torsion>
0.7277

> <Gold.PLP.Chemscore.Hbond>
4.2388

> <Gold.PLP.Chemscore.CHOScore>
0.9065

> <Gold.PLP.Chemscore.Metal>
0.0000

> <Gold.Chemscore.Hbonds>
donor molecule, donor type, donor heavy atom, donor atom, acceptor molecule, acceptor atom, score
      L1  H     2    25       P1  7921  1.00
      L1  H     6    41       P1  7948  2.00
      L1  H    10    33       P1 10175  1.00
      L1  H    13    34       P1 10175  0.18
      L1  C    18    36       P1 10174  0.87

> <Gold.PLP.Chemscore.Internal.Correction>
0.0313

> <Gold.Rescore>
     Score         DG    S(hbond)    S(metal)    S(lipo)     H(rot)  DE(clash)    DE(int)     intcor
     12.87     -18.14       2.91        0.00      64.76       1.81       3.34       1.92       ----

> <Gold.Chemscore.Fitness>
12.8726

> <Gold.Chemscore.DG>
-18.1392

> <Gold.Chemscore.ZeroCoef>
-5.4800

> <Gold.Chemscore.Hbond>
2.9085

> <Gold.Chemscore.Metal>
0.0000

> <Gold.Chemscore.Lipo>
64.7642

> <Gold.Chemscore.Internal_Hbond>
0.0000

> <Gold.Chemscore.DEClash>
3.3418

> <Gold.Chemscore.DEInternal>
1.9247

> <Gold.Chemscore.Rot>
1.8096

> <Gold.Chemscore.Internal.Correction>
   9.000000E+99

> <Gold.Chemscore.Hbonds>
donor molecule, donor type, donor heavy atom, donor atom, acceptor molecule, acceptor atom, score
      L1  H     2    25       P1  7921  0.77
      L1  H     6    41       P1  7948  0.97
      L1  H    10    33       P1 10175  0.98

> <Gold.Chemscore.Hbond.Weighted>
-9.7143

> <Gold.Chemscore.Metal.Weighted>
-0.0000

> <Gold.Chemscore.Lipo.Weighted>
-7.5774

> <Gold.Chemscore.Internal_Hbond.Weighted>
0.0000

> <Gold.Chemscore.DEClash.Weighted>
3.3418

> <Gold.Chemscore.DEInternal.Weighted>
1.9247

> <Gold.Chemscore.Rot.Weighted>
4.6325

> <Gold.Chemscore.Internal.Correction.Weighted>
   9.000000E+99

> <Gold.Protein.RotatedTorsions>
[ 6907 6896 6895 6894 ] final  -20.69 input  -60.11 | X-H torsion
[ 7974 7965 7964 7962 ] final  -54.39 input  175.53 | X-H torsion
[ 8008 7997 7996 7995 ] final  -13.12 input   59.86 | X-H torsion
[ 10167 10162 10161 10158 ] final   96.07 input  -65.29 | X-H torsion
[ 10718 10713 10712 10709 ] final  -12.74 input   66.30 | X-H torsion
[ 10763 10752 10751 10750 ] final   54.36 input  -60.55 | X-H torsion
[ 11005 11000 10999 10996 ] final -128.38 input  -57.11 | X-H torsion

> <Gold.Protein.ActiveResidues>
 VAL166  LYS551  ARG553  GLY616  TRP617  ASP618  TYR619  PRO620  LYS621  CYS622 
 ASP623  PHE694  ASN695  SER759  ASP760  ASP761  ALA762  ILE779  LEU786  VAL792 
 PHE793  MET794  SER795  GLU796  ALA797  LYS798  CYS799  TRP800  GLU811  SER814 

> <Gold.Protein.RotatedAtoms>
  151.2444  135.0600  159.9037 H   0  0  0  0  0  0  0  0  0  0  0  0  # atno 6907 bound_to 6896
  152.5389  134.0400  159.8073 H   0  0  0  0  0  0  0  0  0  0  0  0  # atno 6908 bound_to 6896
  151.0598  133.5504  159.2666 H   0  0  0  0  0  0  0  0  0  0  0  0  # atno 6909 bound_to 6896
  145.8861  140.8107  142.9815 H   0  0  0  0  0  0  0  0  0  0  0  0  # atno 7974 bound_to 7965
  154.5319  140.2258  155.8790 H   0  0  0  0  0  0  0  0  0  0  0  0  # atno 8008 bound_to 7997
  156.1772  140.3108  155.9045 H   0  0  0  0  0  0  0  0  0  0  0  0  # atno 8009 bound_to 7997
  155.3434  140.0451  157.3036 H   0  0  0  0  0  0  0  0  0  0  0  0  # atno 8010 bound_to 7997
  139.7928  144.6845  150.9869 H   0  0  0  0  0  0  0  0  0  0  0  0  # atno 10167 bound_to 10162
  156.6402  130.4926  149.6097 H   0  0  0  0  0  0  0  0  0  0  0  0  # atno 10718 bound_to 10713
  152.9804  135.5747  154.4892 H   0  0  0  0  0  0  0  0  0  0  0  0  # atno 10763 bound_to 10752
  154.4429  135.2776  155.1837 H   0  0  0  0  0  0  0  0  0  0  0  0  # atno 10764 bound_to 10752
  154.3498  135.6211  153.5690 H   0  0  0  0  0  0  0  0  0  0  0  0  # atno 10765 bound_to 10752
  140.9520  134.1052  157.4052 H   0  0  0  0  0  0  0  0  0  0  0  0  # atno 11005 bound_to 11000
  144.6728  140.1459  143.7433 LP  0  0  0  0  0  0  0  0  0  0  0  0  # atno 17320 bound_to 7965
  145.8964  139.2405  143.1519 LP  0  0  0  0  0  0  0  0  0  0  0  0  # atno 17321 bound_to 7965
  140.7820  143.4362  151.0619 LP  0  0  0  0  0  0  0  0  0  0  0  0  # atno 17342 bound_to 10162
  139.8038  143.8046  152.3165 LP  0  0  0  0  0  0  0  0  0  0  0  0  # atno 17343 bound_to 10162
  156.2165  130.6711  151.1324 LP  0  0  0  0  0  0  0  0  0  0  0  0  # atno 17370 bound_to 10713
  157.7173  131.0702  150.6276 LP  0  0  0  0  0  0  0  0  0  0  0  0  # atno 17371 bound_to 10713
  139.8850  135.0069  156.6409 LP  0  0  0  0  0  0  0  0  0  0  0  0  # atno 17394 bound_to 11000
  140.7588  133.8835  155.8402 LP  0  0  0  0  0  0  0  0  0  0  0  0  # atno 17395 bound_to 11000

$$$$
