AV-unprocessed.smi:2568|AV-procd|sdf|10089|dock7
  -GOLD-   2272014113D 1   1.00000     0.00000
 Structure written by MMmdl.
 25 26  0  0  0  0  0  0  0  0  2 V2000
  146.3483  128.2676  152.3360 C   0  0  0  0  0  0  0  0  0  0  0  0
  146.1579  129.7458  152.2877 C   0  0  0  0  0  0  0  0  0  0  0  0
  146.2341  130.5067  153.3810 N   0  0  0  0  0  0  0  0  0  0  0  0
  146.0267  131.7969  153.0422 N   0  0  0  0  0  0  0  0  0  0  0  0
  145.8167  131.7100  151.7293 C   0  0  0  0  0  0  0  0  0  0  0  0
  145.5828  132.9409  150.9098 C   0  0  1  0  0  0  0  0  0  0  0  0
  144.1706  132.9717  150.2958 C   0  0  0  0  0  0  0  0  0  0  0  0
  143.9630  134.2457  149.5807 N   0  3  0  0  0  0  0  0  0  0  0  0
  144.2168  135.4056  150.4585 C   0  0  0  0  0  0  0  0  0  0  0  0
  145.6175  135.3002  151.0883 C   0  0  0  0  0  0  0  0  0  0  0  0
  145.7455  134.0608  151.7779 O   0  0  0  0  0  0  0  0  0  0  0  0
  145.9042  130.4538  151.1925 N   0  0  0  0  0  0  0  0  0  0  0  0
  146.4227  130.2069  154.3272 H   0  0  0  0  0  0  0  0  0  0  0  0
  146.2265  127.8340  151.3429 H   0  0  0  0  0  0  0  0  0  0  0  0
  145.6148  127.8169  153.0051 H   0  0  0  0  0  0  0  0  0  0  0  0
  147.3483  128.0307  152.6998 H   0  0  0  0  0  0  0  0  0  0  0  0
  146.3379  132.9852  150.1221 H   0  0  0  0  0  0  0  0  0  0  0  0
  144.0318  132.1410  149.6031 H   0  0  0  0  0  0  0  0  0  0  0  0
  143.4129  132.8726  151.0745 H   0  0  0  0  0  0  0  0  0  0  0  0
  144.6014  134.2851  148.7986 H   0  0  0  0  0  0  0  0  0  0  0  0
  144.1241  136.3246  149.8797 H   0  0  0  0  0  0  0  0  0  0  0  0
  143.4548  135.4379  151.2382 H   0  0  0  0  0  0  0  0  0  0  0  0
  146.3945  135.3856  150.3268 H   0  0  0  0  0  0  0  0  0  0  0  0
  145.7742  136.1157  151.7943 H   0  0  0  0  0  0  0  0  0  0  0  0
  143.0149  134.2866  149.2343 H   0  0  0  0  0  0  0  0  0  0  0  0
  1 14  1  0  0  0  0
  1 15  1  0  0  0  0
  1 16  1  0  0  0  0
  1  2  1  0  0  0  0
  2 12  2  0  0  0  0
  2  3  1  0  0  0  0
  3  4  1  0  0  0  0
  3 13  1  0  0  0  0
  4  5  2  0  0  0  0
  5 12  1  0  0  0  0
  5  6  1  0  0  0  0
  6 11  1  0  0  0  0
  6  7  1  0  0  0  0
  6 17  1  0  0  0  0
  7  8  1  0  0  0  0
  7 18  1  0  0  0  0
  7 19  1  0  0  0  0
  8  9  1  0  0  0  0
  8 20  1  0  0  0  0
  8 25  1  0  0  0  0
  9 10  1  0  0  0  0
  9 21  1  0  0  0  0
  9 22  1  0  0  0  0
 10 11  1  0  0  0  0
 10 23  1  0  0  0  0
 10 24  1  0  0  0  0
M  CHG  1   8   1
M  END
> <s_m_source_file>
AV-unprocessed.smi

> <i_m_source_file_index>
2568

> <i_lp_mmshare_version>
43012

> <i_f3d_flags>
0

> <s_epik_input>
W0NIM11jMW5bbkhdYyhuMSlbQ0BASF0yW0NIMl1bTkhdW0NIMl1bQ0gyXU8y

> <s_epik_cmdline>
J2VwaWtfcHl0aG9uJywgJy1waCcsICc3LjAnLCAnLXRuJywgJzgnLCAnLW1hJywgJzIwMCcsICctbWV0YWxfYmluZGluZycsICctaW1hZScsICc8aW5maWxlLm1hZT4nLCAnLW9tYWUnLCAnPG91dGZpbGUubWFlPic=

> <r_lp_tautomer_probability>
0.948284

> <r_epik_Ionization_Penalty>
0.107151

> <r_epik_Ionization_Penalty_Charging>
0.100865

> <r_epik_Ionization_Penalty_Neutral>
0.00628602

> <r_epik_State_Penalty>
0.200426

> <r_epik_Charging_Adjusted_Penalty>
0.30129

> <i_epik_Tot_Q>
1

> <i_epik_Tot_abs_Q>
1

> <r_epik_Metal_State_Penalty>
0.501686

> <b_epik_Metal_Only>
0

> <s_lp_Force_Field>
OPLS_2005

> <r_lp_Energy>
11.0041

> <b_lp_Chiralities_Consistent>
1

> <s_lp_Variant>
AV-unprocessed.smi:2568-2

> <Gold.Version>
5.8.1

> <Gold.Id.Protein>
6NUR|6NUR_protein|mol2

> <Gold.PLP.Fitness>
30.4037

> <Gold.PLP.PLP>
-21.5631

> <Gold.PLP.part.hbond>
-2.0000

> <Gold.PLP.part.metal>
0.0000

> <Gold.PLP.part.buried>
-4.6402

> <Gold.PLP.part.nonpolar>
-16.2163

> <Gold.PLP.part.repulsive>
0.4755

> <Gold.PLP.ligand.clash>
0.0000

> <Gold.PLP.ligand.torsion>
0.0869

> <Gold.PLP.Chemscore.Hbond>
3.0000

> <Gold.PLP.Chemscore.CHOScore>
0.0000

> <Gold.PLP.Chemscore.Metal>
0.0000

> <Gold.Chemscore.Hbonds>
donor molecule, donor type, donor heavy atom, donor atom, acceptor molecule, acceptor atom, score
      L1  H     8    20       P1  7921  1.00
      L1  H     8    25       P1 10186  2.00

> <Gold.PLP.Chemscore.Internal.Correction>
0.0143

> <Gold.Rescore>
     Score         DG    S(hbond)    S(metal)    S(lipo)     H(rot)  DE(clash)    DE(int)     intcor
     13.91     -13.93       1.93        0.00      39.11       1.00       0.01       0.01       ----

> <Gold.Chemscore.Fitness>
13.9080

> <Gold.Chemscore.DG>
-13.9282

> <Gold.Chemscore.ZeroCoef>
-5.4800

> <Gold.Chemscore.Hbond>
1.9258

> <Gold.Chemscore.Metal>
0.0000

> <Gold.Chemscore.Lipo>
39.1118

> <Gold.Chemscore.Internal_Hbond>
0.0000

> <Gold.Chemscore.DEClash>
0.0130

> <Gold.Chemscore.DEInternal>
0.0072

> <Gold.Chemscore.Rot>
1.0000

> <Gold.Chemscore.Internal.Correction>
   9.000000E+99

> <Gold.Chemscore.Hbonds>
donor molecule, donor type, donor heavy atom, donor atom, acceptor molecule, acceptor atom, score
      L1  H     8    20       P1  7921  0.97
      L1  H     8    25       P1 10186  0.90

> <Gold.Chemscore.Hbond.Weighted>
-6.4322

> <Gold.Chemscore.Metal.Weighted>
-0.0000

> <Gold.Chemscore.Lipo.Weighted>
-4.5761

> <Gold.Chemscore.Internal_Hbond.Weighted>
0.0000

> <Gold.Chemscore.DEClash.Weighted>
0.0130

> <Gold.Chemscore.DEInternal.Weighted>
0.0072

> <Gold.Chemscore.Rot.Weighted>
2.5600

> <Gold.Chemscore.Internal.Correction.Weighted>
   9.000000E+99

> <Gold.Protein.RotatedTorsions>
[ 6907 6896 6895 6894 ] final   15.72 input  -60.11 | X-H torsion
[ 7974 7965 7964 7962 ] final -106.69 input  175.53 | X-H torsion
[ 8008 7997 7996 7995 ] final   43.41 input   59.86 | X-H torsion
[ 10167 10162 10161 10158 ] final  138.90 input  -65.29 | X-H torsion
[ 10718 10713 10712 10709 ] final   55.05 input   66.30 | X-H torsion
[ 10763 10752 10751 10750 ] final  161.45 input  -60.55 | X-H torsion
[ 11005 11000 10999 10996 ] final  -21.53 input  -57.11 | X-H torsion

> <Gold.Protein.ActiveResidues>
 VAL166  LYS551  ARG553  GLY616  TRP617  ASP618  TYR619  PRO620  LYS621  CYS622 
 ASP623  PHE694  ASN695  SER759  ASP760  ASP761  ALA762  ILE779  LEU786  VAL792 
 PHE793  MET794  SER795  GLU796  ALA797  LYS798  CYS799  TRP800  GLU811  SER814 

> <Gold.Protein.RotatedAtoms>
  151.8226  135.0647  160.0426 H   0  0  0  0  0  0  0  0  0  0  0  0  # atno 6907 bound_to 6896
  152.2939  133.5584  159.5584 H   0  0  0  0  0  0  0  0  0  0  0  0  # atno 6908 bound_to 6896
  150.7242  134.0304  159.3773 H   0  0  0  0  0  0  0  0  0  0  0  0  # atno 6909 bound_to 6896
  145.2147  140.9110  143.3294 H   0  0  0  0  0  0  0  0  0  0  0  0  # atno 7974 bound_to 7965
  155.3023  140.3386  155.4247 H   0  0  0  0  0  0  0  0  0  0  0  0  # atno 8008 bound_to 7997
  156.1995  140.1727  156.7967 H   0  0  0  0  0  0  0  0  0  0  0  0  # atno 8009 bound_to 7997
  154.5541  140.0700  156.8699 H   0  0  0  0  0  0  0  0  0  0  0  0  # atno 8010 bound_to 7997
  139.5096  144.6326  151.5779 H   0  0  0  0  0  0  0  0  0  0  0  0  # atno 10167 bound_to 10162
  157.5311  130.8631  149.8689 H   0  0  0  0  0  0  0  0  0  0  0  0  # atno 10718 bound_to 10713
  154.2631  135.2768  155.2770 H   0  0  0  0  0  0  0  0  0  0  0  0  # atno 10763 bound_to 10752
  154.5366  135.5714  153.6807 H   0  0  0  0  0  0  0  0  0  0  0  0  # atno 10764 bound_to 10752
  152.9958  135.6241  154.2782 H   0  0  0  0  0  0  0  0  0  0  0  0  # atno 10765 bound_to 10752
  140.8570  133.7815  156.0031 H   0  0  0  0  0  0  0  0  0  0  0  0  # atno 11005 bound_to 11000
  144.9822  139.3771  143.6256 LP  0  0  0  0  0  0  0  0  0  0  0  0  # atno 17320 bound_to 7965
  146.3390  139.8968  142.8800 LP  0  0  0  0  0  0  0  0  0  0  0  0  # atno 17321 bound_to 7965
  140.6064  143.9517  150.6422 LP  0  0  0  0  0  0  0  0  0  0  0  0  # atno 17342 bound_to 10162
  140.2745  143.3433  152.1208 LP  0  0  0  0  0  0  0  0  0  0  0  0  # atno 17343 bound_to 10162
  156.0423  130.3736  150.1403 LP  0  0  0  0  0  0  0  0  0  0  0  0  # atno 17370 bound_to 10713
  156.9588  130.9798  151.3483 LP  0  0  0  0  0  0  0  0  0  0  0  0  # atno 17371 bound_to 10713
  140.8726  134.2708  157.5183 LP  0  0  0  0  0  0  0  0  0  0  0  0  # atno 17394 bound_to 11000
  139.8705  134.9575  156.4270 LP  0  0  0  0  0  0  0  0  0  0  0  0  # atno 17395 bound_to 11000

$$$$
