#       Name:                AV-unprocessed.smi:2942
#       Creating user name   scv26
#       Creation time:       Fri Mar 27 16:15:58 2020


#       File generated by GOLD software.
#

@<TRIPOS>MOLECULE
AV-unprocessed.smi:2942
    48    51     1
SMALL
NO_CHARGES


@<TRIPOS>ATOM
      1 ****         1.1597   2.4161   0.4459 O.2            1 S1                 0.0000
      2 ****         0.8562   1.4450  -0.2477 C.2            1 S1                 0.0000
      3 ****         1.7832   0.6547  -0.8142 N.am           1 S1                 0.0000
      4 ****         3.2259   0.7832  -0.6339 C.3            1 S1                 0.0000
      5 ****         3.7056   0.3299   0.7617 C.3            1 S1                 0.0000
      6 ****         3.2234  -1.0558   1.1586 C.ar           1 S1                 0.0000
      7 ****         3.9886  -2.2153   0.9087 C.ar           1 S1                 0.0000
      8 ****         3.4761  -3.4741   1.2867 C.ar           1 S1                 0.0000
      9 ****         2.2096  -3.5477   1.9034 C.ar           1 S1                 0.0000
     10 ****         1.4877  -2.3582   2.1299 C.ar           1 S1                 0.0000
     11 ****         2.0148  -1.1718   1.7568 N.pl3          1 S1                 1.0000
     12 ****        -0.6338   1.0855  -0.4523 C.3            1 S1                 0.0000
     13 ****        -1.2822   0.8129   0.9335 C.3            1 S1                 0.0000
     14 ****        -2.7846   0.4987   0.7723 C.3            1 S1                 0.0000
     15 ****        -3.4950   1.7022   0.1188 C.3            1 S1                 0.0000
     16 ****        -2.8740   1.9671  -1.2687 C.3            1 S1                 0.0000
     17 ****        -3.0512   0.7212  -2.1607 C.3            1 S1                 0.0000
     18 ****        -2.3436  -0.4811  -1.5021 C.3            1 S1                 0.0000
     19 ****        -2.9602  -0.7516  -0.1140 C.3            1 S1                 0.0000
     20 ****        -0.8392  -0.1737  -1.3472 C.3            1 S1                 0.0000
     21 ****        -1.3707   2.2837  -1.1110 C.3            1 S1                 0.0000
     22 ****         1.4618  -0.1155  -1.3832 H              1 S1                 0.0000
     23 ****         3.7035   0.1675  -1.3963 H              1 S1                 0.0000
     24 ****         3.5387   1.8103  -0.8283 H              1 S1                 0.0000
     25 ****         4.7954   0.3501   0.7963 H              1 S1                 0.0000
     26 ****         3.3716   1.0433   1.5164 H              1 S1                 0.0000
     27 ****         4.9548  -2.1433   0.4307 H              1 S1                 0.0000
     28 ****         4.0466  -4.3728   1.1033 H              1 S1                 0.0000
     29 ****         1.7983  -4.5023   2.1973 H              1 S1                 0.0000
     30 ****         0.5123  -2.3195   2.5928 H              1 S1                 0.0000
     31 ****        -0.7839  -0.0219   1.4287 H              1 S1                 0.0000
     32 ****        -1.1622   1.6734   1.5938 H              1 S1                 0.0000
     33 ****        -3.2217   0.3104   1.7533 H              1 S1                 0.0000
     34 ****        -4.5635   1.5045   0.0237 H              1 S1                 0.0000
     35 ****        -3.4001   2.5864   0.7503 H              1 S1                 0.0000
     36 ****        -3.3756   2.8172  -1.7320 H              1 S1                 0.0000
     37 ****        -4.1110   0.5050  -2.3018 H              1 S1                 0.0000
     38 ****        -2.6392   0.9057  -3.1536 H              1 S1                 0.0000
     39 ****        -2.4698  -1.3628  -2.1312 H              1 S1                 0.0000
     40 ****        -2.4823  -1.6149   0.3508 H              1 S1                 0.0000
     41 ****        -4.0178  -1.0002  -0.2119 H              1 S1                 0.0000
     42 ****        -0.3988  -0.0206  -2.3340 H              1 S1                 0.0000
     43 ****        -0.3383  -1.0413  -0.9145 H              1 S1                 0.0000
     44 ****        -1.2522   3.1889  -0.5132 H              1 S1                 0.0000
     45 ****        -0.9367   2.5054  -2.0873 H              1 S1                 0.0000
     46 ****         1.4743  -0.3232   1.9274 H              1 S1                 0.0000
     47 ****         2.1222   2.6374   0.6024 LP             1 S1                 0.0000
     48 ****         0.4436   2.9834   0.8526 LP             1 S1                 0.0000
@<TRIPOS>BOND
    1    1    2 2     
    2    2    3 am    
    3    2   12 1     
    4    3    4 1     
    5    3   22 1     
    6    4    5 1     
    7    4   23 1     
    8    4   24 1     
    9    5    6 1     
   10    5   25 1     
   11    5   26 1     
   12    6   11 ar    
   13    6    7 ar    
   14    7    8 ar    
   15    7   27 1     
   16    8    9 ar    
   17    8   28 1     
   18    9   10 ar    
   19    9   29 1     
   20   10   11 ar    
   21   10   30 1     
   22   11   46 1     
   23   12   20 1     
   24   12   21 1     
   25   12   13 1     
   26   13   14 1     
   27   13   31 1     
   28   13   32 1     
   29   14   19 1     
   30   14   15 1     
   31   14   33 1     
   32   15   16 1     
   33   15   34 1     
   34   15   35 1     
   35   16   17 1     
   36   16   21 1     
   37   16   36 1     
   38   17   18 1     
   39   17   37 1     
   40   17   38 1     
   41   18   19 1     
   42   18   20 1     
   43   18   39 1     
   44   19   40 1     
   45   19   41 1     
   46   20   42 1     
   47   20   43 1     
   48   21   44 1     
   49   21   45 1     
   50    1   47 1     
   51    1   48 1     
@<TRIPOS>SUBSTRUCTURE
      1 S1             1
@<TRIPOS>SET
LONE_PAIRS      STATIC     ATOMS    <user>   **** ""
2 47 48
DONOR_HYDROGENS      STATIC     ATOMS    <user>   **** ""
2 22 46
ATOM$BLUE        STATIC     ATOMS    COLORGROUP SYSTEM
2 47 48
ATOM$RED        STATIC     ATOMS    COLORGROUP SYSTEM
2 22 46
