AV-unprocessed.smi:790|AV-procd|sdf|3746|dock5
  -GOLD-   22720 1173D 1   1.00000     0.00000
 Structure written by MMmdl.
 38 40  0  0  0  0  0  0  0  0  1 V2000
  148.9947  140.9165  158.2178 O   0  0  0  0  0  0  0  0  0  0  0  0
  148.8415  141.9464  157.5621 C   0  0  0  0  0  0  0  0  0  0  0  0
  149.4735  143.1120  157.7802 N   0  0  0  0  0  0  0  0  0  0  0  0
  150.4396  143.4279  158.7735 C   0  0  0  0  0  0  0  0  0  0  0  0
  151.4905  142.5662  159.1722 C   0  0  0  0  0  0  0  0  0  0  0  0
  152.3943  143.0081  160.1578 C   0  0  0  0  0  0  0  0  0  0  0  0
  152.2189  144.2942  160.7040 C   0  0  0  0  0  0  0  0  0  0  0  0
  151.2297  145.1302  160.3250 N   0  0  0  0  0  0  0  0  0  0  0  0
  150.3680  144.7004  159.3790 C   0  0  0  0  0  0  0  0  0  0  0  0
  147.9836  142.0488  156.5373 N   0  0  0  0  0  0  0  0  0  0  0  0
  147.1326  140.9702  156.0337 C   0  0  2  0  0  0  0  0  0  0  0  0
  147.9923  139.7411  155.6681 C   0  0  1  0  0  0  0  0  0  0  0  0
  147.0757  138.5130  155.5192 C   0  0  0  0  0  0  0  0  0  0  0  0
  146.3360  138.8071  154.2001 C   0  0  0  0  0  0  0  0  0  0  0  0
  146.9267  140.1648  153.7698 C   0  0  2  0  0  0  0  0  0  0  0  0
  148.3748  140.0202  154.2196 C   0  0  0  0  0  0  0  0  0  0  0  0
  146.3865  141.2794  154.6996 C   0  0  2  0  0  0  0  0  0  0  0  0
  146.5755  142.7014  154.1228 C   0  0  0  0  0  0  0  0  0  0  0  0
  147.9479  143.0223  154.0392 O   0  0  0  0  0  0  0  0  0  0  0  0
  149.1857  143.8860  157.1995 H   0  0  0  0  0  0  0  0  0  0  0  0
  151.6319  141.5891  158.7381 H   0  0  0  0  0  0  0  0  0  0  0  0
  153.2070  142.3764  160.4844 H   0  0  0  0  0  0  0  0  0  0  0  0
  152.8943  144.6634  161.4614 H   0  0  0  0  0  0  0  0  0  0  0  0
  149.5916  145.3971  159.0982 H   0  0  0  0  0  0  0  0  0  0  0  0
  147.9163  142.9366  156.0614 H   0  0  0  0  0  0  0  0  0  0  0  0
  146.4178  140.6954  156.8118 H   0  0  0  0  0  0  0  0  0  0  0  0
  148.8323  139.5689  156.3424 H   0  0  0  0  0  0  0  0  0  0  0  0
  147.6631  137.5979  155.4329 H   0  0  0  0  0  0  0  0  0  0  0  0
  146.3947  138.3947  156.3630 H   0  0  0  0  0  0  0  0  0  0  0  0
  146.5569  138.0373  153.4599 H   0  0  0  0  0  0  0  0  0  0  0  0
  145.2537  138.8447  154.3274 H   0  0  0  0  0  0  0  0  0  0  0  0
  146.7965  140.3671  152.7063 H   0  0  0  0  0  0  0  0  0  0  0  0
  148.9660  140.9281  154.0923 H   0  0  0  0  0  0  0  0  0  0  0  0
  148.8954  139.1884  153.7412 H   0  0  0  0  0  0  0  0  0  0  0  0
  145.3164  141.1348  154.8568 H   0  0  0  0  0  0  0  0  0  0  0  0
  146.1627  142.7654  153.1160 H   0  0  0  0  0  0  0  0  0  0  0  0
  146.0703  143.4519  154.7309 H   0  0  0  0  0  0  0  0  0  0  0  0
  148.1572  143.6262  154.7353 H   0  0  0  0  0  0  0  0  0  0  0  0
  1  2  2  0  0  0  0
  2  3  1  0  0  0  0
  2 10  1  0  0  0  0
  3  4  1  0  0  0  0
  3 20  1  0  0  0  0
  4  9  1  0  0  0  0
  4  5  2  0  0  0  0
  5  6  1  0  0  0  0
  5 21  1  0  0  0  0
  6  7  2  0  0  0  0
  6 22  1  0  0  0  0
  7  8  1  0  0  0  0
  7 23  1  0  0  0  0
  8  9  2  0  0  0  0
  9 24  1  0  0  0  0
 10 11  1  0  0  0  0
 10 25  1  0  0  0  0
 11 17  1  0  0  0  0
 11 12  1  0  0  0  0
 11 26  1  0  0  0  0
 12 16  1  0  0  0  0
 12 13  1  0  0  0  0
 12 27  1  0  0  0  0
 13 14  1  0  0  0  0
 13 28  1  0  0  0  0
 13 29  1  0  0  0  0
 14 15  1  0  0  0  0
 14 30  1  0  0  0  0
 14 31  1  0  0  0  0
 15 16  1  0  0  0  0
 15 17  1  0  0  0  0
 15 32  1  0  0  0  0
 16 33  1  0  0  0  0
 16 34  1  0  0  0  0
 17 18  1  0  0  0  0
 17 35  1  0  0  0  0
 18 19  1  0  0  0  0
 18 36  1  0  0  0  0
 18 37  1  0  0  0  0
 19 38  1  0  0  0  0
M  END
> <s_m_source_file>
AV-unprocessed.smi

> <i_m_source_file_index>
790

> <i_lp_mmshare_version>
43012

> <i_f3d_flags>
0

> <s_epik_input>
W0NIMl0xW0NIMl1bQ0BASF0oW0NIMl0yKVtDQEBIXShbQ0gyXVtPSF0pW0NAQEhdKFtDQEhdMTIpW05IXUMoPU8pW05IXWMzW2NIXVtjSF1bY0hdbltjSF0z

> <s_epik_cmdline>
J2VwaWtfcHl0aG9uJywgJy1waCcsICc3LjAnLCAnLXRuJywgJzgnLCAnLW1hJywgJzIwMCcsICctbWV0YWxfYmluZGluZycsICctaW1hZScsICc8aW5maWxlLm1hZT4nLCAnLW9tYWUnLCAnPG91dGZpbGUubWFlPic=

> <r_epik_Ionization_Penalty>
0.00497582

> <r_epik_Ionization_Penalty_Charging>
0

> <r_epik_Ionization_Penalty_Neutral>
0.00497582

> <r_epik_State_Penalty>
0.00358602

> <r_epik_Charging_Adjusted_Penalty>
0.00358602

> <i_epik_Tot_Q>
0

> <i_epik_Tot_abs_Q>
0

> <r_epik_Metal_State_Penalty>
-0

> <b_epik_Metal_Only>
0

> <s_lp_Force_Field>
OPLS_2005

> <r_lp_Energy>
52.0711

> <b_lp_Chiralities_Consistent>
1

> <s_lp_Variant>
AV-unprocessed.smi:790-7

> <Gold.Version>
5.8.1

> <Gold.Id.Protein>
6NUR|6NUR_protein|mol2

> <Gold.PLP.Fitness>
40.3444

> <Gold.PLP.PLP>
-29.3447

> <Gold.PLP.part.hbond>
-5.3748

> <Gold.PLP.part.metal>
0.0000

> <Gold.PLP.part.buried>
-4.0882

> <Gold.PLP.part.nonpolar>
-20.8804

> <Gold.PLP.part.repulsive>
0.2516

> <Gold.PLP.ligand.clash>
0.0000

> <Gold.PLP.ligand.torsion>
0.3862

> <Gold.PLP.Chemscore.Hbond>
2.9199

> <Gold.PLP.Chemscore.CHOScore>
1.0000

> <Gold.PLP.Chemscore.Metal>
0.0000

> <Gold.Chemscore.Hbonds>
donor molecule, donor type, donor heavy atom, donor atom, acceptor molecule, acceptor atom, score
      L1  H     3    20       P1  8028  1.00
      L1  H    10    25       P1  8028  0.89
      L1  H    19    38       P1  8028  1.00
      L1  C     9    24       P1  8029  0.97

> <Gold.PLP.Chemscore.Internal.Correction>
0.0125

> <Gold.Rescore>
     Score         DG    S(hbond)    S(metal)    S(lipo)     H(rot)  DE(clash)    DE(int)     intcor
     16.36     -19.28       2.83        0.00      76.10       1.78       0.16       2.75       ----

> <Gold.Chemscore.Fitness>
16.3620

> <Gold.Chemscore.DG>
-19.2813

> <Gold.Chemscore.ZeroCoef>
-5.4800

> <Gold.Chemscore.Hbond>
2.8294

> <Gold.Chemscore.Metal>
0.0000

> <Gold.Chemscore.Lipo>
76.0984

> <Gold.Chemscore.Internal_Hbond>
0.0000

> <Gold.Chemscore.DEClash>
0.1648

> <Gold.Chemscore.DEInternal>
2.7545

> <Gold.Chemscore.Rot>
1.7783

> <Gold.Chemscore.Internal.Correction>
   9.000000E+99

> <Gold.Chemscore.Hbonds>
donor molecule, donor type, donor heavy atom, donor atom, acceptor molecule, acceptor atom, score
      L1  H     3    20       P1  8028  0.30
      L1  H    10    25       P1  8028  0.41
      L1  H    19    38       P1  8028  0.82

> <Gold.Chemscore.Hbond.Weighted>
-9.4503

> <Gold.Chemscore.Metal.Weighted>
-0.0000

> <Gold.Chemscore.Lipo.Weighted>
-8.9035

> <Gold.Chemscore.Internal_Hbond.Weighted>
0.0000

> <Gold.Chemscore.DEClash.Weighted>
0.1648

> <Gold.Chemscore.DEInternal.Weighted>
2.7545

> <Gold.Chemscore.Rot.Weighted>
4.5525

> <Gold.Chemscore.Internal.Correction.Weighted>
   9.000000E+99

> <Gold.Protein.RotatedTorsions>
[ 6907 6896 6895 6894 ] final   17.82 input  -60.11 | X-H torsion
[ 7974 7965 7964 7962 ] final  170.52 input  175.53 | X-H torsion
[ 8008 7997 7996 7995 ] final  -99.47 input   59.86 | X-H torsion
[ 10167 10162 10161 10158 ] final -164.37 input  -65.29 | X-H torsion
[ 10718 10713 10712 10709 ] final   61.51 input   66.30 | X-H torsion
[ 10763 10752 10751 10750 ] final  153.87 input  -60.55 | X-H torsion
[ 11005 11000 10999 10996 ] final   90.52 input  -57.11 | X-H torsion

> <Gold.Protein.ActiveResidues>
 VAL166  LYS551  ARG553  GLY616  TRP617  ASP618  TYR619  PRO620  LYS621  CYS622 
 ASP623  PHE694  ASN695  SER759  ASP760  ASP761  ALA762  ILE779  LEU786  VAL792 
 PHE793  MET794  SER795  GLU796  ALA797  LYS798  CYS799  TRP800  GLU811  SER814 

> <Gold.Protein.RotatedAtoms>
  151.8556  135.0542  160.0463 H   0  0  0  0  0  0  0  0  0  0  0  0  # atno 6907 bound_to 6896
  152.2703  133.5371  159.5443 H   0  0  0  0  0  0  0  0  0  0  0  0  # atno 6908 bound_to 6896
  150.7149  134.0624  159.3878 H   0  0  0  0  0  0  0  0  0  0  0  0  # atno 6909 bound_to 6896
  144.7321  139.9214  143.6420 H   0  0  0  0  0  0  0  0  0  0  0  0  # atno 7974 bound_to 7965
  154.8153  140.0447  157.1372 H   0  0  0  0  0  0  0  0  0  0  0  0  # atno 8008 bound_to 7997
  154.9322  140.3041  155.5142 H   0  0  0  0  0  0  0  0  0  0  0  0  # atno 8009 bound_to 7997
  156.2975  140.2321  156.4383 H   0  0  0  0  0  0  0  0  0  0  0  0  # atno 8010 bound_to 7997
  139.6255  144.0540  152.1971 H   0  0  0  0  0  0  0  0  0  0  0  0  # atno 10167 bound_to 10162
  157.5833  130.8999  149.9471 H   0  0  0  0  0  0  0  0  0  0  0  0  # atno 10718 bound_to 10713
  154.1431  135.2819  155.3155 H   0  0  0  0  0  0  0  0  0  0  0  0  # atno 10763 bound_to 10752
  154.6272  135.5447  153.7644 H   0  0  0  0  0  0  0  0  0  0  0  0  # atno 10764 bound_to 10752
  153.0244  135.6453  154.1578 H   0  0  0  0  0  0  0  0  0  0  0  0  # atno 10765 bound_to 10752
  139.8854  134.8619  156.3297 H   0  0  0  0  0  0  0  0  0  0  0  0  # atno 11005 bound_to 11000
  146.0926  139.3917  143.0396 LP  0  0  0  0  0  0  0  0  0  0  0  0  # atno 17320 bound_to 7965
  145.7689  140.9904  143.1160 LP  0  0  0  0  0  0  0  0  0  0  0  0  # atno 17321 bound_to 7965
  140.0193  144.6165  150.7580 LP  0  0  0  0  0  0  0  0  0  0  0  0  # atno 17342 bound_to 10162
  140.7408  143.2810  151.3600 LP  0  0  0  0  0  0  0  0  0  0  0  0  # atno 17343 bound_to 10162
  156.0881  130.3666  150.0449 LP  0  0  0  0  0  0  0  0  0  0  0  0  # atno 17370 bound_to 10713
  156.8584  130.9483  151.3620 LP  0  0  0  0  0  0  0  0  0  0  0  0  # atno 17371 bound_to 10713
  140.9731  133.7314  156.0564 LP  0  0  0  0  0  0  0  0  0  0  0  0  # atno 17394 bound_to 11000
  140.7845  134.3688  157.5479 LP  0  0  0  0  0  0  0  0  0  0  0  0  # atno 17395 bound_to 11000

$$$$
