AV-unprocessed.smi:925|AV-procd|sdf|4181|dock7
  -GOLD-   22720 2 83D 1   1.00000     0.00000
 Structure written by MMmdl.
 29 30  0  0  0  0  0  0  0  0  1 V2000
  150.5838  140.7209  156.4382 O   0  0  0  0  0  0  0  0  0  0  0  0
  150.0844  141.8318  156.2570 C   0  0  0  0  0  0  0  0  0  0  0  0
  149.0617  142.0990  155.4256 N   0  0  0  0  0  0  0  0  0  0  0  0
  148.3446  141.1983  154.5942 C   0  0  0  0  0  0  0  0  0  0  0  0
  148.7297  139.9340  154.3591 N   0  0  0  0  0  0  0  0  0  0  0  0
  147.8503  139.2717  153.5121 N   0  0  0  0  0  0  0  0  0  0  0  0
  146.8378  140.0612  153.1426 C   0  0  0  0  0  0  0  0  0  0  0  0
  146.8594  141.6912  153.7932 S   0  0  0  0  0  0  0  0  0  0  0  0
  150.5054  142.9425  156.8800 N   0  0  0  0  0  0  0  0  0  0  0  0
  151.6004  143.0044  157.8439 C   0  0  0  0  0  0  0  0  0  0  0  0
  151.5666  141.7839  158.7874 C   0  0  0  0  0  0  0  0  0  0  0  0
  152.6670  141.8701  159.8575 C   0  0  0  0  0  0  0  0  0  0  0  0
  152.5747  143.1834  160.6502 C   0  0  0  0  0  0  0  0  0  0  0  0
  152.6128  144.4007  159.7132 C   0  0  0  0  0  0  0  0  0  0  0  0
  151.5098  144.3167  158.6456 C   0  0  0  0  0  0  0  0  0  0  0  0
  148.7604  143.0612  155.3814 H   0  0  0  0  0  0  0  0  0  0  0  0
  146.0725  139.6809  152.4824 H   0  0  0  0  0  0  0  0  0  0  0  0
  150.0366  143.8117  156.6712 H   0  0  0  0  0  0  0  0  0  0  0  0
  152.5488  143.0052  157.3030 H   0  0  0  0  0  0  0  0  0  0  0  0
  150.5929  141.7202  159.2754 H   0  0  0  0  0  0  0  0  0  0  0  0
  151.6863  140.8620  158.2168 H   0  0  0  0  0  0  0  0  0  0  0  0
  152.5923  141.0201  160.5364 H   0  0  0  0  0  0  0  0  0  0  0  0
  153.6453  141.7997  159.3803 H   0  0  0  0  0  0  0  0  0  0  0  0
  151.6507  143.1965  161.2296 H   0  0  0  0  0  0  0  0  0  0  0  0
  153.3922  143.2419  161.3696 H   0  0  0  0  0  0  0  0  0  0  0  0
  152.5016  145.3184  160.2914 H   0  0  0  0  0  0  0  0  0  0  0  0
  153.5878  144.4576  159.2276 H   0  0  0  0  0  0  0  0  0  0  0  0
  151.5852  145.1723  157.9733 H   0  0  0  0  0  0  0  0  0  0  0  0
  150.5344  144.3887  159.1294 H   0  0  0  0  0  0  0  0  0  0  0  0
  1  2  2  0  0  0  0
  2  3  1  0  0  0  0
  2  9  1  0  0  0  0
  3  4  1  0  0  0  0
  3 16  1  0  0  0  0
  4  8  1  0  0  0  0
  4  5  2  0  0  0  0
  5  6  1  0  0  0  0
  6  7  2  0  0  0  0
  7  8  1  0  0  0  0
  7 17  1  0  0  0  0
  9 10  1  0  0  0  0
  9 18  1  0  0  0  0
 10 15  1  0  0  0  0
 10 11  1  0  0  0  0
 10 19  1  0  0  0  0
 11 12  1  0  0  0  0
 11 20  1  0  0  0  0
 11 21  1  0  0  0  0
 12 13  1  0  0  0  0
 12 22  1  0  0  0  0
 12 23  1  0  0  0  0
 13 14  1  0  0  0  0
 13 24  1  0  0  0  0
 13 25  1  0  0  0  0
 14 15  1  0  0  0  0
 14 26  1  0  0  0  0
 14 27  1  0  0  0  0
 15 28  1  0  0  0  0
 15 29  1  0  0  0  0
M  END
> <s_m_source_file>
AV-unprocessed.smi

> <i_m_source_file_index>
925

> <i_lp_mmshare_version>
43012

> <i_f3d_flags>
0

> <s_epik_input>
czFbY0hdbm5jMVtOSF1DKD1PKVtOSF1bQ0hdMltDSDJdW0NIMl1bQ0gyXVtDSDJdW0NIMl0y

> <s_epik_cmdline>
J2VwaWtfcHl0aG9uJywgJy1waCcsICc3LjAnLCAnLXRuJywgJzgnLCAnLW1hJywgJzIwMCcsICctbWV0YWxfYmluZGluZycsICctaW1hZScsICc8aW5maWxlLm1hZT4nLCAnLW9tYWUnLCAnPG91dGZpbGUubWFlPic=

> <r_lp_tautomer_probability>
1

> <r_epik_Ionization_Penalty>
0.000322846

> <r_epik_Ionization_Penalty_Charging>
0

> <r_epik_Ionization_Penalty_Neutral>
0.000322846

> <r_epik_State_Penalty>
-0

> <r_epik_Charging_Adjusted_Penalty>
0

> <i_epik_Tot_Q>
0

> <i_epik_Tot_abs_Q>
0

> <r_epik_Metal_State_Penalty>
0.17121

> <b_epik_Metal_Only>
0

> <s_lp_Force_Field>
OPLS_2005

> <r_lp_Energy>
7.89547

> <b_lp_Chiralities_Consistent>
1

> <s_lp_Variant>
AV-unprocessed.smi:925-1

> <Gold.Version>
5.8.1

> <Gold.Id.Protein>
6NUR|6NUR_protein|mol2

> <Gold.PLP.Fitness>
39.6458

> <Gold.PLP.PLP>
-31.5378

> <Gold.PLP.part.hbond>
-2.0000

> <Gold.PLP.part.metal>
0.0000

> <Gold.PLP.part.buried>
-5.7015

> <Gold.PLP.part.nonpolar>
-25.7345

> <Gold.PLP.part.repulsive>
1.3666

> <Gold.PLP.ligand.clash>
0.0000

> <Gold.PLP.ligand.torsion>
0.2795

> <Gold.PLP.Chemscore.Hbond>
2.0000

> <Gold.PLP.Chemscore.CHOScore>
0.8879

> <Gold.PLP.Chemscore.Metal>
0.0000

> <Gold.Chemscore.Hbonds>
donor molecule, donor type, donor heavy atom, donor atom, acceptor molecule, acceptor atom, score
      L1  H     3    16       P1  8028  1.00
      L1  H     9    18       P1  8028  1.00
      L1  C     7    17       P1 10175  0.89

> <Gold.PLP.Chemscore.Internal.Correction>
0.0032

> <Gold.Rescore>
     Score         DG    S(hbond)    S(metal)    S(lipo)     H(rot)  DE(clash)    DE(int)     intcor
     16.32     -19.15       1.96        0.00      82.85       1.00       0.01       2.81       ----

> <Gold.Chemscore.Fitness>
16.3247

> <Gold.Chemscore.DG>
-19.1520

> <Gold.Chemscore.ZeroCoef>
-5.4800

> <Gold.Chemscore.Hbond>
1.9578

> <Gold.Chemscore.Metal>
0.0000

> <Gold.Chemscore.Lipo>
82.8465

> <Gold.Chemscore.Internal_Hbond>
0.0000

> <Gold.Chemscore.DEClash>
0.0128

> <Gold.Chemscore.DEInternal>
2.8145

> <Gold.Chemscore.Rot>
1.0000

> <Gold.Chemscore.Internal.Correction>
   9.000000E+99

> <Gold.Chemscore.Hbonds>
donor molecule, donor type, donor heavy atom, donor atom, acceptor molecule, acceptor atom, score
      L1  H     3    16       P1  8028  0.98
      L1  H     9    18       P1  8028  0.94

> <Gold.Chemscore.Hbond.Weighted>
-6.5390

> <Gold.Chemscore.Metal.Weighted>
-0.0000

> <Gold.Chemscore.Lipo.Weighted>
-9.6930

> <Gold.Chemscore.Internal_Hbond.Weighted>
0.0000

> <Gold.Chemscore.DEClash.Weighted>
0.0128

> <Gold.Chemscore.DEInternal.Weighted>
2.8145

> <Gold.Chemscore.Rot.Weighted>
2.5600

> <Gold.Chemscore.Internal.Correction.Weighted>
   9.000000E+99

> <Gold.Protein.RotatedTorsions>
[ 6907 6896 6895 6894 ] final  -57.23 input  -60.11 | X-H torsion
[ 7974 7965 7964 7962 ] final   73.01 input  175.53 | X-H torsion
[ 8008 7997 7996 7995 ] final   -8.14 input   59.86 | X-H torsion
[ 10167 10162 10161 10158 ] final    9.45 input  -65.29 | X-H torsion
[ 10718 10713 10712 10709 ] final   23.69 input   66.30 | X-H torsion
[ 10763 10752 10751 10750 ] final   41.12 input  -60.55 | X-H torsion
[ 11005 11000 10999 10996 ] final   81.59 input  -57.11 | X-H torsion

> <Gold.Protein.ActiveResidues>
 VAL166  LYS551  ARG553  GLY616  TRP617  ASP618  TYR619  PRO620  LYS621  CYS622 
 ASP623  PHE694  ASN695  SER759  ASP760  ASP761  ALA762  ILE779  LEU786  VAL792 
 PHE793  MET794  SER795  GLU796  ALA797  LYS798  CYS799  TRP800  GLU811  SER814 

> <Gold.Protein.RotatedAtoms>
  150.8103  134.7253  159.6681 H   0  0  0  0  0  0  0  0  0  0  0  0  # atno 6907 bound_to 6896
  152.4222  134.5930  159.9989 H   0  0  0  0  0  0  0  0  0  0  0  0  # atno 6908 bound_to 6896
  151.6142  133.3307  159.3110 H   0  0  0  0  0  0  0  0  0  0  0  0  # atno 6909 bound_to 6896
  145.7463  139.2741  143.1457 H   0  0  0  0  0  0  0  0  0  0  0  0  # atno 7974 bound_to 7965
  154.5770  140.2389  155.8109 H   0  0  0  0  0  0  0  0  0  0  0  0  # atno 8008 bound_to 7997
  156.2150  140.3015  155.9776 H   0  0  0  0  0  0  0  0  0  0  0  0  # atno 8009 bound_to 7997
  155.2610  140.0414  157.2988 H   0  0  0  0  0  0  0  0  0  0  0  0  # atno 8010 bound_to 7997
  140.6254  143.8112  150.7227 H   0  0  0  0  0  0  0  0  0  0  0  0  # atno 10167 bound_to 10162
  157.1695  130.6753  149.6073 H   0  0  0  0  0  0  0  0  0  0  0  0  # atno 10718 bound_to 10713
  152.9917  135.6171  154.2736 H   0  0  0  0  0  0  0  0  0  0  0  0  # atno 10763 bound_to 10752
  154.2468  135.2786  155.2834 H   0  0  0  0  0  0  0  0  0  0  0  0  # atno 10764 bound_to 10752
  154.5322  135.5785  153.6826 H   0  0  0  0  0  0  0  0  0  0  0  0  # atno 10765 bound_to 10752
  139.9093  134.8008  156.2062 H   0  0  0  0  0  0  0  0  0  0  0  0  # atno 11005 bound_to 11000
  146.0400  140.8174  142.9833 LP  0  0  0  0  0  0  0  0  0  0  0  0  # atno 17320 bound_to 7965
  144.6859  140.2896  143.7280 LP  0  0  0  0  0  0  0  0  0  0  0  0  # atno 17321 bound_to 7965
  140.1712  143.4193  152.1999 LP  0  0  0  0  0  0  0  0  0  0  0  0  # atno 17342 bound_to 10162
  139.5475  144.7311  151.4537 LP  0  0  0  0  0  0  0  0  0  0  0  0  # atno 17343 bound_to 10162
  155.9740  130.4684  150.6358 LP  0  0  0  0  0  0  0  0  0  0  0  0  # atno 17370 bound_to 10713
  157.4056  131.0816  151.1268 LP  0  0  0  0  0  0  0  0  0  0  0  0  # atno 17371 bound_to 10713
  141.0494  133.6896  156.1743 LP  0  0  0  0  0  0  0  0  0  0  0  0  # atno 17394 bound_to 11000
  140.6834  134.4743  157.5589 LP  0  0  0  0  0  0  0  0  0  0  0  0  # atno 17395 bound_to 11000

$$$$
