AV-unprocessed.smi:1413|AV-procd|sdf|5756|dock2
  -GOLD-   22720 5393D 1   1.00000     0.00000
 Structure written by MMmdl.
 53 55  0  0  0  0  0  0  0  0  1 V2000
  152.3087  144.6171  157.7040 C   0  0  0  0  0  0  0  0  0  0  0  0
  151.4562  143.7523  158.6493 C   0  0  1  0  0  0  0  0  0  0  0  0
  150.5211  142.7739  157.9113 C   0  0  0  0  0  0  0  0  0  0  0  0
  151.2653  141.6370  157.3770 N   0  0  0  0  0  0  0  0  0  0  0  0
  150.5618  140.8371  156.4513 C   0  0  0  0  0  0  0  0  0  0  0  0
  151.2622  139.9348  155.6180 C   0  0  0  0  0  0  0  0  0  0  0  0
  150.5413  139.1512  154.6976 C   0  0  0  0  0  0  0  0  0  0  0  0
  149.1405  139.2791  154.6268 C   0  0  0  0  0  0  0  0  0  0  0  0
  148.4548  138.4749  153.6740 N   0  0  0  0  0  0  0  0  0  0  0  0
  147.1365  138.3748  153.4294 C   0  0  0  0  0  0  0  0  0  0  0  0
  146.2477  138.9788  154.0277 O   0  0  0  0  0  0  0  0  0  0  0  0
  146.8977  137.5089  152.4341 N   0  0  0  0  0  0  0  0  0  0  0  0
  145.5782  137.1695  151.9050 C   0  0  2  0  0  0  0  0  0  0  0  0
  144.5759  137.0112  153.0605 C   0  0  0  0  0  0  0  0  0  0  0  0
  145.6703  135.8935  151.0461 C   0  0  2  0  0  0  0  0  0  0  0  0
  144.3235  135.3635  150.5454 C   0  0  0  0  0  0  0  0  0  0  0  0
  144.6191  133.8936  150.3586 C   0  0  0  0  0  0  0  0  0  0  0  0
  145.5176  133.6102  151.5570 C   0  0  0  0  0  0  0  0  0  0  0  0
  146.2287  134.8203  151.8029 O   0  0  0  0  0  0  0  0  0  0  0  0
  148.5259  140.2074  155.5016 C   0  0  0  0  0  0  0  0  0  0  0  0
  149.2137  140.9589  156.3873 N   0  0  0  0  0  0  0  0  0  0  0  0
  152.0847  140.9657  158.3820 C   0  0  0  0  0  0  0  0  0  0  0  0
  153.0220  141.9750  159.0689 C   0  0  2  0  0  0  0  0  0  0  0  0
  153.8092  141.3354  160.2172 C   0  0  0  0  0  0  0  0  0  0  0  0
  152.2540  143.0513  159.6059 O   0  0  0  0  0  0  0  0  0  0  0  0
  151.6736  145.2418  157.0759 H   0  0  0  0  0  0  0  0  0  0  0  0
  152.9288  144.0166  157.0389 H   0  0  0  0  0  0  0  0  0  0  0  0
  152.9652  145.2783  158.2696 H   0  0  0  0  0  0  0  0  0  0  0  0
  150.8304  144.4378  159.2214 H   0  0  0  0  0  0  0  0  0  0  0  0
  149.7726  142.3917  158.6065 H   0  0  0  0  0  0  0  0  0  0  0  0
  149.9775  143.3088  157.1336 H   0  0  0  0  0  0  0  0  0  0  0  0
  152.3348  139.8277  155.6836 H   0  0  0  0  0  0  0  0  0  0  0  0
  151.0636  138.4576  154.0547 H   0  0  0  0  0  0  0  0  0  0  0  0
  149.0485  137.8854  153.1094 H   0  0  0  0  0  0  0  0  0  0  0  0
  147.6881  137.0538  152.0016 H   0  0  0  0  0  0  0  0  0  0  0  0
  145.2361  137.9807  151.2594 H   0  0  0  0  0  0  0  0  0  0  0  0
  143.5790  136.7768  152.6867 H   0  0  0  0  0  0  0  0  0  0  0  0
  144.4962  137.9293  153.6433 H   0  0  0  0  0  0  0  0  0  0  0  0
  144.8736  136.2104  153.7381 H   0  0  0  0  0  0  0  0  0  0  0  0
  146.3226  136.0638  150.1876 H   0  0  0  0  0  0  0  0  0  0  0  0
  143.5516  135.4929  151.3054 H   0  0  0  0  0  0  0  0  0  0  0  0
  143.9867  135.8505  149.6300 H   0  0  0  0  0  0  0  0  0  0  0  0
  143.7232  133.2727  150.3394 H   0  0  0  0  0  0  0  0  0  0  0  0
  145.1675  133.7359  149.4290 H   0  0  0  0  0  0  0  0  0  0  0  0
  144.9160  133.3786  152.4368 H   0  0  0  0  0  0  0  0  0  0  0  0
  146.1972  132.7760  151.3813 H   0  0  0  0  0  0  0  0  0  0  0  0
  147.4626  140.3831  155.5103 H   0  0  0  0  0  0  0  0  0  0  0  0
  151.4333  140.4929  159.1185 H   0  0  0  0  0  0  0  0  0  0  0  0
  152.6797  140.1776  157.9187 H   0  0  0  0  0  0  0  0  0  0  0  0
  153.7387  142.3604  158.3436 H   0  0  0  0  0  0  0  0  0  0  0  0
  154.4203  140.5060  159.8601 H   0  0  0  0  0  0  0  0  0  0  0  0
  153.1409  140.9513  160.9884 H   0  0  0  0  0  0  0  0  0  0  0  0
  154.4750  142.0614  160.6845 H   0  0  0  0  0  0  0  0  0  0  0  0
  1  2  1  0  0  0  0
  1 26  1  0  0  0  0
  1 27  1  0  0  0  0
  1 28  1  0  0  0  0
  2 25  1  0  0  0  0
  2  3  1  0  0  0  0
  2 29  1  0  0  0  0
  3  4  1  0  0  0  0
  3 30  1  0  0  0  0
  3 31  1  0  0  0  0
  4  5  1  0  0  0  0
  4 22  1  0  0  0  0
  5 21  1  0  0  0  0
  5  6  2  0  0  0  0
  6  7  1  0  0  0  0
  6 32  1  0  0  0  0
  7  8  2  0  0  0  0
  7 33  1  0  0  0  0
  8  9  1  0  0  0  0
  8 20  1  0  0  0  0
  9 10  1  0  0  0  0
  9 34  1  0  0  0  0
 10 11  2  0  0  0  0
 10 12  1  0  0  0  0
 12 13  1  0  0  0  0
 12 35  1  0  0  0  0
 13 14  1  0  0  0  0
 13 15  1  0  0  0  0
 13 36  1  0  0  0  0
 14 37  1  0  0  0  0
 14 38  1  0  0  0  0
 14 39  1  0  0  0  0
 15 19  1  0  0  0  0
 15 16  1  0  0  0  0
 15 40  1  0  0  0  0
 16 17  1  0  0  0  0
 16 41  1  0  0  0  0
 16 42  1  0  0  0  0
 17 18  1  0  0  0  0
 17 43  1  0  0  0  0
 17 44  1  0  0  0  0
 18 19  1  0  0  0  0
 18 45  1  0  0  0  0
 18 46  1  0  0  0  0
 20 21  2  0  0  0  0
 20 47  1  0  0  0  0
 22 23  1  0  0  0  0
 22 48  1  0  0  0  0
 22 49  1  0  0  0  0
 23 24  1  0  0  0  0
 23 25  1  0  0  0  0
 23 50  1  0  0  0  0
 24 51  1  0  0  0  0
 24 52  1  0  0  0  0
 24 53  1  0  0  0  0
M  END
> <s_m_source_file>
AV-unprocessed.smi

> <i_m_source_file_index>
1413

> <i_lp_mmshare_version>
43012

> <i_f3d_flags>
0

> <s_epik_input>
W0NIM11bQ0BASF0xW0NIMl1OKFtDSDJdW0NASF0oTzEpW0NIM10pYzJbY0hdW2NIXWMoW2NIXW4yKVtOSF1DKD1PKVtOSF1bQ0BIXShbQ0gzXSlbQ0BASF0zW0NIMl1bQ0gyXVtDSDJdTzM=

> <s_epik_cmdline>
J2VwaWtfcHl0aG9uJywgJy1waCcsICc3LjAnLCAnLXRuJywgJzgnLCAnLW1hJywgJzIwMCcsICctbWV0YWxfYmluZGluZycsICctaW1hZScsICc8aW5maWxlLm1hZT4nLCAnLW9tYWUnLCAnPG91dGZpbGUubWFlPic=

> <r_lp_tautomer_probability>
1

> <r_epik_Ionization_Penalty>
0.00271172

> <r_epik_Ionization_Penalty_Charging>
0

> <r_epik_Ionization_Penalty_Neutral>
0.00271172

> <r_epik_State_Penalty>
0.00186503

> <r_epik_Charging_Adjusted_Penalty>
0.00186503

> <i_epik_Tot_Q>
0

> <i_epik_Tot_abs_Q>
0

> <r_epik_Metal_State_Penalty>
-0

> <b_epik_Metal_Only>
0

> <s_lp_Force_Field>
OPLS_2005

> <r_lp_Energy>
36.1099

> <b_lp_Chiralities_Consistent>
1

> <s_lp_Variant>
AV-unprocessed.smi:1413-9

> <Gold.Version>
5.8.1

> <Gold.Id.Protein>
6NUR|6NUR_protein|mol2

> <Gold.PLP.Fitness>
49.3719

> <Gold.PLP.PLP>
-44.5391

> <Gold.PLP.part.hbond>
-2.4719

> <Gold.PLP.part.metal>
0.0000

> <Gold.PLP.part.buried>
-6.2600

> <Gold.PLP.part.nonpolar>
-37.6682

> <Gold.PLP.part.repulsive>
0.9607

> <Gold.PLP.ligand.clash>
0.0000

> <Gold.PLP.ligand.torsion>
0.4704

> <Gold.PLP.Chemscore.Hbond>
1.8143

> <Gold.PLP.Chemscore.CHOScore>
0.0000

> <Gold.PLP.Chemscore.Metal>
0.0000

> <Gold.Chemscore.Hbonds>
donor molecule, donor type, donor heavy atom, donor atom, acceptor molecule, acceptor atom, score
      L1  H     9    34       P1  7948  0.81
      L1  H    12    35       P1  7948  0.91

> <Gold.PLP.Chemscore.Internal.Correction>
0.3307

> <Gold.Rescore>
     Score         DG    S(hbond)    S(metal)    S(lipo)     H(rot)  DE(clash)    DE(int)     intcor
     19.04     -22.20       1.77        0.00     121.79       1.35       0.25       2.91       ----

> <Gold.Chemscore.Fitness>
19.0428

> <Gold.Chemscore.DG>
-22.2022

> <Gold.Chemscore.ZeroCoef>
-5.4800

> <Gold.Chemscore.Hbond>
1.7727

> <Gold.Chemscore.Metal>
0.0000

> <Gold.Chemscore.Lipo>
121.7937

> <Gold.Chemscore.Internal_Hbond>
0.0000

> <Gold.Chemscore.DEClash>
0.2472

> <Gold.Chemscore.DEInternal>
2.9122

> <Gold.Chemscore.Rot>
1.3471

> <Gold.Chemscore.Internal.Correction>
   9.000000E+99

> <Gold.Chemscore.Hbonds>
donor molecule, donor type, donor heavy atom, donor atom, acceptor molecule, acceptor atom, score
      L1  H     9    34       P1  7948  0.76
      L1  H    12    35       P1  7948  0.87

> <Gold.Chemscore.Hbond.Weighted>
-5.9208

> <Gold.Chemscore.Metal.Weighted>
-0.0000

> <Gold.Chemscore.Lipo.Weighted>
-14.2499

> <Gold.Chemscore.Internal_Hbond.Weighted>
0.0000

> <Gold.Chemscore.DEClash.Weighted>
0.2472

> <Gold.Chemscore.DEInternal.Weighted>
2.9122

> <Gold.Chemscore.Rot.Weighted>
3.4485

> <Gold.Chemscore.Internal.Correction.Weighted>
   9.000000E+99

> <Gold.Protein.RotatedTorsions>
[ 6907 6896 6895 6894 ] final   -7.26 input  -60.11 | X-H torsion
[ 7974 7965 7964 7962 ] final  -32.77 input  175.53 | X-H torsion
[ 8008 7997 7996 7995 ] final   17.59 input   59.86 | X-H torsion
[ 10167 10162 10161 10158 ] final  -90.88 input  -65.29 | X-H torsion
[ 10718 10713 10712 10709 ] final  -64.43 input   66.30 | X-H torsion
[ 10763 10752 10751 10750 ] final  172.79 input  -60.55 | X-H torsion
[ 11005 11000 10999 10996 ] final  153.16 input  -57.11 | X-H torsion

> <Gold.Protein.ActiveResidues>
 VAL166  LYS551  ARG553  GLY616  TRP617  ASP618  TYR619  PRO620  LYS621  CYS622 
 ASP623  PHE694  ASN695  SER759  ASP760  ASP761  ALA762  ILE779  LEU786  VAL792 
 PHE793  MET794  SER795  GLU796  ALA797  LYS798  CYS799  TRP800  GLU811  SER814 

> <Gold.Protein.RotatedAtoms>
  151.4524  135.1031  159.9701 H   0  0  0  0  0  0  0  0  0  0  0  0  # atno 6907 bound_to 6896
  152.4883  133.8428  159.7172 H   0  0  0  0  0  0  0  0  0  0  0  0  # atno 6908 bound_to 6896
  150.9013  133.7055  159.2905 H   0  0  0  0  0  0  0  0  0  0  0  0  # atno 6909 bound_to 6896
  146.0964  140.5833  142.8841 H   0  0  0  0  0  0  0  0  0  0  0  0  # atno 7974 bound_to 7965
  154.8936  140.2990  155.5357 H   0  0  0  0  0  0  0  0  0  0  0  0  # atno 8008 bound_to 7997
  156.3020  140.2420  156.3889 H   0  0  0  0  0  0  0  0  0  0  0  0  # atno 8009 bound_to 7997
  154.8593  140.0406  157.1644 H   0  0  0  0  0  0  0  0  0  0  0  0  # atno 8010 bound_to 7997
  140.3504  143.2894  151.9732 H   0  0  0  0  0  0  0  0  0  0  0  0  # atno 10167 bound_to 10162
  156.0730  130.4233  150.1418 H   0  0  0  0  0  0  0  0  0  0  0  0  # atno 10718 bound_to 10713
  154.4311  135.2760  155.1912 H   0  0  0  0  0  0  0  0  0  0  0  0  # atno 10763 bound_to 10752
  154.3818  135.6086  153.5798 H   0  0  0  0  0  0  0  0  0  0  0  0  # atno 10764 bound_to 10752
  152.9836  135.5882  154.4622 H   0  0  0  0  0  0  0  0  0  0  0  0  # atno 10765 bound_to 10752
  140.1373  134.8762  157.2284 H   0  0  0  0  0  0  0  0  0  0  0  0  # atno 11005 bound_to 11000
  144.7398  140.4912  143.6877 LP  0  0  0  0  0  0  0  0  0  0  0  0  # atno 17320 bound_to 7965
  145.5940  139.1498  143.3166 LP  0  0  0  0  0  0  0  0  0  0  0  0  # atno 17321 bound_to 7965
  139.4827  144.6080  151.7485 LP  0  0  0  0  0  0  0  0  0  0  0  0  # atno 17342 bound_to 10162
  140.5224  144.0858  150.6027 LP  0  0  0  0  0  0  0  0  0  0  0  0  # atno 17343 bound_to 10162
  156.9465  130.9761  151.3506 LP  0  0  0  0  0  0  0  0  0  0  0  0  # atno 17370 bound_to 10713
  157.5811  130.8377  149.8523 LP  0  0  0  0  0  0  0  0  0  0  0  0  # atno 17371 bound_to 10713
  140.2766  134.3398  155.7356 LP  0  0  0  0  0  0  0  0  0  0  0  0  # atno 17394 bound_to 11000
  141.2180  133.7454  156.9302 LP  0  0  0  0  0  0  0  0  0  0  0  0  # atno 17395 bound_to 11000

$$$$
