AV-unprocessed.smi:1064|AV-procd|sdf|4665|dock7
  -GOLD-   22720 3173D 1   1.00000     0.00000
 Structure written by MMmdl.
 36 37  0  0  0  0  0  0  0  0  2 V2000
  149.0664  141.8134  154.3382 O   0  0  0  0  0  0  0  0  0  0  0  0
  148.3025  141.4829  155.2466 C   0  0  0  0  0  0  0  0  0  0  0  0
  148.7560  141.0953  156.4513 N   0  0  0  0  0  0  0  0  0  0  0  0
  150.1593  141.0268  156.8404 C   0  0  0  0  0  0  0  0  0  0  0  0
  150.4121  141.7514  158.1750 C   0  0  0  0  0  0  0  0  0  0  0  0
  151.3295  142.9336  158.0686 C   0  0  0  0  0  0  0  0  0  0  0  0
  151.2057  143.9553  157.2114 N   0  3  0  0  0  0  0  0  0  0  0  0
  152.2283  144.8481  157.3786 C   0  0  0  0  0  0  0  0  0  0  0  0
  153.0218  144.3439  158.3751 C   0  0  0  0  0  0  0  0  0  0  0  0
  152.4523  143.1611  158.7725 N   0  0  0  0  0  0  0  0  0  0  0  0
  152.9563  142.2670  159.8201 C   0  0  0  0  0  0  0  0  0  0  0  0
  154.1433  141.7708  159.4724 F   0  0  0  0  0  0  0  0  0  0  0  0
  153.0453  142.9116  160.9837 F   0  0  0  0  0  0  0  0  0  0  0  0
  146.9521  141.4578  155.1111 N   0  0  0  0  0  0  0  0  0  0  0  0
  145.9848  141.0764  156.1538 C   0  0  0  0  0  0  0  0  0  0  0  0
  145.4515  142.3476  156.8354 C   0  0  0  0  0  0  0  0  0  0  0  0
  144.5587  143.3977  155.6468 S   0  0  0  0  0  0  0  0  0  0  0  0
  145.7885  143.4588  154.3061 C   0  0  0  0  0  0  0  0  0  0  0  0
  146.2847  142.0484  153.9448 C   0  0  0  0  0  0  0  0  0  0  0  0
  148.0744  140.8325  157.1485 H   0  0  0  0  0  0  0  0  0  0  0  0
  150.4741  139.9833  156.8988 H   0  0  0  0  0  0  0  0  0  0  0  0
  150.7495  141.4887  156.0483 H   0  0  0  0  0  0  0  0  0  0  0  0
  149.4707  142.1104  158.5908 H   0  0  0  0  0  0  0  0  0  0  0  0
  150.8620  141.0790  158.9061 H   0  0  0  0  0  0  0  0  0  0  0  0
  152.3135  145.7500  156.7903 H   0  0  0  0  0  0  0  0  0  0  0  0
  153.9298  144.7282  158.8167 H   0  0  0  0  0  0  0  0  0  0  0  0
  152.2662  141.4326  159.9501 H   0  0  0  0  0  0  0  0  0  0  0  0
  145.1585  140.5211  155.7078 H   0  0  0  0  0  0  0  0  0  0  0  0
  146.4027  140.4009  156.9003 H   0  0  0  0  0  0  0  0  0  0  0  0
  144.7736  142.0875  157.6486 H   0  0  0  0  0  0  0  0  0  0  0  0
  146.2711  142.9194  157.2721 H   0  0  0  0  0  0  0  0  0  0  0  0
  145.3356  143.9371  153.4376 H   0  0  0  0  0  0  0  0  0  0  0  0
  146.6237  144.0875  154.6174 H   0  0  0  0  0  0  0  0  0  0  0  0
  146.9456  142.0977  153.0782 H   0  0  0  0  0  0  0  0  0  0  0  0
  145.4476  141.4223  153.6327 H   0  0  0  0  0  0  0  0  0  0  0  0
  150.4576  144.0514  156.5364 H   0  0  0  0  0  0  0  0  0  0  0  0
  1  2  2  0  0  0  0
  2  3  1  0  0  0  0
  2 14  1  0  0  0  0
  3  4  1  0  0  0  0
  3 20  1  0  0  0  0
  4  5  1  0  0  0  0
  4 21  1  0  0  0  0
  4 22  1  0  0  0  0
  5  6  1  0  0  0  0
  5 23  1  0  0  0  0
  5 24  1  0  0  0  0
  6 10  1  0  0  0  0
  6  7  2  0  0  0  0
  7  8  1  0  0  0  0
  7 36  1  0  0  0  0
  8  9  2  0  0  0  0
  8 25  1  0  0  0  0
  9 10  1  0  0  0  0
  9 26  1  0  0  0  0
 10 11  1  0  0  0  0
 11 12  1  0  0  0  0
 11 13  1  0  0  0  0
 11 27  1  0  0  0  0
 14 19  1  0  0  0  0
 14 15  1  0  0  0  0
 15 16  1  0  0  0  0
 15 28  1  0  0  0  0
 15 29  1  0  0  0  0
 16 17  1  0  0  0  0
 16 30  1  0  0  0  0
 16 31  1  0  0  0  0
 17 18  1  0  0  0  0
 18 19  1  0  0  0  0
 18 32  1  0  0  0  0
 18 33  1  0  0  0  0
 19 34  1  0  0  0  0
 19 35  1  0  0  0  0
M  CHG  1   7   1
M  END
> <s_m_source_file>
AV-unprocessed.smi

> <i_m_source_file_index>
1064

> <i_lp_mmshare_version>
43012

> <i_f3d_flags>
0

> <s_epik_input>
W0NIMl0xW0NIMl1TW0NIMl1bQ0gyXU4xQyg9TylbTkhdW0NIMl1bQ0gyXWMybltjSF1bY0hdbjJbQ0hdKEYpRg==

> <s_epik_cmdline>
J2VwaWtfcHl0aG9uJywgJy1waCcsICc3LjAnLCAnLXRuJywgJzgnLCAnLW1hJywgJzIwMCcsICctbWV0YWxfYmluZGluZycsICctaW1hZScsICc8aW5maWxlLm1hZT4nLCAnLW9tYWUnLCAnPG91dGZpbGUubWFlPic=

> <r_lp_tautomer_probability>
1

> <r_epik_Ionization_Penalty>
1.10071

> <r_epik_Ionization_Penalty_Charging>
0

> <r_epik_Ionization_Penalty_Neutral>
1.10071

> <r_epik_State_Penalty>
1.15778

> <r_epik_Charging_Adjusted_Penalty>
1.15778

> <i_epik_Tot_Q>
1

> <i_epik_Tot_abs_Q>
1

> <r_epik_Metal_State_Penalty>
1.24497

> <b_epik_Metal_Only>
0

> <s_lp_Force_Field>
OPLS_2005

> <r_lp_Energy>
29.6346

> <b_lp_Chiralities_Consistent>
1

> <s_lp_Variant>
AV-unprocessed.smi:1064-2

> <Gold.Version>
5.8.1

> <Gold.Id.Protein>
6NUR|6NUR_protein|mol2

> <Gold.PLP.Fitness>
52.1026

> <Gold.PLP.PLP>
-45.5215

> <Gold.PLP.part.hbond>
-3.0000

> <Gold.PLP.part.metal>
0.0000

> <Gold.PLP.part.buried>
-5.6592

> <Gold.PLP.part.nonpolar>
-36.0648

> <Gold.PLP.part.repulsive>
0.2252

> <Gold.PLP.ligand.clash>
0.0000

> <Gold.PLP.ligand.torsion>
0.5049

> <Gold.PLP.Chemscore.Hbond>
2.5083

> <Gold.PLP.Chemscore.CHOScore>
0.0000

> <Gold.PLP.Chemscore.Metal>
0.0000

> <Gold.Chemscore.Hbonds>
donor molecule, donor type, donor heavy atom, donor atom, acceptor molecule, acceptor atom, score
      L1  H     7    36       P1  8028  2.00
      P1  H  8011  8017       L1     1  0.26

> <Gold.PLP.Chemscore.Internal.Correction>
0.0661

> <Gold.Rescore>
     Score         DG    S(hbond)    S(metal)    S(lipo)     H(rot)  DE(clash)    DE(int)     intcor
     13.79     -14.57       1.47        0.00      71.99       1.65       0.36       0.42       ----

> <Gold.Chemscore.Fitness>
13.7945

> <Gold.Chemscore.DG>
-14.5729

> <Gold.Chemscore.ZeroCoef>
-5.4800

> <Gold.Chemscore.Hbond>
1.4674

> <Gold.Chemscore.Metal>
0.0000

> <Gold.Chemscore.Lipo>
71.9863

> <Gold.Chemscore.Internal_Hbond>
0.0000

> <Gold.Chemscore.DEClash>
0.3562

> <Gold.Chemscore.DEInternal>
0.4222

> <Gold.Chemscore.Rot>
1.6525

> <Gold.Chemscore.Internal.Correction>
   9.000000E+99

> <Gold.Chemscore.Hbonds>
donor molecule, donor type, donor heavy atom, donor atom, acceptor molecule, acceptor atom, score
      L1  H     7    36       P1  8028  0.99
      P1  H  8011  8017       L1     1  0.25

> <Gold.Chemscore.Hbond.Weighted>
-4.9010

> <Gold.Chemscore.Metal.Weighted>
-0.0000

> <Gold.Chemscore.Lipo.Weighted>
-8.4224

> <Gold.Chemscore.Internal_Hbond.Weighted>
0.0000

> <Gold.Chemscore.DEClash.Weighted>
0.3562

> <Gold.Chemscore.DEInternal.Weighted>
0.4222

> <Gold.Chemscore.Rot.Weighted>
4.2304

> <Gold.Chemscore.Internal.Correction.Weighted>
   9.000000E+99

> <Gold.Protein.RotatedTorsions>
[ 6907 6896 6895 6894 ] final   71.59 input  -60.11 | X-H torsion
[ 7974 7965 7964 7962 ] final   77.76 input  175.53 | X-H torsion
[ 8008 7997 7996 7995 ] final  -88.58 input   59.86 | X-H torsion
[ 10167 10162 10161 10158 ] final -110.36 input  -65.29 | X-H torsion
[ 10718 10713 10712 10709 ] final  -85.25 input   66.30 | X-H torsion
[ 10763 10752 10751 10750 ] final   39.48 input  -60.55 | X-H torsion
[ 11005 11000 10999 10996 ] final  -36.47 input  -57.11 | X-H torsion

> <Gold.Protein.ActiveResidues>
 VAL166  LYS551  ARG553  GLY616  TRP617  ASP618  TYR619  PRO620  LYS621  CYS622 
 ASP623  PHE694  ASN695  SER759  ASP760  ASP761  ALA762  ILE779  LEU786  VAL792 
 PHE793  MET794  SER795  GLU796  ALA797  LYS798  CYS799  TRP800  GLU811  SER814 

> <Gold.Protein.RotatedAtoms>
  152.4819  134.4698  159.9631 H   0  0  0  0  0  0  0  0  0  0  0  0  # atno 6907 bound_to 6896
  151.4702  133.3565  159.2830 H   0  0  0  0  0  0  0  0  0  0  0  0  # atno 6908 bound_to 6896
  150.8897  134.8325  159.7345 H   0  0  0  0  0  0  0  0  0  0  0  0  # atno 6909 bound_to 6896
  145.6858  139.2537  143.1788 H   0  0  0  0  0  0  0  0  0  0  0  0  # atno 7974 bound_to 7965
  154.6765  140.0552  157.0221 H   0  0  0  0  0  0  0  0  0  0  0  0  # atno 8008 bound_to 7997
  155.1013  140.3229  155.4527 H   0  0  0  0  0  0  0  0  0  0  0  0  # atno 8009 bound_to 7997
  156.2678  140.2030  156.6139 H   0  0  0  0  0  0  0  0  0  0  0  0  # atno 8010 bound_to 7997
  140.1453  143.4244  152.1533 H   0  0  0  0  0  0  0  0  0  0  0  0  # atno 10167 bound_to 10162
  155.9998  130.4725  150.4533 H   0  0  0  0  0  0  0  0  0  0  0  0  # atno 10718 bound_to 10713
  152.9966  135.6219  154.2472 H   0  0  0  0  0  0  0  0  0  0  0  0  # atno 10763 bound_to 10752
  154.2212  135.2796  155.2926 H   0  0  0  0  0  0  0  0  0  0  0  0  # atno 10764 bound_to 10752
  154.5527  135.5728  153.6995 H   0  0  0  0  0  0  0  0  0  0  0  0  # atno 10765 bound_to 10752
  140.9877  133.7022  156.1794 H   0  0  0  0  0  0  0  0  0  0  0  0  # atno 11005 bound_to 11000
  146.0924  140.7639  142.9588 LP  0  0  0  0  0  0  0  0  0  0  0  0  # atno 17320 bound_to 7965
  144.7012  140.3659  143.7155 LP  0  0  0  0  0  0  0  0  0  0  0  0  # atno 17321 bound_to 7965
  139.5452  144.7292  151.4606 LP  0  0  0  0  0  0  0  0  0  0  0  0  # atno 17342 bound_to 10162
  140.6735  143.8240  150.7029 LP  0  0  0  0  0  0  0  0  0  0  0  0  # atno 17343 bound_to 10162
  157.2564  131.0557  151.2347 LP  0  0  0  0  0  0  0  0  0  0  0  0  # atno 17370 bound_to 10713
  157.3478  130.7066  149.6421 LP  0  0  0  0  0  0  0  0  0  0  0  0  # atno 17371 bound_to 10713
  140.7089  134.4483  157.5582 LP  0  0  0  0  0  0  0  0  0  0  0  0  # atno 17394 bound_to 11000
  139.8978  134.8628  156.2029 LP  0  0  0  0  0  0  0  0  0  0  0  0  # atno 17395 bound_to 11000

$$$$
