AV-unprocessed.smi:1669|AV-procd|sdf|6686|dock8
  -GOLD-   22720 7413D 1   1.00000     0.00000
 Structure written by MMmdl.
 48 50  0  0  0  0  0  0  0  0  2 V2000
  148.6012  141.5546  155.1985 C   0  0  0  0  0  0  0  0  0  0  0  0
  149.2419  142.1263  156.4062 N   0  3  2  0  0  0  0  0  0  0  0  0
  150.7238  142.0270  156.3699 C   0  0  0  0  0  0  0  0  0  0  0  0
  151.3634  142.6644  157.5901 C   0  0  0  0  0  0  0  0  0  0  0  0
  151.7477  141.8594  158.6834 C   0  0  0  0  0  0  0  0  0  0  0  0
  152.3419  142.4443  159.8185 C   0  0  0  0  0  0  0  0  0  0  0  0
  152.5552  143.8357  159.8640 C   0  0  0  0  0  0  0  0  0  0  0  0
  152.1747  144.6423  158.7739 C   0  0  0  0  0  0  0  0  0  0  0  0
  151.5808  144.0581  157.6383 C   0  0  0  0  0  0  0  0  0  0  0  0
  148.6538  141.5859  157.6581 C   0  0  0  0  0  0  0  0  0  0  0  0
  147.1659  141.9586  157.8113 C   0  0  1  0  0  0  0  0  0  0  0  0
  146.4806  140.8581  158.3766 O   0  0  0  0  0  0  0  0  0  0  0  0
  146.9778  143.1982  158.7073 C   0  0  0  0  0  0  0  0  0  0  0  0
  145.5777  143.5765  158.8495 N   0  0  0  0  0  0  0  0  0  0  0  0
  144.6718  143.8586  157.8783 C   0  0  0  0  0  0  0  0  0  0  0  0
  145.0161  143.8124  156.4209 C   0  0  0  0  0  0  0  0  0  0  0  0
  144.1794  142.9400  155.6923 O   0  0  0  0  0  0  0  0  0  0  0  0
  143.4495  144.1803  158.3027 N   0  0  0  0  0  0  0  0  0  0  0  0
  143.5697  144.0937  159.6758 C   0  0  0  0  0  0  0  0  0  0  0  0
  142.6198  144.3168  160.6979 C   0  0  0  0  0  0  0  0  0  0  0  0
  142.9805  144.1655  162.0530 C   0  0  0  0  0  0  0  0  0  0  0  0
  144.2930  143.7888  162.4048 C   0  0  0  0  0  0  0  0  0  0  0  0
  145.2549  143.5614  161.4020 C   0  0  0  0  0  0  0  0  0  0  0  0
  144.8898  143.7155  160.0510 C   0  0  0  0  0  0  0  0  0  0  0  0
  148.7773  140.4799  155.1346 H   0  0  0  0  0  0  0  0  0  0  0  0
  148.9824  142.0186  154.2891 H   0  0  0  0  0  0  0  0  0  0  0  0
  147.5240  141.7234  155.2171 H   0  0  0  0  0  0  0  0  0  0  0  0
  151.0403  140.9844  156.3436 H   0  0  0  0  0  0  0  0  0  0  0  0
  151.1078  142.4814  155.4551 H   0  0  0  0  0  0  0  0  0  0  0  0
  151.5867  140.7913  158.6551 H   0  0  0  0  0  0  0  0  0  0  0  0
  152.6346  141.8262  160.6546 H   0  0  0  0  0  0  0  0  0  0  0  0
  153.0116  144.2841  160.7345 H   0  0  0  0  0  0  0  0  0  0  0  0
  152.3394  145.7094  158.8092 H   0  0  0  0  0  0  0  0  0  0  0  0
  151.2913  144.6839  156.8066 H   0  0  0  0  0  0  0  0  0  0  0  0
  148.7392  140.4979  157.6738 H   0  0  0  0  0  0  0  0  0  0  0  0
  149.2322  141.9460  158.5104 H   0  0  0  0  0  0  0  0  0  0  0  0
  146.7231  142.1624  156.8368 H   0  0  0  0  0  0  0  0  0  0  0  0
  146.6385  140.0966  157.8385 H   0  0  0  0  0  0  0  0  0  0  0  0
  147.4179  143.0319  159.6903 H   0  0  0  0  0  0  0  0  0  0  0  0
  147.5116  144.0479  158.2796 H   0  0  0  0  0  0  0  0  0  0  0  0
  144.9247  144.8135  155.9977 H   0  0  0  0  0  0  0  0  0  0  0  0
  146.0564  143.5139  156.2929 H   0  0  0  0  0  0  0  0  0  0  0  0
  144.7213  142.3717  155.1672 H   0  0  0  0  0  0  0  0  0  0  0  0
  141.6116  144.6046  160.4390 H   0  0  0  0  0  0  0  0  0  0  0  0
  142.2462  144.3383  162.8261 H   0  0  0  0  0  0  0  0  0  0  0  0
  144.5597  143.6739  163.4452 H   0  0  0  0  0  0  0  0  0  0  0  0
  146.2602  143.2719  161.6690 H   0  0  0  0  0  0  0  0  0  0  0  0
  149.0163  143.1114  156.4038 H   0  0  0  0  0  0  0  0  0  0  0  0
  1  2  1  0  0  0  0
  1 25  1  0  0  0  0
  1 26  1  0  0  0  0
  1 27  1  0  0  0  0
  2  3  1  0  0  0  0
  2 10  1  0  0  0  0
  2 48  1  0  0  0  0
  3  4  1  0  0  0  0
  3 28  1  0  0  0  0
  3 29  1  0  0  0  0
  4  9  1  0  0  0  0
  4  5  2  0  0  0  0
  5  6  1  0  0  0  0
  5 30  1  0  0  0  0
  6  7  2  0  0  0  0
  6 31  1  0  0  0  0
  7  8  1  0  0  0  0
  7 32  1  0  0  0  0
  8  9  2  0  0  0  0
  8 33  1  0  0  0  0
  9 34  1  0  0  0  0
 10 11  1  0  0  0  0
 10 35  1  0  0  0  0
 10 36  1  0  0  0  0
 11 12  1  0  0  0  0
 11 13  1  0  0  0  0
 11 37  1  0  0  0  0
 12 38  1  0  0  0  0
 13 14  1  0  0  0  0
 13 39  1  0  0  0  0
 13 40  1  0  0  0  0
 14 24  1  0  0  0  0
 14 15  1  0  0  0  0
 15 16  1  0  0  0  0
 15 18  2  0  0  0  0
 16 17  1  0  0  0  0
 16 41  1  0  0  0  0
 16 42  1  0  0  0  0
 17 43  1  0  0  0  0
 18 19  1  0  0  0  0
 19 24  2  0  0  0  0
 19 20  1  0  0  0  0
 20 21  2  0  0  0  0
 20 44  1  0  0  0  0
 21 22  1  0  0  0  0
 21 45  1  0  0  0  0
 22 23  2  0  0  0  0
 22 46  1  0  0  0  0
 23 24  1  0  0  0  0
 23 47  1  0  0  0  0
M  CHG  1   2   1
M  END
> <s_m_source_file>
AV-unprocessed.smi

> <i_m_source_file_index>
1669

> <i_lp_mmshare_version>
43012

> <i_f3d_flags>
0

> <s_epik_input>
W2NIXTFbY0hdW2NIXVtjSF1bY0hdYzFbQ0gyXU4oW0NIM10pW0NIMl1bQ0BIXShbT0hdKVtDSDJdbihjKG4yKVtDSDJdW09IXSljKGMyMylbY0hdW2NIXVtjSF1bY0hdMw==

> <s_epik_cmdline>
J2VwaWtfcHl0aG9uJywgJy1waCcsICc3LjAnLCAnLXRuJywgJzgnLCAnLW1hJywgJzIwMCcsICctbWV0YWxfYmluZGluZycsICctaW1hZScsICc8aW5maWxlLm1hZT4nLCAnLW9tYWUnLCAnPG91dGZpbGUubWFlPic=

> <r_epik_Ionization_Penalty>
0.0949884

> <r_epik_Ionization_Penalty_Charging>
0.0475377

> <r_epik_Ionization_Penalty_Neutral>
0.0474507

> <r_epik_State_Penalty>
0.078247

> <r_epik_Charging_Adjusted_Penalty>
0.125785

> <i_epik_Tot_Q>
1

> <i_epik_Tot_abs_Q>
1

> <r_epik_Metal_State_Penalty>
0.0403451

> <b_epik_Metal_Only>
0

> <s_lp_Force_Field>
OPLS_2005

> <r_lp_Energy>
16.6823

> <b_lp_Chiralities_Consistent>
1

> <s_lp_Variant>
AV-unprocessed.smi:1669-4

> <Gold.Version>
5.8.1

> <Gold.Id.Protein>
6NUR|6NUR_protein|mol2

> <Gold.PLP.Fitness>
52.0173

> <Gold.PLP.PLP>
-47.1838

> <Gold.PLP.part.hbond>
-2.0000

> <Gold.PLP.part.metal>
0.0000

> <Gold.PLP.part.buried>
-5.9308

> <Gold.PLP.part.nonpolar>
-39.8405

> <Gold.PLP.part.repulsive>
0.0471

> <Gold.PLP.ligand.clash>
0.0000

> <Gold.PLP.ligand.torsion>
0.9199

> <Gold.PLP.Chemscore.Hbond>
2.1310

> <Gold.PLP.Chemscore.CHOScore>
0.0000

> <Gold.PLP.Chemscore.Metal>
0.0000

> <Gold.Chemscore.Hbonds>
donor molecule, donor type, donor heavy atom, donor atom, acceptor molecule, acceptor atom, score
      L1  H     2    48       P1  8028  2.00
      P1  H  6934  6946       L1    12  0.07

> <Gold.PLP.Chemscore.Internal.Correction>
0.2802

> <Gold.Rescore>
     Score         DG    S(hbond)    S(metal)    S(lipo)     H(rot)  DE(clash)    DE(int)     intcor
     15.62     -16.68       1.19        0.00     131.03       3.17       0.05       1.00       ----

> <Gold.Chemscore.Fitness>
15.6249

> <Gold.Chemscore.DG>
-16.6792

> <Gold.Chemscore.ZeroCoef>
-5.4800

> <Gold.Chemscore.Hbond>
1.1950

> <Gold.Chemscore.Metal>
0.0000

> <Gold.Chemscore.Lipo>
131.0347

> <Gold.Chemscore.Internal_Hbond>
0.0000

> <Gold.Chemscore.DEClash>
0.0502

> <Gold.Chemscore.DEInternal>
1.0041

> <Gold.Chemscore.Rot>
3.1731

> <Gold.Chemscore.Internal.Correction>
   9.000000E+99

> <Gold.Chemscore.Hbonds>
donor molecule, donor type, donor heavy atom, donor atom, acceptor molecule, acceptor atom, score
      L1  H     2    48       P1  8028  0.98
      P1  H  6934  6946       L1    12  0.05

> <Gold.Chemscore.Hbond.Weighted>
-3.9911

> <Gold.Chemscore.Metal.Weighted>
-0.0000

> <Gold.Chemscore.Lipo.Weighted>
-15.3311

> <Gold.Chemscore.Internal_Hbond.Weighted>
0.0000

> <Gold.Chemscore.DEClash.Weighted>
0.0502

> <Gold.Chemscore.DEInternal.Weighted>
1.0041

> <Gold.Chemscore.Rot.Weighted>
8.1230

> <Gold.Chemscore.Internal.Correction.Weighted>
   9.000000E+99

> <Gold.Protein.RotatedTorsions>
[ 6907 6896 6895 6894 ] final   -1.35 input  -60.11 | X-H torsion
[ 7974 7965 7964 7962 ] final -162.57 input  175.53 | X-H torsion
[ 8008 7997 7996 7995 ] final   67.10 input   59.86 | X-H torsion
[ 10167 10162 10161 10158 ] final  159.55 input  -65.29 | X-H torsion
[ 10718 10713 10712 10709 ] final -101.21 input   66.30 | X-H torsion
[ 10763 10752 10751 10750 ] final   63.29 input  -60.55 | X-H torsion
[ 11005 11000 10999 10996 ] final -129.83 input  -57.11 | X-H torsion

> <Gold.Protein.ActiveResidues>
 VAL166  LYS551  ARG553  GLY616  TRP617  ASP618  TYR619  PRO620  LYS621  CYS622 
 ASP623  PHE694  ASN695  SER759  ASP760  ASP761  ALA762  ILE779  LEU786  VAL792 
 PHE793  MET794  SER795  GLU796  ALA797  LYS798  CYS799  TRP800  GLU811  SER814 

> <Gold.Protein.RotatedAtoms>
  151.5475  135.1068  159.9941 H   0  0  0  0  0  0  0  0  0  0  0  0  # atno 6907 bound_to 6896
  152.4507  133.7619  159.6762 H   0  0  0  0  0  0  0  0  0  0  0  0  # atno 6908 bound_to 6896
  150.8434  133.7832  159.3076 H   0  0  0  0  0  0  0  0  0  0  0  0  # atno 6909 bound_to 6896
  144.7353  140.3233  143.6166 H   0  0  0  0  0  0  0  0  0  0  0  0  # atno 7974 bound_to 7965
  155.6876  140.3496  155.4880 H   0  0  0  0  0  0  0  0  0  0  0  0  # atno 8008 bound_to 7997
  155.9552  140.1127  157.0965 H   0  0  0  0  0  0  0  0  0  0  0  0  # atno 8009 bound_to 7997
  154.4130  140.1186  156.5092 H   0  0  0  0  0  0  0  0  0  0  0  0  # atno 8010 bound_to 7997
  139.4833  144.4719  151.8564 H   0  0  0  0  0  0  0  0  0  0  0  0  # atno 10167 bound_to 10162
  156.0187  130.5363  150.6930 H   0  0  0  0  0  0  0  0  0  0  0  0  # atno 10718 bound_to 10713
  153.0012  135.5434  154.6328 H   0  0  0  0  0  0  0  0  0  0  0  0  # atno 10763 bound_to 10752
  154.5601  135.2833  155.0929 H   0  0  0  0  0  0  0  0  0  0  0  0  # atno 10764 bound_to 10752
  154.2135  135.6463  153.5175 H   0  0  0  0  0  0  0  0  0  0  0  0  # atno 10765 bound_to 10752
  140.9398  134.1209  157.4161 H   0  0  0  0  0  0  0  0  0  0  0  0  # atno 11005 bound_to 11000
  145.7546  139.1804  143.2302 LP  0  0  0  0  0  0  0  0  0  0  0  0  # atno 17320 bound_to 7965
  146.1034  140.7516  142.9538 LP  0  0  0  0  0  0  0  0  0  0  0  0  # atno 17321 bound_to 7965
  140.4189  144.2270  150.5887 LP  0  0  0  0  0  0  0  0  0  0  0  0  # atno 17342 bound_to 10162
  140.4893  143.2352  151.8841 LP  0  0  0  0  0  0  0  0  0  0  0  0  # atno 17343 bound_to 10162
  157.4607  131.0883  151.0748 LP  0  0  0  0  0  0  0  0  0  0  0  0  # atno 17370 bound_to 10713
  157.1237  130.6072  149.5511 LP  0  0  0  0  0  0  0  0  0  0  0  0  # atno 17371 bound_to 10713
  139.8817  135.0033  156.6176 LP  0  0  0  0  0  0  0  0  0  0  0  0  # atno 17394 bound_to 11000
  140.7750  133.8707  155.8522 LP  0  0  0  0  0  0  0  0  0  0  0  0  # atno 17395 bound_to 11000

$$$$
