#       Name:                AV-unprocessed.smi:199
#       Creating user name   scv26
#       Creation time:       Thu Mar 26 19:44:02 2020


#       File generated by GOLD software.
#

@<TRIPOS>MOLECULE
AV-unprocessed.smi:199
    61    65     1
SMALL
NO_CHARGES


@<TRIPOS>ATOM
      1 ****        -2.1524   3.2570   1.5711 C.3            1 S1                 0.0000
      2 ****        -3.3050   2.2424   1.4966 C.3            1 S1                 0.0000
      3 ****        -4.4387   2.7191   2.2074 O.3            1 S1                 0.0000
      4 ****        -5.5492   1.9538   1.7761 C.3            1 S1                 0.0000
      5 ****        -5.3582   1.9093   0.2651 C.3            1 S1                 0.0000
      6 ****        -3.8372   1.8797   0.0845 C.3            1 S1                 0.0000
      7 ****        -3.4898   2.8620  -0.8779 O.3            1 S1                 0.0000
      8 ****        -3.3360   0.5047  -0.4230 C.3            1 S1                 0.0000
      9 ****        -1.8855   0.4032  -0.4913 N.pl3          1 S1                 0.0000
     10 ****        -1.0701   0.8951  -1.4848 C.2            1 S1                 0.0000
     11 ****         0.2052   0.6831  -1.3130 N.2            1 S1                 0.0000
     12 ****         0.2796  -0.0241  -0.1188 C.ar           1 S1                 0.0000
     13 ****         1.3465  -0.5701   0.6527 C.ar           1 S1                 0.0000
     14 ****         2.6573  -0.4855   0.2953 N.3            1 S1                 0.0000
     15 ****         3.6578  -1.3540   0.9024 C.3            1 S1                 0.0000
     16 ****         4.9704  -0.7635   0.3621 C.3            1 S1                 0.0000
     17 ****         4.5417  -0.3271  -1.0469 C.3            1 S1                 0.0000
     18 ****         3.0668  -0.7747  -1.0714 C.3            1 S1                 0.0000
     19 ****         2.9353  -2.3172  -1.1597 C.3            1 S1                 0.0000
     20 ****         3.6490  -3.0234  -2.3275 C.3            1 S1                 0.0000
     21 ****         3.1382  -2.5669  -3.5615 O.3            1 S1                 0.0000
     22 ****         3.4265  -2.7300   0.2397 C.3            1 S1                 0.0000
     23 ****         1.0176  -1.1845   1.8203 N.ar           1 S1                 0.0000
     24 ****        -0.2596  -1.2881   2.1967 C.ar           1 S1                 0.0000
     25 ****        -1.3510  -0.8451   1.5718 N.ar           1 S1                 0.0000
     26 ****        -1.0304  -0.2062   0.4109 C.ar           1 S1                 0.0000
     27 ****        -1.2828   2.9057   1.0150 H              1 S1                 0.0000
     28 ****        -1.8426   3.4128   2.6045 H              1 S1                 0.0000
     29 ****        -2.4444   4.2265   1.1669 H              1 S1                 0.0000
     30 ****        -2.9956   1.3316   2.0104 H              1 S1                 0.0000
     31 ****        -5.4996   0.9529   2.2082 H              1 S1                 0.0000
     32 ****        -6.4942   2.4114   2.0692 H              1 S1                 0.0000
     33 ****        -5.8682   1.0600  -0.1909 H              1 S1                 0.0000
     34 ****        -5.7869   2.8153  -0.1669 H              1 S1                 0.0000
     35 ****        -3.9051   2.6400  -1.6970 H              1 S1                 0.0000
     36 ****        -3.7039  -0.2897   0.2277 H              1 S1                 0.0000
     37 ****        -3.7395   0.2941  -1.4143 H              1 S1                 0.0000
     38 ****        -1.4522   1.4283  -2.3430 H              1 S1                 0.0000
     39 ****         3.6364  -1.3882   1.9924 H              1 S1                 0.0000
     40 ****         5.2834   0.0992   0.9516 H              1 S1                 0.0000
     41 ****         5.7879  -1.4853   0.3548 H              1 S1                 0.0000
     42 ****         4.6088   0.7577  -1.1394 H              1 S1                 0.0000
     43 ****         5.1517  -0.7586  -1.8389 H              1 S1                 0.0000
     44 ****         2.5018  -0.2573  -1.8447 H              1 S1                 0.0000
     45 ****         1.8737  -2.5617  -1.2308 H              1 S1                 0.0000
     46 ****         4.7279  -2.8765  -2.3002 H              1 S1                 0.0000
     47 ****         3.4814  -4.0986  -2.2648 H              1 S1                 0.0000
     48 ****         3.5725  -3.0350  -4.2581 H              1 S1                 0.0000
     49 ****         4.3331  -3.3362   0.2187 H              1 S1                 0.0000
     50 ****         2.6578  -3.3002   0.7625 H              1 S1                 0.0000
     51 ****        -0.4315  -1.7988   3.1326 H              1 S1                 0.0000
     52 ****        -4.5890   3.6868   2.0050 LP             1 S1                 0.0000
     53 ****        -4.3018   2.6016   3.1909 LP             1 S1                 0.0000
     54 ****        -2.4971   2.8808  -0.9974 LP             1 S1                 0.0000
     55 ****        -3.8058   3.7602  -0.5722 LP             1 S1                 0.0000
     56 ****         0.9591   0.9655  -1.9063 LP             1 S1                 0.0000
     57 ****         2.6518   0.4715   0.5853 LP             1 S1                 0.0000
     58 ****         3.3104  -1.5863  -3.6557 LP             1 S1                 0.0000
     59 ****         2.1538  -2.7379  -3.6030 LP             1 S1                 0.0000
     60 ****         1.7381  -1.5619   2.4020 LP             1 S1                 0.0000
     61 ****        -2.2840  -0.9658   1.9108 LP             1 S1                 0.0000
@<TRIPOS>BOND
    1    1    2 1     
    2    1   27 1     
    3    1   28 1     
    4    1   29 1     
    5    2    6 1     
    6    2    3 1     
    7    2   30 1     
    8    3    4 1     
    9    4    5 1     
   10    4   31 1     
   11    4   32 1     
   12    5    6 1     
   13    5   33 1     
   14    5   34 1     
   15    6    7 1     
   16    6    8 1     
   17    7   35 1     
   18    8    9 1     
   19    8   36 1     
   20    8   37 1     
   21    9   26 1     
   22    9   10 1     
   23   10   11 2     
   24   10   38 1     
   25   11   12 1     
   26   12   26 ar    
   27   12   13 ar    
   28   13   14 1     
   29   13   23 ar    
   30   14   18 1     
   31   14   15 1     
   32   15   22 1     
   33   15   16 1     
   34   15   39 1     
   35   16   17 1     
   36   16   40 1     
   37   16   41 1     
   38   17   18 1     
   39   17   42 1     
   40   17   43 1     
   41   18   19 1     
   42   18   44 1     
   43   19   20 1     
   44   19   22 1     
   45   19   45 1     
   46   20   21 1     
   47   20   46 1     
   48   20   47 1     
   49   21   48 1     
   50   22   49 1     
   51   22   50 1     
   52   23   24 ar    
   53   24   25 ar    
   54   24   51 1     
   55   25   26 ar    
   56    3   52 1     
   57    3   53 1     
   58    7   54 1     
   59    7   55 1     
   60   11   56 1     
   61   14   57 1     
   62   21   58 1     
   63   21   59 1     
   64   23   60 1     
   65   25   61 1     
@<TRIPOS>SUBSTRUCTURE
      1 S1             1
@<TRIPOS>SET
LONE_PAIRS      STATIC     ATOMS    <user>   **** ""
10 52 53 54 55 56 57 58 59 60 61
DONOR_HYDROGENS      STATIC     ATOMS    <user>   **** ""
2 35 48
ATOM$BLUE        STATIC     ATOMS    COLORGROUP SYSTEM
10 52 53 54 55 56 57 58 59 60 61
ATOM$RED        STATIC     ATOMS    COLORGROUP SYSTEM
2 35 48
