AV-unprocessed.smi:2339|AV-procd|sdf|9337|dock10
  -GOLD-   2272012563D 1   1.00000     0.00000
 Structure written by MMmdl.
 49 52  0  0  0  0  0  0  0  0  1 V2000
  148.6327  130.9293  161.1895 C   0  0  0  0  0  0  0  0  0  0  0  0
  147.8790  131.7201  160.1147 C   0  0  0  0  0  0  0  0  0  0  0  0
  147.9462  133.1552  160.3506 N   0  0  0  0  0  0  0  0  0  0  0  0
  147.3870  133.7262  161.4894 C   0  0  0  0  0  0  0  0  0  0  0  0
  147.3399  135.0519  161.7246 C   0  0  0  0  0  0  0  0  0  0  0  0
  147.9062  135.9841  160.7288 C   0  0  0  0  0  0  0  0  0  0  0  0
  147.8754  137.2017  160.9071 O   0  0  0  0  0  0  0  0  0  0  0  0
  148.5079  135.3731  159.5149 C   0  0  0  0  0  0  0  0  0  0  0  0
  149.0334  136.2632  158.5665 N   0  0  0  0  0  0  0  0  0  0  0  0
  150.1717  136.9843  158.6128 C   0  0  0  0  0  0  0  0  0  0  0  0
  150.9503  137.0210  159.5632 O   0  0  0  0  0  0  0  0  0  0  0  0
  150.3755  137.7380  157.5187 N   0  0  0  0  0  0  0  0  0  0  0  0
  151.5077  138.6338  157.2496 C   0  0  1  0  0  0  0  0  0  0  0  0
  151.8563  138.7722  155.7475 C   0  0  1  0  0  0  0  0  0  0  0  0
  151.2865  137.8735  154.6759 C   0  0  0  0  0  0  0  0  0  0  0  0
  150.1184  138.6967  154.1258 C   0  0  0  0  0  0  0  0  0  0  0  0
  149.8114  139.6281  155.1604 O   0  0  0  0  0  0  0  0  0  0  0  0
  151.0423  140.0563  155.7370 C   0  0  1  0  0  0  0  0  0  0  0  0
  151.0906  140.1233  157.2771 C   0  0  0  0  0  0  0  0  0  0  0  0
  149.8209  140.5596  158.0084 C   0  0  0  0  0  0  0  0  0  0  0  0
  149.8836  142.0826  158.1271 C   0  0  0  0  0  0  0  0  0  0  0  0
  151.3750  142.4300  158.1102 C   0  0  0  0  0  0  0  0  0  0  0  0
  152.1088  141.1097  157.8492 C   0  0  0  0  0  0  0  0  0  0  0  0
  148.4835  134.0211  159.4001 C   0  0  0  0  0  0  0  0  0  0  0  0
  148.5636  129.8580  161.0007 H   0  0  0  0  0  0  0  0  0  0  0  0
  148.2211  131.1200  162.1810 H   0  0  0  0  0  0  0  0  0  0  0  0
  149.6899  131.1961  161.2064 H   0  0  0  0  0  0  0  0  0  0  0  0
  148.2908  131.4929  159.1305 H   0  0  0  0  0  0  0  0  0  0  0  0
  146.8352  131.4050  160.0879 H   0  0  0  0  0  0  0  0  0  0  0  0
  146.9863  133.0124  162.1945 H   0  0  0  0  0  0  0  0  0  0  0  0
  146.8965  135.4498  162.6256 H   0  0  0  0  0  0  0  0  0  0  0  0
  148.4534  136.3989  157.7510 H   0  0  0  0  0  0  0  0  0  0  0  0
  149.6285  137.7612  156.8394 H   0  0  0  0  0  0  0  0  0  0  0  0
  152.3829  138.4420  157.8733 H   0  0  0  0  0  0  0  0  0  0  0  0
  152.9187  138.9848  155.6192 H   0  0  0  0  0  0  0  0  0  0  0  0
  152.0133  137.6538  153.8935 H   0  0  0  0  0  0  0  0  0  0  0  0
  150.9435  136.9194  155.0729 H   0  0  0  0  0  0  0  0  0  0  0  0
  150.4241  139.2463  153.2345 H   0  0  0  0  0  0  0  0  0  0  0  0
  149.2545  138.0833  153.8697 H   0  0  0  0  0  0  0  0  0  0  0  0
  151.5137  140.8807  155.1999 H   0  0  0  0  0  0  0  0  0  0  0  0
  148.9087  140.2390  157.5042 H   0  0  0  0  0  0  0  0  0  0  0  0
  149.7987  140.1219  159.0075 H   0  0  0  0  0  0  0  0  0  0  0  0
  149.3904  142.5409  157.2690 H   0  0  0  0  0  0  0  0  0  0  0  0
  149.3823  142.4421  159.0261 H   0  0  0  0  0  0  0  0  0  0  0  0
  151.5829  143.1496  157.3174 H   0  0  0  0  0  0  0  0  0  0  0  0
  151.6968  142.8766  159.0515 H   0  0  0  0  0  0  0  0  0  0  0  0
  152.5050  140.7288  158.7915 H   0  0  0  0  0  0  0  0  0  0  0  0
  152.9645  141.2566  157.1887 H   0  0  0  0  0  0  0  0  0  0  0  0
  148.8773  133.4992  158.5421 H   0  0  0  0  0  0  0  0  0  0  0  0
  1  2  1  0  0  0  0
  1 25  1  0  0  0  0
  1 26  1  0  0  0  0
  1 27  1  0  0  0  0
  2  3  1  0  0  0  0
  2 28  1  0  0  0  0
  2 29  1  0  0  0  0
  3 24  1  0  0  0  0
  3  4  1  0  0  0  0
  4  5  2  0  0  0  0
  4 30  1  0  0  0  0
  5  6  1  0  0  0  0
  5 31  1  0  0  0  0
  6  7  2  0  0  0  0
  6  8  1  0  0  0  0
  8  9  1  0  0  0  0
  8 24  2  0  0  0  0
  9 10  1  0  0  0  0
  9 32  1  0  0  0  0
 10 11  2  0  0  0  0
 10 12  1  0  0  0  0
 12 13  1  0  0  0  0
 12 33  1  0  0  0  0
 13 19  1  0  0  0  0
 13 14  1  0  0  0  0
 13 34  1  0  0  0  0
 14 18  1  0  0  0  0
 14 15  1  0  0  0  0
 14 35  1  0  0  0  0
 15 16  1  0  0  0  0
 15 36  1  0  0  0  0
 15 37  1  0  0  0  0
 16 17  1  0  0  0  0
 16 38  1  0  0  0  0
 16 39  1  0  0  0  0
 17 18  1  0  0  0  0
 18 19  1  0  0  0  0
 18 40  1  0  0  0  0
 19 23  1  0  0  0  0
 19 20  1  0  0  0  0
 20 21  1  0  0  0  0
 20 41  1  0  0  0  0
 20 42  1  0  0  0  0
 21 22  1  0  0  0  0
 21 43  1  0  0  0  0
 21 44  1  0  0  0  0
 22 23  1  0  0  0  0
 22 45  1  0  0  0  0
 22 46  1  0  0  0  0
 23 47  1  0  0  0  0
 23 48  1  0  0  0  0
 24 49  1  0  0  0  0
M  END
> <s_m_source_file>
AV-unprocessed.smi

> <i_m_source_file_index>
2339

> <i_lp_mmshare_version>
43012

> <i_f3d_flags>
0

> <s_epik_input>
W0NIM11bQ0gyXW4xW2NIXVtjSF1jKD1PKWMoW2NIXTEpW05IXUMoPU8pW05IXVtDQEBIXTJbQ0BASF0oW0NIMl1bQ0gyXU8zKVtDQEBIXTNDMjRbQ0gyXVtDSDJdW0NIMl1bQ0gyXTQ=

> <s_epik_cmdline>
J2VwaWtfcHl0aG9uJywgJy1waCcsICc3LjAnLCAnLXRuJywgJzgnLCAnLW1hJywgJzIwMCcsICctbWV0YWxfYmluZGluZycsICctaW1hZScsICc8aW5maWxlLm1hZT4nLCAnLW9tYWUnLCAnPG91dGZpbGUubWFlPic=

> <r_lp_tautomer_probability>
1

> <r_epik_Ionization_Penalty>
0.00145966

> <r_epik_Ionization_Penalty_Charging>
0.00143969

> <r_epik_Ionization_Penalty_Neutral>
1.99697e-05

> <r_epik_State_Penalty>
0.000961843

> <r_epik_Charging_Adjusted_Penalty>
0.00240153

> <i_epik_Tot_Q>
0

> <i_epik_Tot_abs_Q>
0

> <r_epik_Metal_State_Penalty>
-0

> <b_epik_Metal_Only>
0

> <s_lp_Force_Field>
OPLS_2005

> <r_lp_Energy>
59.7263

> <b_lp_Chiralities_Consistent>
1

> <s_lp_Variant>
AV-unprocessed.smi:2339-2

> <Gold.Version>
5.8.1

> <Gold.Id.Protein>
6NUR|6NUR_protein|mol2

> <Gold.PLP.Fitness>
43.6084

> <Gold.PLP.PLP>
-37.1294

> <Gold.PLP.part.hbond>
-3.0000

> <Gold.PLP.part.metal>
0.0000

> <Gold.PLP.part.buried>
-4.6794

> <Gold.PLP.part.nonpolar>
-29.4835

> <Gold.PLP.part.repulsive>
0.1993

> <Gold.PLP.ligand.clash>
0.0000

> <Gold.PLP.ligand.torsion>
0.9302

> <Gold.PLP.Chemscore.Hbond>
2.7120

> <Gold.PLP.Chemscore.CHOScore>
0.0000

> <Gold.PLP.Chemscore.Metal>
0.0000

> <Gold.Chemscore.Hbonds>
donor molecule, donor type, donor heavy atom, donor atom, acceptor molecule, acceptor atom, score
      P1  H  6896  6907       L1    11  0.80
      P1  H  6931  6943       L1     7  0.88
      P1  H  6934  6947       L1     7  0.80

> <Gold.PLP.Chemscore.Internal.Correction>
0.2034

> <Gold.Rescore>
     Score         DG    S(hbond)    S(metal)    S(lipo)     H(rot)  DE(clash)    DE(int)     intcor
     20.93     -21.87       2.66        0.00      89.65       1.17       0.01       0.93       ----

> <Gold.Chemscore.Fitness>
20.9279

> <Gold.Chemscore.DG>
-21.8724

> <Gold.Chemscore.ZeroCoef>
-5.4800

> <Gold.Chemscore.Hbond>
2.6620

> <Gold.Chemscore.Metal>
0.0000

> <Gold.Chemscore.Lipo>
89.6487

> <Gold.Chemscore.Internal_Hbond>
0.0000

> <Gold.Chemscore.DEClash>
0.0115

> <Gold.Chemscore.DEInternal>
0.9330

> <Gold.Chemscore.Rot>
1.1670

> <Gold.Chemscore.Internal.Correction>
   9.000000E+99

> <Gold.Chemscore.Hbonds>
donor molecule, donor type, donor heavy atom, donor atom, acceptor molecule, acceptor atom, score
      P1  H  6896  6907       L1    11  0.11
      P1  H  6931  6943       L1     7  0.86
      P1  H  6934  6947       L1     7  0.79

> <Gold.Chemscore.Hbond.Weighted>
-8.8909

> <Gold.Chemscore.Metal.Weighted>
-0.0000

> <Gold.Chemscore.Lipo.Weighted>
-10.4889

> <Gold.Chemscore.Internal_Hbond.Weighted>
0.0000

> <Gold.Chemscore.DEClash.Weighted>
0.0115

> <Gold.Chemscore.DEInternal.Weighted>
0.9330

> <Gold.Chemscore.Rot.Weighted>
2.9874

> <Gold.Chemscore.Internal.Correction.Weighted>
   9.000000E+99

> <Gold.Protein.RotatedTorsions>
[ 6907 6896 6895 6894 ] final  -34.34 input  -60.11 | X-H torsion
[ 7974 7965 7964 7962 ] final -167.40 input  175.53 | X-H torsion
[ 8008 7997 7996 7995 ] final -174.68 input   59.86 | X-H torsion
[ 10167 10162 10161 10158 ] final  165.63 input  -65.29 | X-H torsion
[ 10718 10713 10712 10709 ] final  127.48 input   66.30 | X-H torsion
[ 10763 10752 10751 10750 ] final  -25.36 input  -60.55 | X-H torsion
[ 11005 11000 10999 10996 ] final -110.45 input  -57.11 | X-H torsion

> <Gold.Protein.ActiveResidues>
 VAL166  LYS551  ARG553  GLY616  TRP617  ASP618  TYR619  PRO620  LYS621  CYS622 
 ASP623  PHE694  ASN695  SER759  ASP760  ASP761  ALA762  ILE779  LEU786  VAL792 
 PHE793  MET794  SER795  GLU796  ALA797  LYS798  CYS799  TRP800  GLU811  SER814 

> <Gold.Protein.RotatedAtoms>
  151.0539  134.9691  159.8225 H   0  0  0  0  0  0  0  0  0  0  0  0  # atno 6907 bound_to 6896
  152.5385  134.2502  159.8906 H   0  0  0  0  0  0  0  0  0  0  0  0  # atno 6908 bound_to 6896
  151.2519  133.4303  159.2645 H   0  0  0  0  0  0  0  0  0  0  0  0  # atno 6909 bound_to 6896
  144.7224  140.2524  143.6276 H   0  0  0  0  0  0  0  0  0  0  0  0  # atno 7974 bound_to 7965
  155.9732  140.1167  157.0794 H   0  0  0  0  0  0  0  0  0  0  0  0  # atno 8008 bound_to 7997
  154.4162  140.1159  156.5402 H   0  0  0  0  0  0  0  0  0  0  0  0  # atno 8009 bound_to 7997
  155.6569  140.3473  155.4771 H   0  0  0  0  0  0  0  0  0  0  0  0  # atno 8010 bound_to 7997
  139.4909  144.4112  151.9297 H   0  0  0  0  0  0  0  0  0  0  0  0  # atno 10167 bound_to 10162
  157.5329  131.1098  150.8980 H   0  0  0  0  0  0  0  0  0  0  0  0  # atno 10718 bound_to 10713
  153.6986  135.6957  153.5069 H   0  0  0  0  0  0  0  0  0  0  0  0  # atno 10763 bound_to 10752
  153.2359  135.4322  155.0645 H   0  0  0  0  0  0  0  0  0  0  0  0  # atno 10764 bound_to 10752
  154.8351  135.3495  154.6526 H   0  0  0  0  0  0  0  0  0  0  0  0  # atno 10765 bound_to 10752
  141.0791  133.9251  157.2328 H   0  0  0  0  0  0  0  0  0  0  0  0  # atno 11005 bound_to 11000
  145.8215  139.2046  143.1935 LP  0  0  0  0  0  0  0  0  0  0  0  0  # atno 17320 bound_to 7965
  146.0510  140.8069  142.9782 LP  0  0  0  0  0  0  0  0  0  0  0  0  # atno 17321 bound_to 7965
  140.3554  144.3038  150.5942 LP  0  0  0  0  0  0  0  0  0  0  0  0  # atno 17342 bound_to 10162
  140.5449  143.2216  151.8023 LP  0  0  0  0  0  0  0  0  0  0  0  0  # atno 17343 bound_to 10162
  156.9556  130.5436  149.5284 LP  0  0  0  0  0  0  0  0  0  0  0  0  # atno 17370 bound_to 10713
  156.0436  130.5516  150.8829 LP  0  0  0  0  0  0  0  0  0  0  0  0  # atno 17371 bound_to 10713
  139.9604  135.0155  156.9244 LP  0  0  0  0  0  0  0  0  0  0  0  0  # atno 17394 bound_to 11000
  140.5509  134.0628  155.7369 LP  0  0  0  0  0  0  0  0  0  0  0  0  # atno 17395 bound_to 11000

$$$$
