AV-unprocessed.smi:1111|AV-procd|sdf|4795|dock9
  -GOLD-   22720 3343D 1   1.00000     0.00000
 Structure written by MMmdl.
 33 34  0  0  0  0  0  0  0  0  2 V2000
  149.4751  131.6777  154.1731 C   0  0  0  0  0  0  0  0  0  0  0  0
  149.0927  133.1181  154.5755 C   0  0  2  0  0  0  0  0  0  0  0  0
  148.3059  133.7603  153.5134 N   0  0  0  0  0  0  0  0  0  0  0  0
  147.1765  133.3205  152.9307 C   0  0  0  0  0  0  0  0  0  0  0  0
  146.6306  132.2523  153.2032 O   0  0  0  0  0  0  0  0  0  0  0  0
  146.5641  134.2328  151.8679 C   0  0  0  0  0  0  0  0  0  0  0  0
  145.5099  133.5443  151.1176 N   0  0  0  0  0  0  0  0  0  0  0  0
  145.6141  132.3615  150.4310 C   0  0  0  0  0  0  0  0  0  0  0  0
  144.3784  132.1127  149.8911 C   0  0  0  0  0  0  0  0  0  0  0  0
  143.5722  133.1521  150.2720 N   0  3  0  0  0  0  0  0  0  0  0  0
  144.2621  134.0222  151.0166 C   0  0  0  0  0  0  0  0  0  0  0  0
  150.3715  133.9666  154.7748 C   0  0  0  0  0  0  0  0  0  0  0  0
  150.0280  135.2533  155.5366 C   0  0  0  0  0  0  0  0  0  0  0  0
  148.6383  134.8180  156.6448 S   0  0  0  0  0  0  0  0  0  0  0  0
  149.1316  134.6649  158.0216 O   0  0  0  0  0  0  0  0  0  0  0  0
  147.4971  135.6946  156.3403 O   0  0  0  0  0  0  0  0  0  0  0  0
  148.3393  133.1583  155.9252 C   0  0  0  0  0  0  0  0  0  0  0  0
  150.1445  131.2272  154.9064 H   0  0  0  0  0  0  0  0  0  0  0  0
  149.9861  131.6585  153.2099 H   0  0  0  0  0  0  0  0  0  0  0  0
  148.6036  131.0275  154.0997 H   0  0  0  0  0  0  0  0  0  0  0  0
  148.6548  134.6550  153.2014 H   0  0  0  0  0  0  0  0  0  0  0  0
  146.1345  135.1217  152.3327 H   0  0  0  0  0  0  0  0  0  0  0  0
  147.3277  134.5694  151.1646 H   0  0  0  0  0  0  0  0  0  0  0  0
  146.5353  131.7995  150.3776 H   0  0  0  0  0  0  0  0  0  0  0  0
  144.0220  131.2955  149.2809 H   0  0  0  0  0  0  0  0  0  0  0  0
  143.8855  134.9305  151.4531 H   0  0  0  0  0  0  0  0  0  0  0  0
  151.0825  133.4004  155.3782 H   0  0  0  0  0  0  0  0  0  0  0  0
  150.8745  134.1843  153.8316 H   0  0  0  0  0  0  0  0  0  0  0  0
  150.8660  135.6398  156.1167 H   0  0  0  0  0  0  0  0  0  0  0  0
  149.6862  136.0332  154.8557 H   0  0  0  0  0  0  0  0  0  0  0  0
  147.2687  132.9671  155.8579 H   0  0  0  0  0  0  0  0  0  0  0  0
  148.7597  132.4292  156.6187 H   0  0  0  0  0  0  0  0  0  0  0  0
  142.5947  133.2507  150.0270 H   0  0  0  0  0  0  0  0  0  0  0  0
  1  2  1  0  0  0  0
  1 18  1  0  0  0  0
  1 19  1  0  0  0  0
  1 20  1  0  0  0  0
  2 17  1  0  0  0  0
  2  3  1  0  0  0  0
  2 12  1  0  0  0  0
  3  4  1  0  0  0  0
  3 21  1  0  0  0  0
  4  5  2  0  0  0  0
  4  6  1  0  0  0  0
  6  7  1  0  0  0  0
  6 22  1  0  0  0  0
  6 23  1  0  0  0  0
  7 11  1  0  0  0  0
  7  8  1  0  0  0  0
  8  9  2  0  0  0  0
  8 24  1  0  0  0  0
  9 10  1  0  0  0  0
  9 25  1  0  0  0  0
 10 11  2  0  0  0  0
 10 33  1  0  0  0  0
 11 26  1  0  0  0  0
 12 13  1  0  0  0  0
 12 27  1  0  0  0  0
 12 28  1  0  0  0  0
 13 14  1  0  0  0  0
 13 29  1  0  0  0  0
 13 30  1  0  0  0  0
 14 15  2  0  0  0  0
 14 16  2  0  0  0  0
 14 17  1  0  0  0  0
 17 31  1  0  0  0  0
 17 32  1  0  0  0  0
M  CHG  1  10   1
M  END
> <s_m_source_file>
AV-unprocessed.smi

> <i_m_source_file_index>
1111

> <i_lp_mmshare_version>
43012

> <i_f3d_flags>
0

> <s_epik_input>
Tz1TKD1PKShbQ0gyXTEpW0NIMl1bQ0gyXVtDQEBdMShbQ0gzXSlbTkhdQyg9TylbQ0gyXW4yW2NIXVtjSF1uW2NIXTI=

> <s_epik_cmdline>
J2VwaWtfcHl0aG9uJywgJy1waCcsICc3LjAnLCAnLXRuJywgJzgnLCAnLW1hJywgJzIwMCcsICctbWV0YWxfYmluZGluZycsICctaW1hZScsICc8aW5maWxlLm1hZT4nLCAnLW9tYWUnLCAnPG91dGZpbGUubWFlPic=

> <r_lp_tautomer_probability>
1

> <r_epik_Ionization_Penalty>
0.638881

> <r_epik_Ionization_Penalty_Charging>
0

> <r_epik_Ionization_Penalty_Neutral>
0.638881

> <r_epik_State_Penalty>
0.656385

> <r_epik_Charging_Adjusted_Penalty>
0.656385

> <i_epik_Tot_Q>
1

> <i_epik_Tot_abs_Q>
1

> <r_epik_Metal_State_Penalty>
0.832701

> <b_epik_Metal_Only>
0

> <s_lp_Force_Field>
OPLS_2005

> <r_lp_Energy>
7.98032

> <b_lp_Chiralities_Consistent>
1

> <s_lp_Variant>
AV-unprocessed.smi:1111-4

> <Gold.Version>
5.8.1

> <Gold.Id.Protein>
6NUR|6NUR_protein|mol2

> <Gold.PLP.Fitness>
39.1661

> <Gold.PLP.PLP>
-25.4292

> <Gold.PLP.part.hbond>
-2.9580

> <Gold.PLP.part.metal>
0.0000

> <Gold.PLP.part.buried>
-4.2844

> <Gold.PLP.part.nonpolar>
-17.7027

> <Gold.PLP.part.repulsive>
0.1638

> <Gold.PLP.ligand.clash>
0.0000

> <Gold.PLP.ligand.torsion>
0.2210

> <Gold.PLP.Chemscore.Hbond>
3.9338

> <Gold.PLP.Chemscore.CHOScore>
0.7873

> <Gold.PLP.Chemscore.Metal>
0.0000

> <Gold.Chemscore.Hbonds>
donor molecule, donor type, donor heavy atom, donor atom, acceptor molecule, acceptor atom, score
      L1  H     3    21       P1  7948  0.96
      L1  H    10    33       P1 10186  2.00
      P1  H  6896  6907       L1    15  0.86
      L1  C     8    24       P1 10747  0.80

> <Gold.PLP.Chemscore.Internal.Correction>
0.0158

> <Gold.Rescore>
     Score         DG    S(hbond)    S(metal)    S(lipo)     H(rot)  DE(clash)    DE(int)     intcor
     12.49     -13.80       2.17        0.00      48.09       1.78       0.03       1.28       ----

> <Gold.Chemscore.Fitness>
12.4923

> <Gold.Chemscore.DG>
-13.8027

> <Gold.Chemscore.ZeroCoef>
-5.4800

> <Gold.Chemscore.Hbond>
2.1704

> <Gold.Chemscore.Metal>
0.0000

> <Gold.Chemscore.Lipo>
48.0940

> <Gold.Chemscore.Internal_Hbond>
0.0000

> <Gold.Chemscore.DEClash>
0.0319

> <Gold.Chemscore.DEInternal>
1.2785

> <Gold.Chemscore.Rot>
1.7787

> <Gold.Chemscore.Internal.Correction>
   9.000000E+99

> <Gold.Chemscore.Hbonds>
donor molecule, donor type, donor heavy atom, donor atom, acceptor molecule, acceptor atom, score
      L1  H     3    21       P1  7948  0.27
      L1  H    10    33       P1 10186  0.89
      P1  H  6896  6907       L1    15  0.84

> <Gold.Chemscore.Hbond.Weighted>
-7.2492

> <Gold.Chemscore.Metal.Weighted>
-0.0000

> <Gold.Chemscore.Lipo.Weighted>
-5.6270

> <Gold.Chemscore.Internal_Hbond.Weighted>
0.0000

> <Gold.Chemscore.DEClash.Weighted>
0.0319

> <Gold.Chemscore.DEInternal.Weighted>
1.2785

> <Gold.Chemscore.Rot.Weighted>
4.5536

> <Gold.Chemscore.Internal.Correction.Weighted>
   9.000000E+99

> <Gold.Protein.RotatedTorsions>
[ 6907 6896 6895 6894 ] final  -91.98 input  -60.11 | X-H torsion
[ 7974 7965 7964 7962 ] final -163.48 input  175.53 | X-H torsion
[ 8008 7997 7996 7995 ] final  -87.74 input   59.86 | X-H torsion
[ 10167 10162 10161 10158 ] final  -42.24 input  -65.29 | X-H torsion
[ 10718 10713 10712 10709 ] final  133.04 input   66.30 | X-H torsion
[ 10763 10752 10751 10750 ] final   -2.34 input  -60.55 | X-H torsion
[ 11005 11000 10999 10996 ] final  -96.38 input  -57.11 | X-H torsion

> <Gold.Protein.ActiveResidues>
 VAL166  LYS551  ARG553  GLY616  TRP617  ASP618  TYR619  PRO620  LYS621  CYS622 
 ASP623  PHE694  ASN695  SER759  ASP760  ASP761  ALA762  ILE779  LEU786  VAL792 
 PHE793  MET794  SER795  GLU796  ALA797  LYS798  CYS799  TRP800  GLU811  SER814 

> <Gold.Protein.RotatedAtoms>
  150.6900  134.2193  159.4389 H   0  0  0  0  0  0  0  0  0  0  0  0  # atno 6907 bound_to 6896
  152.0150  134.9852  160.0578 H   0  0  0  0  0  0  0  0  0  0  0  0  # atno 6908 bound_to 6896
  152.1452  133.4453  159.4823 H   0  0  0  0  0  0  0  0  0  0  0  0  # atno 6909 bound_to 6896
  144.7325  140.3101  143.6189 H   0  0  0  0  0  0  0  0  0  0  0  0  # atno 7974 bound_to 7965
  154.6667  140.0562  157.0121 H   0  0  0  0  0  0  0  0  0  0  0  0  # atno 8008 bound_to 7997
  155.1149  140.3242  155.4493 H   0  0  0  0  0  0  0  0  0  0  0  0  # atno 8009 bound_to 7997
  156.2640  140.2008  156.6272 H   0  0  0  0  0  0  0  0  0  0  0  0  # atno 8010 bound_to 7997
  140.6976  143.3049  151.3180 H   0  0  0  0  0  0  0  0  0  0  0  0  # atno 10167 bound_to 10162
  157.4812  131.1086  150.9679 H   0  0  0  0  0  0  0  0  0  0  0  0  # atno 10718 bound_to 10713
  153.3567  135.6988  153.6745 H   0  0  0  0  0  0  0  0  0  0  0  0  # atno 10763 bound_to 10752
  153.5449  135.3565  155.2735 H   0  0  0  0  0  0  0  0  0  0  0  0  # atno 10764 bound_to 10752
  154.8662  135.4212  154.2815 H   0  0  0  0  0  0  0  0  0  0  0  0  # atno 10765 bound_to 10752
  141.1413  133.8094  157.0564 H   0  0  0  0  0  0  0  0  0  0  0  0  # atno 11005 bound_to 11000
  145.7673  139.1845  143.2232 LP  0  0  0  0  0  0  0  0  0  0  0  0  # atno 17320 bound_to 7965
  146.0939  140.7624  142.9582 LP  0  0  0  0  0  0  0  0  0  0  0  0  # atno 17321 bound_to 7965
  139.6451  144.0466  152.2584 LP  0  0  0  0  0  0  0  0  0  0  0  0  # atno 17342 bound_to 10162
  139.9984  144.6311  150.7751 LP  0  0  0  0  0  0  0  0  0  0  0  0  # atno 17343 bound_to 10162
  157.0412  130.5750  149.5356 LP  0  0  0  0  0  0  0  0  0  0  0  0  # atno 17370 bound_to 10713
  156.0122  130.5215  150.8025 LP  0  0  0  0  0  0  0  0  0  0  0  0  # atno 17371 bound_to 10713
  140.0599  134.9760  157.1287 LP  0  0  0  0  0  0  0  0  0  0  0  0  # atno 17394 bound_to 11000
  140.3863  134.2232  155.7168 LP  0  0  0  0  0  0  0  0  0  0  0  0  # atno 17395 bound_to 11000

$$$$
