AV-unprocessed.smi:820|AV-procd|sdf|3837|dock5
  -GOLD-   22720 1283D 1   1.00000     0.00000
 Structure written by MMmdl.
 31 32  0  0  0  0  0  0  0  0  2 V2000
  152.8193  143.7046  159.0461 C   0  0  0  0  0  0  0  0  0  0  0  0
  152.5864  142.9760  160.3724 C   0  0  0  0  0  0  0  0  0  0  0  0
  152.7985  141.1817  160.1920 S   0  0  0  0  0  0  0  0  0  0  0  0
  152.2637  140.7476  158.5634 C   0  0  0  0  0  0  0  0  0  0  0  0
  151.0544  141.2546  158.0541 C   0  0  0  0  0  0  0  0  0  0  0  0
  150.6751  140.8772  156.7523 C   0  0  0  0  0  0  0  0  0  0  0  0
  151.5060  140.0158  156.0010 C   0  0  0  0  0  0  0  0  0  0  0  0
  151.1731  139.6282  154.7595 N   0  5  0  0  0  0  0  0  0  0  0  0
  150.0151  140.0508  154.1897 C   0  0  0  0  0  0  0  0  0  0  0  0
  149.8854  141.1336  153.6112 O   0  0  0  0  0  0  0  0  0  0  0  0
  148.8859  139.1308  154.3011 C   0  0  0  0  0  0  0  0  0  0  0  0
  148.7953  138.0621  153.4736 C   0  0  0  0  0  0  0  0  0  0  0  0
  147.7482  137.1744  153.4845 O   0  0  0  0  0  0  0  0  0  0  0  0
  146.6269  137.5906  154.2542 C   0  0  0  0  0  0  0  0  0  0  0  0
  147.0919  138.2423  155.5640 C   0  0  0  0  0  0  0  0  0  0  0  0
  147.9457  139.3457  155.2854 O   0  0  0  0  0  0  0  0  0  0  0  0
  152.6948  139.5697  156.6252 C   0  0  0  0  0  0  0  0  0  0  0  0
  153.0752  139.9205  157.8726 N   0  0  0  0  0  0  0  0  0  0  0  0
  152.6877  144.7800  159.1660 H   0  0  0  0  0  0  0  0  0  0  0  0
  152.1182  143.3656  158.2830 H   0  0  0  0  0  0  0  0  0  0  0  0
  153.8298  143.5316  158.6753 H   0  0  0  0  0  0  0  0  0  0  0  0
  153.2844  143.3422  161.1255 H   0  0  0  0  0  0  0  0  0  0  0  0
  151.5794  143.1802  160.7370 H   0  0  0  0  0  0  0  0  0  0  0  0
  150.4333  141.9138  158.6418 H   0  0  0  0  0  0  0  0  0  0  0  0
  149.7516  141.2494  156.3330 H   0  0  0  0  0  0  0  0  0  0  0  0
  149.5076  137.8203  152.6979 H   0  0  0  0  0  0  0  0  0  0  0  0
  146.0316  138.2937  153.6701 H   0  0  0  0  0  0  0  0  0  0  0  0
  145.9941  136.7273  154.4601 H   0  0  0  0  0  0  0  0  0  0  0  0
  146.2362  138.5907  156.1422 H   0  0  0  0  0  0  0  0  0  0  0  0
  147.6265  137.5201  156.1825 H   0  0  0  0  0  0  0  0  0  0  0  0
  153.3686  138.9061  156.1028 H   0  0  0  0  0  0  0  0  0  0  0  0
  1  2  1  0  0  0  0
  1 19  1  0  0  0  0
  1 20  1  0  0  0  0
  1 21  1  0  0  0  0
  2  3  1  0  0  0  0
  2 22  1  0  0  0  0
  2 23  1  0  0  0  0
  3  4  1  0  0  0  0
  4 18  1  0  0  0  0
  4  5  2  0  0  0  0
  5  6  1  0  0  0  0
  5 24  1  0  0  0  0
  6  7  2  0  0  0  0
  6 25  1  0  0  0  0
  7  8  1  0  0  0  0
  7 17  1  0  0  0  0
  8  9  1  0  0  0  0
  9 10  2  0  0  0  0
  9 11  1  0  0  0  0
 11 16  1  0  0  0  0
 11 12  2  0  0  0  0
 12 13  1  0  0  0  0
 12 26  1  0  0  0  0
 13 14  1  0  0  0  0
 14 15  1  0  0  0  0
 14 27  1  0  0  0  0
 14 28  1  0  0  0  0
 15 16  1  0  0  0  0
 15 29  1  0  0  0  0
 15 30  1  0  0  0  0
 17 18  2  0  0  0  0
 17 31  1  0  0  0  0
M  CHG  1   8  -1
M  END
> <s_m_source_file>
AV-unprocessed.smi

> <i_m_source_file_index>
820

> <i_lp_mmshare_version>
43012

> <i_f3d_flags>
0

> <s_epik_input>
W0NIM11bQ0gyXVNjMVtjSF1bY0hdYyhbY0hdbjEpW05IXUMoPU8pQzI9W0NIXU9bQ0gyXVtDSDJdTzI=

> <s_epik_cmdline>
J2VwaWtfcHl0aG9uJywgJy1waCcsICc3LjAnLCAnLXRuJywgJzgnLCAnLW1hJywgJzIwMCcsICctbWV0YWxfYmluZGluZycsICctaW1hZScsICc8aW5maWxlLm1hZT4nLCAnLW9tYWUnLCAnPG91dGZpbGUubWFlPic=

> <r_lp_tautomer_probability>
1

> <r_epik_Ionization_Penalty>
5.63505

> <r_epik_Ionization_Penalty_Charging>
5.63079

> <r_epik_Ionization_Penalty_Neutral>
0.00426194

> <r_epik_State_Penalty>
5.63074

> <r_epik_Charging_Adjusted_Penalty>
11.2615

> <i_epik_Tot_Q>
-1

> <i_epik_Tot_abs_Q>
1

> <r_epik_Metal_State_Penalty>
1.62037

> <b_epik_Metal_Only>
1

> <s_lp_Force_Field>
OPLS_2005

> <r_lp_Energy>
4.11082

> <b_lp_Chiralities_Consistent>
1

> <s_lp_Variant>
AV-unprocessed.smi:820-2

> <Gold.Version>
5.8.1

> <Gold.Id.Protein>
6NUR|6NUR_protein|mol2

> <Gold.PLP.Fitness>
40.1315

> <Gold.PLP.PLP>
-30.7668

> <Gold.PLP.part.hbond>
-3.9021

> <Gold.PLP.part.metal>
0.0000

> <Gold.PLP.part.buried>
-1.5063

> <Gold.PLP.part.nonpolar>
-25.2988

> <Gold.PLP.part.repulsive>
0.4505

> <Gold.PLP.ligand.clash>
0.0000

> <Gold.PLP.ligand.torsion>
2.5228

> <Gold.PLP.Chemscore.Hbond>
2.6240

> <Gold.PLP.Chemscore.CHOScore>
1.9799

> <Gold.PLP.Chemscore.Metal>
0.0000

> <Gold.Chemscore.Hbonds>
donor molecule, donor type, donor heavy atom, donor atom, acceptor molecule, acceptor atom, score
      P1  H  8011  8017       L1    10  0.91
      L1  C    12    26       P1  7948  0.31
      L1  C    12    26       P1  7957  0.31

> <Gold.PLP.Chemscore.Internal.Correction>
0.5985

> <Gold.Rescore>
     Score         DG    S(hbond)    S(metal)    S(lipo)     H(rot)  DE(clash)    DE(int)     intcor
     13.13     -15.70       1.13        0.00      79.81       1.13       0.11       2.46       ----

> <Gold.Chemscore.Fitness>
13.1320

> <Gold.Chemscore.DG>
-15.7035

> <Gold.Chemscore.ZeroCoef>
-5.4800

> <Gold.Chemscore.Hbond>
1.1297

> <Gold.Chemscore.Metal>
0.0000

> <Gold.Chemscore.Lipo>
79.8050

> <Gold.Chemscore.Internal_Hbond>
0.0000

> <Gold.Chemscore.DEClash>
0.1137

> <Gold.Chemscore.DEInternal>
2.4579

> <Gold.Chemscore.Rot>
1.1277

> <Gold.Chemscore.Internal.Correction>
   9.000000E+99

> <Gold.Chemscore.Hbonds>
donor molecule, donor type, donor heavy atom, donor atom, acceptor molecule, acceptor atom, score
      P1  H  8011  8017       L1    10  0.90

> <Gold.Chemscore.Hbond.Weighted>
-3.7733

> <Gold.Chemscore.Metal.Weighted>
-0.0000

> <Gold.Chemscore.Lipo.Weighted>
-9.3372

> <Gold.Chemscore.Internal_Hbond.Weighted>
0.0000

> <Gold.Chemscore.DEClash.Weighted>
0.1137

> <Gold.Chemscore.DEInternal.Weighted>
2.4579

> <Gold.Chemscore.Rot.Weighted>
2.8870

> <Gold.Chemscore.Internal.Correction.Weighted>
   9.000000E+99

> <Gold.Protein.RotatedTorsions>
[ 6907 6896 6895 6894 ] final -113.41 input  -60.11 | X-H torsion
[ 7974 7965 7964 7962 ] final -145.45 input  175.53 | X-H torsion
[ 8008 7997 7996 7995 ] final  159.65 input   59.86 | X-H torsion
[ 10167 10162 10161 10158 ] final   21.69 input  -65.29 | X-H torsion
[ 10718 10713 10712 10709 ] final   29.72 input   66.30 | X-H torsion
[ 10763 10752 10751 10750 ] final  -55.68 input  -60.55 | X-H torsion
[ 11005 11000 10999 10996 ] final -176.66 input  -57.11 | X-H torsion

> <Gold.Protein.ActiveResidues>
 VAL166  LYS551  ARG553  GLY616  TRP617  ASP618  TYR619  PRO620  LYS621  CYS622 
 ASP623  PHE694  ASN695  SER759  ASP760  ASP761  ALA762  ILE779  LEU786  VAL792 
 PHE793  MET794  SER795  GLU796  ALA797  LYS798  CYS799  TRP800  GLU811  SER814 

> <Gold.Protein.RotatedAtoms>
  150.7827  133.8949  159.3323 H   0  0  0  0  0  0  0  0  0  0  0  0  # atno 6907 bound_to 6896
  151.6808  135.0960  160.0225 H   0  0  0  0  0  0  0  0  0  0  0  0  # atno 6908 bound_to 6896
  152.3883  133.6603  159.6252 H   0  0  0  0  0  0  0  0  0  0  0  0  # atno 6909 bound_to 6896
  144.8226  140.5581  143.5568 H   0  0  0  0  0  0  0  0  0  0  0  0  # atno 7974 bound_to 7965
  156.2225  140.1825  156.7444 H   0  0  0  0  0  0  0  0  0  0  0  0  # atno 8008 bound_to 7997
  154.5887  140.0654  156.9237 H   0  0  0  0  0  0  0  0  0  0  0  0  # atno 8009 bound_to 7997
  155.2374  140.3319  155.4298 H   0  0  0  0  0  0  0  0  0  0  0  0  # atno 8010 bound_to 7997
  140.5407  143.9682  150.6518 H   0  0  0  0  0  0  0  0  0  0  0  0  # atno 10167 bound_to 10162
  157.2503  130.7112  149.6402 H   0  0  0  0  0  0  0  0  0  0  0  0  # atno 10718 bound_to 10713
  154.1946  135.6421  153.5069 H   0  0  0  0  0  0  0  0  0  0  0  0  # atno 10763 bound_to 10752
  153.0027  135.5437  154.6379 H   0  0  0  0  0  0  0  0  0  0  0  0  # atno 10764 bound_to 10752
  154.5777  135.2922  155.0737 H   0  0  0  0  0  0  0  0  0  0  0  0  # atno 10765 bound_to 10752
  140.4496  134.6356  157.4795 H   0  0  0  0  0  0  0  0  0  0  0  0  # atno 11005 bound_to 11000
  145.5071  139.1481  143.3625 LP  0  0  0  0  0  0  0  0  0  0  0  0  # atno 17320 bound_to 7965
  146.2532  140.5211  142.8885 LP  0  0  0  0  0  0  0  0  0  0  0  0  # atno 17321 bound_to 7965
  140.3081  143.3216  152.0906 LP  0  0  0  0  0  0  0  0  0  0  0  0  # atno 17342 bound_to 10162
  139.4988  144.6654  151.6369 LP  0  0  0  0  0  0  0  0  0  0  0  0  # atno 17343 bound_to 10162
  155.9666  130.4430  150.5402 LP  0  0  0  0  0  0  0  0  0  0  0  0  # atno 17370 bound_to 10713
  157.3285  131.0695  151.1879 LP  0  0  0  0  0  0  0  0  0  0  0  0  # atno 17371 bound_to 10713
  140.0016  134.6828  155.9522 LP  0  0  0  0  0  0  0  0  0  0  0  0  # atno 17394 bound_to 11000
  141.1670  133.6537  156.4514 LP  0  0  0  0  0  0  0  0  0  0  0  0  # atno 17395 bound_to 11000

$$$$
