AV-unprocessed.smi:1123|AV-procd|sdf|4830|dock1
  -GOLD-   22720 3393D 1   1.00000     0.00000
 Structure written by MMmdl.
 37 38  0  0  0  0  0  0  0  0  1 V2000
  147.2135  142.0431  154.4312 C   0  0  0  0  0  0  0  0  0  0  0  0
  148.2709  141.0882  153.8406 C   0  0  1  0  0  0  0  0  0  0  0  0
  149.6272  141.1790  154.5592 C   0  0  0  0  0  0  0  0  0  0  0  0
  150.5470  140.4134  154.2682 O   0  0  0  0  0  0  0  0  0  0  0  0
  149.7364  142.1271  155.5038 N   0  0  0  0  0  0  0  0  0  0  0  0
  150.9332  142.3901  156.2930 C   0  0  0  0  0  0  0  0  0  0  0  0
  151.0162  141.4559  157.5149 C   0  0  0  0  0  0  0  0  0  0  0  0
  152.1167  141.7402  158.4340 N   0  0  0  0  0  0  0  0  0  0  0  0
  152.3920  140.6310  159.3449 C   0  0  0  0  0  0  0  0  0  0  0  0
  153.5332  140.9609  160.3234 C   0  0  0  0  0  0  0  0  0  0  0  0
  153.2193  142.1470  161.0457 O   0  0  0  0  0  0  0  0  0  0  0  0
  152.9907  143.2637  160.1927 C   0  0  0  0  0  0  0  0  0  0  0  0
  151.8447  142.9401  159.2186 C   0  0  0  0  0  0  0  0  0  0  0  0
  147.8041  139.7074  153.8092 N   0  0  0  0  0  0  0  0  0  0  0  0
  146.8006  139.1565  153.1228 C   0  0  0  0  0  0  0  0  0  0  0  0
  146.6799  137.8486  153.3007 N   0  0  0  0  0  0  0  0  0  0  0  0
  147.7192  137.6390  154.1619 C   0  0  0  0  0  0  0  0  0  0  0  0
  148.4312  138.7165  154.4912 N   0  0  0  0  0  0  0  0  0  0  0  0
  147.5548  143.0782  154.3943 H   0  0  0  0  0  0  0  0  0  0  0  0
  146.9838  141.8082  155.4714 H   0  0  0  0  0  0  0  0  0  0  0  0
  146.2821  141.9867  153.8674 H   0  0  0  0  0  0  0  0  0  0  0  0
  148.4359  141.3934  152.8059 H   0  0  0  0  0  0  0  0  0  0  0  0
  148.9343  142.7132  155.6836 H   0  0  0  0  0  0  0  0  0  0  0  0
  151.7904  142.2450  155.6364 H   0  0  0  0  0  0  0  0  0  0  0  0
  150.9530  143.4348  156.6074 H   0  0  0  0  0  0  0  0  0  0  0  0
  150.0773  141.5397  158.0637 H   0  0  0  0  0  0  0  0  0  0  0  0
  151.0739  140.4192  157.1799 H   0  0  0  0  0  0  0  0  0  0  0  0
  151.4923  140.3842  159.9105 H   0  0  0  0  0  0  0  0  0  0  0  0
  152.6649  139.7381  158.7842 H   0  0  0  0  0  0  0  0  0  0  0  0
  153.6779  140.1419  161.0278 H   0  0  0  0  0  0  0  0  0  0  0  0
  154.4744  141.0924  159.7874 H   0  0  0  0  0  0  0  0  0  0  0  0
  152.7381  144.1319  160.8012 H   0  0  0  0  0  0  0  0  0  0  0  0
  153.9040  143.5079  159.6480 H   0  0  0  0  0  0  0  0  0  0  0  0
  151.6888  143.7900  158.5534 H   0  0  0  0  0  0  0  0  0  0  0  0
  150.9192  142.8120  159.7821 H   0  0  0  0  0  0  0  0  0  0  0  0
  146.1466  139.7235  152.4768 H   0  0  0  0  0  0  0  0  0  0  0  0
  147.9621  136.6621  154.5532 H   0  0  0  0  0  0  0  0  0  0  0  0
  1  2  1  0  0  0  0
  1 19  1  0  0  0  0
  1 20  1  0  0  0  0
  1 21  1  0  0  0  0
  2  3  1  0  0  0  0
  2 14  1  0  0  0  0
  2 22  1  0  0  0  0
  3  4  2  0  0  0  0
  3  5  1  0  0  0  0
  5  6  1  0  0  0  0
  5 23  1  0  0  0  0
  6  7  1  0  0  0  0
  6 24  1  0  0  0  0
  6 25  1  0  0  0  0
  7  8  1  0  0  0  0
  7 26  1  0  0  0  0
  7 27  1  0  0  0  0
  8 13  1  0  0  0  0
  8  9  1  0  0  0  0
  9 10  1  0  0  0  0
  9 28  1  0  0  0  0
  9 29  1  0  0  0  0
 10 11  1  0  0  0  0
 10 30  1  0  0  0  0
 10 31  1  0  0  0  0
 11 12  1  0  0  0  0
 12 13  1  0  0  0  0
 12 32  1  0  0  0  0
 12 33  1  0  0  0  0
 13 34  1  0  0  0  0
 13 35  1  0  0  0  0
 14 18  1  0  0  0  0
 14 15  1  0  0  0  0
 15 16  2  0  0  0  0
 15 36  1  0  0  0  0
 16 17  1  0  0  0  0
 17 18  2  0  0  0  0
 17 37  1  0  0  0  0
M  END
> <s_m_source_file>
AV-unprocessed.smi

> <i_m_source_file_index>
1123

> <i_lp_mmshare_version>
43012

> <i_f3d_flags>
0

> <s_epik_input>
bjFbY0hdbltjSF1uMVtDQEhdKFtDSDNdKUMoPU8pW05IXVtDSDJdW0NIMl1OMltDSDJdW0NIMl1PW0NIMl1bQ0gyXTI=

> <s_epik_cmdline>
J2VwaWtfcHl0aG9uJywgJy1waCcsICc3LjAnLCAnLXRuJywgJzgnLCAnLW1hJywgJzIwMCcsICctbWV0YWxfYmluZGluZycsICctaW1hZScsICc8aW5maWxlLm1hZT4nLCAnLW9tYWUnLCAnPG91dGZpbGUubWFlPic=

> <r_lp_tautomer_probability>
1

> <r_epik_Ionization_Penalty>
0.211373

> <r_epik_Ionization_Penalty_Charging>
0

> <r_epik_Ionization_Penalty_Neutral>
0.211373

> <r_epik_State_Penalty>
0.201459

> <r_epik_Charging_Adjusted_Penalty>
0.201459

> <i_epik_Tot_Q>
0

> <i_epik_Tot_abs_Q>
0

> <r_epik_Metal_State_Penalty>
0.201458

> <b_epik_Metal_Only>
0

> <s_lp_Force_Field>
OPLS_2005

> <r_lp_Energy>
26.9465

> <b_lp_Chiralities_Consistent>
1

> <s_lp_Variant>
AV-unprocessed.smi:1123-2

> <Gold.Version>
5.8.1

> <Gold.Id.Protein>
6NUR|6NUR_protein|mol2

> <Gold.PLP.Fitness>
38.8474

> <Gold.PLP.PLP>
-31.9286

> <Gold.PLP.part.hbond>
-2.0000

> <Gold.PLP.part.metal>
0.0000

> <Gold.PLP.part.buried>
-5.0603

> <Gold.PLP.part.nonpolar>
-25.1924

> <Gold.PLP.part.repulsive>
0.5415

> <Gold.PLP.ligand.clash>
0.2655

> <Gold.PLP.ligand.torsion>
0.5398

> <Gold.PLP.Chemscore.Hbond>
1.7040

> <Gold.PLP.Chemscore.CHOScore>
1.0000

> <Gold.PLP.Chemscore.Metal>
0.0000

> <Gold.Chemscore.Hbonds>
donor molecule, donor type, donor heavy atom, donor atom, acceptor molecule, acceptor atom, score
      L1  H     5    23       P1  8028  0.54
      P1  H  7989  7998       L1     4  0.68
      L1  C    15    36       P1 10175  0.90
      L1  C    17    37       P1  7948  0.01

> <Gold.PLP.Chemscore.Internal.Correction>
0.1518

> <Gold.Rescore>
     Score         DG    S(hbond)    S(metal)    S(lipo)     H(rot)  DE(clash)    DE(int)     intcor
     10.82     -11.85       1.43        0.00      70.67       2.61       0.06       0.97       ----

> <Gold.Chemscore.Fitness>
10.8241

> <Gold.Chemscore.DG>
-11.8542

> <Gold.Chemscore.ZeroCoef>
-5.4800

> <Gold.Chemscore.Hbond>
1.4330

> <Gold.Chemscore.Metal>
0.0000

> <Gold.Chemscore.Lipo>
70.6724

> <Gold.Chemscore.Internal_Hbond>
0.0000

> <Gold.Chemscore.DEClash>
0.0638

> <Gold.Chemscore.DEInternal>
0.9663

> <Gold.Chemscore.Rot>
2.6097

> <Gold.Chemscore.Internal.Correction>
   9.000000E+99

> <Gold.Chemscore.Hbonds>
donor molecule, donor type, donor heavy atom, donor atom, acceptor molecule, acceptor atom, score
      L1  H     5    23       P1  8028  0.52
      P1  H  7989  7998       L1     4  0.62

> <Gold.Chemscore.Hbond.Weighted>
-4.7864

> <Gold.Chemscore.Metal.Weighted>
-0.0000

> <Gold.Chemscore.Lipo.Weighted>
-8.2687

> <Gold.Chemscore.Internal_Hbond.Weighted>
0.0000

> <Gold.Chemscore.DEClash.Weighted>
0.0638

> <Gold.Chemscore.DEInternal.Weighted>
0.9663

> <Gold.Chemscore.Rot.Weighted>
6.6809

> <Gold.Chemscore.Internal.Correction.Weighted>
   9.000000E+99

> <Gold.Protein.RotatedTorsions>
[ 6907 6896 6895 6894 ] final   29.69 input  -60.11 | X-H torsion
[ 7974 7965 7964 7962 ] final -156.68 input  175.53 | X-H torsion
[ 8008 7997 7996 7995 ] final  136.70 input   59.86 | X-H torsion
[ 10167 10162 10161 10158 ] final -168.27 input  -65.29 | X-H torsion
[ 10718 10713 10712 10709 ] final  -27.36 input   66.30 | X-H torsion
[ 10763 10752 10751 10750 ] final  124.35 input  -60.55 | X-H torsion
[ 11005 11000 10999 10996 ] final   26.76 input  -57.11 | X-H torsion

> <Gold.Protein.ActiveResidues>
 VAL166  LYS551  ARG553  GLY616  TRP617  ASP618  TYR619  PRO620  LYS621  CYS622 
 ASP623  PHE694  ASN695  SER759  ASP760  ASP761  ALA762  ILE779  LEU786  VAL792 
 PHE793  MET794  SER795  GLU796  ALA797  LYS798  CYS799  TRP800  GLU811  SER814 

> <Gold.Protein.RotatedAtoms>
  152.0352  134.9744  160.0572 H   0  0  0  0  0  0  0  0  0  0  0  0  # atno 6907 bound_to 6896
  152.1204  133.4345  159.4681 H   0  0  0  0  0  0  0  0  0  0  0  0  # atno 6908 bound_to 6896
  150.6849  134.2460  159.4535 H   0  0  0  0  0  0  0  0  0  0  0  0  # atno 6909 bound_to 6896
  144.7582  140.4076  143.5996 H   0  0  0  0  0  0  0  0  0  0  0  0  # atno 7974 bound_to 7965
  156.3003  140.2438  156.3788 H   0  0  0  0  0  0  0  0  0  0  0  0  # atno 8008 bound_to 7997
  154.8720  140.0416  157.1750 H   0  0  0  0  0  0  0  0  0  0  0  0  # atno 8009 bound_to 7997
  154.8785  140.2945  155.5443 H   0  0  0  0  0  0  0  0  0  0  0  0  # atno 8010 bound_to 7997
  139.5996  144.1039  152.1728 H   0  0  0  0  0  0  0  0  0  0  0  0  # atno 10167 bound_to 10162
  156.4391  130.4460  149.7065 H   0  0  0  0  0  0  0  0  0  0  0  0  # atno 10718 bound_to 10713
  153.6600  135.3348  155.3124 H   0  0  0  0  0  0  0  0  0  0  0  0  # atno 10763 bound_to 10752
  154.8517  135.4361  154.1814 H   0  0  0  0  0  0  0  0  0  0  0  0  # atno 10764 bound_to 10752
  153.2778  135.7006  153.7491 H   0  0  0  0  0  0  0  0  0  0  0  0  # atno 10765 bound_to 10752
  140.3336  134.2410  155.7699 H   0  0  0  0  0  0  0  0  0  0  0  0  # atno 11005 bound_to 11000
  145.6707  139.1598  143.2756 LP  0  0  0  0  0  0  0  0  0  0  0  0  # atno 17320 bound_to 7965
  146.1616  140.6779  142.9274 LP  0  0  0  0  0  0  0  0  0  0  0  0  # atno 17321 bound_to 7965
  140.0632  144.5840  150.7247 LP  0  0  0  0  0  0  0  0  0  0  0  0  # atno 17342 bound_to 10162
  140.7239  143.2616  151.4186 LP  0  0  0  0  0  0  0  0  0  0  0  0  # atno 17343 bound_to 10162
  156.3937  130.7640  151.2643 LP  0  0  0  0  0  0  0  0  0  0  0  0  # atno 17370 bound_to 10713
  157.7507  131.0260  150.3945 LP  0  0  0  0  0  0  0  0  0  0  0  0  # atno 17371 bound_to 10713
  141.2057  133.7853  157.0218 LP  0  0  0  0  0  0  0  0  0  0  0  0  # atno 17394 bound_to 11000
  140.0840  134.9632  157.1670 LP  0  0  0  0  0  0  0  0  0  0  0  0  # atno 17395 bound_to 11000

$$$$
