AV-unprocessed.smi:2198|AV-procd|sdf|8912|dock8
  -GOLD-   2272012133D 1   1.00000     0.00000
 Structure written by MMmdl.
 43 44  0  0  0  0  0  0  0  0  1 V2000
  144.1841  143.1642  158.5391 C   0  0  0  0  0  0  0  0  0  0  0  0
  145.2931  142.7099  157.6137 C   0  0  0  0  0  0  0  0  0  0  0  0
  145.2819  142.8875  156.3335 N   0  0  0  0  0  0  0  0  0  0  0  0
  146.3683  142.4226  155.5793 C   0  0  0  0  0  0  0  0  0  0  0  0
  146.2850  142.6741  154.0835 C   0  0  0  0  0  0  0  0  0  0  0  0
  147.4259  141.7875  156.1641 C   0  0  0  0  0  0  0  0  0  0  0  0
  148.6257  141.2715  155.3704 C   0  0  0  0  0  0  0  0  0  0  0  0
  149.9983  141.4538  156.0235 C   0  0  0  0  0  0  0  0  0  0  0  0
  150.8544  140.5720  155.9436 O   0  0  0  0  0  0  0  0  0  0  0  0
  150.1889  142.6099  156.6766 N   0  0  0  0  0  0  0  0  0  0  0  0
  151.4049  142.9829  157.3925 C   0  0  1  0  0  0  0  0  0  0  0  0
  151.1761  144.3045  158.1474 C   0  0  0  0  0  0  0  0  0  0  0  0
  152.4176  144.7036  158.9593 C   0  0  0  0  0  0  0  0  0  0  0  0
  152.8330  143.5854  159.9282 C   0  0  0  0  0  0  0  0  0  0  0  0
  153.0681  142.2536  159.1896 C   0  0  1  0  0  0  0  0  0  0  0  0
  153.4687  141.1359  160.1634 C   0  0  0  0  0  0  0  0  0  0  0  0
  151.8247  141.8627  158.3670 C   0  0  0  0  0  0  0  0  0  0  0  0
  147.4289  141.5911  157.6267 C   0  0  0  0  0  0  0  0  0  0  0  0
  148.3318  141.0402  158.2546 O   0  0  0  0  0  0  0  0  0  0  0  0
  146.3434  142.0729  158.2726 N   0  0  0  0  0  0  0  0  0  0  0  0
  146.2991  141.9648  159.2755 H   0  0  0  0  0  0  0  0  0  0  0  0
  144.0574  144.2449  158.4701 H   0  0  0  0  0  0  0  0  0  0  0  0
  144.3976  142.9112  159.5785 H   0  0  0  0  0  0  0  0  0  0  0  0
  143.2436  142.6898  158.2591 H   0  0  0  0  0  0  0  0  0  0  0  0
  146.2249  141.7307  153.5406 H   0  0  0  0  0  0  0  0  0  0  0  0
  147.1607  143.2212  153.7341 H   0  0  0  0  0  0  0  0  0  0  0  0
  145.4025  143.2625  153.8297 H   0  0  0  0  0  0  0  0  0  0  0  0
  148.4966  140.2154  155.1301 H   0  0  0  0  0  0  0  0  0  0  0  0
  148.6435  141.7756  154.4040 H   0  0  0  0  0  0  0  0  0  0  0  0
  149.4314  143.2776  156.6880 H   0  0  0  0  0  0  0  0  0  0  0  0
  152.2081  143.1415  156.6701 H   0  0  0  0  0  0  0  0  0  0  0  0
  150.9269  145.0996  157.4436 H   0  0  0  0  0  0  0  0  0  0  0  0
  150.3217  144.2060  158.8190 H   0  0  0  0  0  0  0  0  0  0  0  0
  153.2421  144.9248  158.2803 H   0  0  0  0  0  0  0  0  0  0  0  0
  152.2195  145.6212  159.5139 H   0  0  0  0  0  0  0  0  0  0  0  0
  153.7380  143.8817  160.4594 H   0  0  0  0  0  0  0  0  0  0  0  0
  152.0588  143.4559  160.6860 H   0  0  0  0  0  0  0  0  0  0  0  0
  153.8971  142.3964  158.4949 H   0  0  0  0  0  0  0  0  0  0  0  0
  152.6810  140.9440  160.8925 H   0  0  0  0  0  0  0  0  0  0  0  0
  154.3731  141.3991  160.7127 H   0  0  0  0  0  0  0  0  0  0  0  0
  153.6649  140.2039  159.6328 H   0  0  0  0  0  0  0  0  0  0  0  0
  150.9976  141.6354  159.0415 H   0  0  0  0  0  0  0  0  0  0  0  0
  152.0283  140.9463  157.8115 H   0  0  0  0  0  0  0  0  0  0  0  0
  1  2  1  0  0  0  0
  1 22  1  0  0  0  0
  1 23  1  0  0  0  0
  1 24  1  0  0  0  0
  2 20  1  0  0  0  0
  2  3  2  0  0  0  0
  3  4  1  0  0  0  0
  4  5  1  0  0  0  0
  4  6  2  0  0  0  0
  5 25  1  0  0  0  0
  5 26  1  0  0  0  0
  5 27  1  0  0  0  0
  6  7  1  0  0  0  0
  6 18  1  0  0  0  0
  7  8  1  0  0  0  0
  7 28  1  0  0  0  0
  7 29  1  0  0  0  0
  8  9  2  0  0  0  0
  8 10  1  0  0  0  0
 10 11  1  0  0  0  0
 10 30  1  0  0  0  0
 11 17  1  0  0  0  0
 11 12  1  0  0  0  0
 11 31  1  0  0  0  0
 12 13  1  0  0  0  0
 12 32  1  0  0  0  0
 12 33  1  0  0  0  0
 13 14  1  0  0  0  0
 13 34  1  0  0  0  0
 13 35  1  0  0  0  0
 14 15  1  0  0  0  0
 14 36  1  0  0  0  0
 14 37  1  0  0  0  0
 15 16  1  0  0  0  0
 15 17  1  0  0  0  0
 15 38  1  0  0  0  0
 16 39  1  0  0  0  0
 16 40  1  0  0  0  0
 16 41  1  0  0  0  0
 17 42  1  0  0  0  0
 17 43  1  0  0  0  0
 18 19  2  0  0  0  0
 18 20  1  0  0  0  0
 20 21  1  0  0  0  0
M  END
> <s_m_source_file>
AV-unprocessed.smi

> <i_m_source_file_index>
2198

> <i_lp_mmshare_version>
43012

> <i_f3d_flags>
0

> <s_epik_input>
W0NIM11jMW5jKFtDSDNdKWMoYyg9TylbbkhdMSlbQ0gyXUMoPU8pW05IXVtDQEBIXTJbQ0gyXVtDSDJdW0NIMl1bQ0BASF0oW0NIM10pW0NIMl0y

> <s_epik_cmdline>
J2VwaWtfcHl0aG9uJywgJy1waCcsICc3LjAnLCAnLXRuJywgJzgnLCAnLW1hJywgJzIwMCcsICctbWV0YWxfYmluZGluZycsICctaW1hZScsICc8aW5maWxlLm1hZT4nLCAnLW9tYWUnLCAnPG91dGZpbGUubWFlPic=

> <r_lp_tautomer_probability>
0.839158

> <r_epik_Ionization_Penalty>
0.000372587

> <r_epik_Ionization_Penalty_Charging>
0.000337977

> <r_epik_Ionization_Penalty_Neutral>
3.46101e-05

> <r_epik_State_Penalty>
0.09125

> <r_epik_Charging_Adjusted_Penalty>
0.091588

> <i_epik_Tot_Q>
0

> <i_epik_Tot_abs_Q>
0

> <r_epik_Metal_State_Penalty>
0.25197

> <b_epik_Metal_Only>
0

> <s_lp_Force_Field>
OPLS_2005

> <r_lp_Energy>
10.3452

> <b_lp_Chiralities_Consistent>
1

> <s_lp_Variant>
AV-unprocessed.smi:2198-2

> <Gold.Version>
5.8.1

> <Gold.Id.Protein>
6NUR|6NUR_protein|mol2

> <Gold.PLP.Fitness>
41.1760

> <Gold.PLP.PLP>
-39.4729

> <Gold.PLP.part.hbond>
-1.6833

> <Gold.PLP.part.metal>
0.0000

> <Gold.PLP.part.buried>
-4.6527

> <Gold.PLP.part.nonpolar>
-32.4170

> <Gold.PLP.part.repulsive>
0.3283

> <Gold.PLP.ligand.clash>
0.0000

> <Gold.PLP.ligand.torsion>
0.6502

> <Gold.PLP.Chemscore.Hbond>
1.0000

> <Gold.PLP.Chemscore.CHOScore>
0.0000

> <Gold.PLP.Chemscore.Metal>
0.0000

> <Gold.Chemscore.Hbonds>
donor molecule, donor type, donor heavy atom, donor atom, acceptor molecule, acceptor atom, score
      L1  H    10    30       P1  8028  0.75

> <Gold.PLP.Chemscore.Internal.Correction>
0.0033

> <Gold.Rescore>
     Score         DG    S(hbond)    S(metal)    S(lipo)     H(rot)  DE(clash)    DE(int)     intcor
     14.53     -17.23       1.01        0.00     103.87       1.48       0.20       2.49       ----

> <Gold.Chemscore.Fitness>
14.5300

> <Gold.Chemscore.DG>
-17.2290

> <Gold.Chemscore.ZeroCoef>
-5.4800

> <Gold.Chemscore.Hbond>
1.0134

> <Gold.Chemscore.Metal>
0.0000

> <Gold.Chemscore.Lipo>
103.8745

> <Gold.Chemscore.Internal_Hbond>
0.0000

> <Gold.Chemscore.DEClash>
0.2042

> <Gold.Chemscore.DEInternal>
2.4948

> <Gold.Chemscore.Rot>
1.4801

> <Gold.Chemscore.Internal.Correction>
   9.000000E+99

> <Gold.Chemscore.Hbonds>
donor molecule, donor type, donor heavy atom, donor atom, acceptor molecule, acceptor atom, score
      L1  H    10    30       P1  8028  0.74

> <Gold.Chemscore.Hbond.Weighted>
-3.3849

> <Gold.Chemscore.Metal.Weighted>
-0.0000

> <Gold.Chemscore.Lipo.Weighted>
-12.1533

> <Gold.Chemscore.Internal_Hbond.Weighted>
0.0000

> <Gold.Chemscore.DEClash.Weighted>
0.2042

> <Gold.Chemscore.DEInternal.Weighted>
2.4948

> <Gold.Chemscore.Rot.Weighted>
3.7891

> <Gold.Chemscore.Internal.Correction.Weighted>
   9.000000E+99

> <Gold.Protein.RotatedTorsions>
[ 6907 6896 6895 6894 ] final   85.65 input  -60.11 | X-H torsion
[ 7974 7965 7964 7962 ] final   13.20 input  175.53 | X-H torsion
[ 8008 7997 7996 7995 ] final  119.20 input   59.86 | X-H torsion
[ 10167 10162 10161 10158 ] final -178.88 input  -65.29 | X-H torsion
[ 10718 10713 10712 10709 ] final -134.97 input   66.30 | X-H torsion
[ 10763 10752 10751 10750 ] final  -16.05 input  -60.55 | X-H torsion
[ 11005 11000 10999 10996 ] final   44.69 input  -57.11 | X-H torsion

> <Gold.Protein.ActiveResidues>
 VAL166  LYS551  ARG553  GLY616  TRP617  ASP618  TYR619  PRO620  LYS621  CYS622 
 ASP623  PHE694  ASN695  SER759  ASP760  ASP761  ALA762  ILE779  LEU786  VAL792 
 PHE793  MET794  SER795  GLU796  ALA797  LYS798  CYS799  TRP800  GLU811  SER814 

> <Gold.Protein.RotatedAtoms>
  152.5379  134.2554  159.8914 H   0  0  0  0  0  0  0  0  0  0  0  0  # atno 6907 bound_to 6896
  151.2516  133.4341  159.2619 H   0  0  0  0  0  0  0  0  0  0  0  0  # atno 6908 bound_to 6896
  151.0534  134.9702  159.8279 H   0  0  0  0  0  0  0  0  0  0  0  0  # atno 6909 bound_to 6896
  146.2334  139.9223  142.8508 H   0  0  0  0  0  0  0  0  0  0  0  0  # atno 7974 bound_to 7965
  156.2584  140.2858  156.0954 H   0  0  0  0  0  0  0  0  0  0  0  0  # atno 8008 bound_to 7997
  155.1418  140.0395  157.2817 H   0  0  0  0  0  0  0  0  0  0  0  0  # atno 8009 bound_to 7997
  154.6524  140.2548  155.7205 H   0  0  0  0  0  0  0  0  0  0  0  0  # atno 8010 bound_to 7997
  139.5411  144.2359  152.0898 H   0  0  0  0  0  0  0  0  0  0  0  0  # atno 10167 bound_to 10162
  156.2611  130.7210  151.1145 H   0  0  0  0  0  0  0  0  0  0  0  0  # atno 10718 bound_to 10713
  153.5527  135.7011  153.5584 H   0  0  0  0  0  0  0  0  0  0  0  0  # atno 10763 bound_to 10752
  153.3501  135.3997  155.1639 H   0  0  0  0  0  0  0  0  0  0  0  0  # atno 10764 bound_to 10752
  154.8659  135.3763  154.5039 H   0  0  0  0  0  0  0  0  0  0  0  0  # atno 10765 bound_to 10752
  140.1529  134.4439  155.8370 H   0  0  0  0  0  0  0  0  0  0  0  0  # atno 11005 bound_to 11000
  145.2124  140.9901  143.4093 LP  0  0  0  0  0  0  0  0  0  0  0  0  # atno 17320 bound_to 7965
  144.9679  139.3910  143.6323 LP  0  0  0  0  0  0  0  0  0  0  0  0  # atno 17321 bound_to 7965
  140.1838  144.4818  150.6514 LP  0  0  0  0  0  0  0  0  0  0  0  0  # atno 17342 bound_to 10162
  140.6642  143.2262  151.5784 LP  0  0  0  0  0  0  0  0  0  0  0  0  # atno 17343 bound_to 10162
  157.7251  131.0655  150.5968 LP  0  0  0  0  0  0  0  0  0  0  0  0  # atno 17370 bound_to 10713
  156.6055  130.4366  149.5880 LP  0  0  0  0  0  0  0  0  0  0  0  0  # atno 17371 bound_to 10713
  141.2201  133.6880  156.7454 LP  0  0  0  0  0  0  0  0  0  0  0  0  # atno 17394 bound_to 11000
  140.2583  134.8487  157.3734 LP  0  0  0  0  0  0  0  0  0  0  0  0  # atno 17395 bound_to 11000

$$$$
