AV-unprocessed.smi:99|AV-procd|sdf|871|dock9
  -GOLD-   2262017333D 1   1.00000     0.00000
 Structure written by MMmdl.
 53 56  0  0  0  0  0  0  0  0  1 V2000
  147.1870  132.5535  158.4221 O   0  0  0  0  0  0  0  0  0  0  0  0
  147.6740  133.6541  158.6895 C   0  0  0  0  0  0  0  0  0  0  0  0
  148.4347  134.3609  157.8306 O   0  0  0  0  0  0  0  0  0  0  0  0
  149.0703  133.7072  156.7448 C   0  0  0  0  0  0  0  0  0  0  0  0
  149.3958  134.7336  155.6555 C   0  0  2  0  0  0  0  0  0  0  0  0
  150.4749  135.5549  156.0709 O   0  0  0  0  0  0  0  0  0  0  0  0
  150.4203  136.7644  155.3837 C   0  0  2  0  0  0  0  0  0  0  0  0
  150.8709  137.8529  156.3335 N   0  0  0  0  0  0  0  0  0  0  0  0
  151.0381  137.5809  157.6845 C   0  0  0  0  0  0  0  0  0  0  0  0
  151.4497  138.5090  158.5802 C   0  0  0  0  0  0  0  0  0  0  0  0
  151.7444  139.8720  158.1496 C   0  0  0  0  0  0  0  0  0  0  0  0
  152.1251  140.7808  158.8845 O   0  0  0  0  0  0  0  0  0  0  0  0
  151.5594  140.1017  156.7829 N   0  0  0  0  0  0  0  0  0  0  0  0
  151.1324  139.1542  155.8506 C   0  0  0  0  0  0  0  0  0  0  0  0
  150.9923  139.4745  154.6709 O   0  0  0  0  0  0  0  0  0  0  0  0
  148.9764  136.9570  154.8664 C   0  0  2  0  0  0  0  0  0  0  0  0
  148.3372  138.1414  155.3081 O   0  0  0  0  0  0  0  0  0  0  0  0
  148.2586  135.7256  155.4086 C   0  0  1  0  0  0  0  0  0  0  0  0
  147.3672  135.1918  154.4370 O   0  0  0  0  0  0  0  0  0  0  0  0
  146.3195  135.9172  153.9901 C   0  0  0  0  0  0  0  0  0  0  0  0
  145.9256  136.9525  154.5304 O   0  0  0  0  0  0  0  0  0  0  0  0
  145.6911  135.3373  152.7685 C   0  0  0  0  0  0  0  0  0  0  0  0
  144.7975  136.1271  152.0081 C   0  0  0  0  0  0  0  0  0  0  0  0
  144.1932  135.6094  150.8461 C   0  0  0  0  0  0  0  0  0  0  0  0
  144.4763  134.2958  150.4293 C   0  0  0  0  0  0  0  0  0  0  0  0
  145.3637  133.4998  151.1769 C   0  0  0  0  0  0  0  0  0  0  0  0
  145.9680  134.0154  152.3403 C   0  0  0  0  0  0  0  0  0  0  0  0
  147.4831  134.3425  159.9989 C   0  0  0  0  0  0  0  0  0  0  0  0
  146.8455  133.6537  161.0572 C   0  0  0  0  0  0  0  0  0  0  0  0
  146.6501  134.2777  162.3046 C   0  0  0  0  0  0  0  0  0  0  0  0
  147.0891  135.5987  162.5091 C   0  0  0  0  0  0  0  0  0  0  0  0
  147.7242  136.2951  161.4642 C   0  0  0  0  0  0  0  0  0  0  0  0
  147.9207  135.6726  160.2161 C   0  0  0  0  0  0  0  0  0  0  0  0
  151.7472  141.0333  156.4418 H   0  0  0  0  0  0  0  0  0  0  0  0
  149.9897  133.2417  157.1026 H   0  0  0  0  0  0  0  0  0  0  0  0
  148.4339  132.9167  156.3442 H   0  0  0  0  0  0  0  0  0  0  0  0
  149.6713  134.2406  154.7211 H   0  0  0  0  0  0  0  0  0  0  0  0
  151.1452  136.7097  154.5703 H   0  0  0  0  0  0  0  0  0  0  0  0
  150.8244  136.5855  158.0477 H   0  0  0  0  0  0  0  0  0  0  0  0
  151.5609  138.2421  159.6213 H   0  0  0  0  0  0  0  0  0  0  0  0
  149.0086  136.9442  153.7760 H   0  0  0  0  0  0  0  0  0  0  0  0
  147.6850  137.9095  155.9519 H   0  0  0  0  0  0  0  0  0  0  0  0
  147.7666  135.9493  156.3571 H   0  0  0  0  0  0  0  0  0  0  0  0
  144.5651  137.1392  152.3074 H   0  0  0  0  0  0  0  0  0  0  0  0
  143.5124  136.2222  150.2737 H   0  0  0  0  0  0  0  0  0  0  0  0
  144.0140  133.8996  149.5371 H   0  0  0  0  0  0  0  0  0  0  0  0
  145.5826  132.4917  150.8570 H   0  0  0  0  0  0  0  0  0  0  0  0
  146.6464  133.3786  152.8890 H   0  0  0  0  0  0  0  0  0  0  0  0
  146.4995  132.6386  160.9243 H   0  0  0  0  0  0  0  0  0  0  0  0
  146.1624  133.7416  163.1055 H   0  0  0  0  0  0  0  0  0  0  0  0
  146.9390  136.0774  163.4655 H   0  0  0  0  0  0  0  0  0  0  0  0
  148.0612  137.3093  161.6201 H   0  0  0  0  0  0  0  0  0  0  0  0
  148.4108  136.2360  159.4356 H   0  0  0  0  0  0  0  0  0  0  0  0
  1  2  2  0  0  0  0
  2  3  1  0  0  0  0
  2 28  1  0  0  0  0
  3  4  1  0  0  0  0
  4  5  1  0  0  0  0
  4 35  1  0  0  0  0
  4 36  1  0  0  0  0
  5 18  1  0  0  0  0
  5  6  1  0  0  0  0
  5 37  1  0  0  0  0
  6  7  1  0  0  0  0
  7  8  1  0  0  0  0
  7 16  1  0  0  0  0
  7 38  1  0  0  0  0
  8 14  1  0  0  0  0
  8  9  1  0  0  0  0
  9 10  2  0  0  0  0
  9 39  1  0  0  0  0
 10 11  1  0  0  0  0
 10 40  1  0  0  0  0
 11 12  2  0  0  0  0
 11 13  1  0  0  0  0
 13 34  1  0  0  0  0
 13 14  1  0  0  0  0
 14 15  2  0  0  0  0
 16 17  1  0  0  0  0
 16 18  1  0  0  0  0
 16 41  1  0  0  0  0
 17 42  1  0  0  0  0
 18 19  1  0  0  0  0
 18 43  1  0  0  0  0
 19 20  1  0  0  0  0
 20 21  2  0  0  0  0
 20 22  1  0  0  0  0
 22 27  1  0  0  0  0
 22 23  2  0  0  0  0
 23 24  1  0  0  0  0
 23 44  1  0  0  0  0
 24 25  2  0  0  0  0
 24 45  1  0  0  0  0
 25 26  1  0  0  0  0
 25 46  1  0  0  0  0
 26 27  2  0  0  0  0
 26 47  1  0  0  0  0
 27 48  1  0  0  0  0
 28 33  1  0  0  0  0
 28 29  2  0  0  0  0
 29 30  1  0  0  0  0
 29 49  1  0  0  0  0
 30 31  2  0  0  0  0
 30 50  1  0  0  0  0
 31 32  1  0  0  0  0
 31 51  1  0  0  0  0
 32 33  2  0  0  0  0
 32 52  1  0  0  0  0
 33 53  1  0  0  0  0
M  END
> <s_m_source_file>
AV-unprocessed.smi

> <i_m_source_file_index>
99

> <i_lp_mmshare_version>
43012

> <i_f3d_flags>
0

> <s_epik_input>
W2NIXTFbY0hdW2NIXVtjSF1bY0hdYzFDKD1PKU9bQ0gyXVtDQEBIXTJPW0NAQEhdKG4zW2NIXVtjSF1jKD1PKVtuSF1jMz1PKVtDQEBIXShbT0hdKVtDQEhdMk9DKD1PKWM0W2NIXVtjSF1bY0hdW2NIXVtjSF00

> <s_epik_cmdline>
J2VwaWtfcHl0aG9uJywgJy1waCcsICc3LjAnLCAnLXRuJywgJzgnLCAnLW1hJywgJzIwMCcsICctbWV0YWxfYmluZGluZycsICctaW1hZScsICc8aW5maWxlLm1hZT4nLCAnLW9tYWUnLCAnPG91dGZpbGUubWFlPic=

> <r_lp_tautomer_probability>
1

> <r_epik_Ionization_Penalty>
0.00454555

> <r_epik_Ionization_Penalty_Charging>
0.0045191

> <r_epik_Ionization_Penalty_Neutral>
2.64449e-05

> <r_epik_State_Penalty>
-0

> <r_epik_Charging_Adjusted_Penalty>
0.0045191

> <i_epik_Tot_Q>
0

> <i_epik_Tot_abs_Q>
0

> <r_epik_Metal_State_Penalty>
1.27877

> <b_epik_Metal_Only>
0

> <s_epik_Chemistry_Notes>
This compound has an ester and may undergo hydrolysis at high or low pH. This compound contains an acetal/aminal-like group ( X-CH(R)-Y where X, Y are N, S, or O) that may be acid/base labile, releasing an aldehyde.

> <s_lp_Force_Field>
OPLS_2005

> <r_lp_Energy>
38.4241

> <b_lp_Chiralities_Consistent>
1

> <s_lp_Variant>
AV-unprocessed.smi:99-7

> <Gold.Version>
5.8.1

> <Gold.Id.Protein>
6NUR|6NUR_protein|mol2

> <Gold.PLP.Fitness>
45.5800

> <Gold.PLP.PLP>
-44.1094

> <Gold.PLP.part.hbond>
-1.7387

> <Gold.PLP.part.metal>
0.0000

> <Gold.PLP.part.buried>
-5.8729

> <Gold.PLP.part.nonpolar>
-36.3122

> <Gold.PLP.part.repulsive>
0.3666

> <Gold.PLP.ligand.clash>
0.0000

> <Gold.PLP.ligand.torsion>
0.9969

> <Gold.PLP.Chemscore.Hbond>
1.0000

> <Gold.PLP.Chemscore.CHOScore>
0.0000

> <Gold.PLP.Chemscore.Metal>
0.0000

> <Gold.Chemscore.Hbonds>
donor molecule, donor type, donor heavy atom, donor atom, acceptor molecule, acceptor atom, score
      P1  H  7989  7998       L1    15  1.00

> <Gold.PLP.Chemscore.Internal.Correction>
0.4644

> <Gold.Rescore>
     Score         DG    S(hbond)    S(metal)    S(lipo)     H(rot)  DE(clash)    DE(int)     intcor
      9.85     -12.18       1.00        0.00      98.55       3.19       0.04       2.29       ----

> <Gold.Chemscore.Fitness>
9.8508

> <Gold.Chemscore.DG>
-12.1812

> <Gold.Chemscore.ZeroCoef>
-5.4800

> <Gold.Chemscore.Hbond>
0.9994

> <Gold.Chemscore.Metal>
0.0000

> <Gold.Chemscore.Lipo>
98.5495

> <Gold.Chemscore.Internal_Hbond>
0.0000

> <Gold.Chemscore.DEClash>
0.0420

> <Gold.Chemscore.DEInternal>
2.2885

> <Gold.Chemscore.Rot>
3.1903

> <Gold.Chemscore.Internal.Correction>
   9.000000E+99

> <Gold.Chemscore.Hbonds>
donor molecule, donor type, donor heavy atom, donor atom, acceptor molecule, acceptor atom, score
      P1  H  7989  7998       L1    15  1.00

> <Gold.Chemscore.Hbond.Weighted>
-3.3380

> <Gold.Chemscore.Metal.Weighted>
-0.0000

> <Gold.Chemscore.Lipo.Weighted>
-11.5303

> <Gold.Chemscore.Internal_Hbond.Weighted>
0.0000

> <Gold.Chemscore.DEClash.Weighted>
0.0420

> <Gold.Chemscore.DEInternal.Weighted>
2.2885

> <Gold.Chemscore.Rot.Weighted>
8.1671

> <Gold.Chemscore.Internal.Correction.Weighted>
   9.000000E+99

> <Gold.Protein.RotatedTorsions>
[ 6907 6896 6895 6894 ] final  150.61 input  -60.11 | X-H torsion
[ 7974 7965 7964 7962 ] final -170.94 input  175.53 | X-H torsion
[ 8008 7997 7996 7995 ] final  116.53 input   59.86 | X-H torsion
[ 10167 10162 10161 10158 ] final  -80.42 input  -65.29 | X-H torsion
[ 10718 10713 10712 10709 ] final   63.39 input   66.30 | X-H torsion
[ 10763 10752 10751 10750 ] final  129.51 input  -60.55 | X-H torsion
[ 11005 11000 10999 10996 ] final   59.64 input  -57.11 | X-H torsion

> <Gold.Protein.ActiveResidues>
 VAL166  LYS551  ARG553  GLY616  TRP617  ASP618  TYR619  PRO620  LYS621  CYS622 
 ASP623  PHE694  ASN695  SER759  ASP760  ASP761  ALA762  ILE779  LEU786  VAL792 
 PHE793  MET794  SER795  GLU796  ALA797  LYS798  CYS799  TRP800  GLU811  SER814 

> <Gold.Protein.RotatedAtoms>
  152.1120  133.4306  159.4635 H   0  0  0  0  0  0  0  0  0  0  0  0  # atno 6907 bound_to 6896
  150.6867  134.2637  159.4569 H   0  0  0  0  0  0  0  0  0  0  0  0  # atno 6908 bound_to 6896
  152.0506  134.9655  160.0625 H   0  0  0  0  0  0  0  0  0  0  0  0  # atno 6909 bound_to 6896
  144.7163  140.1997  143.6339 H   0  0  0  0  0  0  0  0  0  0  0  0  # atno 7974 bound_to 7965
  156.2444  140.2915  156.0538 H   0  0  0  0  0  0  0  0  0  0  0  0  # atno 8008 bound_to 7997
  155.1852  140.0405  157.2907 H   0  0  0  0  0  0  0  0  0  0  0  0  # atno 8009 bound_to 7997
  154.6232  140.2481  155.7530 H   0  0  0  0  0  0  0  0  0  0  0  0  # atno 8010 bound_to 7997
  140.4504  143.2485  151.8497 H   0  0  0  0  0  0  0  0  0  0  0  0  # atno 10167 bound_to 10162
  157.5968  130.9103  149.9710 H   0  0  0  0  0  0  0  0  0  0  0  0  # atno 10718 bound_to 10713
  153.7430  135.3221  155.3307 H   0  0  0  0  0  0  0  0  0  0  0  0  # atno 10763 bound_to 10752
  154.8289  135.4549  154.1008 H   0  0  0  0  0  0  0  0  0  0  0  0  # atno 10764 bound_to 10752
  153.2188  135.6945  153.8107 H   0  0  0  0  0  0  0  0  0  0  0  0  # atno 10765 bound_to 10752
  140.0289  134.6041  155.9534 H   0  0  0  0  0  0  0  0  0  0  0  0  # atno 11005 bound_to 11000
  145.8691  139.2262  143.1671 LP  0  0  0  0  0  0  0  0  0  0  0  0  # atno 17320 bound_to 7965
  146.0101  140.8443  142.9975 LP  0  0  0  0  0  0  0  0  0  0  0  0  # atno 17321 bound_to 7965
  139.4796  144.5126  151.8911 LP  0  0  0  0  0  0  0  0  0  0  0  0  # atno 17342 bound_to 10162
  140.4214  144.2239  150.5887 LP  0  0  0  0  0  0  0  0  0  0  0  0  # atno 17343 bound_to 10162
  156.1032  130.3654  150.0180 LP  0  0  0  0  0  0  0  0  0  0  0  0  # atno 17370 bound_to 10713
  156.8291  130.9386  151.3638 LP  0  0  0  0  0  0  0  0  0  0  0  0  # atno 17371 bound_to 10713
  141.1819  133.6548  156.5057 LP  0  0  0  0  0  0  0  0  0  0  0  0  # atno 17394 bound_to 11000
  140.4259  134.7146  157.4915 LP  0  0  0  0  0  0  0  0  0  0  0  0  # atno 17395 bound_to 11000

$$$$
