AV-unprocessed.smi:40|AV-procd|sdf|376|dock8
  -GOLD-   2262016223D 1   1.00000     0.00000
 Structure written by MMmdl.
 47 48  0  0  0  0  0  0  0  0  1 V2000
  151.0555  145.2350  159.5355 C   0  0  0  0  0  0  0  0  0  0  0  0
  152.1406  144.4193  160.2477 C   0  0  0  0  0  0  0  0  0  0  0  0
  152.4989  143.1324  159.4921 C   0  0  0  0  0  0  0  0  0  0  0  0
  153.4982  142.2499  160.2591 C   0  0  0  0  0  0  0  0  0  0  0  0
  153.5474  140.8052  159.7414 C   0  0  0  0  0  0  0  0  0  0  0  0
  154.0324  139.9656  160.7747 O   0  0  0  0  0  0  0  0  0  0  0  0
  154.1333  138.6360  160.5979 C   0  0  0  0  0  0  0  0  0  0  0  0
  153.8135  138.0509  159.5637 O   0  0  0  0  0  0  0  0  0  0  0  0
  154.7024  137.9924  161.7707 N   0  0  0  0  0  0  0  0  0  0  0  0
  154.9537  136.6744  161.9615 C   0  0  0  0  0  0  0  0  0  0  0  0
  155.2656  135.8687  160.9599 N   0  0  0  0  0  0  0  0  0  0  0  0
  155.5296  134.5340  161.0975 C   0  0  0  0  0  0  0  0  0  0  0  0
  155.7829  133.8604  160.1027 O   0  0  0  0  0  0  0  0  0  0  0  0
  155.5037  133.9933  162.4100 N   0  0  0  0  0  0  0  0  0  0  0  0
  155.6951  132.5095  162.6898 C   0  0  1  0  0  0  0  0  0  0  0  0
  156.6040  132.3568  163.7362 O   0  0  0  0  0  0  0  0  0  0  0  0
  155.9462  131.9791  164.9370 C   0  0  2  0  0  0  0  0  0  0  0  0
  156.8787  131.0988  165.7769 C   0  0  0  0  0  0  0  0  0  0  0  0
  154.6580  131.2690  164.4931 C   0  0  1  0  0  0  0  0  0  0  0  0
  153.5901  131.6441  165.3397 O   0  0  0  0  0  0  0  0  0  0  0  0
  154.4044  131.7486  163.0598 C   0  0  2  0  0  0  0  0  0  0  0  0
  154.2141  130.6336  162.2115 O   0  0  0  0  0  0  0  0  0  0  0  0
  155.1866  134.8294  163.4725 C   0  0  0  0  0  0  0  0  0  0  0  0
  154.9209  136.1430  163.3051 C   0  0  0  0  0  0  0  0  0  0  0  0
  154.6237  136.9251  164.3575 F   0  0  0  0  0  0  0  0  0  0  0  0
  156.1511  132.1114  161.7826 H   0  0  0  0  0  0  0  0  0  0  0  0
  155.7235  132.8854  165.4995 H   0  0  0  0  0  0  0  0  0  0  0  0
  154.7866  130.1858  164.5286 H   0  0  0  0  0  0  0  0  0  0  0  0
  153.5297  132.3924  162.9669 H   0  0  0  0  0  0  0  0  0  0  0  0
  150.8217  146.1409  160.0951 H   0  0  0  0  0  0  0  0  0  0  0  0
  150.1342  144.6601  159.4340 H   0  0  0  0  0  0  0  0  0  0  0  0
  151.3770  145.5332  158.5373 H   0  0  0  0  0  0  0  0  0  0  0  0
  153.0334  145.0329  160.3720 H   0  0  0  0  0  0  0  0  0  0  0  0
  151.7947  144.1691  161.2513 H   0  0  0  0  0  0  0  0  0  0  0  0
  151.5836  142.5712  159.3053 H   0  0  0  0  0  0  0  0  0  0  0  0
  152.9093  143.3834  158.5133 H   0  0  0  0  0  0  0  0  0  0  0  0
  154.4942  142.6876  160.1861 H   0  0  0  0  0  0  0  0  0  0  0  0
  153.2441  142.2425  161.3197 H   0  0  0  0  0  0  0  0  0  0  0  0
  152.5559  140.4762  159.4278 H   0  0  0  0  0  0  0  0  0  0  0  0
  154.2062  140.7429  158.8741 H   0  0  0  0  0  0  0  0  0  0  0  0
  154.9133  138.6210  162.5318 H   0  0  0  0  0  0  0  0  0  0  0  0
  156.3918  130.7856  166.7008 H   0  0  0  0  0  0  0  0  0  0  0  0
  157.7865  131.6394  166.0457 H   0  0  0  0  0  0  0  0  0  0  0  0
  157.1738  130.2018  165.2318 H   0  0  0  0  0  0  0  0  0  0  0  0
  153.9226  132.2445  165.9904 H   0  0  0  0  0  0  0  0  0  0  0  0
  153.9568  130.9471  161.3581 H   0  0  0  0  0  0  0  0  0  0  0  0
  155.1452  134.4343  164.4774 H   0  0  0  0  0  0  0  0  0  0  0  0
  1  2  1  0  0  0  0
  1 30  1  0  0  0  0
  1 31  1  0  0  0  0
  1 32  1  0  0  0  0
  2  3  1  0  0  0  0
  2 33  1  0  0  0  0
  2 34  1  0  0  0  0
  3  4  1  0  0  0  0
  3 35  1  0  0  0  0
  3 36  1  0  0  0  0
  4  5  1  0  0  0  0
  4 37  1  0  0  0  0
  4 38  1  0  0  0  0
  5  6  1  0  0  0  0
  5 39  1  0  0  0  0
  5 40  1  0  0  0  0
  6  7  1  0  0  0  0
  7  8  2  0  0  0  0
  7  9  1  0  0  0  0
  9 10  1  0  0  0  0
  9 41  1  0  0  0  0
 10 24  1  0  0  0  0
 10 11  2  0  0  0  0
 11 12  1  0  0  0  0
 12 13  2  0  0  0  0
 12 14  1  0  0  0  0
 14 15  1  0  0  0  0
 14 23  1  0  0  0  0
 15 26  1  0  0  0  0
 15 21  1  0  0  0  0
 15 16  1  0  0  0  0
 16 17  1  0  0  0  0
 17 27  1  0  0  0  0
 17 18  1  0  0  0  0
 17 19  1  0  0  0  0
 18 42  1  0  0  0  0
 18 43  1  0  0  0  0
 18 44  1  0  0  0  0
 19 28  1  0  0  0  0
 19 20  1  0  0  0  0
 19 21  1  0  0  0  0
 20 45  1  0  0  0  0
 21 29  1  0  0  0  0
 21 22  1  0  0  0  0
 22 46  1  0  0  0  0
 23 24  2  0  0  0  0
 23 47  1  0  0  0  0
 24 25  1  0  0  0  0
M  END
> <s_m_source_file>
AV-unprocessed.smi

> <i_m_source_file_index>
40

> <i_lp_mmshare_version>
43012

> <i_f3d_flags>
0

> <s_epik_input>
W0NIM11bQ0gyXVtDSDJdW0NIMl1bQ0gyXU9DKD1PKVtOSF1jMW5jKD1PKW4oW2NIXWMxRilbQ0BASF0yT1tDQEhdKFtDSDNdKVtDQEBIXShbT0hdKVtDQEhdMltPSF0=

> <s_epik_cmdline>
J2VwaWtfcHl0aG9uJywgJy1waCcsICc3LjAnLCAnLXRuJywgJzgnLCAnLW1hJywgJzIwMCcsICctbWV0YWxfYmluZGluZycsICctaW1hZScsICc8aW5maWxlLm1hZT4nLCAnLW9tYWUnLCAnPG91dGZpbGUubWFlPic=

> <r_lp_tautomer_probability>
1

> <r_epik_Ionization_Penalty>
2.29506e-06

> <r_epik_Ionization_Penalty_Charging>
8.26867e-09

> <r_epik_Ionization_Penalty_Neutral>
2.2868e-06

> <r_epik_State_Penalty>
-0

> <r_epik_Charging_Adjusted_Penalty>
8.26867e-09

> <i_epik_Tot_Q>
0

> <i_epik_Tot_abs_Q>
0

> <r_epik_Metal_State_Penalty>
-0

> <b_epik_Metal_Only>
0

> <s_epik_Chemistry_Notes>
This compound has an ester and may undergo hydrolysis at high or low pH. This compound contains an acetal/aminal-like group ( X-CH(R)-Y where X, Y are N, S, or O) that may be acid/base labile, releasing an aldehyde.

> <s_lp_Force_Field>
OPLS_2005

> <r_lp_Energy>
21.8092

> <b_lp_Chiralities_Consistent>
1

> <s_lp_Variant>
AV-unprocessed.smi:40-10

> <Gold.Version>
5.8.1

> <Gold.Id.Protein>
6NUR|6NUR_protein|mol2

> <Gold.PLP.Fitness>
43.9618

> <Gold.PLP.PLP>
-45.1690

> <Gold.PLP.part.hbond>
-0.7164

> <Gold.PLP.part.metal>
0.0000

> <Gold.PLP.part.buried>
-5.6951

> <Gold.PLP.part.nonpolar>
-38.5567

> <Gold.PLP.part.repulsive>
0.0000

> <Gold.PLP.ligand.clash>
0.0000

> <Gold.PLP.ligand.torsion>
0.6326

> <Gold.PLP.Chemscore.Hbond>
0.0000

> <Gold.PLP.Chemscore.CHOScore>
0.0000

> <Gold.PLP.Chemscore.Metal>
0.0000

> <Gold.PLP.Chemscore.Internal.Correction>
0.0580

> <Gold.Rescore>
     Score         DG    S(hbond)    S(metal)    S(lipo)     H(rot)  DE(clash)    DE(int)     intcor
      5.68      -7.46       0.00        0.00      97.79       3.70       0.19       1.59       ----

> <Gold.Chemscore.Fitness>
5.6751

> <Gold.Chemscore.DG>
-7.4600

> <Gold.Chemscore.ZeroCoef>
-5.4800

> <Gold.Chemscore.Hbond>
0.0000

> <Gold.Chemscore.Metal>
0.0000

> <Gold.Chemscore.Lipo>
97.7863

> <Gold.Chemscore.Internal_Hbond>
0.0000

> <Gold.Chemscore.DEClash>
0.1915

> <Gold.Chemscore.DEInternal>
1.5934

> <Gold.Chemscore.Rot>
3.6957

> <Gold.Chemscore.Internal.Correction>
   9.000000E+99

> <Gold.Chemscore.Hbond.Weighted>
-0.0000

> <Gold.Chemscore.Metal.Weighted>
-0.0000

> <Gold.Chemscore.Lipo.Weighted>
-11.4410

> <Gold.Chemscore.Internal_Hbond.Weighted>
0.0000

> <Gold.Chemscore.DEClash.Weighted>
0.1915

> <Gold.Chemscore.DEInternal.Weighted>
1.5934

> <Gold.Chemscore.Rot.Weighted>
9.4610

> <Gold.Chemscore.Internal.Correction.Weighted>
   9.000000E+99

> <Gold.Protein.RotatedTorsions>
[ 6907 6896 6895 6894 ] final   80.97 input  -60.11 | X-H torsion
[ 7974 7965 7964 7962 ] final -124.64 input  175.53 | X-H torsion
[ 8008 7997 7996 7995 ] final  119.68 input   59.86 | X-H torsion
[ 10167 10162 10161 10158 ] final  105.40 input  -65.29 | X-H torsion
[ 10718 10713 10712 10709 ] final   94.68 input   66.30 | X-H torsion
[ 10763 10752 10751 10750 ] final -127.41 input  -60.55 | X-H torsion
[ 11005 11000 10999 10996 ] final  162.39 input  -57.11 | X-H torsion

> <Gold.Protein.ActiveResidues>
 VAL166  LYS551  ARG553  GLY616  TRP617  ASP618  TYR619  PRO620  LYS621  CYS622 
 ASP623  PHE694  ASN695  SER759  ASP760  ASP761  ALA762  ILE779  LEU786  VAL792 
 PHE793  MET794  SER795  GLU796  ALA797  LYS798  CYS799  TRP800  GLU811  SER814 

> <Gold.Protein.RotatedAtoms>
  152.5253  134.3276  159.9170 H   0  0  0  0  0  0  0  0  0  0  0  0  # atno 6907 bound_to 6896
  151.3225  133.4028  159.2663 H   0  0  0  0  0  0  0  0  0  0  0  0  # atno 6908 bound_to 6896
  150.9947  134.9291  159.7977 H   0  0  0  0  0  0  0  0  0  0  0  0  # atno 6909 bound_to 6896
  145.0060  140.7863  143.4467 H   0  0  0  0  0  0  0  0  0  0  0  0  # atno 7974 bound_to 7965
  156.2607  140.2847  156.1030 H   0  0  0  0  0  0  0  0  0  0  0  0  # atno 8008 bound_to 7997
  155.1340  140.0394  157.2799 H   0  0  0  0  0  0  0  0  0  0  0  0  # atno 8009 bound_to 7997
  154.6579  140.2559  155.7148 H   0  0  0  0  0  0  0  0  0  0  0  0  # atno 8010 bound_to 7997
  139.7096  144.7080  151.1050 H   0  0  0  0  0  0  0  0  0  0  0  0  # atno 10167 bound_to 10162
  157.6946  131.0520  150.4224 H   0  0  0  0  0  0  0  0  0  0  0  0  # atno 10718 bound_to 10713
  154.8752  135.3963  154.3589 H   0  0  0  0  0  0  0  0  0  0  0  0  # atno 10763 bound_to 10752
  153.4364  135.7026  153.6202 H   0  0  0  0  0  0  0  0  0  0  0  0  # atno 10764 bound_to 10752
  153.4802  135.3771  155.2407 H   0  0  0  0  0  0  0  0  0  0  0  0  # atno 10765 bound_to 10752
  140.2253  134.8165  157.3262 H   0  0  0  0  0  0  0  0  0  0  0  0  # atno 11005 bound_to 11000
  145.2088  139.2215  143.5154 LP  0  0  0  0  0  0  0  0  0  0  0  0  # atno 17320 bound_to 7965
  146.3461  140.1922  142.8589 LP  0  0  0  0  0  0  0  0  0  0  0  0  # atno 17321 bound_to 7965
  140.7730  143.5312  150.9421 LP  0  0  0  0  0  0  0  0  0  0  0  0  # atno 17342 bound_to 10162
  139.8996  143.6852  152.3133 LP  0  0  0  0  0  0  0  0  0  0  0  0  # atno 17343 bound_to 10162
  156.4598  130.4029  149.6583 LP  0  0  0  0  0  0  0  0  0  0  0  0  # atno 17370 bound_to 10713
  156.3703  130.7527  151.2509 LP  0  0  0  0  0  0  0  0  0  0  0  0  # atno 17371 bound_to 10713
  140.1807  134.4493  155.7774 LP  0  0  0  0  0  0  0  0  0  0  0  0  # atno 17394 bound_to 11000
  141.2221  133.6982  156.7863 LP  0  0  0  0  0  0  0  0  0  0  0  0  # atno 17395 bound_to 11000

$$$$
