#       Name:                AV-unprocessed.smi:2797
#       Creating user name   scv26
#       Creation time:       Fri Mar 27 15:21:55 2020


#       File generated by GOLD software.
#

@<TRIPOS>MOLECULE
AV-unprocessed.smi:2797
    42    43     1
SMALL
NO_CHARGES


@<TRIPOS>ATOM
      1 ****        -2.4781   0.3293  -2.5429 C.3            1 S1                 0.0000
      2 ****        -2.5567  -0.4367  -1.3464 O.3            1 S1                 0.0000
      3 ****        -2.0617  -1.7796  -1.3945 C.3            1 S1                 0.0000
      4 ****        -0.5393  -1.8158  -1.5835 C.3            1 S1                 0.0000
      5 ****         0.1453  -1.1876  -0.4578 N.am           1 S1                 0.0000
      6 ****         0.7350   0.0159  -0.4735 C.2            1 S1                 0.0000
      7 ****         0.8069   0.7268  -1.4753 O.2            1 S1                 0.0000
      8 ****         1.2421   0.3196   0.7335 N.am           1 S1                 0.0000
      9 ****         1.9335   1.4947   1.1419 C.ar           1 S1                 0.0000
     10 ****         1.8049   2.7434   0.4871 C.ar           1 S1                 0.0000
     11 ****         2.5206   3.8473   0.9883 C.ar           1 S1                 0.0000
     12 ****         3.3215   3.7829   2.0714 N.ar           1 S1                 0.0000
     13 ****         3.4349   2.5968   2.7080 C.ar           1 S1                 0.0000
     14 ****         4.3415   2.5890   3.9245 C.3            1 S1                 0.0000
     15 ****         2.7599   1.4263   2.2884 C.ar           1 S1                 0.0000
     16 ****         2.9466  -0.0601   3.1583 Cl             1 S1                 0.0000
     17 ****        -2.6520  -2.5079  -0.1715 C.3            1 S1                 0.0000
     18 ****        -3.8474  -2.9235  -1.0308 C.3            1 S1                 0.0000
     19 ****        -2.9568  -2.6999  -2.2540 C.3            1 S1                 0.0000
     20 ****        -2.8703   1.3269  -2.3470 H              1 S1                 0.0000
     21 ****        -3.0736  -0.0976  -3.3482 H              1 S1                 0.0000
     22 ****        -1.4555   0.4510  -2.8952 H              1 S1                 0.0000
     23 ****        -0.1980  -2.8504  -1.6243 H              1 S1                 0.0000
     24 ****        -0.2376  -1.3807  -2.5363 H              1 S1                 0.0000
     25 ****         0.1443  -1.7013   0.4110 H              1 S1                 0.0000
     26 ****         1.1785  -0.4043   1.4341 H              1 S1                 0.0000
     27 ****         1.1679   2.8805  -0.3728 H              1 S1                 0.0000
     28 ****         2.4415   4.8118   0.5089 H              1 S1                 0.0000
     29 ****         5.1467   1.8658   3.7932 H              1 S1                 0.0000
     30 ****         3.7756   2.3179   4.8160 H              1 S1                 0.0000
     31 ****         4.7927   3.5675   4.0956 H              1 S1                 0.0000
     32 ****        -2.0501  -3.3620   0.1435 H              1 S1                 0.0000
     33 ****        -2.8988  -1.8647   0.6740 H              1 S1                 0.0000
     34 ****        -4.1797  -3.9520  -0.8876 H              1 S1                 0.0000
     35 ****        -4.6759  -2.2155  -0.9753 H              1 S1                 0.0000
     36 ****        -3.4656  -2.2405  -3.0999 H              1 S1                 0.0000
     37 ****        -2.4436  -3.6127  -2.5607 H              1 S1                 0.0000
     38 ****        -3.5196  -0.4805  -1.0801 LP             1 S1                 0.0000
     39 ****        -2.0382   0.0499  -0.6433 LP             1 S1                 0.0000
     40 ****         0.4121   0.4145  -2.3394 LP             1 S1                 0.0000
     41 ****         1.2602   1.6168  -1.4254 LP             1 S1                 0.0000
     42 ****         3.8169   4.5895   2.3938 LP             1 S1                 0.0000
@<TRIPOS>BOND
    1    1    2 1     
    2    1   20 1     
    3    1   21 1     
    4    1   22 1     
    5    2    3 1     
    6    3   19 1     
    7    3    4 1     
    8    3   17 1     
    9    4    5 1     
   10    4   23 1     
   11    4   24 1     
   12    5    6 am    
   13    5   25 1     
   14    6    7 2     
   15    6    8 am    
   16    8    9 1     
   17    8   26 1     
   18    9   15 ar    
   19    9   10 ar    
   20   10   11 ar    
   21   10   27 1     
   22   11   12 ar    
   23   11   28 1     
   24   12   13 ar    
   25   13   14 1     
   26   13   15 ar    
   27   14   29 1     
   28   14   30 1     
   29   14   31 1     
   30   15   16 1     
   31   17   18 1     
   32   17   32 1     
   33   17   33 1     
   34   18   19 1     
   35   18   34 1     
   36   18   35 1     
   37   19   36 1     
   38   19   37 1     
   39    2   38 1     
   40    2   39 1     
   41    7   40 1     
   42    7   41 1     
   43   12   42 1     
@<TRIPOS>SUBSTRUCTURE
      1 S1             1
@<TRIPOS>SET
LONE_PAIRS      STATIC     ATOMS    <user>   **** ""
5 38 39 40 41 42
DONOR_HYDROGENS      STATIC     ATOMS    <user>   **** ""
2 25 26
ATOM$BLUE        STATIC     ATOMS    COLORGROUP SYSTEM
5 38 39 40 41 42
ATOM$RED        STATIC     ATOMS    COLORGROUP SYSTEM
2 25 26
