#       Name:                AV-unprocessed.smi:311
#       Creating user name   scv26
#       Creation time:       Thu Mar 26 22:20:31 2020


#       File generated by GOLD software.
#

@<TRIPOS>MOLECULE
AV-unprocessed.smi:311
    49    51     1
SMALL
NO_CHARGES


@<TRIPOS>ATOM
      1 ****        -1.5201   1.8523   3.4291 C.3            1 S1                 0.0000
      2 ****        -1.7675   0.3855   3.2211 C.2            1 S1                 0.0000
      3 ****        -3.0089  -0.0659   3.1656 N.2            1 S1                 0.0000
      4 ****        -2.9064  -1.4444   2.9564 O.3            1 S1                 0.0000
      5 ****        -1.5913  -1.7723   2.8877 C.2            1 S1                 0.0000
      6 ****        -1.2748  -3.2110   2.6556 C.3            1 S1                 0.0000
      7 ****        -0.8133  -0.6583   3.0470 C.2            1 S1                 0.0000
      8 ****         0.6901  -0.5442   3.0286 C.3            1 S1                 0.0000
      9 ****         1.1347   0.0283   1.6837 C.2            1 S1                 0.0000
     10 ****         1.5608   1.1807   1.6143 O.2            1 S1                 0.0000
     11 ****         0.9991  -0.7781   0.6196 N.am           1 S1                 0.0000
     12 ****         1.2441  -0.3922  -0.7659 C.3            1 S1                 0.0000
     13 ****         1.7778  -1.5454  -1.6266 C.3            1 S1                 0.0000
     14 ****         1.1096  -1.3692  -3.0052 C.3            1 S1                 0.0000
     15 ****         0.2876  -0.1390  -2.9285 N.4            1 S1                 1.0000
     16 ****         0.9832   1.0369  -3.5214 C.3            1 S1                 0.0000
     17 ****         0.2479   2.3524  -3.2330 C.3            1 S1                 0.0000
     18 ****         0.0916   2.5520  -1.7233 C.3            1 S1                 0.0000
     19 ****        -0.6774   1.3664  -1.1328 C.3            1 S1                 0.0000
     20 ****        -0.0497  -0.0001  -1.4914 C.3            1 S1                 0.0000
     21 ****        -0.6642   2.0167   4.0838 H              1 S1                 0.0000
     22 ****        -2.3805   2.3461   3.8822 H              1 S1                 0.0000
     23 ****        -1.3114   2.3486   2.4812 H              1 S1                 0.0000
     24 ****        -0.3207  -3.3232   2.1402 H              1 S1                 0.0000
     25 ****        -2.0435  -3.6854   2.0448 H              1 S1                 0.0000
     26 ****        -1.2148  -3.7491   3.6016 H              1 S1                 0.0000
     27 ****         1.0471   0.1030   3.8306 H              1 S1                 0.0000
     28 ****         1.1717  -1.5106   3.1815 H              1 S1                 0.0000
     29 ****         0.6441  -1.7100   0.7790 H              1 S1                 0.0000
     30 ****         1.9612   0.4292  -0.8138 H              1 S1                 0.0000
     31 ****         2.8656  -1.5119  -1.6960 H              1 S1                 0.0000
     32 ****         1.5064  -2.5154  -1.2070 H              1 S1                 0.0000
     33 ****         1.8370  -1.3352  -3.8178 H              1 S1                 0.0000
     34 ****         0.4473  -2.2132  -3.2017 H              1 S1                 0.0000
     35 ****         2.0014   1.1014  -3.1342 H              1 S1                 0.0000
     36 ****         1.0693   0.8905  -4.5987 H              1 S1                 0.0000
     37 ****         0.7994   3.1888  -3.6635 H              1 S1                 0.0000
     38 ****        -0.7317   2.3454  -3.7129 H              1 S1                 0.0000
     39 ****         1.0704   2.6409  -1.2505 H              1 S1                 0.0000
     40 ****        -0.4394   3.4823  -1.5188 H              1 S1                 0.0000
     41 ****        -0.7688   1.4758  -0.0523 H              1 S1                 0.0000
     42 ****        -1.6976   1.3914  -1.5180 H              1 S1                 0.0000
     43 ****        -0.7967  -0.7662  -1.2726 H              1 S1                 0.0000
     44 ****        -0.5673  -0.2743  -3.4493 H              1 S1                 0.0000
     45 ****        -3.8491   0.4691   3.2550 LP             1 S1                 0.0000
     46 ****        -3.3607  -1.6905   2.1002 LP             1 S1                 0.0000
     47 ****        -3.3370  -1.9337   3.7148 LP             1 S1                 0.0000
     48 ****         1.6164   1.7437   2.4389 LP             1 S1                 0.0000
     49 ****         1.8514   1.5541   0.7334 LP             1 S1                 0.0000
@<TRIPOS>BOND
    1    1    2 1     
    2    1   21 1     
    3    1   22 1     
    4    1   23 1     
    5    2    7 1     
    6    2    3 2     
    7    3    4 1     
    8    4    5 1     
    9    5    6 1     
   10    5    7 2     
   11    6   24 1     
   12    6   25 1     
   13    6   26 1     
   14    7    8 1     
   15    8    9 1     
   16    8   27 1     
   17    8   28 1     
   18    9   10 2     
   19    9   11 am    
   20   11   12 1     
   21   11   29 1     
   22   12   20 1     
   23   12   13 1     
   24   12   30 1     
   25   13   14 1     
   26   13   31 1     
   27   13   32 1     
   28   14   15 1     
   29   14   33 1     
   30   14   34 1     
   31   15   20 1     
   32   15   16 1     
   33   15   44 1     
   34   16   17 1     
   35   16   35 1     
   36   16   36 1     
   37   17   18 1     
   38   17   37 1     
   39   17   38 1     
   40   18   19 1     
   41   18   39 1     
   42   18   40 1     
   43   19   20 1     
   44   19   41 1     
   45   19   42 1     
   46   20   43 1     
   47    3   45 1     
   48    4   46 1     
   49    4   47 1     
   50   10   48 1     
   51   10   49 1     
@<TRIPOS>SUBSTRUCTURE
      1 S1             1
@<TRIPOS>SET
LONE_PAIRS      STATIC     ATOMS    <user>   **** ""
5 45 46 47 48 49
DONOR_HYDROGENS      STATIC     ATOMS    <user>   **** ""
2 29 44
ATOM$BLUE        STATIC     ATOMS    COLORGROUP SYSTEM
5 45 46 47 48 49
ATOM$RED        STATIC     ATOMS    COLORGROUP SYSTEM
2 29 44
