AV-unprocessed.smi:492|AV-procd|sdf|2708|dock4
  -GOLD-   2262023153D 1   1.00000     0.00000
 Structure written by MMmdl.
 46 48  0  0  0  0  0  0  0  0  1 V2000
  151.8545  145.2504  160.3894 C   0  0  0  0  0  0  0  0  0  0  0  0
  152.3096  144.3430  161.3827 O   0  0  0  0  0  0  0  0  0  0  0  0
  152.8558  143.1472  160.9677 C   0  0  0  0  0  0  0  0  0  0  0  0
  152.8834  142.7082  159.6200 C   0  0  0  0  0  0  0  0  0  0  0  0
  153.4630  141.4689  159.2844 C   0  0  0  0  0  0  0  0  0  0  0  0
  154.0287  140.6527  160.2844 C   0  0  0  0  0  0  0  0  0  0  0  0
  154.6355  139.3108  159.9206 C   0  0  0  0  0  0  0  0  0  0  0  0
  154.5095  139.0329  158.5361 O   0  0  0  0  0  0  0  0  0  0  0  0
  154.1055  137.6998  158.2684 C   0  0  0  0  0  0  0  0  0  0  0  0
  154.9723  137.1119  157.1435 C   0  0  2  0  0  0  0  0  0  0  0  0
  154.7354  135.7202  157.0642 O   0  0  0  0  0  0  0  0  0  0  0  0
  156.4746  137.4334  157.2916 C   0  0  0  0  0  0  0  0  0  0  0  0
  157.2838  136.8494  156.2316 N   0  0  0  0  0  0  0  0  0  0  0  0
  158.1932  135.8488  156.3268 C   0  0  0  0  0  0  0  0  0  0  0  0
  158.4892  135.1718  157.6275 C   0  0  0  0  0  0  0  0  0  0  0  0
  158.8018  135.5058  155.1914 N   0  0  0  0  0  0  0  0  0  0  0  0
  158.2310  136.3641  154.2710 C   0  0  0  0  0  0  0  0  0  0  0  0
  158.4534  136.5020  152.8821 C   0  0  0  0  0  0  0  0  0  0  0  0
  157.7389  137.4627  152.1366 C   0  0  0  0  0  0  0  0  0  0  0  0
  156.7949  138.2988  152.7672 C   0  0  0  0  0  0  0  0  0  0  0  0
  156.5591  138.1790  154.1500 C   0  0  0  0  0  0  0  0  0  0  0  0
  157.2741  137.2176  154.8897 C   0  0  0  0  0  0  0  0  0  0  0  0
  153.9950  141.0802  161.6274 C   0  0  0  0  0  0  0  0  0  0  0  0
  153.4155  142.3190  161.9620 C   0  0  0  0  0  0  0  0  0  0  0  0
  151.4519  146.1402  160.8731 H   0  0  0  0  0  0  0  0  0  0  0  0
  151.0573  144.8147  159.7856 H   0  0  0  0  0  0  0  0  0  0  0  0
  152.6690  145.5696  159.7377 H   0  0  0  0  0  0  0  0  0  0  0  0
  152.4645  143.3037  158.8234 H   0  0  0  0  0  0  0  0  0  0  0  0
  153.4720  141.1481  158.2529 H   0  0  0  0  0  0  0  0  0  0  0  0
  155.6887  139.3218  160.2047 H   0  0  0  0  0  0  0  0  0  0  0  0
  154.1490  138.5225  160.4973 H   0  0  0  0  0  0  0  0  0  0  0  0
  154.1718  137.0849  159.1677 H   0  0  0  0  0  0  0  0  0  0  0  0
  153.0603  137.7025  157.9555 H   0  0  0  0  0  0  0  0  0  0  0  0
  154.6180  137.5274  156.2003 H   0  0  0  0  0  0  0  0  0  0  0  0
  155.4381  135.2722  157.5096 H   0  0  0  0  0  0  0  0  0  0  0  0
  156.6312  138.5122  157.3056 H   0  0  0  0  0  0  0  0  0  0  0  0
  156.8528  137.0636  158.2450 H   0  0  0  0  0  0  0  0  0  0  0  0
  159.2504  134.4028  157.4927 H   0  0  0  0  0  0  0  0  0  0  0  0
  157.5899  134.6974  158.0204 H   0  0  0  0  0  0  0  0  0  0  0  0
  158.8580  135.8927  158.3566 H   0  0  0  0  0  0  0  0  0  0  0  0
  159.1748  135.8671  152.3895 H   0  0  0  0  0  0  0  0  0  0  0  0
  157.9166  137.5594  151.0756 H   0  0  0  0  0  0  0  0  0  0  0  0
  156.2527  139.0326  152.1891 H   0  0  0  0  0  0  0  0  0  0  0  0
  155.8381  138.8194  154.6361 H   0  0  0  0  0  0  0  0  0  0  0  0
  154.4131  140.4609  162.4076 H   0  0  0  0  0  0  0  0  0  0  0  0
  153.3990  142.6363  162.9945 H   0  0  0  0  0  0  0  0  0  0  0  0
  1  2  1  0  0  0  0
  1 25  1  0  0  0  0
  1 26  1  0  0  0  0
  1 27  1  0  0  0  0
  2  3  1  0  0  0  0
  3 24  1  0  0  0  0
  3  4  2  0  0  0  0
  4  5  1  0  0  0  0
  4 28  1  0  0  0  0
  5  6  2  0  0  0  0
  5 29  1  0  0  0  0
  6  7  1  0  0  0  0
  6 23  1  0  0  0  0
  7  8  1  0  0  0  0
  7 30  1  0  0  0  0
  7 31  1  0  0  0  0
  8  9  1  0  0  0  0
  9 10  1  0  0  0  0
  9 32  1  0  0  0  0
  9 33  1  0  0  0  0
 10 11  1  0  0  0  0
 10 12  1  0  0  0  0
 10 34  1  0  0  0  0
 11 35  1  0  0  0  0
 12 13  1  0  0  0  0
 12 36  1  0  0  0  0
 12 37  1  0  0  0  0
 13 22  1  0  0  0  0
 13 14  1  0  0  0  0
 14 15  1  0  0  0  0
 14 16  2  0  0  0  0
 15 38  1  0  0  0  0
 15 39  1  0  0  0  0
 15 40  1  0  0  0  0
 16 17  1  0  0  0  0
 17 22  2  0  0  0  0
 17 18  1  0  0  0  0
 18 19  2  0  0  0  0
 18 41  1  0  0  0  0
 19 20  1  0  0  0  0
 19 42  1  0  0  0  0
 20 21  2  0  0  0  0
 20 43  1  0  0  0  0
 21 22  1  0  0  0  0
 21 44  1  0  0  0  0
 23 24  2  0  0  0  0
 23 45  1  0  0  0  0
 24 46  1  0  0  0  0
M  END
> <s_m_source_file>
AV-unprocessed.smi

> <i_m_source_file_index>
492

> <i_lp_mmshare_version>
43012

> <i_f3d_flags>
0

> <s_epik_input>
W0NIM11PYzFbY0hdW2NIXWMoW2NIXVtjSF0xKVtDSDJdT1tDSDJdW0NASF0oW09IXSlbQ0gyXW4oYyhuMilbQ0gzXSljKGMyMylbY0hdW2NIXVtjSF1bY0hdMw==

> <s_epik_cmdline>
J2VwaWtfcHl0aG9uJywgJy1waCcsICc3LjAnLCAnLXRuJywgJzgnLCAnLW1hJywgJzIwMCcsICctbWV0YWxfYmluZGluZycsICctaW1hZScsICc8aW5maWxlLm1hZT4nLCAnLW9tYWUnLCAnPG91dGZpbGUubWFlPic=

> <r_lp_tautomer_probability>
1

> <r_epik_Ionization_Penalty>
0.132603

> <r_epik_Ionization_Penalty_Charging>
0

> <r_epik_Ionization_Penalty_Neutral>
0.132603

> <r_epik_State_Penalty>
0.121982

> <r_epik_Charging_Adjusted_Penalty>
0.121982

> <i_epik_Tot_Q>
0

> <i_epik_Tot_abs_Q>
0

> <r_epik_Metal_State_Penalty>
0.000135431

> <b_epik_Metal_Only>
0

> <s_lp_Force_Field>
OPLS_2005

> <r_lp_Energy>
19.0412

> <b_lp_Chiralities_Consistent>
1

> <s_lp_Variant>
AV-unprocessed.smi:492-1

> <Gold.Version>
5.8.1

> <Gold.Id.Protein>
6NUR|6NUR_protein|mol2

> <Gold.PLP.Fitness>
53.1350

> <Gold.PLP.PLP>
-48.6372

> <Gold.PLP.part.hbond>
-2.0000

> <Gold.PLP.part.metal>
0.0000

> <Gold.PLP.part.buried>
-4.9682

> <Gold.PLP.part.nonpolar>
-41.0969

> <Gold.PLP.part.repulsive>
0.2275

> <Gold.PLP.ligand.clash>
0.0000

> <Gold.PLP.ligand.torsion>
0.8446

> <Gold.PLP.Chemscore.Hbond>
2.0000

> <Gold.PLP.Chemscore.CHOScore>
0.0000

> <Gold.PLP.Chemscore.Metal>
0.0000

> <Gold.Chemscore.Hbonds>
donor molecule, donor type, donor heavy atom, donor atom, acceptor molecule, acceptor atom, score
      P1  H  7997  8010       L1     8  1.00
      P1  H 10752 10763       L1    11  1.00

> <Gold.PLP.Chemscore.Internal.Correction>
0.1869

> <Gold.Rescore>
     Score         DG    S(hbond)    S(metal)    S(lipo)     H(rot)  DE(clash)    DE(int)     intcor
     21.12     -22.00       1.54        0.00     149.77       2.40       0.13       0.76       ----

> <Gold.Chemscore.Fitness>
21.1170

> <Gold.Chemscore.DG>
-22.0029

> <Gold.Chemscore.ZeroCoef>
-5.4800

> <Gold.Chemscore.Hbond>
1.5395

> <Gold.Chemscore.Metal>
0.0000

> <Gold.Chemscore.Lipo>
149.7657

> <Gold.Chemscore.Internal_Hbond>
0.0000

> <Gold.Chemscore.DEClash>
0.1279

> <Gold.Chemscore.DEInternal>
0.7580

> <Gold.Chemscore.Rot>
2.3991

> <Gold.Chemscore.Internal.Correction>
   9.000000E+99

> <Gold.Chemscore.Hbonds>
donor molecule, donor type, donor heavy atom, donor atom, acceptor molecule, acceptor atom, score
      P1  H  7997  8010       L1     8  0.97
      P1  H 10752 10763       L1    11  0.69

> <Gold.Chemscore.Hbond.Weighted>
-5.1420

> <Gold.Chemscore.Metal.Weighted>
-0.0000

> <Gold.Chemscore.Lipo.Weighted>
-17.5226

> <Gold.Chemscore.Internal_Hbond.Weighted>
0.0000

> <Gold.Chemscore.DEClash.Weighted>
0.1279

> <Gold.Chemscore.DEInternal.Weighted>
0.7580

> <Gold.Chemscore.Rot.Weighted>
6.1417

> <Gold.Chemscore.Internal.Correction.Weighted>
   9.000000E+99

> <Gold.Protein.RotatedTorsions>
[ 6907 6896 6895 6894 ] final   52.65 input  -60.11 | X-H torsion
[ 7974 7965 7964 7962 ] final -136.44 input  175.53 | X-H torsion
[ 8008 7997 7996 7995 ] final   -8.11 input   59.86 | X-H torsion
[ 10167 10162 10161 10158 ] final  115.30 input  -65.29 | X-H torsion
[ 10718 10713 10712 10709 ] final   35.69 input   66.30 | X-H torsion
[ 10763 10752 10751 10750 ] final  159.87 input  -60.55 | X-H torsion
[ 11005 11000 10999 10996 ] final   60.27 input  -57.11 | X-H torsion

> <Gold.Protein.ActiveResidues>
 VAL166  LYS551  ARG553  GLY616  TRP617  ASP618  TYR619  PRO620  LYS621  CYS622 
 ASP623  PHE694  ASN695  SER759  ASP760  ASP761  ALA762  ILE779  LEU786  VAL792 
 PHE793  MET794  SER795  GLU796  ALA797  LYS798  CYS799  TRP800  GLU811  SER814 

> <Gold.Protein.RotatedAtoms>
  152.3255  134.7326  160.0302 H   0  0  0  0  0  0  0  0  0  0  0  0  # atno 6907 bound_to 6896
  151.7760  133.3340  159.3466 H   0  0  0  0  0  0  0  0  0  0  0  0  # atno 6908 bound_to 6896
  150.7393  134.5906  159.6030 H   0  0  0  0  0  0  0  0  0  0  0  0  # atno 6909 bound_to 6896
  144.8927  140.6664  143.5135 H   0  0  0  0  0  0  0  0  0  0  0  0  # atno 7974 bound_to 7965
  154.5772  140.2389  155.8105 H   0  0  0  0  0  0  0  0  0  0  0  0  # atno 8008 bound_to 7997
  156.2152  140.3014  155.9780 H   0  0  0  0  0  0  0  0  0  0  0  0  # atno 8009 bound_to 7997
  155.2605  140.0414  157.2987 H   0  0  0  0  0  0  0  0  0  0  0  0  # atno 8010 bound_to 7997
  139.6326  144.7116  151.2400 H   0  0  0  0  0  0  0  0  0  0  0  0  # atno 10167 bound_to 10162
  157.3257  130.7471  149.6814 H   0  0  0  0  0  0  0  0  0  0  0  0  # atno 10718 bound_to 10713
  154.2385  135.2775  155.2863 H   0  0  0  0  0  0  0  0  0  0  0  0  # atno 10763 bound_to 10752
  154.5564  135.5660  153.6971 H   0  0  0  0  0  0  0  0  0  0  0  0  # atno 10764 bound_to 10752
  153.0005  135.6287  154.2529 H   0  0  0  0  0  0  0  0  0  0  0  0  # atno 10765 bound_to 10752
  140.0243  134.6105  155.9594 H   0  0  0  0  0  0  0  0  0  0  0  0  # atno 11005 bound_to 11000
  145.3755  139.1649  143.4309 LP  0  0  0  0  0  0  0  0  0  0  0  0  # atno 17320 bound_to 7965
  146.3063  140.3831  142.8686 LP  0  0  0  0  0  0  0  0  0  0  0  0  # atno 17321 bound_to 7965
  140.7448  143.6452  150.8298 LP  0  0  0  0  0  0  0  0  0  0  0  0  # atno 17342 bound_to 10162
  140.0079  143.5674  152.2850 LP  0  0  0  0  0  0  0  0  0  0  0  0  # atno 17343 bound_to 10162
  155.9690  130.4210  150.4448 LP  0  0  0  0  0  0  0  0  0  0  0  0  # atno 17370 bound_to 10713
  157.2471  131.0538  151.2401 LP  0  0  0  0  0  0  0  0  0  0  0  0  # atno 17371 bound_to 10713
  141.1793  133.6544  156.4956 LP  0  0  0  0  0  0  0  0  0  0  0  0  # atno 17394 bound_to 11000
  140.4333  134.7082  157.4953 LP  0  0  0  0  0  0  0  0  0  0  0  0  # atno 17395 bound_to 11000

$$$$
