AV-unprocessed.smi:148|AV-procd|sdf|1218|dock4
  -GOLD-   2262018403D 1   1.00000     0.00000
 Structure written by MMmdl.
 63 67  0  0  0  0  0  0  0  0  1 V2000
  141.1317  133.9916  154.5066 O   0  0  0  0  0  0  0  0  0  0  0  0
  142.0170  134.0653  153.4089 C   0  0  0  0  0  0  0  0  0  0  0  0
  143.4913  134.0895  153.8787 C   0  0  2  0  0  0  0  0  0  0  0  0
  143.8532  135.4195  154.5918 C   0  0  0  0  0  0  0  0  0  0  0  0
  143.4880  135.4177  155.9975 N   0  0  0  0  0  0  0  0  0  0  0  0
  142.6188  136.2842  156.6201 C   0  0  0  0  0  0  0  0  0  0  0  0
  142.4592  136.0867  157.9003 N   0  0  0  0  0  0  0  0  0  0  0  0
  143.2806  135.0010  158.1804 C   0  0  0  0  0  0  0  0  0  0  0  0
  143.6004  134.2715  159.3605 C   0  0  0  0  0  0  0  0  0  0  0  0
  143.1077  134.5380  160.5915 N   0  0  0  0  0  0  0  0  0  0  0  0
  141.6473  134.4589  160.5702 C   0  0  0  0  0  0  0  0  0  0  0  0
  141.0635  134.5046  161.9876 C   0  0  0  0  0  0  0  0  0  0  0  0
  141.5551  135.7549  162.7230 C   0  0  0  0  0  0  0  0  0  0  0  0
  143.0894  135.7892  162.7307 C   0  0  0  0  0  0  0  0  0  0  0  0
  143.6759  135.7020  161.2969 C   0  0  1  0  0  0  0  0  0  0  0  0
  145.2371  135.7308  161.2637 C   0  0  2  0  0  0  0  0  0  0  0  0
  145.9554  134.5647  161.9705 C   0  0  0  0  0  0  0  0  0  0  0  0
  147.3031  135.1191  162.4616 C   0  0  0  0  0  0  0  0  0  0  0  0
  147.3675  136.5748  161.9889 C   0  0  0  0  0  0  0  0  0  0  0  0
  145.9047  136.9894  161.8371 C   0  0  1  0  0  0  0  0  0  0  0  0
  145.7700  138.1032  160.9785 O   0  0  0  0  0  0  0  0  0  0  0  0
  144.4574  133.2268  159.2510 N   0  0  0  0  0  0  0  0  0  0  0  0
  144.9904  132.9223  158.0639 C   0  0  0  0  0  0  0  0  0  0  0  0
  144.8005  133.5192  156.8850 N   0  0  0  0  0  0  0  0  0  0  0  0
  143.9267  134.5611  156.9915 C   0  0  0  0  0  0  0  0  0  0  0  0
  144.4751  133.7180  152.7331 C   0  0  1  0  0  0  0  0  0  0  0  0
  144.2125  132.3726  152.0509 C   0  0  0  0  0  0  0  0  0  0  0  0
  144.3400  132.6854  150.5631 C   0  0  0  0  0  0  0  0  0  0  0  0
  143.9056  134.0316  150.4803 O   0  0  0  0  0  0  0  0  0  0  0  0
  144.5062  134.7195  151.5664 C   0  0  0  0  0  0  0  0  0  0  0  0
  140.4485  134.6335  154.3848 H   0  0  0  0  0  0  0  0  0  0  0  0
  141.8331  133.2260  152.7380 H   0  0  0  0  0  0  0  0  0  0  0  0
  141.7634  134.9705  152.8579 H   0  0  0  0  0  0  0  0  0  0  0  0
  143.5899  133.3041  154.6302 H   0  0  0  0  0  0  0  0  0  0  0  0
  144.9230  135.6177  154.5348 H   0  0  0  0  0  0  0  0  0  0  0  0
  143.3628  136.2671  154.1149 H   0  0  0  0  0  0  0  0  0  0  0  0
  142.1091  137.0767  156.0918 H   0  0  0  0  0  0  0  0  0  0  0  0
  141.2502  135.2869  159.9812 H   0  0  0  0  0  0  0  0  0  0  0  0
  141.3298  133.5383  160.0775 H   0  0  0  0  0  0  0  0  0  0  0  0
  139.9741  134.4979  161.9437 H   0  0  0  0  0  0  0  0  0  0  0  0
  141.3608  133.6111  162.5381 H   0  0  0  0  0  0  0  0  0  0  0  0
  141.1673  136.6490  162.2330 H   0  0  0  0  0  0  0  0  0  0  0  0
  141.1727  135.7658  163.7439 H   0  0  0  0  0  0  0  0  0  0  0  0
  143.4047  136.7066  163.2247 H   0  0  0  0  0  0  0  0  0  0  0  0
  143.4523  134.9660  163.3449 H   0  0  0  0  0  0  0  0  0  0  0  0
  143.3289  136.5908  160.7698 H   0  0  0  0  0  0  0  0  0  0  0  0
  145.5579  135.6924  160.2217 H   0  0  0  0  0  0  0  0  0  0  0  0
  145.3877  134.1869  162.8195 H   0  0  0  0  0  0  0  0  0  0  0  0
  146.0971  133.7268  161.2875 H   0  0  0  0  0  0  0  0  0  0  0  0
  147.3381  135.0809  163.5510 H   0  0  0  0  0  0  0  0  0  0  0  0
  148.1470  134.5385  162.0878 H   0  0  0  0  0  0  0  0  0  0  0  0
  147.9174  137.2166  162.6779 H   0  0  0  0  0  0  0  0  0  0  0  0
  147.8717  136.6177  161.0218 H   0  0  0  0  0  0  0  0  0  0  0  0
  145.5123  137.2401  162.8215 H   0  0  0  0  0  0  0  0  0  0  0  0
  145.0401  137.9483  160.3986 H   0  0  0  0  0  0  0  0  0  0  0  0
  145.6679  132.0813  158.0586 H   0  0  0  0  0  0  0  0  0  0  0  0
  145.4837  133.6975  153.1482 H   0  0  0  0  0  0  0  0  0  0  0  0
  144.9138  131.6005  152.3687 H   0  0  0  0  0  0  0  0  0  0  0  0
  143.2103  132.0019  152.2576 H   0  0  0  0  0  0  0  0  0  0  0  0
  145.3787  132.6143  150.2358 H   0  0  0  0  0  0  0  0  0  0  0  0
  143.7356  132.0260  149.9397 H   0  0  0  0  0  0  0  0  0  0  0  0
  143.9977  135.6601  151.7775 H   0  0  0  0  0  0  0  0  0  0  0  0
  145.5368  134.9604  151.3013 H   0  0  0  0  0  0  0  0  0  0  0  0
  1  2  1  0  0  0  0
  1 31  1  0  0  0  0
  2  3  1  0  0  0  0
  2 32  1  0  0  0  0
  2 33  1  0  0  0  0
  3  4  1  0  0  0  0
  3 26  1  0  0  0  0
  3 34  1  0  0  0  0
  4  5  1  0  0  0  0
  4 35  1  0  0  0  0
  4 36  1  0  0  0  0
  5 25  1  0  0  0  0
  5  6  1  0  0  0  0
  6  7  2  0  0  0  0
  6 37  1  0  0  0  0
  7  8  1  0  0  0  0
  8 25  2  0  0  0  0
  8  9  1  0  0  0  0
  9 10  1  0  0  0  0
  9 22  2  0  0  0  0
 10 15  1  0  0  0  0
 10 11  1  0  0  0  0
 11 12  1  0  0  0  0
 11 38  1  0  0  0  0
 11 39  1  0  0  0  0
 12 13  1  0  0  0  0
 12 40  1  0  0  0  0
 12 41  1  0  0  0  0
 13 14  1  0  0  0  0
 13 42  1  0  0  0  0
 13 43  1  0  0  0  0
 14 15  1  0  0  0  0
 14 44  1  0  0  0  0
 14 45  1  0  0  0  0
 15 16  1  0  0  0  0
 15 46  1  0  0  0  0
 16 20  1  0  0  0  0
 16 17  1  0  0  0  0
 16 47  1  0  0  0  0
 17 18  1  0  0  0  0
 17 48  1  0  0  0  0
 17 49  1  0  0  0  0
 18 19  1  0  0  0  0
 18 50  1  0  0  0  0
 18 51  1  0  0  0  0
 19 20  1  0  0  0  0
 19 52  1  0  0  0  0
 19 53  1  0  0  0  0
 20 21  1  0  0  0  0
 20 54  1  0  0  0  0
 21 55  1  0  0  0  0
 22 23  1  0  0  0  0
 23 24  2  0  0  0  0
 23 56  1  0  0  0  0
 24 25  1  0  0  0  0
 26 30  1  0  0  0  0
 26 27  1  0  0  0  0
 26 57  1  0  0  0  0
 27 28  1  0  0  0  0
 27 58  1  0  0  0  0
 27 59  1  0  0  0  0
 28 29  1  0  0  0  0
 28 60  1  0  0  0  0
 28 61  1  0  0  0  0
 29 30  1  0  0  0  0
 30 62  1  0  0  0  0
 30 63  1  0  0  0  0
M  END
> <s_m_source_file>
AV-unprocessed.smi

> <i_m_source_file_index>
148

> <i_lp_mmshare_version>
43012

> <i_f3d_flags>
0

> <s_epik_input>
W0NIMl0xT1tDSDJdW0NIMl1bQ0BIXTFbQ0BIXShbQ0gyXVtPSF0pW0NIMl1uKFtjSF1uMiljKGMyMyluW2NIXW5jM040W0NIMl1bQ0gyXVtDSDJdW0NIMl1bQ0BIXTRbQ0BASF01W0NIMl1bQ0gyXVtDSDJdW0NASF01W09IXQ==

> <s_epik_cmdline>
J2VwaWtfcHl0aG9uJywgJy1waCcsICc3LjAnLCAnLXRuJywgJzgnLCAnLW1hJywgJzIwMCcsICctbWV0YWxfYmluZGluZycsICctaW1hZScsICc8aW5maWxlLm1hZT4nLCAnLW9tYWUnLCAnPG91dGZpbGUubWFlPic=

> <r_lp_tautomer_probability>
1

> <r_epik_Ionization_Penalty>
0.00556303

> <r_epik_Ionization_Penalty_Charging>
0

> <r_epik_Ionization_Penalty_Neutral>
0.00556303

> <r_epik_State_Penalty>
0.00401767

> <r_epik_Charging_Adjusted_Penalty>
0.00401767

> <i_epik_Tot_Q>
0

> <i_epik_Tot_abs_Q>
0

> <r_epik_Metal_State_Penalty>
-0

> <b_epik_Metal_Only>
0

> <s_lp_Force_Field>
OPLS_2005

> <r_lp_Energy>
68.3578

> <b_lp_Chiralities_Consistent>
1

> <s_lp_Variant>
AV-unprocessed.smi:148-17

> <Gold.Version>
5.8.1

> <Gold.Id.Protein>
6NUR|6NUR_protein|mol2

> <Gold.PLP.Fitness>
42.9730

> <Gold.PLP.PLP>
-38.2899

> <Gold.PLP.part.hbond>
-2.0000

> <Gold.PLP.part.metal>
0.0000

> <Gold.PLP.part.buried>
-8.3448

> <Gold.PLP.part.nonpolar>
-27.8727

> <Gold.PLP.part.repulsive>
0.3503

> <Gold.PLP.ligand.clash>
0.0000

> <Gold.PLP.ligand.torsion>
0.6748

> <Gold.PLP.Chemscore.Hbond>
1.8640

> <Gold.PLP.Chemscore.CHOScore>
0.0000

> <Gold.PLP.Chemscore.Metal>
0.0000

> <Gold.Chemscore.Hbonds>
donor molecule, donor type, donor heavy atom, donor atom, acceptor molecule, acceptor atom, score
      P1  H  6934  6947       L1    21  0.86

> <Gold.PLP.Chemscore.Internal.Correction>
0.4408

> <Gold.Rescore>
     Score         DG    S(hbond)    S(metal)    S(lipo)     H(rot)  DE(clash)    DE(int)     intcor
     12.40     -13.03       1.65        0.00      90.12       3.32       0.01       0.61       ----

> <Gold.Chemscore.Fitness>
12.4047

> <Gold.Chemscore.DG>
-13.0256

> <Gold.Chemscore.ZeroCoef>
-5.4800

> <Gold.Chemscore.Hbond>
1.6472

> <Gold.Chemscore.Metal>
0.0000

> <Gold.Chemscore.Lipo>
90.1206

> <Gold.Chemscore.Internal_Hbond>
0.0000

> <Gold.Chemscore.DEClash>
0.0069

> <Gold.Chemscore.DEInternal>
0.6140

> <Gold.Chemscore.Rot>
3.3203

> <Gold.Chemscore.Internal.Correction>
   9.000000E+99

> <Gold.Chemscore.Hbonds>
donor molecule, donor type, donor heavy atom, donor atom, acceptor molecule, acceptor atom, score
      P1  H  6934  6947       L1    21  0.72

> <Gold.Chemscore.Hbond.Weighted>
-5.5015

> <Gold.Chemscore.Metal.Weighted>
-0.0000

> <Gold.Chemscore.Lipo.Weighted>
-10.5441

> <Gold.Chemscore.Internal_Hbond.Weighted>
0.0000

> <Gold.Chemscore.DEClash.Weighted>
0.0069

> <Gold.Chemscore.DEInternal.Weighted>
0.6140

> <Gold.Chemscore.Rot.Weighted>
8.5000

> <Gold.Chemscore.Internal.Correction.Weighted>
   9.000000E+99

> <Gold.Protein.RotatedTorsions>
[ 6907 6896 6895 6894 ] final -149.04 input  -60.11 | X-H torsion
[ 7974 7965 7964 7962 ] final  111.68 input  175.53 | X-H torsion
[ 8008 7997 7996 7995 ] final -107.88 input   59.86 | X-H torsion
[ 10167 10162 10161 10158 ] final   47.69 input  -65.29 | X-H torsion
[ 10718 10713 10712 10709 ] final -176.77 input   66.30 | X-H torsion
[ 10763 10752 10751 10750 ] final -153.35 input  -60.55 | X-H torsion
[ 11005 11000 10999 10996 ] final   20.76 input  -57.11 | X-H torsion

> <Gold.Protein.ActiveResidues>
 VAL166  LYS551  ARG553  GLY616  TRP617  ASP618  TYR619  PRO620  LYS621  CYS622 
 ASP623  PHE694  ASN695  SER759  ASP760  ASP761  ALA762  ILE779  LEU786  VAL792 
 PHE793  MET794  SER795  GLU796  ALA797  LYS798  CYS799  TRP800  GLU811  SER814 

> <Gold.Protein.RotatedAtoms>
  151.1784  133.4740  159.2593 H   0  0  0  0  0  0  0  0  0  0  0  0  # atno 6907 bound_to 6896
  151.1284  135.0117  159.8581 H   0  0  0  0  0  0  0  0  0  0  0  0  # atno 6908 bound_to 6896
  152.5459  134.1689  159.8641 H   0  0  0  0  0  0  0  0  0  0  0  0  # atno 6909 bound_to 6896
  145.2391  139.2786  143.4127 H   0  0  0  0  0  0  0  0  0  0  0  0  # atno 7974 bound_to 7965
  154.9360  140.0404  157.2072 H   0  0  0  0  0  0  0  0  0  0  0  0  # atno 8008 bound_to 7997
  154.8115  140.2868  155.5828 H   0  0  0  0  0  0  0  0  0  0  0  0  # atno 8009 bound_to 7997
  156.2972  140.2536  156.3004 H   0  0  0  0  0  0  0  0  0  0  0  0  # atno 8010 bound_to 7997
  140.3011  144.2933  150.6219 H   0  0  0  0  0  0  0  0  0  0  0  0  # atno 10167 bound_to 10162
  156.8196  130.9615  151.3112 H   0  0  0  0  0  0  0  0  0  0  0  0  # atno 10718 bound_to 10713
  154.7933  135.3215  154.7726 H   0  0  0  0  0  0  0  0  0  0  0  0  # atno 10763 bound_to 10752
  153.8410  135.6871  153.4807 H   0  0  0  0  0  0  0  0  0  0  0  0  # atno 10764 bound_to 10752
  153.1613  135.4660  154.9717 H   0  0  0  0  0  0  0  0  0  0  0  0  # atno 10765 bound_to 10752
  140.3991  134.1737  155.7663 H   0  0  0  0  0  0  0  0  0  0  0  0  # atno 11005 bound_to 11000
  146.3333  140.2749  142.8607 LP  0  0  0  0  0  0  0  0  0  0  0  0  # atno 17320 bound_to 7965
  144.9606  140.8271  143.5516 LP  0  0  0  0  0  0  0  0  0  0  0  0  # atno 17321 bound_to 7965
  140.5650  143.2187  151.7698 LP  0  0  0  0  0  0  0  0  0  0  0  0  # atno 17342 bound_to 10162
  139.4915  144.4296  151.9887 LP  0  0  0  0  0  0  0  0  0  0  0  0  # atno 17343 bound_to 10162
  157.6463  130.8847  149.9546 LP  0  0  0  0  0  0  0  0  0  0  0  0  # atno 17370 bound_to 10713
  156.0996  130.3657  150.0242 LP  0  0  0  0  0  0  0  0  0  0  0  0  # atno 17371 bound_to 10713
  141.1863  133.8305  157.1073 LP  0  0  0  0  0  0  0  0  0  0  0  0  # atno 17394 bound_to 11000
  140.0349  134.9883  157.0853 LP  0  0  0  0  0  0  0  0  0  0  0  0  # atno 17395 bound_to 11000

$$$$
