AV-unprocessed.smi:2237|AV-procd|sdf|9052|dock2
  -GOLD-   2272012253D 1   1.00000     0.00000
 Structure written by MMmdl.
 54 56  0  0  0  0  0  0  0  0  2 V2000
  153.2702  141.1416  160.2474 C   0  0  0  0  0  0  0  0  0  0  0  0
  152.6922  142.3241  159.4986 C   0  0  0  0  0  0  0  0  0  0  0  0
  153.0360  143.6437  159.8520 C   0  0  0  0  0  0  0  0  0  0  0  0
  152.4646  144.6971  159.1160 C   0  0  0  0  0  0  0  0  0  0  0  0
  151.5788  144.3899  158.0651 C   0  0  0  0  0  0  0  0  0  0  0  0
  151.2849  143.0381  157.7765 C   0  0  0  0  0  0  0  0  0  0  0  0
  150.3833  142.8346  156.6981 N   0  0  0  0  0  0  0  0  0  0  0  0
  150.0824  141.6826  156.0730 C   0  0  0  0  0  0  0  0  0  0  0  0
  150.5392  140.5749  156.3574 O   0  0  0  0  0  0  0  0  0  0  0  0
  149.2019  141.8839  155.0814 N   0  0  0  0  0  0  0  0  0  0  0  0
  148.6748  140.8435  154.2031 C   0  0  2  0  0  0  0  0  0  0  0  0
  147.4400  141.3657  153.4579 C   0  0  0  0  0  0  0  0  0  0  0  0
  146.7998  140.2716  152.5860 C   0  0  0  0  0  0  0  0  0  0  0  0
  146.4421  139.0633  153.3856 N   0  3  1  0  0  0  0  0  0  0  0  0
  145.7095  137.9915  152.6346 C   0  0  0  0  0  0  0  0  0  0  0  0
  145.4258  136.7142  153.4623 C   0  0  0  0  0  0  0  0  0  0  0  0
  144.7671  135.6142  152.6119 C   0  0  0  0  0  0  0  0  0  0  0  0
  145.6304  135.2645  151.4865 N   0  0  0  0  0  0  0  0  0  0  0  0
  145.0225  134.1779  150.7314 C   0  0  0  0  0  0  0  0  0  0  0  0
  145.7962  136.4256  150.6158 C   0  0  0  0  0  0  0  0  0  0  0  0
  146.5006  137.5610  151.3779 C   0  0  0  0  0  0  0  0  0  0  0  0
  147.6413  138.5333  154.0967 C   0  0  0  0  0  0  0  0  0  0  0  0
  148.2838  139.5931  155.0055 C   0  0  0  0  0  0  0  0  0  0  0  0
  151.8411  142.0292  158.4922 N   0  0  0  0  0  0  0  0  0  0  0  0
  154.1023  141.4460  160.8829 H   0  0  0  0  0  0  0  0  0  0  0  0
  153.6359  140.3877  159.5493 H   0  0  0  0  0  0  0  0  0  0  0  0
  152.5067  140.6852  160.8777 H   0  0  0  0  0  0  0  0  0  0  0  0
  153.7184  143.8461  160.6643 H   0  0  0  0  0  0  0  0  0  0  0  0
  152.7008  145.7240  159.3525 H   0  0  0  0  0  0  0  0  0  0  0  0
  151.1323  145.1880  157.4899 H   0  0  0  0  0  0  0  0  0  0  0  0
  149.9195  143.6645  156.3597 H   0  0  0  0  0  0  0  0  0  0  0  0
  148.8773  142.8262  154.9192 H   0  0  0  0  0  0  0  0  0  0  0  0
  149.4345  140.5753  153.4659 H   0  0  0  0  0  0  0  0  0  0  0  0
  146.7024  141.7320  154.1738 H   0  0  0  0  0  0  0  0  0  0  0  0
  147.7137  142.2179  152.8343 H   0  0  0  0  0  0  0  0  0  0  0  0
  145.9147  140.7146  152.1318 H   0  0  0  0  0  0  0  0  0  0  0  0
  147.4734  139.9887  151.7754 H   0  0  0  0  0  0  0  0  0  0  0  0
  144.7450  138.3969  152.3235 H   0  0  0  0  0  0  0  0  0  0  0  0
  146.3515  136.3305  153.8940 H   0  0  0  0  0  0  0  0  0  0  0  0
  144.7536  136.9332  154.2922 H   0  0  0  0  0  0  0  0  0  0  0  0
  144.5996  134.7307  153.2296 H   0  0  0  0  0  0  0  0  0  0  0  0
  143.7904  135.9438  152.2530 H   0  0  0  0  0  0  0  0  0  0  0  0
  145.6571  133.8940  149.8912 H   0  0  0  0  0  0  0  0  0  0  0  0
  144.0443  134.4613  150.3399 H   0  0  0  0  0  0  0  0  0  0  0  0
  144.8960  133.2973  151.3623 H   0  0  0  0  0  0  0  0  0  0  0  0
  146.3953  136.1459  149.7481 H   0  0  0  0  0  0  0  0  0  0  0  0
  144.8276  136.7621  150.2418 H   0  0  0  0  0  0  0  0  0  0  0  0
  146.6344  138.3928  150.6885 H   0  0  0  0  0  0  0  0  0  0  0  0
  147.5028  137.2376  151.6646 H   0  0  0  0  0  0  0  0  0  0  0  0
  147.3839  137.6741  154.7128 H   0  0  0  0  0  0  0  0  0  0  0  0
  148.3709  138.1822  153.3650 H   0  0  0  0  0  0  0  0  0  0  0  0
  149.1626  139.1694  155.4935 H   0  0  0  0  0  0  0  0  0  0  0  0
  147.5874  139.8614  155.8015 H   0  0  0  0  0  0  0  0  0  0  0  0
  145.8020  139.3885  154.0961 H   0  0  0  0  0  0  0  0  0  0  0  0
  1  2  1  0  0  0  0
  1 25  1  0  0  0  0
  1 26  1  0  0  0  0
  1 27  1  0  0  0  0
  2 24  1  0  0  0  0
  2  3  2  0  0  0  0
  3  4  1  0  0  0  0
  3 28  1  0  0  0  0
  4  5  2  0  0  0  0
  4 29  1  0  0  0  0
  5  6  1  0  0  0  0
  5 30  1  0  0  0  0
  6  7  1  0  0  0  0
  6 24  2  0  0  0  0
  7  8  1  0  0  0  0
  7 31  1  0  0  0  0
  8  9  2  0  0  0  0
  8 10  1  0  0  0  0
 10 11  1  0  0  0  0
 10 32  1  0  0  0  0
 11 23  1  0  0  0  0
 11 12  1  0  0  0  0
 11 33  1  0  0  0  0
 12 13  1  0  0  0  0
 12 34  1  0  0  0  0
 12 35  1  0  0  0  0
 13 14  1  0  0  0  0
 13 36  1  0  0  0  0
 13 37  1  0  0  0  0
 14 15  1  0  0  0  0
 14 22  1  0  0  0  0
 14 54  1  0  0  0  0
 15 21  1  0  0  0  0
 15 16  1  0  0  0  0
 15 38  1  0  0  0  0
 16 17  1  0  0  0  0
 16 39  1  0  0  0  0
 16 40  1  0  0  0  0
 17 18  1  0  0  0  0
 17 41  1  0  0  0  0
 17 42  1  0  0  0  0
 18 19  1  0  0  0  0
 18 20  1  0  0  0  0
 19 43  1  0  0  0  0
 19 44  1  0  0  0  0
 19 45  1  0  0  0  0
 20 21  1  0  0  0  0
 20 46  1  0  0  0  0
 20 47  1  0  0  0  0
 21 48  1  0  0  0  0
 21 49  1  0  0  0  0
 22 23  1  0  0  0  0
 22 50  1  0  0  0  0
 22 51  1  0  0  0  0
 23 52  1  0  0  0  0
 23 53  1  0  0  0  0
M  CHG  1  14   1
M  END
> <s_m_source_file>
AV-unprocessed.smi

> <i_m_source_file_index>
2237

> <i_lp_mmshare_version>
43012

> <i_f3d_flags>
0

> <s_epik_input>
W0NIM11jMVtjSF1bY0hdW2NIXWMobjEpW05IXUMoPU8pW05IXVtDSF0yW0NIMl1bQ0gyXU4oW0NIMl1bQ0gyXTIpW0NIXTNbQ0gyXVtDSDJdTihbQ0gzXSlbQ0gyXVtDSDJdMw==

> <s_epik_cmdline>
J2VwaWtfcHl0aG9uJywgJy1waCcsICc3LjAnLCAnLXRuJywgJzgnLCAnLW1hJywgJzIwMCcsICctbWV0YWxfYmluZGluZycsICctaW1hZScsICc8aW5maWxlLm1hZT4nLCAnLW9tYWUnLCAnPG91dGZpbGUubWFlPic=

> <r_epik_Ionization_Penalty>
1.37251

> <r_epik_Ionization_Penalty_Charging>
0.00081195

> <r_epik_Ionization_Penalty_Neutral>
1.3717

> <r_epik_State_Penalty>
1.55149

> <r_epik_Charging_Adjusted_Penalty>
1.5523

> <i_epik_Tot_Q>
1

> <i_epik_Tot_abs_Q>
1

> <r_epik_Metal_State_Penalty>
1.55149

> <b_epik_Metal_Only>
0

> <s_lp_Force_Field>
OPLS_2005

> <r_lp_Energy>
32.6589

> <b_lp_Chiralities_Consistent>
1

> <s_lp_Variant>
AV-unprocessed.smi:2237-7

> <Gold.Version>
5.8.1

> <Gold.Id.Protein>
6NUR|6NUR_protein|mol2

> <Gold.PLP.Fitness>
49.1232

> <Gold.PLP.PLP>
-43.9578

> <Gold.PLP.part.hbond>
-2.1869

> <Gold.PLP.part.metal>
0.0000

> <Gold.PLP.part.buried>
-0.4393

> <Gold.PLP.part.nonpolar>
-41.8491

> <Gold.PLP.part.repulsive>
0.4522

> <Gold.PLP.ligand.clash>
0.0000

> <Gold.PLP.ligand.torsion>
0.3021

> <Gold.PLP.Chemscore.Hbond>
1.9120

> <Gold.PLP.Chemscore.CHOScore>
0.0000

> <Gold.PLP.Chemscore.Metal>
0.0000

> <Gold.Chemscore.Hbonds>
donor molecule, donor type, donor heavy atom, donor atom, acceptor molecule, acceptor atom, score
      L1  H     7    31       P1  8028  1.00
      L1  H    10    32       P1  8028  0.91

> <Gold.PLP.Chemscore.Internal.Correction>
0.0337

> <Gold.Rescore>
     Score         DG    S(hbond)    S(metal)    S(lipo)     H(rot)  DE(clash)    DE(int)     intcor
     19.30     -23.89       1.93        0.00     128.78       1.21       1.74       2.85       ----

> <Gold.Chemscore.Fitness>
19.3003

> <Gold.Chemscore.DG>
-23.8920

> <Gold.Chemscore.ZeroCoef>
-5.4800

> <Gold.Chemscore.Hbond>
1.9300

> <Gold.Chemscore.Metal>
0.0000

> <Gold.Chemscore.Lipo>
128.7759

> <Gold.Chemscore.Internal_Hbond>
0.0000

> <Gold.Chemscore.DEClash>
1.7448

> <Gold.Chemscore.DEInternal>
2.8469

> <Gold.Chemscore.Rot>
1.2113

> <Gold.Chemscore.Internal.Correction>
   9.000000E+99

> <Gold.Chemscore.Hbonds>
donor molecule, donor type, donor heavy atom, donor atom, acceptor molecule, acceptor atom, score
      L1  H     7    31       P1  8028  0.99
      L1  H    10    32       P1  8028  0.83

> <Gold.Chemscore.Hbond.Weighted>
-6.4461

> <Gold.Chemscore.Metal.Weighted>
-0.0000

> <Gold.Chemscore.Lipo.Weighted>
-15.0668

> <Gold.Chemscore.Internal_Hbond.Weighted>
0.0000

> <Gold.Chemscore.DEClash.Weighted>
1.7448

> <Gold.Chemscore.DEInternal.Weighted>
2.8469

> <Gold.Chemscore.Rot.Weighted>
3.1009

> <Gold.Chemscore.Internal.Correction.Weighted>
   9.000000E+99

> <Gold.Protein.RotatedTorsions>
[ 6907 6896 6895 6894 ] final   41.45 input  -60.11 | X-H torsion
[ 7974 7965 7964 7962 ] final   18.87 input  175.53 | X-H torsion
[ 8008 7997 7996 7995 ] final -174.29 input   59.86 | X-H torsion
[ 10167 10162 10161 10158 ] final  -45.63 input  -65.29 | X-H torsion
[ 10718 10713 10712 10709 ] final   14.88 input   66.30 | X-H torsion
[ 10763 10752 10751 10750 ] final  -60.59 input  -60.55 | X-H torsion
[ 11005 11000 10999 10996 ] final  -11.09 input  -57.11 | X-H torsion

> <Gold.Protein.ActiveResidues>
 VAL166  LYS551  ARG553  GLY616  TRP617  ASP618  TYR619  PRO620  LYS621  CYS622 
 ASP623  PHE694  ASN695  SER759  ASP760  ASP761  ALA762  ILE779  LEU786  VAL792 
 PHE793  MET794  SER795  GLU796  ALA797  LYS798  CYS799  TRP800  GLU811  SER814 

> <Gold.Protein.RotatedAtoms>
  152.1954  134.8635  160.0513 H   0  0  0  0  0  0  0  0  0  0  0  0  # atno 6907 bound_to 6896
  151.9508  133.3660  159.4007 H   0  0  0  0  0  0  0  0  0  0  0  0  # atno 6908 bound_to 6896
  150.6943  134.4266  159.5273 H   0  0  0  0  0  0  0  0  0  0  0  0  # atno 6909 bound_to 6896
  146.2170  139.8395  142.8644 H   0  0  0  0  0  0  0  0  0  0  0  0  # atno 7974 bound_to 7965
  155.9682  140.1157  157.0836 H   0  0  0  0  0  0  0  0  0  0  0  0  # atno 8008 bound_to 7997
  154.4149  140.1168  156.5338 H   0  0  0  0  0  0  0  0  0  0  0  0  # atno 8009 bound_to 7997
  155.6631  140.3473  155.4792 H   0  0  0  0  0  0  0  0  0  0  0  0  # atno 8010 bound_to 7997
  140.6850  143.2870  151.3667 H   0  0  0  0  0  0  0  0  0  0  0  0  # atno 10167 bound_to 10162
  157.0455  130.6248  149.5758 H   0  0  0  0  0  0  0  0  0  0  0  0  # atno 10718 bound_to 10713
  154.2715  135.6289  153.5312 H   0  0  0  0  0  0  0  0  0  0  0  0  # atno 10763 bound_to 10752
  152.9879  135.5611  154.5595 H   0  0  0  0  0  0  0  0  0  0  0  0  # atno 10764 bound_to 10752
  154.5166  135.2880  155.1273 H   0  0  0  0  0  0  0  0  0  0  0  0  # atno 10765 bound_to 10752
  140.7516  133.8587  155.9050 H   0  0  0  0  0  0  0  0  0  0  0  0  # atno 11005 bound_to 11000
  145.2913  141.0168  143.3661 LP  0  0  0  0  0  0  0  0  0  0  0  0  # atno 17320 bound_to 7965
  144.9075  139.4571  143.6603 LP  0  0  0  0  0  0  0  0  0  0  0  0  # atno 17321 bound_to 7965
  139.6201  144.0923  152.2383 LP  0  0  0  0  0  0  0  0  0  0  0  0  # atno 17342 bound_to 10162
  140.0365  144.6041  150.7445 LP  0  0  0  0  0  0  0  0  0  0  0  0  # atno 17343 bound_to 10162
  156.0024  130.5106  150.7712 LP  0  0  0  0  0  0  0  0  0  0  0  0  # atno 17370 bound_to 10713
  157.5071  131.0923  151.0243 LP  0  0  0  0  0  0  0  0  0  0  0  0  # atno 17371 bound_to 10713
  140.9745  134.1487  157.4548 LP  0  0  0  0  0  0  0  0  0  0  0  0  # atno 17394 bound_to 11000
  139.8786  134.9990  156.5930 LP  0  0  0  0  0  0  0  0  0  0  0  0  # atno 17395 bound_to 11000

$$$$
