#       Name:                AV-unprocessed.smi:315
#       Creating user name   scv26
#       Creation time:       Thu Mar 26 22:22:27 2020


#       File generated by GOLD software.
#

@<TRIPOS>MOLECULE
AV-unprocessed.smi:315
    52    54     1
SMALL
NO_CHARGES


@<TRIPOS>ATOM
      1 ****        -1.9462   3.1100   0.3670 C.3            1 S1                 0.0000
      2 ****        -0.5064   3.5724   0.6022 C.3            1 S1                 0.0000
      3 ****         0.3209   2.4222   0.7417 O.3            1 S1                 0.0000
      4 ****         1.6735   2.5992   0.9638 C.ar           1 S1                 0.0000
      5 ****         2.1618   3.8631   1.0235 N.ar           1 S1                 0.0000
      6 ****         3.4833   4.0302   1.2391 C.ar           1 S1                 0.0000
      7 ****         4.3790   2.9582   1.4101 C.ar           1 S1                 0.0000
      8 ****         3.8743   1.6461   1.3483 C.ar           1 S1                 0.0000
      9 ****         2.4924   1.4564   1.1098 C.ar           1 S1                 0.0000
     10 ****         1.8731   0.1810   1.0495 N.am           1 S1                 0.0000
     11 ****         2.3991  -0.9857   0.6327 C.2            1 S1                 0.0000
     12 ****         3.5813  -1.1591   0.3470 O.2            1 S1                 0.0000
     13 ****         1.4989  -1.9791   0.5151 N.am           1 S1                 0.0000
     14 ****         1.7235  -3.3653   0.0904 C.3            1 S1                 0.0000
     15 ****         0.4566  -4.0216  -0.4903 C.3            1 S1                 0.0000
     16 ****         0.4853  -5.4573   0.0423 C.3            1 S1                 0.0000
     17 ****         1.1012  -5.3022   1.3646 N.4            1 S1                 1.0000
     18 ****         1.5171  -6.5150   2.0974 C.3            1 S1                 0.0000
     19 ****         1.9442  -6.1004   3.5216 C.3            1 S1                 0.0000
     20 ****         2.9951  -4.9678   3.5097 C.3            1 S1                 0.0000
     21 ****         2.5582  -3.7848   2.6186 C.3            1 S1                 0.0000
     22 ****         2.1882  -4.3177   1.2219 C.3            1 S1                 0.0000
     23 ****        -2.6176   3.9632   0.2685 H              1 S1                 0.0000
     24 ****        -2.3014   2.4977   1.1961 H              1 S1                 0.0000
     25 ****        -2.0228   2.5183  -0.5448 H              1 S1                 0.0000
     26 ****        -0.1753   4.1827  -0.2398 H              1 S1                 0.0000
     27 ****        -0.4611   4.1851   1.5038 H              1 S1                 0.0000
     28 ****         3.8363   5.0498   1.2829 H              1 S1                 0.0000
     29 ****         5.4284   3.1384   1.5904 H              1 S1                 0.0000
     30 ****         4.5470   0.8155   1.4977 H              1 S1                 0.0000
     31 ****         0.8747   0.1843   1.1976 H              1 S1                 0.0000
     32 ****         0.5393  -1.7315   0.7105 H              1 S1                 0.0000
     33 ****         2.4774  -3.3771  -0.6993 H              1 S1                 0.0000
     34 ****        -0.4368  -3.5185  -0.1161 H              1 S1                 0.0000
     35 ****         0.4232  -3.9823  -1.5797 H              1 S1                 0.0000
     36 ****        -0.5075  -5.9043   0.1028 H              1 S1                 0.0000
     37 ****         1.1146  -6.0893  -0.5868 H              1 S1                 0.0000
     38 ****         0.6867  -7.2203   2.1448 H              1 S1                 0.0000
     39 ****         2.3355  -7.0102   1.5727 H              1 S1                 0.0000
     40 ****         1.0661  -5.7628   4.0737 H              1 S1                 0.0000
     41 ****         2.3316  -6.9645   4.0620 H              1 S1                 0.0000
     42 ****         3.1852  -4.6216   4.5260 H              1 S1                 0.0000
     43 ****         3.9408  -5.3651   3.1405 H              1 S1                 0.0000
     44 ****         1.7071  -3.2711   3.0678 H              1 S1                 0.0000
     45 ****         3.3714  -3.0620   2.5569 H              1 S1                 0.0000
     46 ****         3.0601  -4.8472   0.8308 H              1 S1                 0.0000
     47 ****         0.3970  -4.8546   1.9340 H              1 S1                 0.0000
     48 ****         0.2282   1.8895  -0.0995 LP             1 S1                 0.0000
     49 ****        -0.0370   1.8942   1.5118 LP             1 S1                 0.0000
     50 ****         1.5574   4.6518   0.9105 LP             1 S1                 0.0000
     51 ****         4.2292  -0.4006   0.4174 LP             1 S1                 0.0000
     52 ****         3.8957  -2.0587   0.0441 LP             1 S1                 0.0000
@<TRIPOS>BOND
    1    1    2 1     
    2    1   23 1     
    3    1   24 1     
    4    1   25 1     
    5    2    3 1     
    6    2   26 1     
    7    2   27 1     
    8    3    4 1     
    9    4    9 ar    
   10    4    5 ar    
   11    5    6 ar    
   12    6    7 ar    
   13    6   28 1     
   14    7    8 ar    
   15    7   29 1     
   16    8    9 ar    
   17    8   30 1     
   18    9   10 1     
   19   10   11 am    
   20   10   31 1     
   21   11   12 2     
   22   11   13 am    
   23   13   14 1     
   24   13   32 1     
   25   14   22 1     
   26   14   15 1     
   27   14   33 1     
   28   15   16 1     
   29   15   34 1     
   30   15   35 1     
   31   16   17 1     
   32   16   36 1     
   33   16   37 1     
   34   17   22 1     
   35   17   18 1     
   36   17   47 1     
   37   18   19 1     
   38   18   38 1     
   39   18   39 1     
   40   19   20 1     
   41   19   40 1     
   42   19   41 1     
   43   20   21 1     
   44   20   42 1     
   45   20   43 1     
   46   21   22 1     
   47   21   44 1     
   48   21   45 1     
   49   22   46 1     
   50    3   48 1     
   51    3   49 1     
   52    5   50 1     
   53   12   51 1     
   54   12   52 1     
@<TRIPOS>SUBSTRUCTURE
      1 S1             1
@<TRIPOS>SET
LONE_PAIRS      STATIC     ATOMS    <user>   **** ""
5 48 49 50 51 52
DONOR_HYDROGENS      STATIC     ATOMS    <user>   **** ""
3 31 32 47
ATOM$BLUE        STATIC     ATOMS    COLORGROUP SYSTEM
5 48 49 50 51 52
ATOM$RED        STATIC     ATOMS    COLORGROUP SYSTEM
3 31 32 47
