AV-unprocessed.smi:100|AV-procd|sdf|903|dock4
  -GOLD-   2262017403D 1   1.00000     0.00000
 Structure written by MMmdl.
 31 33  0  0  0  0  0  0  0  0  1 V2000
  146.9128  131.0474  148.7036 N   0  0  0  0  0  0  0  0  0  0  0  0
  145.8734  131.8147  149.0598 C   0  0  0  0  0  0  0  0  0  0  0  0
  144.8142  131.8935  148.2204 N   0  0  0  0  0  0  0  0  0  0  0  0
  143.7662  132.6553  148.5513 C   0  0  0  0  0  0  0  0  0  0  0  0
  143.5844  133.3959  149.6484 N   0  0  0  0  0  0  0  0  0  0  0  0
  144.6520  133.3097  150.4952 C   0  0  0  0  0  0  0  0  0  0  0  0
  145.8319  132.5481  150.2724 C   0  0  0  0  0  0  0  0  0  0  0  0
  146.7068  132.7110  151.3376 N   0  0  0  0  0  0  0  0  0  0  0  0
  146.0777  133.5290  152.1387 C   0  0  0  0  0  0  0  0  0  0  0  0
  144.8214  133.9194  151.7204 N   0  0  0  0  0  0  0  0  0  0  0  0
  143.8518  134.8513  152.3808 C   0  0  2  0  0  0  0  0  0  0  0  0
  143.8730  136.0638  151.6794 O   0  0  0  0  0  0  0  0  0  0  0  0
  144.4991  137.0955  152.4441 C   0  0  2  0  0  0  0  0  0  0  0  0
  146.0160  137.1553  152.1727 C   0  0  0  0  0  0  0  0  0  0  0  0
  146.2528  137.4862  150.8216 O   0  0  0  0  0  0  0  0  0  0  0  0
  144.1608  136.6793  153.8745 C   0  0  1  0  0  0  0  0  0  0  0  0
  142.8980  137.0457  154.1117 F   0  0  0  0  0  0  0  0  0  0  0  0
  144.2925  135.1646  153.8218 C   0  0  1  0  0  0  0  0  0  0  0  0
  143.4896  134.5540  154.8127 O   0  0  0  0  0  0  0  0  0  0  0  0
  147.7150  130.9736  149.3128 H   0  0  0  0  0  0  0  0  0  0  0  0
  146.8923  130.5458  147.8277 H   0  0  0  0  0  0  0  0  0  0  0  0
  142.9576  132.6731  147.8357 H   0  0  0  0  0  0  0  0  0  0  0  0
  146.5185  133.8638  153.0667 H   0  0  0  0  0  0  0  0  0  0  0  0
  142.8803  134.3635  152.2900 H   0  0  0  0  0  0  0  0  0  0  0  0
  144.0495  138.0629  152.2148 H   0  0  0  0  0  0  0  0  0  0  0  0
  146.4695  137.9394  152.7796 H   0  0  0  0  0  0  0  0  0  0  0  0
  146.5245  136.2268  152.4287 H   0  0  0  0  0  0  0  0  0  0  0  0
  145.4214  137.6367  150.3982 H   0  0  0  0  0  0  0  0  0  0  0  0
  144.7880  137.1475  154.6336 H   0  0  0  0  0  0  0  0  0  0  0  0
  145.3367  134.8805  153.9624 H   0  0  0  0  0  0  0  0  0  0  0  0
  143.3627  133.6476  154.5751 H   0  0  0  0  0  0  0  0  0  0  0  0
  1  2  1  0  0  0  0
  1 20  1  0  0  0  0
  1 21  1  0  0  0  0
  2  7  1  0  0  0  0
  2  3  2  0  0  0  0
  3  4  1  0  0  0  0
  4  5  2  0  0  0  0
  4 22  1  0  0  0  0
  5  6  1  0  0  0  0
  6 10  1  0  0  0  0
  6  7  2  0  0  0  0
  7  8  1  0  0  0  0
  8  9  2  0  0  0  0
  9 10  1  0  0  0  0
  9 23  1  0  0  0  0
 10 11  1  0  0  0  0
 11 18  1  0  0  0  0
 11 12  1  0  0  0  0
 11 24  1  0  0  0  0
 12 13  1  0  0  0  0
 13 14  1  0  0  0  0
 13 16  1  0  0  0  0
 13 25  1  0  0  0  0
 14 15  1  0  0  0  0
 14 26  1  0  0  0  0
 14 27  1  0  0  0  0
 15 28  1  0  0  0  0
 16 17  1  0  0  0  0
 16 18  1  0  0  0  0
 16 29  1  0  0  0  0
 18 19  1  0  0  0  0
 18 30  1  0  0  0  0
 19 31  1  0  0  0  0
M  END
> <s_m_source_file>
AV-unprocessed.smi

> <i_m_source_file_index>
100

> <i_lp_mmshare_version>
43012

> <i_f3d_flags>
0

> <s_epik_input>
bjFbY0hdbmMoW05IMl0pYyhjMTIpbltjSF1uMltDQEBIXTNPW0NAQEhdKFtDSDJdW09IXSlbQ0BIXShGKVtDQEhdM1tPSF0=

> <s_epik_cmdline>
J2VwaWtfcHl0aG9uJywgJy1waCcsICc3LjAnLCAnLXRuJywgJzgnLCAnLW1hJywgJzIwMCcsICctbWV0YWxfYmluZGluZycsICctaW1hZScsICc8aW5maWxlLm1hZT4nLCAnLW9tYWUnLCAnPG91dGZpbGUubWFlPic=

> <r_lp_tautomer_probability>
1

> <r_epik_Ionization_Penalty>
0.000750324

> <r_epik_Ionization_Penalty_Charging>
0

> <r_epik_Ionization_Penalty_Neutral>
0.000750324

> <r_epik_State_Penalty>
-0

> <r_epik_Charging_Adjusted_Penalty>
0

> <i_epik_Tot_Q>
0

> <i_epik_Tot_abs_Q>
0

> <r_epik_Metal_State_Penalty>
-0

> <b_epik_Metal_Only>
0

> <s_epik_Chemistry_Notes>
This compound contains an acetal/aminal-like group ( X-CH(R)-Y where X, Y are N, S, or O) that may be acid/base labile, releasing an aldehyde.

> <s_lp_Force_Field>
OPLS_2005

> <r_lp_Energy>
31.6472

> <b_lp_Chiralities_Consistent>
1

> <s_lp_Variant>
AV-unprocessed.smi:100-7

> <Gold.Version>
5.8.1

> <Gold.Id.Protein>
6NUR|6NUR_protein|mol2

> <Gold.PLP.Fitness>
38.8080

> <Gold.PLP.PLP>
-24.8445

> <Gold.PLP.part.hbond>
-6.8932

> <Gold.PLP.part.metal>
0.0000

> <Gold.PLP.part.buried>
-0.0239

> <Gold.PLP.part.nonpolar>
-21.7257

> <Gold.PLP.part.repulsive>
3.9745

> <Gold.PLP.ligand.clash>
0.0000

> <Gold.PLP.ligand.torsion>
0.2569

> <Gold.PLP.Chemscore.Hbond>
3.8288

> <Gold.PLP.Chemscore.CHOScore>
0.9859

> <Gold.PLP.Chemscore.Metal>
0.0000

> <Gold.Chemscore.Hbonds>
donor molecule, donor type, donor heavy atom, donor atom, acceptor molecule, acceptor atom, score
      L1  H     1    20       P1 10747  1.00
      L1  H    15    28       P1 10171  1.00
      L1  H    19    31       P1 10957  1.00
      P1  H  7954  7966       L1    15  0.70
      L1  C     4    22       P1 10195  0.77

> <Gold.PLP.Chemscore.Internal.Correction>
0.0332

> <Gold.Rescore>
     Score         DG    S(hbond)    S(metal)    S(lipo)     H(rot)  DE(clash)    DE(int)     intcor
      9.93     -12.67       3.70        0.00      25.50       3.19       2.33       0.41       ----

> <Gold.Chemscore.Fitness>
9.9297

> <Gold.Chemscore.DG>
-12.6659

> <Gold.Chemscore.ZeroCoef>
-5.4800

> <Gold.Chemscore.Hbond>
3.7034

> <Gold.Chemscore.Metal>
0.0000

> <Gold.Chemscore.Lipo>
25.4982

> <Gold.Chemscore.Internal_Hbond>
0.0000

> <Gold.Chemscore.DEClash>
2.3254

> <Gold.Chemscore.DEInternal>
0.4108

> <Gold.Chemscore.Rot>
3.1901

> <Gold.Chemscore.Internal.Correction>
   9.000000E+99

> <Gold.Chemscore.Hbonds>
donor molecule, donor type, donor heavy atom, donor atom, acceptor molecule, acceptor atom, score
      L1  H     1    20       P1 10747  0.95
      L1  H    15    28       P1 10171  0.99
      L1  H    19    31       P1 10957  0.93
      P1  H  7954  7966       L1    15  0.66

> <Gold.Chemscore.Hbond.Weighted>
-12.3692

> <Gold.Chemscore.Metal.Weighted>
-0.0000

> <Gold.Chemscore.Lipo.Weighted>
-2.9833

> <Gold.Chemscore.Internal_Hbond.Weighted>
0.0000

> <Gold.Chemscore.DEClash.Weighted>
2.3254

> <Gold.Chemscore.DEInternal.Weighted>
0.4108

> <Gold.Chemscore.Rot.Weighted>
8.1667

> <Gold.Chemscore.Internal.Correction.Weighted>
   9.000000E+99

> <Gold.Protein.RotatedTorsions>
[ 6907 6896 6895 6894 ] final  -27.87 input  -60.11 | X-H torsion
[ 7974 7965 7964 7962 ] final  -83.64 input  175.53 | X-H torsion
[ 8008 7997 7996 7995 ] final  144.21 input   59.86 | X-H torsion
[ 10167 10162 10161 10158 ] final  -85.26 input  -65.29 | X-H torsion
[ 10718 10713 10712 10709 ] final -116.09 input   66.30 | X-H torsion
[ 10763 10752 10751 10750 ] final -178.15 input  -60.55 | X-H torsion
[ 11005 11000 10999 10996 ] final -153.76 input  -57.11 | X-H torsion

> <Gold.Protein.ActiveResidues>
 VAL166  LYS551  ARG553  GLY616  TRP617  ASP618  TYR619  PRO620  LYS621  CYS622 
 ASP623  PHE694  ASN695  SER759  ASP760  ASP761  ALA762  ILE779  LEU786  VAL792 
 PHE793  MET794  SER795  GLU796  ALA797  LYS798  CYS799  TRP800  GLU811  SER814 

> <Gold.Protein.RotatedAtoms>
  151.1409  135.0179  159.8624 H   0  0  0  0  0  0  0  0  0  0  0  0  # atno 6907 bound_to 6896
  152.5452  134.1501  159.8525 H   0  0  0  0  0  0  0  0  0  0  0  0  # atno 6908 bound_to 6896
  151.1576  133.4820  159.2627 H   0  0  0  0  0  0  0  0  0  0  0  0  # atno 6909 bound_to 6896
  145.5172  140.9535  143.1675 H   0  0  0  0  0  0  0  0  0  0  0  0  # atno 7974 bound_to 7965
  156.2913  140.2242  156.5016 H   0  0  0  0  0  0  0  0  0  0  0  0  # atno 8008 bound_to 7997
  154.7685  140.0468  157.1053 H   0  0  0  0  0  0  0  0  0  0  0  0  # atno 8009 bound_to 7997
  154.9903  140.3089  155.4912 H   0  0  0  0  0  0  0  0  0  0  0  0  # atno 8010 bound_to 7997
  140.4054  143.2645  151.9087 H   0  0  0  0  0  0  0  0  0  0  0  0  # atno 10167 bound_to 10162
  156.0940  130.6116  150.8991 H   0  0  0  0  0  0  0  0  0  0  0  0  # atno 10718 bound_to 10713
  154.5513  135.2813  155.1005 H   0  0  0  0  0  0  0  0  0  0  0  0  # atno 10763 bound_to 10752
  154.2450  135.6350  153.5224 H   0  0  0  0  0  0  0  0  0  0  0  0  # atno 10764 bound_to 10752
  153.0004  135.5569  154.6080 H   0  0  0  0  0  0  0  0  0  0  0  0  # atno 10765 bound_to 10752
  140.7047  134.3899  157.5205 H   0  0  0  0  0  0  0  0  0  0  0  0  # atno 11005 bound_to 11000
  144.7695  139.6767  143.7200 LP  0  0  0  0  0  0  0  0  0  0  0  0  # atno 17320 bound_to 7965
  146.2129  139.5498  142.9669 LP  0  0  0  0  0  0  0  0  0  0  0  0  # atno 17321 bound_to 7965
  139.4783  144.5591  151.8267 LP  0  0  0  0  0  0  0  0  0  0  0  0  # atno 17342 bound_to 10162
  140.4695  144.1607  150.5916 LP  0  0  0  0  0  0  0  0  0  0  0  0  # atno 17343 bound_to 10162
  157.6096  131.0937  150.8818 LP  0  0  0  0  0  0  0  0  0  0  0  0  # atno 17370 bound_to 10713
  156.8960  130.5229  149.5284 LP  0  0  0  0  0  0  0  0  0  0  0  0  # atno 17371 bound_to 10713
  139.8887  134.8849  156.2458 LP  0  0  0  0  0  0  0  0  0  0  0  0  # atno 17394 bound_to 11000
  141.0134  133.7082  156.1149 LP  0  0  0  0  0  0  0  0  0  0  0  0  # atno 17395 bound_to 11000

$$$$
