#       Name:                AV-unprocessed.smi:842
#       Creating user name   scv26
#       Creation time:       Fri Mar 27 01:38:05 2020


#       File generated by GOLD software.
#

@<TRIPOS>MOLECULE
AV-unprocessed.smi:842
    47    48     1
SMALL
NO_CHARGES


@<TRIPOS>ATOM
      1 ****        -4.8072   1.6409   2.2114 C.3            1 S1                 0.0000
      2 ****        -5.1049   1.3892   0.7258 C.3            1 S1                 0.0000
      3 ****        -4.2817   2.2734  -0.2396 C.3            1 S1                 0.0000
      4 ****        -4.6646   2.0305  -1.7161 C.3            1 S1                 0.0000
      5 ****        -4.2912   3.1396  -2.5067 O.3            1 S1                 0.0000
      6 ****        -2.8371   2.1331  -0.0245 N.am           1 S1                 0.0000
      7 ****        -2.0888   1.0265  -0.1604 C.2            1 S1                 0.0000
      8 ****        -2.5393  -0.0714  -0.4859 O.2            1 S1                 0.0000
      9 ****        -0.8012   1.2817   0.1263 N.am           1 S1                 0.0000
     10 ****         0.3069   0.3931   0.0962 C.ar           1 S1                 0.0000
     11 ****         0.3487  -0.8076  -0.6502 C.ar           1 S1                 0.0000
     12 ****         1.5155  -1.5948  -0.6104 C.ar           1 S1                 0.0000
     13 ****         2.6160  -1.1596   0.1655 C.ar           1 S1                 0.0000
     14 ****         3.7980  -1.9226   0.2395 N.pl3          1 S1                 0.0000
     15 ****         4.9917  -1.4293   0.9085 C.3            1 S1                 0.0000
     16 ****         6.0486  -2.5016   0.6501 C.3            1 S1                 0.0000
     17 ****         5.6653  -3.0408  -0.7282 C.3            1 S1                 0.0000
     18 ****         4.1374  -2.9191  -0.7669 C.3            1 S1                 0.0000
     19 ****         2.5758  -0.0054   0.8726 N.ar           1 S1                 0.0000
     20 ****         1.4564   0.7464   0.8298 C.ar           1 S1                 0.0000
     21 ****        -5.4548   1.0321   2.8427 H              1 S1                 0.0000
     22 ****        -4.9740   2.6857   2.4746 H              1 S1                 0.0000
     23 ****        -3.7764   1.3909   2.4631 H              1 S1                 0.0000
     24 ****        -4.9514   0.3334   0.5009 H              1 S1                 0.0000
     25 ****        -6.1659   1.5741   0.5542 H              1 S1                 0.0000
     26 ****        -4.5270   3.3085   0.0033 H              1 S1                 0.0000
     27 ****        -4.2243   1.1187  -2.1191 H              1 S1                 0.0000
     28 ****        -5.7456   1.9214  -1.8091 H              1 S1                 0.0000
     29 ****        -4.5374   2.9652  -3.4023 H              1 S1                 0.0000
     30 ****        -2.3564   2.9773   0.2499 H              1 S1                 0.0000
     31 ****        -0.5983   2.2130   0.4586 H              1 S1                 0.0000
     32 ****        -0.4792  -1.1351  -1.2593 H              1 S1                 0.0000
     33 ****         1.5477  -2.5179  -1.1696 H              1 S1                 0.0000
     34 ****         5.2909  -0.4785   0.4650 H              1 S1                 0.0000
     35 ****         4.8243  -1.2771   1.9753 H              1 S1                 0.0000
     36 ****         7.0663  -2.1127   0.6907 H              1 S1                 0.0000
     37 ****         5.9594  -3.2950   1.3936 H              1 S1                 0.0000
     38 ****         6.1021  -2.4052  -1.4997 H              1 S1                 0.0000
     39 ****         6.0132  -4.0600  -0.8982 H              1 S1                 0.0000
     40 ****         3.6673  -3.8657  -0.4986 H              1 S1                 0.0000
     41 ****         3.7943  -2.6347  -1.7621 H              1 S1                 0.0000
     42 ****         1.4798   1.6589   1.4075 H              1 S1                 0.0000
     43 ****        -3.3024   3.2774  -2.4492 LP             1 S1                 0.0000
     44 ****        -4.7615   3.9598  -2.1810 LP             1 S1                 0.0000
     45 ****        -3.5171  -0.1770  -0.6665 LP             1 S1                 0.0000
     46 ****        -1.9275  -0.8580  -0.5697 LP             1 S1                 0.0000
     47 ****         3.3626   0.2848   1.4174 LP             1 S1                 0.0000
@<TRIPOS>BOND
    1    1    2 1     
    2    1   21 1     
    3    1   22 1     
    4    1   23 1     
    5    2    3 1     
    6    2   24 1     
    7    2   25 1     
    8    3    4 1     
    9    3    6 1     
   10    3   26 1     
   11    4    5 1     
   12    4   27 1     
   13    4   28 1     
   14    5   29 1     
   15    6    7 am    
   16    6   30 1     
   17    7    8 2     
   18    7    9 am    
   19    9   10 1     
   20    9   31 1     
   21   10   20 ar    
   22   10   11 ar    
   23   11   12 ar    
   24   11   32 1     
   25   12   13 ar    
   26   12   33 1     
   27   13   14 1     
   28   13   19 ar    
   29   14   18 1     
   30   14   15 1     
   31   15   16 1     
   32   15   34 1     
   33   15   35 1     
   34   16   17 1     
   35   16   36 1     
   36   16   37 1     
   37   17   18 1     
   38   17   38 1     
   39   17   39 1     
   40   18   40 1     
   41   18   41 1     
   42   19   20 ar    
   43   20   42 1     
   44    5   43 1     
   45    5   44 1     
   46    8   45 1     
   47    8   46 1     
   48   19   47 1     
@<TRIPOS>SUBSTRUCTURE
      1 S1             1
@<TRIPOS>SET
LONE_PAIRS      STATIC     ATOMS    <user>   **** ""
5 43 44 45 46 47
DONOR_HYDROGENS      STATIC     ATOMS    <user>   **** ""
3 29 30 31
ATOM$BLUE        STATIC     ATOMS    COLORGROUP SYSTEM
5 43 44 45 46 47
ATOM$RED        STATIC     ATOMS    COLORGROUP SYSTEM
3 29 30 31
