AV-unprocessed.smi:1543|AV-procd|sdf|6208|dock3
  -GOLD-   22720 6383D 1   1.00000     0.00000
 Structure written by MMmdl.
 49 50  0  0  0  0  0  0  0  0  2 V2000
  151.8894  138.2207  154.2445 C   0  0  0  0  0  0  0  0  0  0  0  0
  150.7012  138.9228  154.9115 C   0  0  2  0  0  0  0  0  0  0  0  0
  149.3538  138.4240  154.3594 C   0  0  0  0  0  0  0  0  0  0  0  0
  148.2266  139.1798  154.9719 N   0  3  2  0  0  0  0  0  0  0  0  0
  146.8455  138.6395  154.7000 C   0  0  0  0  0  0  0  0  0  0  0  0
  146.7100  137.2156  155.2958 C   0  0  0  0  0  0  0  0  0  0  0  0
  145.7988  139.5122  155.4379 C   0  0  0  0  0  0  0  0  0  0  0  0
  146.5461  138.5991  153.1712 C   0  0  0  0  0  0  0  0  0  0  0  0
  146.8250  137.3023  152.5547 N   0  0  0  0  0  0  0  0  0  0  0  0
  145.9140  136.3572  152.2814 C   0  0  0  0  0  0  0  0  0  0  0  0
  144.7153  136.4778  152.5325 O   0  0  0  0  0  0  0  0  0  0  0  0
  146.4832  135.2898  151.6959 N   0  0  0  0  0  0  0  0  0  0  0  0
  145.8708  134.0780  151.2762 C   0  0  0  0  0  0  0  0  0  0  0  0
  146.5155  133.0849  150.4990 C   0  0  0  0  0  0  0  0  0  0  0  0
  145.7916  131.9348  150.1302 C   0  0  0  0  0  0  0  0  0  0  0  0
  144.4502  131.8222  150.5440 C   0  0  0  0  0  0  0  0  0  0  0  0
  143.8194  132.7664  151.2734 N   0  0  0  0  0  0  0  0  0  0  0  0
  144.5194  133.8664  151.6231 C   0  0  0  0  0  0  0  0  0  0  0  0
  148.4159  140.6360  154.7158 C   0  0  0  0  0  0  0  0  0  0  0  0
  149.7870  141.1183  155.2272 C   0  0  1  0  0  0  0  0  0  0  0  0
  149.8744  141.2087  156.7614 C   0  0  0  0  0  0  0  0  0  0  0  0
  150.8291  140.3201  154.6698 O   0  0  0  0  0  0  0  0  0  0  0  0
  151.8517  137.1434  154.4075 H   0  0  0  0  0  0  0  0  0  0  0  0
  152.8340  138.5841  154.6499 H   0  0  0  0  0  0  0  0  0  0  0  0
  151.8996  138.3965  153.1683 H   0  0  0  0  0  0  0  0  0  0  0  0
  150.7534  138.7268  155.9826 H   0  0  0  0  0  0  0  0  0  0  0  0
  149.3356  138.5380  153.2749 H   0  0  0  0  0  0  0  0  0  0  0  0
  149.2848  137.3589  154.5712 H   0  0  0  0  0  0  0  0  0  0  0  0
  145.6726  136.8791  155.3061 H   0  0  0  0  0  0  0  0  0  0  0  0
  147.0666  137.1798  156.3258 H   0  0  0  0  0  0  0  0  0  0  0  0
  147.2602  136.4704  154.7218 H   0  0  0  0  0  0  0  0  0  0  0  0
  144.8160  139.0402  155.4533 H   0  0  0  0  0  0  0  0  0  0  0  0
  145.6584  140.4831  154.9637 H   0  0  0  0  0  0  0  0  0  0  0  0
  146.0845  139.6829  156.4766 H   0  0  0  0  0  0  0  0  0  0  0  0
  145.5147  138.8863  152.9657 H   0  0  0  0  0  0  0  0  0  0  0  0
  147.1651  139.3249  152.6451 H   0  0  0  0  0  0  0  0  0  0  0  0
  147.7864  137.1160  152.3086 H   0  0  0  0  0  0  0  0  0  0  0  0
  147.4658  135.3728  151.4793 H   0  0  0  0  0  0  0  0  0  0  0  0
  147.5373  133.1860  150.1683 H   0  0  0  0  0  0  0  0  0  0  0  0
  146.2534  131.1580  149.5390 H   0  0  0  0  0  0  0  0  0  0  0  0
  143.8670  130.9533  150.2776 H   0  0  0  0  0  0  0  0  0  0  0  0
  143.9815  134.6019  152.2036 H   0  0  0  0  0  0  0  0  0  0  0  0
  148.3531  140.8310  153.6451 H   0  0  0  0  0  0  0  0  0  0  0  0
  147.6458  141.2403  155.1910 H   0  0  0  0  0  0  0  0  0  0  0  0
  149.9458  142.1270  154.8445 H   0  0  0  0  0  0  0  0  0  0  0  0
  149.1540  141.9306  157.1470 H   0  0  0  0  0  0  0  0  0  0  0  0
  150.8663  141.5346  157.0758 H   0  0  0  0  0  0  0  0  0  0  0  0
  149.6662  140.2552  157.2457 H   0  0  0  0  0  0  0  0  0  0  0  0
  148.3481  139.0703  155.9686 H   0  0  0  0  0  0  0  0  0  0  0  0
  1  2  1  0  0  0  0
  1 23  1  0  0  0  0
  1 24  1  0  0  0  0
  1 25  1  0  0  0  0
  2 22  1  0  0  0  0
  2  3  1  0  0  0  0
  2 26  1  0  0  0  0
  3  4  1  0  0  0  0
  3 27  1  0  0  0  0
  3 28  1  0  0  0  0
  4  5  1  0  0  0  0
  4 19  1  0  0  0  0
  4 49  1  0  0  0  0
  5  6  1  0  0  0  0
  5  7  1  0  0  0  0
  5  8  1  0  0  0  0
  6 29  1  0  0  0  0
  6 30  1  0  0  0  0
  6 31  1  0  0  0  0
  7 32  1  0  0  0  0
  7 33  1  0  0  0  0
  7 34  1  0  0  0  0
  8  9  1  0  0  0  0
  8 35  1  0  0  0  0
  8 36  1  0  0  0  0
  9 10  1  0  0  0  0
  9 37  1  0  0  0  0
 10 11  2  0  0  0  0
 10 12  1  0  0  0  0
 12 13  1  0  0  0  0
 12 38  1  0  0  0  0
 13 18  1  0  0  0  0
 13 14  2  0  0  0  0
 14 15  1  0  0  0  0
 14 39  1  0  0  0  0
 15 16  2  0  0  0  0
 15 40  1  0  0  0  0
 16 17  1  0  0  0  0
 16 41  1  0  0  0  0
 17 18  2  0  0  0  0
 18 42  1  0  0  0  0
 19 20  1  0  0  0  0
 19 43  1  0  0  0  0
 19 44  1  0  0  0  0
 20 21  1  0  0  0  0
 20 22  1  0  0  0  0
 20 45  1  0  0  0  0
 21 46  1  0  0  0  0
 21 47  1  0  0  0  0
 21 48  1  0  0  0  0
M  CHG  1   4   1
M  END
> <s_m_source_file>
AV-unprocessed.smi

> <i_m_source_file_index>
1543

> <i_lp_mmshare_version>
43012

> <i_f3d_flags>
0

> <s_epik_input>
W0NIM11bQ0BASF0xW0NIMl1OKFtDSDJdW0NASF0oTzEpW0NIM10pQyhbQ0gzXSkoW0NIM10pW0NIMl1bTkhdQyg9TylbTkhdYzJbY0hdW2NIXVtjSF1uW2NIXTI=

> <s_epik_cmdline>
J2VwaWtfcHl0aG9uJywgJy1waCcsICc3LjAnLCAnLXRuJywgJzgnLCAnLW1hJywgJzIwMCcsICctbWV0YWxfYmluZGluZycsICctaW1hZScsICc8aW5maWxlLm1hZT4nLCAnLW9tYWUnLCAnPG91dGZpbGUubWFlPic=

> <r_epik_Ionization_Penalty>
0.60676

> <r_epik_Ionization_Penalty_Charging>
0.602531

> <r_epik_Ionization_Penalty_Neutral>
0.00422967

> <r_epik_State_Penalty>
0.607492

> <r_epik_Charging_Adjusted_Penalty>
1.21002

> <i_epik_Tot_Q>
1

> <i_epik_Tot_abs_Q>
1

> <r_epik_Metal_State_Penalty>
0.604589

> <b_epik_Metal_Only>
0

> <s_lp_Force_Field>
OPLS_2005

> <r_lp_Energy>
30.3839

> <b_lp_Chiralities_Consistent>
1

> <s_lp_Variant>
AV-unprocessed.smi:1543-4

> <Gold.Version>
5.8.1

> <Gold.Id.Protein>
6NUR|6NUR_protein|mol2

> <Gold.PLP.Fitness>
45.0466

> <Gold.PLP.PLP>
-35.6562

> <Gold.PLP.part.hbond>
-2.9946

> <Gold.PLP.part.metal>
0.0000

> <Gold.PLP.part.buried>
-7.0374

> <Gold.PLP.part.nonpolar>
-28.5025

> <Gold.PLP.part.repulsive>
1.3688

> <Gold.PLP.ligand.clash>
0.1878

> <Gold.PLP.ligand.torsion>
0.9586

> <Gold.PLP.Chemscore.Hbond>
2.9760

> <Gold.PLP.Chemscore.CHOScore>
0.8136

> <Gold.PLP.Chemscore.Metal>
0.0000

> <Gold.Chemscore.Hbonds>
donor molecule, donor type, donor heavy atom, donor atom, acceptor molecule, acceptor atom, score
      L1  H     9    37       P1  7948  0.98
      L1  H    12    38       P1  7948  0.94
      P1  H  7989  7998       L1    22  0.98

> <Gold.PLP.Chemscore.Internal.Correction>
0.1267

> <Gold.Rescore>
     Score         DG    S(hbond)    S(metal)    S(lipo)     H(rot)  DE(clash)    DE(int)     intcor
     18.91     -21.37       2.78        0.00      88.38       1.46       0.04       2.42       ----

> <Gold.Chemscore.Fitness>
18.9101

> <Gold.Chemscore.DG>
-21.3730

> <Gold.Chemscore.ZeroCoef>
-5.4800

> <Gold.Chemscore.Hbond>
2.7840

> <Gold.Chemscore.Metal>
0.0000

> <Gold.Chemscore.Lipo>
88.3780

> <Gold.Chemscore.Internal_Hbond>
0.0000

> <Gold.Chemscore.DEClash>
0.0412

> <Gold.Chemscore.DEInternal>
2.4217

> <Gold.Chemscore.Rot>
1.4632

> <Gold.Chemscore.Internal.Correction>
   9.000000E+99

> <Gold.Chemscore.Hbonds>
donor molecule, donor type, donor heavy atom, donor atom, acceptor molecule, acceptor atom, score
      L1  H     9    37       P1  7948  0.89
      L1  H    12    38       P1  7948  0.78
      P1  H  7989  7998       L1    22  0.88

> <Gold.Chemscore.Hbond.Weighted>
-9.2987

> <Gold.Chemscore.Metal.Weighted>
-0.0000

> <Gold.Chemscore.Lipo.Weighted>
-10.3402

> <Gold.Chemscore.Internal_Hbond.Weighted>
0.0000

> <Gold.Chemscore.DEClash.Weighted>
0.0412

> <Gold.Chemscore.DEInternal.Weighted>
2.4217

> <Gold.Chemscore.Rot.Weighted>
3.7459

> <Gold.Chemscore.Internal.Correction.Weighted>
   9.000000E+99

> <Gold.Protein.RotatedTorsions>
[ 6907 6896 6895 6894 ] final  -38.38 input  -60.11 | X-H torsion
[ 7974 7965 7964 7962 ] final  130.37 input  175.53 | X-H torsion
[ 8008 7997 7996 7995 ] final  -86.04 input   59.86 | X-H torsion
[ 10167 10162 10161 10158 ] final  109.85 input  -65.29 | X-H torsion
[ 10718 10713 10712 10709 ] final   29.07 input   66.30 | X-H torsion
[ 10763 10752 10751 10750 ] final   87.45 input  -60.55 | X-H torsion
[ 11005 11000 10999 10996 ] final -118.12 input  -57.11 | X-H torsion

> <Gold.Protein.ActiveResidues>
 VAL166  LYS551  ARG553  GLY616  TRP617  ASP618  TYR619  PRO620  LYS621  CYS622 
 ASP623  PHE694  ASN695  SER759  ASP760  ASP761  ALA762  ILE779  LEU786  VAL792 
 PHE793  MET794  SER795  GLU796  ALA797  LYS798  CYS799  TRP800  GLU811  SER814 

> <Gold.Protein.RotatedAtoms>
  151.0032  134.9338  159.7965 H   0  0  0  0  0  0  0  0  0  0  0  0  # atno 6907 bound_to 6896
  152.5283  134.3127  159.9129 H   0  0  0  0  0  0  0  0  0  0  0  0  # atno 6908 bound_to 6896
  151.3132  133.4030  159.2683 H   0  0  0  0  0  0  0  0  0  0  0  0  # atno 6909 bound_to 6896
  145.0186  139.4153  143.5209 H   0  0  0  0  0  0  0  0  0  0  0  0  # atno 7974 bound_to 7965
  154.6475  140.0583  156.9917 H   0  0  0  0  0  0  0  0  0  0  0  0  # atno 8008 bound_to 7997
  155.1422  140.3266  155.4431 H   0  0  0  0  0  0  0  0  0  0  0  0  # atno 8009 bound_to 7997
  156.2560  140.1962  156.6538 H   0  0  0  0  0  0  0  0  0  0  0  0  # atno 8010 bound_to 7997
  139.6734  144.7124  151.1646 H   0  0  0  0  0  0  0  0  0  0  0  0  # atno 10167 bound_to 10162
  157.2418  130.7072  149.6362 H   0  0  0  0  0  0  0  0  0  0  0  0  # atno 10718 bound_to 10713
  153.1669  135.4543  154.9850 H   0  0  0  0  0  0  0  0  0  0  0  0  # atno 10763 bound_to 10752
  154.7938  135.3230  154.7716 H   0  0  0  0  0  0  0  0  0  0  0  0  # atno 10764 bound_to 10752
  153.8198  135.6948  153.4883 H   0  0  0  0  0  0  0  0  0  0  0  0  # atno 10765 bound_to 10752
  141.0308  133.9984  157.3146 H   0  0  0  0  0  0  0  0  0  0  0  0  # atno 11005 bound_to 11000
  146.3482  139.9671  142.8710 LP  0  0  0  0  0  0  0  0  0  0  0  0  # atno 17320 bound_to 7965
  145.1926  140.9818  143.4202 LP  0  0  0  0  0  0  0  0  0  0  0  0  # atno 17321 bound_to 7965
  140.7626  143.5809  150.8896 LP  0  0  0  0  0  0  0  0  0  0  0  0  # atno 17342 bound_to 10162
  139.9476  143.6309  152.3037 LP  0  0  0  0  0  0  0  0  0  0  0  0  # atno 17343 bound_to 10162
  155.9670  130.4456  150.5507 LP  0  0  0  0  0  0  0  0  0  0  0  0  # atno 17370 bound_to 10713
  157.3371  131.0710  151.1816 LP  0  0  0  0  0  0  0  0  0  0  0  0  # atno 17371 bound_to 10713
  139.9206  135.0200  156.8051 LP  0  0  0  0  0  0  0  0  0  0  0  0  # atno 17394 bound_to 11000
  140.6410  133.9818  155.7707 LP  0  0  0  0  0  0  0  0  0  0  0  0  # atno 17395 bound_to 11000

$$$$
