AV-unprocessed.smi:980|AV-procd|sdf|4311|dock7
  -GOLD-   22720 2213D 1   1.00000     0.00000
 Structure written by MMmdl.
 44 45  0  0  0  0  0  0  0  0  1 V2000
  150.4026  143.0088  158.5802 C   0  0  0  0  0  0  0  0  0  0  0  0
  151.4636  143.9535  159.1842 C   0  0  0  0  0  0  0  0  0  0  0  0
  152.3400  144.4828  158.0319 C   0  0  0  0  0  0  0  0  0  0  0  0
  150.7262  145.1250  159.8621 C   0  0  0  0  0  0  0  0  0  0  0  0
  152.3259  143.2301  160.1997 C   0  0  0  0  0  0  0  0  0  0  0  0
  152.5419  143.5586  161.5190 C   0  0  0  0  0  0  0  0  0  0  0  0
  153.6076  142.4346  162.3163 S   0  0  0  0  0  0  0  0  0  0  0  0
  153.7454  141.5458  160.8073 C   0  0  0  0  0  0  0  0  0  0  0  0
  154.5423  140.2932  160.6624 C   0  0  0  0  0  0  0  0  0  0  0  0
  153.6637  139.0364  160.6940 C   0  0  0  0  0  0  0  0  0  0  0  0
  152.7437  139.0230  159.5654 N   0  0  0  0  0  0  0  0  0  0  0  0
  151.8925  138.0229  159.2956 C   0  0  0  0  0  0  0  0  0  0  0  0
  151.8253  136.9961  159.9721 O   0  0  0  0  0  0  0  0  0  0  0  0
  150.9748  138.2114  158.0802 C   0  0  2  0  0  0  0  0  0  0  0  0
  151.1467  137.0534  157.0704 C   0  0  0  0  0  0  0  0  0  0  0  0
  150.4500  137.3352  155.7511 C   0  0  0  0  0  0  0  0  0  0  0  0
  150.0361  138.5590  155.3804 C   0  0  0  0  0  0  0  0  0  0  0  0
  150.2225  139.7994  156.2364 C   0  0  0  0  0  0  0  0  0  0  0  0
  151.2177  139.5686  157.3896 C   0  0  0  0  0  0  0  0  0  0  0  0
  153.0199  142.0737  159.8192 N   0  0  0  0  0  0  0  0  0  0  0  0
  149.7782  143.5272  157.8517 H   0  0  0  0  0  0  0  0  0  0  0  0
  149.7386  142.6091  159.3478 H   0  0  0  0  0  0  0  0  0  0  0  0
  150.8639  142.1643  158.0669 H   0  0  0  0  0  0  0  0  0  0  0  0
  152.8744  143.6716  157.5363 H   0  0  0  0  0  0  0  0  0  0  0  0
  153.0838  145.1970  158.3866 H   0  0  0  0  0  0  0  0  0  0  0  0
  151.7392  144.9905  157.2767 H   0  0  0  0  0  0  0  0  0  0  0  0
  150.0821  145.6509  159.1567 H   0  0  0  0  0  0  0  0  0  0  0  0
  151.4240  145.8569  160.2707 H   0  0  0  0  0  0  0  0  0  0  0  0
  150.0988  144.7756  160.6830 H   0  0  0  0  0  0  0  0  0  0  0  0
  152.1380  144.3907  162.0763 H   0  0  0  0  0  0  0  0  0  0  0  0
  155.0991  140.3404  159.7255 H   0  0  0  0  0  0  0  0  0  0  0  0
  155.2804  140.2567  161.4645 H   0  0  0  0  0  0  0  0  0  0  0  0
  154.2867  138.1409  160.6654 H   0  0  0  0  0  0  0  0  0  0  0  0
  153.0938  139.0045  161.6242 H   0  0  0  0  0  0  0  0  0  0  0  0
  152.7414  139.8314  158.9605 H   0  0  0  0  0  0  0  0  0  0  0  0
  149.9409  138.2023  158.4307 H   0  0  0  0  0  0  0  0  0  0  0  0
  152.2002  136.8633  156.8591 H   0  0  0  0  0  0  0  0  0  0  0  0
  150.7369  136.1344  157.4911 H   0  0  0  0  0  0  0  0  0  0  0  0
  150.3028  136.4947  155.0886 H   0  0  0  0  0  0  0  0  0  0  0  0
  149.5342  138.6915  154.4332 H   0  0  0  0  0  0  0  0  0  0  0  0
  150.5660  140.6218  155.6086 H   0  0  0  0  0  0  0  0  0  0  0  0
  149.2477  140.0865  156.6313 H   0  0  0  0  0  0  0  0  0  0  0  0
  151.1437  140.3872  158.1066 H   0  0  0  0  0  0  0  0  0  0  0  0
  152.2340  139.5988  156.9930 H   0  0  0  0  0  0  0  0  0  0  0  0
  1  2  1  0  0  0  0
  1 21  1  0  0  0  0
  1 22  1  0  0  0  0
  1 23  1  0  0  0  0
  2  3  1  0  0  0  0
  2  4  1  0  0  0  0
  2  5  1  0  0  0  0
  3 24  1  0  0  0  0
  3 25  1  0  0  0  0
  3 26  1  0  0  0  0
  4 27  1  0  0  0  0
  4 28  1  0  0  0  0
  4 29  1  0  0  0  0
  5 20  1  0  0  0  0
  5  6  2  0  0  0  0
  6  7  1  0  0  0  0
  6 30  1  0  0  0  0
  7  8  1  0  0  0  0
  8  9  1  0  0  0  0
  8 20  2  0  0  0  0
  9 10  1  0  0  0  0
  9 31  1  0  0  0  0
  9 32  1  0  0  0  0
 10 11  1  0  0  0  0
 10 33  1  0  0  0  0
 10 34  1  0  0  0  0
 11 12  1  0  0  0  0
 11 35  1  0  0  0  0
 12 13  2  0  0  0  0
 12 14  1  0  0  0  0
 14 19  1  0  0  0  0
 14 15  1  0  0  0  0
 14 36  1  0  0  0  0
 15 16  1  0  0  0  0
 15 37  1  0  0  0  0
 15 38  1  0  0  0  0
 16 17  2  0  0  0  0
 16 39  1  0  0  0  0
 17 18  1  0  0  0  0
 17 40  1  0  0  0  0
 18 19  1  0  0  0  0
 18 41  1  0  0  0  0
 18 42  1  0  0  0  0
 19 43  1  0  0  0  0
 19 44  1  0  0  0  0
M  END
> <s_m_source_file>
AV-unprocessed.smi

> <i_m_source_file_index>
980

> <i_lp_mmshare_version>
43012

> <i_f3d_flags>
0

> <s_epik_input>
W0NIM11DKFtDSDNdKShbQ0gzXSljMVtjSF1zYyhuMSlbQ0gyXVtDSDJdW05IXUMoPU8pW0NAQEhdMltDSDJdW0NIXT1bQ0hdW0NIMl1bQ0gyXTI=

> <s_epik_cmdline>
J2VwaWtfcHl0aG9uJywgJy1waCcsICc3LjAnLCAnLXRuJywgJzgnLCAnLW1hJywgJzIwMCcsICctbWV0YWxfYmluZGluZycsICctaW1hZScsICc8aW5maWxlLm1hZT4nLCAnLW9tYWUnLCAnPG91dGZpbGUubWFlPic=

> <r_epik_Ionization_Penalty>
0.000809238

> <r_epik_Ionization_Penalty_Charging>
0

> <r_epik_Ionization_Penalty_Neutral>
0.000809238

> <r_epik_State_Penalty>
0.000520038

> <r_epik_Charging_Adjusted_Penalty>
0.000520038

> <i_epik_Tot_Q>
0

> <i_epik_Tot_abs_Q>
0

> <r_epik_Metal_State_Penalty>
-0

> <b_epik_Metal_Only>
0

> <s_lp_Force_Field>
OPLS_2005

> <r_lp_Energy>
0.0985756

> <b_lp_Chiralities_Consistent>
1

> <s_lp_Variant>
AV-unprocessed.smi:980-1

> <Gold.Version>
5.8.1

> <Gold.Id.Protein>
6NUR|6NUR_protein|mol2

> <Gold.PLP.Fitness>
50.8372

> <Gold.PLP.PLP>
-49.9929

> <Gold.PLP.part.hbond>
-1.0000

> <Gold.PLP.part.metal>
0.0000

> <Gold.PLP.part.buried>
-6.7480

> <Gold.PLP.part.nonpolar>
-42.7494

> <Gold.PLP.part.repulsive>
0.0875

> <Gold.PLP.ligand.clash>
1.3350

> <Gold.PLP.ligand.torsion>
0.2981

> <Gold.PLP.Chemscore.Hbond>
0.9100

> <Gold.PLP.Chemscore.CHOScore>
0.0000

> <Gold.PLP.Chemscore.Metal>
0.0000

> <Gold.Chemscore.Hbonds>
donor molecule, donor type, donor heavy atom, donor atom, acceptor molecule, acceptor atom, score
      P1  H  6896  6909       L1    13  1.00

> <Gold.PLP.Chemscore.Internal.Correction>
0.0455

> <Gold.Rescore>
     Score         DG    S(hbond)    S(metal)    S(lipo)     H(rot)  DE(clash)    DE(int)     intcor
     21.91     -22.25       0.95        0.00     146.92       1.41       0.06       0.28       ----

> <Gold.Chemscore.Fitness>
21.9059

> <Gold.Chemscore.DG>
-22.2495

> <Gold.Chemscore.ZeroCoef>
-5.4800

> <Gold.Chemscore.Hbond>
0.9547

> <Gold.Chemscore.Metal>
0.0000

> <Gold.Chemscore.Lipo>
146.9189

> <Gold.Chemscore.Internal_Hbond>
0.0000

> <Gold.Chemscore.DEClash>
0.0636

> <Gold.Chemscore.DEInternal>
0.2800

> <Gold.Chemscore.Rot>
1.4097

> <Gold.Chemscore.Internal.Correction>
   9.000000E+99

> <Gold.Chemscore.Hbonds>
donor molecule, donor type, donor heavy atom, donor atom, acceptor molecule, acceptor atom, score
      P1  H  6896  6909       L1    13  1.00

> <Gold.Chemscore.Hbond.Weighted>
-3.1887

> <Gold.Chemscore.Metal.Weighted>
-0.0000

> <Gold.Chemscore.Lipo.Weighted>
-17.1895

> <Gold.Chemscore.Internal_Hbond.Weighted>
0.0000

> <Gold.Chemscore.DEClash.Weighted>
0.0636

> <Gold.Chemscore.DEInternal.Weighted>
0.2800

> <Gold.Chemscore.Rot.Weighted>
3.6087

> <Gold.Chemscore.Internal.Correction.Weighted>
   9.000000E+99

> <Gold.Protein.RotatedTorsions>
[ 6907 6896 6895 6894 ] final  116.71 input  -60.11 | X-H torsion
[ 7974 7965 7964 7962 ] final  179.55 input  175.53 | X-H torsion
[ 8008 7997 7996 7995 ] final   54.37 input   59.86 | X-H torsion
[ 10167 10162 10161 10158 ] final  -14.47 input  -65.29 | X-H torsion
[ 10718 10713 10712 10709 ] final  114.09 input   66.30 | X-H torsion
[ 10763 10752 10751 10750 ] final -127.85 input  -60.55 | X-H torsion
[ 11005 11000 10999 10996 ] final  -83.40 input  -57.11 | X-H torsion

> <Gold.Protein.ActiveResidues>
 VAL166  LYS551  ARG553  GLY616  TRP617  ASP618  TYR619  PRO620  LYS621  CYS622 
 ASP623  PHE694  ASN695  SER759  ASP760  ASP761  ALA762  ILE779  LEU786  VAL792 
 PHE793  MET794  SER795  GLU796  ALA797  LYS798  CYS799  TRP800  GLU811  SER814 

> <Gold.Protein.RotatedAtoms>
  152.4660  133.7924  159.6908 H   0  0  0  0  0  0  0  0  0  0  0  0  # atno 6907 bound_to 6896
  150.8625  133.7613  159.2994 H   0  0  0  0  0  0  0  0  0  0  0  0  # atno 6908 bound_to 6896
  151.5174  135.1069  159.9921 H   0  0  0  0  0  0  0  0  0  0  0  0  # atno 6909 bound_to 6896
  144.7144  140.0565  143.6434 H   0  0  0  0  0  0  0  0  0  0  0  0  # atno 7974 bound_to 7965
  155.4835  140.3469  155.4343 H   0  0  0  0  0  0  0  0  0  0  0  0  # atno 8008 bound_to 7997
  156.1023  140.1439  156.9479 H   0  0  0  0  0  0  0  0  0  0  0  0  # atno 8009 bound_to 7997
  154.4702  140.0903  156.7102 H   0  0  0  0  0  0  0  0  0  0  0  0  # atno 8010 bound_to 7997
  140.7202  143.5318  150.9511 H   0  0  0  0  0  0  0  0  0  0  0  0  # atno 10167 bound_to 10162
  157.6301  131.0993  150.7136 H   0  0  0  0  0  0  0  0  0  0  0  0  # atno 10718 bound_to 10713
  154.8754  135.3948  154.3660 H   0  0  0  0  0  0  0  0  0  0  0  0  # atno 10763 bound_to 10752
  153.4426  135.7027  153.6164 H   0  0  0  0  0  0  0  0  0  0  0  0  # atno 10764 bound_to 10752
  153.4738  135.3784  155.2375 H   0  0  0  0  0  0  0  0  0  0  0  0  # atno 10765 bound_to 10752
  141.1658  133.7293  156.8715 H   0  0  0  0  0  0  0  0  0  0  0  0  # atno 11005 bound_to 11000
  145.9900  139.3007  143.0991 LP  0  0  0  0  0  0  0  0  0  0  0  0  # atno 17320 bound_to 7965
  145.8914  140.9301  143.0550 LP  0  0  0  0  0  0  0  0  0  0  0  0  # atno 17321 bound_to 7965
  139.9038  143.6803  152.3127 LP  0  0  0  0  0  0  0  0  0  0  0  0  # atno 17342 bound_to 10162
  139.7162  144.7611  151.1030 LP  0  0  0  0  0  0  0  0  0  0  0  0  # atno 17343 bound_to 10162
  156.7477  130.4759  149.5463 LP  0  0  0  0  0  0  0  0  0  0  0  0  # atno 17370 bound_to 10713
  156.1499  130.6302  151.0581 LP  0  0  0  0  0  0  0  0  0  0  0  0  # atno 17371 bound_to 10713
  140.1778  134.9054  157.2912 LP  0  0  0  0  0  0  0  0  0  0  0  0  # atno 17394 bound_to 11000
  140.2429  134.3774  155.7473 LP  0  0  0  0  0  0  0  0  0  0  0  0  # atno 17395 bound_to 11000

$$$$
