#       Name:                AV-unprocessed.smi:487
#       Creating user name   scv26
#       Creation time:       Thu Mar 26 23:13:27 2020


#       File generated by GOLD software.
#

@<TRIPOS>MOLECULE
AV-unprocessed.smi:487
    47    48     1
SMALL
NO_CHARGES


@<TRIPOS>ATOM
      1 ****         0.6195   2.6183  -1.6982 O.2            1 S1                 0.0000
      2 ****         1.1924   1.9044  -0.8759 C.2            1 S1                 0.0000
      3 ****         2.6543   2.2123  -0.5084 C.3            1 S1                 0.0000
      4 ****         3.2234   1.3390   0.5316 N.am           1 S1                 0.0000
      5 ****         3.9414   0.2063   0.1748 C.2            1 S1                 0.0000
      6 ****         4.4792  -0.6501   1.0754 C.2            1 S1                 0.0000
      7 ****         4.3223  -0.4118   2.5061 C.2            1 S1                 0.0000
      8 ****         4.7708  -1.1286   3.3979 O.2            1 S1                 0.0000
      9 ****         3.5931   0.7370   2.8249 N.am           1 S1                 0.0000
     10 ****         3.0351   1.6228   1.9022 C.2            1 S1                 0.0000
     11 ****         2.4006   2.6024   2.2914 O.2            1 S1                 0.0000
     12 ****         0.5977   0.8548  -0.2821 N.am           1 S1                 0.0000
     13 ****        -0.7806   0.4156  -0.4912 C.3            1 S1                 0.0000
     14 ****        -1.2689  -0.1936   0.8484 C.3            1 S1                 0.0000
     15 ****        -2.7907  -0.1876   1.0763 C.3            1 S1                 0.0000
     16 ****        -3.5528  -1.4681   0.6792 C.3            1 S1                 0.0000
     17 ****        -3.3789  -1.9660  -0.7663 C.3            1 S1                 0.0000
     18 ****        -3.4217  -0.8564  -1.8324 C.3            1 S1                 0.0000
     19 ****        -2.0827  -0.5985  -2.5449 C.3            1 S1                 0.0000
     20 ****        -0.8023  -0.5704  -1.6838 C.3            1 S1                 0.0000
     21 ****         3.4572   0.9421   3.8041 H              1 S1                 0.0000
     22 ****         3.2513   2.1375  -1.4186 H              1 S1                 0.0000
     23 ****         2.7265   3.2598  -0.2100 H              1 S1                 0.0000
     24 ****         4.0782  -0.0122  -0.8748 H              1 S1                 0.0000
     25 ****         5.0271  -1.5171   0.7352 H              1 S1                 0.0000
     26 ****         1.1442   0.3236   0.3803 H              1 S1                 0.0000
     27 ****        -1.3845   1.2936  -0.7271 H              1 S1                 0.0000
     28 ****        -0.8599  -1.1935   0.9987 H              1 S1                 0.0000
     29 ****        -0.8466   0.4066   1.6565 H              1 S1                 0.0000
     30 ****        -2.9621  -0.0472   2.1443 H              1 S1                 0.0000
     31 ****        -3.2347   0.6951   0.6167 H              1 S1                 0.0000
     32 ****        -3.2780  -2.2756   1.3587 H              1 S1                 0.0000
     33 ****        -4.6139  -1.2884   0.8554 H              1 S1                 0.0000
     34 ****        -2.4671  -2.5553  -0.8499 H              1 S1                 0.0000
     35 ****        -4.1792  -2.6781  -0.9710 H              1 S1                 0.0000
     36 ****        -4.1528  -1.1325  -2.5931 H              1 S1                 0.0000
     37 ****        -3.8072   0.0736  -1.4177 H              1 S1                 0.0000
     38 ****        -1.9484  -1.3692  -3.3048 H              1 S1                 0.0000
     39 ****        -2.1609   0.3396  -3.0955 H              1 S1                 0.0000
     40 ****         0.0038  -0.3138  -2.3731 H              1 S1                 0.0000
     41 ****        -0.5455  -1.5718  -1.3391 H              1 S1                 0.0000
     42 ****         1.1041   3.3861  -2.1174 LP             1 S1                 0.0000
     43 ****        -0.3306   2.4308  -1.9473 LP             1 S1                 0.0000
     44 ****         5.2907  -1.9504   3.1649 LP             1 S1                 0.0000
     45 ****         4.6159  -0.8900   4.3566 LP             1 S1                 0.0000
     46 ****         1.9961   3.2320   1.6280 LP             1 S1                 0.0000
     47 ****         2.2894   2.7691   3.2711 LP             1 S1                 0.0000
@<TRIPOS>BOND
    1    1    2 2     
    2    2    3 1     
    3    2   12 am    
    4    3    4 1     
    5    3   22 1     
    6    3   23 1     
    7    4   10 1     
    8    4    5 1     
    9    5    6 2     
   10    5   24 1     
   11    6    7 1     
   12    6   25 1     
   13    7    8 2     
   14    7    9 1     
   15    9   21 1     
   16    9   10 1     
   17   10   11 2     
   18   12   13 1     
   19   12   26 1     
   20   13   20 1     
   21   13   14 1     
   22   13   27 1     
   23   14   15 1     
   24   14   28 1     
   25   14   29 1     
   26   15   16 1     
   27   15   30 1     
   28   15   31 1     
   29   16   17 1     
   30   16   32 1     
   31   16   33 1     
   32   17   18 1     
   33   17   34 1     
   34   17   35 1     
   35   18   19 1     
   36   18   36 1     
   37   18   37 1     
   38   19   20 1     
   39   19   38 1     
   40   19   39 1     
   41   20   40 1     
   42   20   41 1     
   43    1   42 1     
   44    1   43 1     
   45    8   44 1     
   46    8   45 1     
   47   11   46 1     
   48   11   47 1     
@<TRIPOS>SUBSTRUCTURE
      1 S1             1
@<TRIPOS>SET
LONE_PAIRS      STATIC     ATOMS    <user>   **** ""
6 42 43 44 45 46 47
DONOR_HYDROGENS      STATIC     ATOMS    <user>   **** ""
2 21 26
ATOM$BLUE        STATIC     ATOMS    COLORGROUP SYSTEM
6 42 43 44 45 46 47
ATOM$RED        STATIC     ATOMS    COLORGROUP SYSTEM
2 21 26
