AV-unprocessed.smi:1324|AV-procd|sdf|5471|dock9
  -GOLD-   22720 5 43D 1   1.00000     0.00000
 Structure written by MMmdl.
 42 43  0  0  0  0  0  0  0  0  2 V2000
  149.7804  133.9527  155.2811 C   0  0  0  0  0  0  0  0  0  0  0  0
  149.8763  135.4581  155.1556 C   0  0  0  0  0  0  0  0  0  0  0  0
  148.8134  136.1620  155.2524 N   0  0  0  0  0  0  0  0  0  0  0  0
  148.8974  137.5603  155.1409 C   0  0  0  0  0  0  0  0  0  0  0  0
  147.5871  138.3162  155.2742 C   0  0  0  0  0  0  0  0  0  0  0  0
  150.0935  138.1806  154.9292 C   0  0  0  0  0  0  0  0  0  0  0  0
  150.2415  139.6976  154.8059 C   0  0  0  0  0  0  0  0  0  0  0  0
  151.1478  140.3800  155.8340 C   0  0  0  0  0  0  0  0  0  0  0  0
  152.3736  140.3237  155.7314 O   0  0  0  0  0  0  0  0  0  0  0  0
  150.5207  141.0275  156.8285 N   0  0  0  0  0  0  0  0  0  0  0  0
  151.1746  141.7514  157.9171 C   0  0  0  0  0  0  0  0  0  0  0  0
  151.5051  143.1861  157.4435 C   0  0  0  0  0  0  0  0  0  0  0  0
  152.5201  143.9873  158.2787 C   0  0  0  0  0  0  0  0  0  0  0  0
  152.4717  143.7531  159.7965 C   0  0  0  0  0  0  0  0  0  0  0  0
  153.3178  142.5463  160.2347 C   0  0  0  0  0  0  0  0  0  0  0  0
  152.7073  141.1775  159.9009 C   0  0  0  0  0  0  0  0  0  0  0  0
  152.3909  140.9422  158.4125 C   0  0  0  0  0  0  0  0  0  0  0  0
  151.2933  137.3325  154.8139 C   0  0  0  0  0  0  0  0  0  0  0  0
  152.3945  137.8399  154.6035 O   0  0  0  0  0  0  0  0  0  0  0  0
  151.1306  135.9850  154.9444 N   0  5  0  0  0  0  0  0  0  0  0  0
  148.7451  133.6178  155.2052 H   0  0  0  0  0  0  0  0  0  0  0  0
  150.1764  133.6309  156.2445 H   0  0  0  0  0  0  0  0  0  0  0  0
  150.3532  133.4661  154.4907 H   0  0  0  0  0  0  0  0  0  0  0  0
  147.5977  138.9420  156.1669 H   0  0  0  0  0  0  0  0  0  0  0  0
  146.7425  137.6308  155.3549 H   0  0  0  0  0  0  0  0  0  0  0  0
  147.4189  138.9518  154.4046 H   0  0  0  0  0  0  0  0  0  0  0  0
  150.6340  139.9278  153.8155 H   0  0  0  0  0  0  0  0  0  0  0  0
  149.2619  140.1766  154.8322 H   0  0  0  0  0  0  0  0  0  0  0  0
  149.5110  141.0181  156.8318 H   0  0  0  0  0  0  0  0  0  0  0  0
  150.4637  141.8145  158.7432 H   0  0  0  0  0  0  0  0  0  0  0  0
  151.8712  143.1601  156.4159 H   0  0  0  0  0  0  0  0  0  0  0  0
  150.5717  143.7491  157.4024 H   0  0  0  0  0  0  0  0  0  0  0  0
  153.5283  143.7847  157.9152 H   0  0  0  0  0  0  0  0  0  0  0  0
  152.3542  145.0467  158.0790 H   0  0  0  0  0  0  0  0  0  0  0  0
  152.8817  144.6378  160.2853 H   0  0  0  0  0  0  0  0  0  0  0  0
  151.4437  143.6670  160.1504 H   0  0  0  0  0  0  0  0  0  0  0  0
  154.3168  142.6187  159.8029 H   0  0  0  0  0  0  0  0  0  0  0  0
  153.4610  142.5977  161.3144 H   0  0  0  0  0  0  0  0  0  0  0  0
  153.4050  140.4074  160.2318 H   0  0  0  0  0  0  0  0  0  0  0  0
  151.8047  141.0267  160.4944 H   0  0  0  0  0  0  0  0  0  0  0  0
  152.1764  139.8782  158.3006 H   0  0  0  0  0  0  0  0  0  0  0  0
  153.2665  141.1344  157.7912 H   0  0  0  0  0  0  0  0  0  0  0  0
  1  2  1  0  0  0  0
  1 21  1  0  0  0  0
  1 22  1  0  0  0  0
  1 23  1  0  0  0  0
  2 20  1  0  0  0  0
  2  3  2  0  0  0  0
  3  4  1  0  0  0  0
  4  5  1  0  0  0  0
  4  6  2  0  0  0  0
  5 24  1  0  0  0  0
  5 25  1  0  0  0  0
  5 26  1  0  0  0  0
  6  7  1  0  0  0  0
  6 18  1  0  0  0  0
  7  8  1  0  0  0  0
  7 27  1  0  0  0  0
  7 28  1  0  0  0  0
  8  9  2  0  0  0  0
  8 10  1  0  0  0  0
 10 11  1  0  0  0  0
 10 29  1  0  0  0  0
 11 17  1  0  0  0  0
 11 12  1  0  0  0  0
 11 30  1  0  0  0  0
 12 13  1  0  0  0  0
 12 31  1  0  0  0  0
 12 32  1  0  0  0  0
 13 14  1  0  0  0  0
 13 33  1  0  0  0  0
 13 34  1  0  0  0  0
 14 15  1  0  0  0  0
 14 35  1  0  0  0  0
 14 36  1  0  0  0  0
 15 16  1  0  0  0  0
 15 37  1  0  0  0  0
 15 38  1  0  0  0  0
 16 17  1  0  0  0  0
 16 39  1  0  0  0  0
 16 40  1  0  0  0  0
 17 41  1  0  0  0  0
 17 42  1  0  0  0  0
 18 19  2  0  0  0  0
 18 20  1  0  0  0  0
M  CHG  1  20  -1
M  END
> <s_m_source_file>
AV-unprocessed.smi

> <i_m_source_file_index>
1324

> <i_lp_mmshare_version>
43012

> <i_f3d_flags>
0

> <s_epik_input>
W0NIM11jMW5jKFtDSDNdKWMoYyg9TylbbkhdMSlbQ0gyXUMoPU8pW05IXVtDSF0yW0NIMl1bQ0gyXVtDSDJdW0NIMl1bQ0gyXVtDSDJdMg==

> <s_epik_cmdline>
J2VwaWtfcHl0aG9uJywgJy1waCcsICc3LjAnLCAnLXRuJywgJzgnLCAnLW1hJywgJzIwMCcsICctbWV0YWxfYmluZGluZycsICctaW1hZScsICc8aW5maWxlLm1hZT4nLCAnLW9tYWUnLCAnPG91dGZpbGUubWFlPic=

> <r_lp_tautomer_probability>
0.839158

> <r_epik_Ionization_Penalty>
6.62804

> <r_epik_Ionization_Penalty_Charging>
7.40585e-08

> <r_epik_Ionization_Penalty_Neutral>
6.62804

> <r_epik_State_Penalty>
4.44437

> <r_epik_Charging_Adjusted_Penalty>
4.44437

> <i_epik_Tot_Q>
-1

> <i_epik_Tot_abs_Q>
1

> <r_epik_Metal_State_Penalty>
0.804717

> <b_epik_Metal_Only>
1

> <s_lp_Force_Field>
OPLS_2005

> <r_lp_Energy>
20.4911

> <b_lp_Chiralities_Consistent>
1

> <s_lp_Variant>
AV-unprocessed.smi:1324-3

> <Gold.Version>
5.8.1

> <Gold.Id.Protein>
6NUR|6NUR_protein|mol2

> <Gold.PLP.Fitness>
46.5885

> <Gold.PLP.PLP>
-38.7102

> <Gold.PLP.part.hbond>
-3.9699

> <Gold.PLP.part.metal>
0.0000

> <Gold.PLP.part.buried>
-2.0579

> <Gold.PLP.part.nonpolar>
-33.3654

> <Gold.PLP.part.repulsive>
0.4322

> <Gold.PLP.ligand.clash>
0.0000

> <Gold.PLP.ligand.torsion>
0.5329

> <Gold.PLP.Chemscore.Hbond>
2.9750

> <Gold.PLP.Chemscore.CHOScore>
0.0000

> <Gold.PLP.Chemscore.Metal>
0.0000

> <Gold.Chemscore.Hbonds>
donor molecule, donor type, donor heavy atom, donor atom, acceptor molecule, acceptor atom, score
      P1  H  7997  8009       L1     9  1.00
      P1  H 10752 10763       L1    20  1.60

> <Gold.PLP.Chemscore.Internal.Correction>
0.0193

> <Gold.Rescore>
     Score         DG    S(hbond)    S(metal)    S(lipo)     H(rot)  DE(clash)    DE(int)     intcor
     12.97     -19.06       1.76        0.00      97.56       1.45       1.50       4.59       ----

> <Gold.Chemscore.Fitness>
12.9687

> <Gold.Chemscore.DG>
-19.0586

> <Gold.Chemscore.ZeroCoef>
-5.4800

> <Gold.Chemscore.Hbond>
1.7556

> <Gold.Chemscore.Metal>
0.0000

> <Gold.Chemscore.Lipo>
97.5563

> <Gold.Chemscore.Internal_Hbond>
0.0000

> <Gold.Chemscore.DEClash>
1.4997

> <Gold.Chemscore.DEInternal>
4.5903

> <Gold.Chemscore.Rot>
1.4450

> <Gold.Chemscore.Internal.Correction>
   9.000000E+99

> <Gold.Chemscore.Hbonds>
donor molecule, donor type, donor heavy atom, donor atom, acceptor molecule, acceptor atom, score
      P1  H  7997  8009       L1     9  0.92
      P1  H 10752 10763       L1    20  0.12

> <Gold.Chemscore.Hbond.Weighted>
-5.8638

> <Gold.Chemscore.Metal.Weighted>
-0.0000

> <Gold.Chemscore.Lipo.Weighted>
-11.4141

> <Gold.Chemscore.Internal_Hbond.Weighted>
0.0000

> <Gold.Chemscore.DEClash.Weighted>
1.4997

> <Gold.Chemscore.DEInternal.Weighted>
4.5903

> <Gold.Chemscore.Rot.Weighted>
3.6992

> <Gold.Chemscore.Internal.Correction.Weighted>
   9.000000E+99

> <Gold.Protein.RotatedTorsions>
[ 6907 6896 6895 6894 ] final  118.70 input  -60.11 | X-H torsion
[ 7974 7965 7964 7962 ] final  -12.07 input  175.53 | X-H torsion
[ 8008 7997 7996 7995 ] final -148.77 input   59.86 | X-H torsion
[ 10167 10162 10161 10158 ] final    3.35 input  -65.29 | X-H torsion
[ 10718 10713 10712 10709 ] final  -11.15 input   66.30 | X-H torsion
[ 10763 10752 10751 10750 ] final   69.12 input  -60.55 | X-H torsion
[ 11005 11000 10999 10996 ] final -152.11 input  -57.11 | X-H torsion

> <Gold.Protein.ActiveResidues>
 VAL166  LYS551  ARG553  GLY616  TRP617  ASP618  TYR619  PRO620  LYS621  CYS622 
 ASP623  PHE694  ASN695  SER759  ASP760  ASP761  ALA762  ILE779  LEU786  VAL792 
 PHE793  MET794  SER795  GLU796  ALA797  LYS798  CYS799  TRP800  GLU811  SER814 

> <Gold.Protein.RotatedAtoms>
  152.4524  133.7656  159.6770 H   0  0  0  0  0  0  0  0  0  0  0  0  # atno 6907 bound_to 6896
  150.8440  133.7880  159.3056 H   0  0  0  0  0  0  0  0  0  0  0  0  # atno 6908 bound_to 6896
  151.5496  135.1070  159.9998 H   0  0  0  0  0  0  0  0  0  0  0  0  # atno 6909 bound_to 6896
  146.2165  140.3004  142.8375 H   0  0  0  0  0  0  0  0  0  0  0  0  # atno 7974 bound_to 7965
  155.5970  140.0658  157.2743 H   0  0  0  0  0  0  0  0  0  0  0  0  # atno 8008 bound_to 7997
  154.4289  140.1825  156.1181 H   0  0  0  0  0  0  0  0  0  0  0  0  # atno 8009 bound_to 7997
  156.0188  140.3319  155.7021 H   0  0  0  0  0  0  0  0  0  0  0  0  # atno 8010 bound_to 7997
  140.6590  143.7353  150.7704 H   0  0  0  0  0  0  0  0  0  0  0  0  # atno 10167 bound_to 10162
  156.6631  130.4987  149.6024 H   0  0  0  0  0  0  0  0  0  0  0  0  # atno 10718 bound_to 10713
  153.0270  135.5222  154.7239 H   0  0  0  0  0  0  0  0  0  0  0  0  # atno 10763 bound_to 10752
  154.6286  135.2897  155.0245 H   0  0  0  0  0  0  0  0  0  0  0  0  # atno 10764 bound_to 10752
  154.1205  135.6608  153.4954 H   0  0  0  0  0  0  0  0  0  0  0  0  # atno 10765 bound_to 10752
  140.7224  134.3712  157.5181 H   0  0  0  0  0  0  0  0  0  0  0  0  # atno 11005 bound_to 11000
  144.9061  140.7701  143.5836 LP  0  0  0  0  0  0  0  0  0  0  0  0  # atno 17320 bound_to 7965
  145.2933  139.1876  143.4729 LP  0  0  0  0  0  0  0  0  0  0  0  0  # atno 17321 bound_to 7965
  140.1018  143.4781  152.2421 LP  0  0  0  0  0  0  0  0  0  0  0  0  # atno 17342 bound_to 10162
  139.5819  144.7514  151.3618 LP  0  0  0  0  0  0  0  0  0  0  0  0  # atno 17343 bound_to 10162
  156.1996  130.6611  151.1152 LP  0  0  0  0  0  0  0  0  0  0  0  0  # atno 17370 bound_to 10713
  157.7103  131.0737  150.6525 LP  0  0  0  0  0  0  0  0  0  0  0  0  # atno 17371 bound_to 10713
  139.8845  134.8964  156.2700 LP  0  0  0  0  0  0  0  0  0  0  0  0  # atno 17394 bound_to 11000
  140.9992  133.7162  156.0933 LP  0  0  0  0  0  0  0  0  0  0  0  0  # atno 17395 bound_to 11000

$$$$
