AV-unprocessed.smi:481|AV-procd|sdf|2682|dock5
  -GOLD-   2262023103D 1   1.00000     0.00000
 Structure written by MMmdl.
 42 44  0  0  0  0  0  0  0  0  2 V2000
  156.8480  137.6639  159.1284 C   0  0  0  0  0  0  0  0  0  0  0  0
  155.8029  138.3333  158.4451 O   0  0  0  0  0  0  0  0  0  0  0  0
  155.1110  137.4827  157.5464 C   0  0  0  0  0  0  0  0  0  0  0  0
  154.1614  136.5816  158.3452 C   0  0  0  0  0  0  0  0  0  0  0  0
  154.1296  136.9510  159.7571 N   0  0  0  0  0  0  0  0  0  0  0  0
  153.7705  138.1471  160.2887 C   0  0  0  0  0  0  0  0  0  0  0  0
  153.3847  139.1924  159.4498 N   0  0  0  0  0  0  0  0  0  0  0  0
  153.0314  140.3645  159.9476 N   0  0  0  0  0  0  0  0  0  0  0  0
  152.9538  141.3340  159.1085 C   0  0  0  0  0  0  0  0  0  0  0  0
  152.5746  142.6961  159.5128 C   0  0  0  0  0  0  0  0  0  0  0  0
  152.2953  143.7082  158.5638 C   0  0  0  0  0  0  0  0  0  0  0  0
  151.9361  145.0027  158.9876 C   0  0  0  0  0  0  0  0  0  0  0  0
  151.8528  145.2974  160.3616 C   0  0  0  0  0  0  0  0  0  0  0  0
  152.1288  144.2961  161.3117 C   0  0  0  0  0  0  0  0  0  0  0  0
  152.4878  143.0015  160.8887 C   0  0  0  0  0  0  0  0  0  0  0  0
  153.8322  138.2069  161.6229 N   0  0  0  0  0  0  0  0  0  0  0  0
  154.2794  136.9387  161.9645 C   0  0  0  0  0  0  0  0  0  0  0  0
  154.4737  136.1680  160.8616 C   0  0  0  0  0  0  0  0  0  0  0  0
  154.9675  134.7759  160.9063 C   0  0  0  0  0  0  0  0  0  0  0  0
  155.1500  134.1344  159.8734 O   0  0  0  0  0  0  0  0  0  0  0  0
  155.1808  134.3466  162.1908 N   0  5  0  0  0  0  0  0  0  0  0  0
  154.9906  135.0891  163.3375 C   0  0  0  0  0  0  0  0  0  0  0  0
  155.2089  134.6168  164.4534 O   0  0  0  0  0  0  0  0  0  0  0  0
  154.5486  136.3849  163.2441 N   0  0  0  0  0  0  0  0  0  0  0  0
  154.3350  137.2439  164.4130 C   0  0  0  0  0  0  0  0  0  0  0  0
  157.3498  138.3587  159.8016 H   0  0  0  0  0  0  0  0  0  0  0  0
  157.5913  137.2752  158.4310 H   0  0  0  0  0  0  0  0  0  0  0  0
  156.4612  136.8371  159.7256 H   0  0  0  0  0  0  0  0  0  0  0  0
  154.5499  138.0772  156.8238 H   0  0  0  0  0  0  0  0  0  0  0  0
  155.8243  136.8733  156.9892 H   0  0  0  0  0  0  0  0  0  0  0  0
  153.1542  136.6415  157.9325 H   0  0  0  0  0  0  0  0  0  0  0  0
  154.4504  135.5355  158.2520 H   0  0  0  0  0  0  0  0  0  0  0  0
  153.3942  139.0359  158.4523 H   0  0  0  0  0  0  0  0  0  0  0  0
  153.1733  141.1629  158.0522 H   0  0  0  0  0  0  0  0  0  0  0  0
  152.3532  143.5050  157.5041 H   0  0  0  0  0  0  0  0  0  0  0  0
  151.7250  145.7695  158.2568 H   0  0  0  0  0  0  0  0  0  0  0  0
  151.5778  146.2900  160.6861 H   0  0  0  0  0  0  0  0  0  0  0  0
  152.0659  144.5205  162.3664 H   0  0  0  0  0  0  0  0  0  0  0  0
  152.6969  142.2446  161.6310 H   0  0  0  0  0  0  0  0  0  0  0  0
  154.5445  136.7643  165.3695 H   0  0  0  0  0  0  0  0  0  0  0  0
  153.2988  137.5821  164.4400 H   0  0  0  0  0  0  0  0  0  0  0  0
  154.9731  138.1256  164.3454 H   0  0  0  0  0  0  0  0  0  0  0  0
  1  2  1  0  0  0  0
  1 26  1  0  0  0  0
  1 27  1  0  0  0  0
  1 28  1  0  0  0  0
  2  3  1  0  0  0  0
  3  4  1  0  0  0  0
  3 29  1  0  0  0  0
  3 30  1  0  0  0  0
  4  5  1  0  0  0  0
  4 31  1  0  0  0  0
  4 32  1  0  0  0  0
  5 18  1  0  0  0  0
  5  6  1  0  0  0  0
  6  7  1  0  0  0  0
  6 16  2  0  0  0  0
  7  8  1  0  0  0  0
  7 33  1  0  0  0  0
  8  9  2  0  0  0  0
  9 10  1  0  0  0  0
  9 34  1  0  0  0  0
 10 15  1  0  0  0  0
 10 11  2  0  0  0  0
 11 12  1  0  0  0  0
 11 35  1  0  0  0  0
 12 13  2  0  0  0  0
 12 36  1  0  0  0  0
 13 14  1  0  0  0  0
 13 37  1  0  0  0  0
 14 15  2  0  0  0  0
 14 38  1  0  0  0  0
 15 39  1  0  0  0  0
 16 17  1  0  0  0  0
 17 24  1  0  0  0  0
 17 18  2  0  0  0  0
 18 19  1  0  0  0  0
 19 20  2  0  0  0  0
 19 21  1  0  0  0  0
 21 22  1  0  0  0  0
 22 23  2  0  0  0  0
 22 24  1  0  0  0  0
 24 25  1  0  0  0  0
 25 40  1  0  0  0  0
 25 41  1  0  0  0  0
 25 42  1  0  0  0  0
M  CHG  1  21  -1
M  END
> <s_m_source_file>
AV-unprocessed.smi

> <i_m_source_file_index>
481

> <i_lp_mmshare_version>
43012

> <i_f3d_flags>
0

> <s_epik_input>
W0NIM11uMWMoPU8pW25IXWMoPU8pYyhjMTIpbihbQ0gyXVtDSDJdT1tDSDNdKWMobjIpW05IXS9OPVtDSF0vYzNbY0hdW2NIXVtjSF1bY0hdW2NIXTM=

> <s_epik_cmdline>
J2VwaWtfcHl0aG9uJywgJy1waCcsICc3LjAnLCAnLXRuJywgJzgnLCAnLW1hJywgJzIwMCcsICctbWV0YWxfYmluZGluZycsICctaW1hZScsICc8aW5maWxlLm1hZT4nLCAnLW9tYWUnLCAnPG91dGZpbGUubWFlPic=

> <r_epik_Ionization_Penalty>
4.48471

> <r_epik_Ionization_Penalty_Charging>
4.58449e-09

> <r_epik_Ionization_Penalty_Neutral>
4.48471

> <r_epik_State_Penalty>
4.48428

> <r_epik_Charging_Adjusted_Penalty>
4.48428

> <i_epik_Tot_Q>
-1

> <i_epik_Tot_abs_Q>
1

> <r_epik_Metal_State_Penalty>
0.811551

> <b_epik_Metal_Only>
1

> <s_epik_Chemistry_Notes>
This compound has an imine and may undergo hydrolysis.

> <s_lp_Force_Field>
OPLS_2005

> <r_lp_Energy>
36.4971

> <b_lp_Chiralities_Consistent>
1

> <s_lp_Variant>
AV-unprocessed.smi:481-3

> <Gold.Version>
5.8.1

> <Gold.Id.Protein>
6NUR|6NUR_protein|mol2

> <Gold.PLP.Fitness>
47.7021

> <Gold.PLP.PLP>
-46.4523

> <Gold.PLP.part.hbond>
-1.0000

> <Gold.PLP.part.metal>
0.0000

> <Gold.PLP.part.buried>
-5.7903

> <Gold.PLP.part.nonpolar>
-39.1906

> <Gold.PLP.part.repulsive>
0.1833

> <Gold.PLP.ligand.clash>
0.0000

> <Gold.PLP.ligand.torsion>
0.4768

> <Gold.PLP.Chemscore.Hbond>
0.7256

> <Gold.PLP.Chemscore.CHOScore>
0.0000

> <Gold.PLP.Chemscore.Metal>
0.0000

> <Gold.Chemscore.Hbonds>
donor molecule, donor type, donor heavy atom, donor atom, acceptor molecule, acceptor atom, score
      P1  H  7997  8009       L1     2  0.74

> <Gold.PLP.Chemscore.Internal.Correction>
0.0265

> <Gold.Rescore>
     Score         DG    S(hbond)    S(metal)    S(lipo)     H(rot)  DE(clash)    DE(int)     intcor
     13.37     -15.62       0.57        0.00     103.76       1.52       0.14       2.10       ----

> <Gold.Chemscore.Fitness>
13.3715

> <Gold.Chemscore.DG>
-15.6151

> <Gold.Chemscore.ZeroCoef>
-5.4800

> <Gold.Chemscore.Hbond>
0.5670

> <Gold.Chemscore.Metal>
0.0000

> <Gold.Chemscore.Lipo>
103.7610

> <Gold.Chemscore.Internal_Hbond>
0.0000

> <Gold.Chemscore.DEClash>
0.1394

> <Gold.Chemscore.DEInternal>
2.1042

> <Gold.Chemscore.Rot>
1.5230

> <Gold.Chemscore.Internal.Correction>
   9.000000E+99

> <Gold.Chemscore.Hbonds>
donor molecule, donor type, donor heavy atom, donor atom, acceptor molecule, acceptor atom, score
      P1  H  7997  8009       L1     2  0.10

> <Gold.Chemscore.Hbond.Weighted>
-1.8939

> <Gold.Chemscore.Metal.Weighted>
-0.0000

> <Gold.Chemscore.Lipo.Weighted>
-12.1400

> <Gold.Chemscore.Internal_Hbond.Weighted>
0.0000

> <Gold.Chemscore.DEClash.Weighted>
0.1394

> <Gold.Chemscore.DEInternal.Weighted>
2.1042

> <Gold.Chemscore.Rot.Weighted>
3.8989

> <Gold.Chemscore.Internal.Correction.Weighted>
   9.000000E+99

> <Gold.Protein.RotatedTorsions>
[ 6907 6896 6895 6894 ] final -176.81 input  -60.11 | X-H torsion
[ 7974 7965 7964 7962 ] final  -12.78 input  175.53 | X-H torsion
[ 8008 7997 7996 7995 ] final   85.02 input   59.86 | X-H torsion
[ 10167 10162 10161 10158 ] final -176.91 input  -65.29 | X-H torsion
[ 10718 10713 10712 10709 ] final   89.85 input   66.30 | X-H torsion
[ 10763 10752 10751 10750 ] final  -95.95 input  -60.55 | X-H torsion
[ 11005 11000 10999 10996 ] final   47.10 input  -57.11 | X-H torsion

> <Gold.Protein.ActiveResidues>
 VAL166  LYS551  ARG553  GLY616  TRP617  ASP618  TYR619  PRO620  LYS621  CYS622 
 ASP623  PHE694  ASN695  SER759  ASP760  ASP761  ALA762  ILE779  LEU786  VAL792 
 PHE793  MET794  SER795  GLU796  ALA797  LYS798  CYS799  TRP800  GLU811  SER814 

> <Gold.Protein.RotatedAtoms>
  151.6109  133.3347  159.3066 H   0  0  0  0  0  0  0  0  0  0  0  0  # atno 6907 bound_to 6896
  150.8157  134.7341  159.6739 H   0  0  0  0  0  0  0  0  0  0  0  0  # atno 6908 bound_to 6896
  152.4253  134.5885  160.0019 H   0  0  0  0  0  0  0  0  0  0  0  0  # atno 6909 bound_to 6896
  146.2139  140.3107  142.8382 H   0  0  0  0  0  0  0  0  0  0  0  0  # atno 7974 bound_to 7965
  155.9446  140.3405  155.6356 H   0  0  0  0  0  0  0  0  0  0  0  0  # atno 8008 bound_to 7997
  155.6996  140.0758  157.2434 H   0  0  0  0  0  0  0  0  0  0  0  0  # atno 8009 bound_to 7997
  154.4109  140.1642  156.2164 H   0  0  0  0  0  0  0  0  0  0  0  0  # atno 8010 bound_to 7997
  139.5506  144.2119  152.1070 H   0  0  0  0  0  0  0  0  0  0  0  0  # atno 10167 bound_to 10162
  157.6957  131.0348  150.3488 H   0  0  0  0  0  0  0  0  0  0  0  0  # atno 10718 bound_to 10713
  154.7195  135.5102  153.8790 H   0  0  0  0  0  0  0  0  0  0  0  0  # atno 10763 bound_to 10752
  153.0850  135.6642  153.9977 H   0  0  0  0  0  0  0  0  0  0  0  0  # atno 10764 bound_to 10752
  153.9803  135.3029  155.3400 H   0  0  0  0  0  0  0  0  0  0  0  0  # atno 10765 bound_to 10752
  140.1309  134.4707  155.8522 H   0  0  0  0  0  0  0  0  0  0  0  0  # atno 11005 bound_to 11000
  144.8990  140.7619  143.5879 LP  0  0  0  0  0  0  0  0  0  0  0  0  # atno 17320 bound_to 7965
  145.3032  139.1843  143.4678 LP  0  0  0  0  0  0  0  0  0  0  0  0  # atno 17321 bound_to 7965
  140.1614  144.5022  150.6630 LP  0  0  0  0  0  0  0  0  0  0  0  0  # atno 17342 bound_to 10162
  140.6767  143.2308  151.5488 LP  0  0  0  0  0  0  0  0  0  0  0  0  # atno 17343 bound_to 10162
  156.3939  130.3903  149.7009 LP  0  0  0  0  0  0  0  0  0  0  0  0  # atno 17370 bound_to 10713
  156.4350  130.7833  151.2854 LP  0  0  0  0  0  0  0  0  0  0  0  0  # atno 17371 bound_to 10713
  141.2170  133.6795  156.7067 LP  0  0  0  0  0  0  0  0  0  0  0  0  # atno 17394 bound_to 11000
  140.2844  134.8291  157.3961 LP  0  0  0  0  0  0  0  0  0  0  0  0  # atno 17395 bound_to 11000

$$$$
