AV-unprocessed.smi:2695|AV-procd|sdf|10410|dock1
  -GOLD-   2272014443D 1   1.00000     0.00000
 Structure written by MMmdl.
 42 43  0  0  0  0  0  0  0  0  1 V2000
  148.8461  141.0304  154.0837 C   0  0  0  0  0  0  0  0  0  0  0  0
  149.8428  139.9541  154.4968 C   0  0  0  0  0  0  0  0  0  0  0  0
  149.7060  138.6830  154.0771 C   0  0  0  0  0  0  0  0  0  0  0  0
  150.6451  137.6791  154.5130 C   0  0  0  0  0  0  0  0  0  0  0  0
  150.5191  136.4149  154.0909 O   0  0  0  0  0  0  0  0  0  0  0  0
  151.6411  138.0191  155.3516 C   0  0  0  0  0  0  0  0  0  0  0  0
  151.8123  139.3914  155.8346 C   0  0  0  0  0  0  0  0  0  0  0  0
  152.7187  139.6864  156.6150 O   0  0  0  0  0  0  0  0  0  0  0  0
  150.9136  140.3168  155.3660 N   0  0  0  0  0  0  0  0  0  0  0  0
  151.0731  141.7282  155.7877 C   0  0  0  0  0  0  0  0  0  0  0  0
  150.8322  141.9556  157.2882 C   0  0  0  0  0  0  0  0  0  0  0  0
  149.7792  141.6053  157.8223 O   0  0  0  0  0  0  0  0  0  0  0  0
  151.8329  142.5545  157.9514 N   0  0  0  0  0  0  0  0  0  0  0  0
  151.8437  142.8913  159.3765 C   0  0  1  0  0  0  0  0  0  0  0  0
  153.1005  142.2737  160.0413 C   0  0  0  0  0  0  0  0  0  0  0  0
  153.4803  140.8872  159.5048 C   0  0  0  0  0  0  0  0  0  0  0  0
  154.4258  140.3064  160.5569 C   0  0  0  0  0  0  0  0  0  0  0  0
  154.0063  140.9380  161.8904 C   0  0  0  0  0  0  0  0  0  0  0  0
  152.9821  142.0298  161.5523 C   0  0  0  0  0  0  0  0  0  0  0  0
  151.7457  144.4270  159.5249 C   0  0  0  0  0  0  0  0  0  0  0  0
  152.5944  145.0174  158.6823 F   0  0  0  0  0  0  0  0  0  0  0  0
  150.5195  144.8595  159.2345 F   0  0  0  0  0  0  0  0  0  0  0  0
  152.0523  144.7982  160.7686 F   0  0  0  0  0  0  0  0  0  0  0  0
  147.9564  140.5806  153.6419 H   0  0  0  0  0  0  0  0  0  0  0  0
  149.2847  141.6937  153.3379 H   0  0  0  0  0  0  0  0  0  0  0  0
  148.5085  141.6229  154.9336 H   0  0  0  0  0  0  0  0  0  0  0  0
  148.8884  138.4076  153.4264 H   0  0  0  0  0  0  0  0  0  0  0  0
  149.8479  136.4022  153.4260 H   0  0  0  0  0  0  0  0  0  0  0  0
  152.3405  137.2640  155.6804 H   0  0  0  0  0  0  0  0  0  0  0  0
  152.0749  142.0905  155.5497 H   0  0  0  0  0  0  0  0  0  0  0  0
  150.4278  142.3946  155.2170 H   0  0  0  0  0  0  0  0  0  0  0  0
  152.6569  142.8090  157.4264 H   0  0  0  0  0  0  0  0  0  0  0  0
  150.9651  142.4620  159.8612 H   0  0  0  0  0  0  0  0  0  0  0  0
  153.9510  142.9366  159.8733 H   0  0  0  0  0  0  0  0  0  0  0  0
  152.5901  140.2608  159.4293 H   0  0  0  0  0  0  0  0  0  0  0  0
  153.9408  140.9272  158.5170 H   0  0  0  0  0  0  0  0  0  0  0  0
  154.3879  139.2169  160.5836 H   0  0  0  0  0  0  0  0  0  0  0  0
  155.4525  140.5924  160.3249 H   0  0  0  0  0  0  0  0  0  0  0  0
  153.5697  140.1967  162.5606 H   0  0  0  0  0  0  0  0  0  0  0  0
  154.8748  141.3617  162.3959 H   0  0  0  0  0  0  0  0  0  0  0  0
  153.1527  142.9365  162.1332 H   0  0  0  0  0  0  0  0  0  0  0  0
  151.9811  141.6689  161.7936 H   0  0  0  0  0  0  0  0  0  0  0  0
  1  2  1  0  0  0  0
  1 24  1  0  0  0  0
  1 25  1  0  0  0  0
  1 26  1  0  0  0  0
  2  9  1  0  0  0  0
  2  3  2  0  0  0  0
  3  4  1  0  0  0  0
  3 27  1  0  0  0  0
  4  5  1  0  0  0  0
  4  6  2  0  0  0  0
  5 28  1  0  0  0  0
  6  7  1  0  0  0  0
  6 29  1  0  0  0  0
  7  8  2  0  0  0  0
  7  9  1  0  0  0  0
  9 10  1  0  0  0  0
 10 11  1  0  0  0  0
 10 30  1  0  0  0  0
 10 31  1  0  0  0  0
 11 12  2  0  0  0  0
 11 13  1  0  0  0  0
 13 14  1  0  0  0  0
 13 32  1  0  0  0  0
 14 15  1  0  0  0  0
 14 20  1  0  0  0  0
 14 33  1  0  0  0  0
 15 19  1  0  0  0  0
 15 16  1  0  0  0  0
 15 34  1  0  0  0  0
 16 17  1  0  0  0  0
 16 35  1  0  0  0  0
 16 36  1  0  0  0  0
 17 18  1  0  0  0  0
 17 37  1  0  0  0  0
 17 38  1  0  0  0  0
 18 19  1  0  0  0  0
 18 39  1  0  0  0  0
 18 40  1  0  0  0  0
 19 41  1  0  0  0  0
 19 42  1  0  0  0  0
 20 21  1  0  0  0  0
 20 22  1  0  0  0  0
 20 23  1  0  0  0  0
M  END
> <s_m_source_file>
AV-unprocessed.smi

> <i_m_source_file_index>
2695

> <i_lp_mmshare_version>
43012

> <i_f3d_flags>
0

> <s_epik_input>
W0NIM11jMVtjSF1jKFtPSF0pW2NIXWMoPU8pbjFbQ0gyXUMoPU8pW05IXVtDQEBIXShDKEYpKEYpRilbQ0hdMltDSDJdW0NIMl1bQ0gyXVtDSDJdMg==

> <s_epik_cmdline>
J2VwaWtfcHl0aG9uJywgJy1waCcsICc3LjAnLCAnLXRuJywgJzgnLCAnLW1hJywgJzIwMCcsICctbWV0YWxfYmluZGluZycsICctaW1hZScsICc8aW5maWxlLm1hZT4nLCAnLW9tYWUnLCAnPG91dGZpbGUubWFlPic=

> <r_lp_tautomer_probability>
0.999984

> <r_epik_Ionization_Penalty>
0.843628

> <r_epik_Ionization_Penalty_Charging>
1.18449e-07

> <r_epik_Ionization_Penalty_Neutral>
0.843628

> <r_epik_State_Penalty>
0.886913

> <r_epik_Charging_Adjusted_Penalty>
0.886913

> <i_epik_Tot_Q>
0

> <i_epik_Tot_abs_Q>
0

> <r_epik_Metal_State_Penalty>
0.886913

> <b_epik_Metal_Only>
0

> <s_lp_Force_Field>
OPLS_2005

> <r_lp_Energy>
35.4527

> <b_lp_Chiralities_Consistent>
1

> <s_lp_Variant>
AV-unprocessed.smi:2695-4

> <Gold.Version>
5.8.1

> <Gold.Id.Protein>
6NUR|6NUR_protein|mol2

> <Gold.PLP.Fitness>
61.9964

> <Gold.PLP.PLP>
-57.4684

> <Gold.PLP.part.hbond>
-3.0000

> <Gold.PLP.part.metal>
0.0000

> <Gold.PLP.part.buried>
-5.4141

> <Gold.PLP.part.nonpolar>
-48.4166

> <Gold.PLP.part.repulsive>
0.0990

> <Gold.PLP.ligand.clash>
0.0000

> <Gold.PLP.ligand.torsion>
0.9054

> <Gold.PLP.Chemscore.Hbond>
2.0000

> <Gold.PLP.Chemscore.CHOScore>
0.0000

> <Gold.PLP.Chemscore.Metal>
0.0000

> <Gold.Chemscore.Hbonds>
donor molecule, donor type, donor heavy atom, donor atom, acceptor molecule, acceptor atom, score
      L1  H     5    28       P1  7948  0.90
      P1  H  7997  8010       L1     8  0.96

> <Gold.PLP.Chemscore.Internal.Correction>
0.3388

> <Gold.Rescore>
     Score         DG    S(hbond)    S(metal)    S(lipo)     H(rot)  DE(clash)    DE(int)     intcor
     17.39     -18.64       1.89        0.00     110.13       2.36       0.03       1.22       ----

> <Gold.Chemscore.Fitness>
17.3921

> <Gold.Chemscore.DG>
-18.6434

> <Gold.Chemscore.ZeroCoef>
-5.4800

> <Gold.Chemscore.Hbond>
1.8920

> <Gold.Chemscore.Metal>
0.0000

> <Gold.Chemscore.Lipo>
110.1313

> <Gold.Chemscore.Internal_Hbond>
0.0000

> <Gold.Chemscore.DEClash>
0.0325

> <Gold.Chemscore.DEInternal>
1.2188

> <Gold.Chemscore.Rot>
2.3599

> <Gold.Chemscore.Internal.Correction>
   9.000000E+99

> <Gold.Chemscore.Hbonds>
donor molecule, donor type, donor heavy atom, donor atom, acceptor molecule, acceptor atom, score
      L1  H     5    28       P1  7948  0.18
      P1  H  7997  8010       L1     8  0.92

> <Gold.Chemscore.Hbond.Weighted>
-6.3193

> <Gold.Chemscore.Metal.Weighted>
-0.0000

> <Gold.Chemscore.Lipo.Weighted>
-12.8854

> <Gold.Chemscore.Internal_Hbond.Weighted>
0.0000

> <Gold.Chemscore.DEClash.Weighted>
0.0325

> <Gold.Chemscore.DEInternal.Weighted>
1.2188

> <Gold.Chemscore.Rot.Weighted>
6.0413

> <Gold.Chemscore.Internal.Correction.Weighted>
   9.000000E+99

> <Gold.Protein.RotatedTorsions>
[ 6907 6896 6895 6894 ] final -106.07 input  -60.11 | X-H torsion
[ 7974 7965 7964 7962 ] final  -45.21 input  175.53 | X-H torsion
[ 8008 7997 7996 7995 ] final   48.46 input   59.86 | X-H torsion
[ 10167 10162 10161 10158 ] final  -42.67 input  -65.29 | X-H torsion
[ 10718 10713 10712 10709 ] final   53.83 input   66.30 | X-H torsion
[ 10763 10752 10751 10750 ] final  134.57 input  -60.55 | X-H torsion
[ 11005 11000 10999 10996 ] final  125.86 input  -57.11 | X-H torsion

> <Gold.Protein.ActiveResidues>
 VAL166  LYS551  ARG553  GLY616  TRP617  ASP618  TYR619  PRO620  LYS621  CYS622 
 ASP623  PHE694  ASN695  SER759  ASP760  ASP761  ALA762  ILE779  LEU786  VAL792 
 PHE793  MET794  SER795  GLU796  ALA797  LYS798  CYS799  TRP800  GLU811  SER814 

> <Gold.Protein.RotatedAtoms>
  150.7369  134.0032  159.3644 H   0  0  0  0  0  0  0  0  0  0  0  0  # atno 6907 bound_to 6896
  151.7987  135.0713  160.0406 H   0  0  0  0  0  0  0  0  0  0  0  0  # atno 6908 bound_to 6896
  152.3156  133.5762  159.5746 H   0  0  0  0  0  0  0  0  0  0  0  0  # atno 6909 bound_to 6896
  145.9843  140.7250  142.9348 H   0  0  0  0  0  0  0  0  0  0  0  0  # atno 7974 bound_to 7965
  155.3860  140.3431  155.4249 H   0  0  0  0  0  0  0  0  0  0  0  0  # atno 8008 bound_to 7997
  156.1584  140.1593  156.8687 H   0  0  0  0  0  0  0  0  0  0  0  0  # atno 8009 bound_to 7997
  154.5116  140.0788  156.7983 H   0  0  0  0  0  0  0  0  0  0  0  0  # atno 8010 bound_to 7997
  140.6961  143.3025  151.3243 H   0  0  0  0  0  0  0  0  0  0  0  0  # atno 10167 bound_to 10162
  157.5202  130.8560  149.8549 H   0  0  0  0  0  0  0  0  0  0  0  0  # atno 10718 bound_to 10713
  153.8257  135.3110  155.3414 H   0  0  0  0  0  0  0  0  0  0  0  0  # atno 10763 bound_to 10752
  154.7994  135.4736  154.0242 H   0  0  0  0  0  0  0  0  0  0  0  0  # atno 10764 bound_to 10752
  153.1665  135.6870  153.8757 H   0  0  0  0  0  0  0  0  0  0  0  0  # atno 10765 bound_to 10752
  139.9427  134.9633  156.8622 H   0  0  0  0  0  0  0  0  0  0  0  0  # atno 11005 bound_to 11000
  144.6870  140.2962  143.7270 LP  0  0  0  0  0  0  0  0  0  0  0  0  # atno 17320 bound_to 7965
  145.7723  139.1862  143.2205 LP  0  0  0  0  0  0  0  0  0  0  0  0  # atno 17321 bound_to 7965
  139.6418  144.0525  152.2560 LP  0  0  0  0  0  0  0  0  0  0  0  0  # atno 17342 bound_to 10162
  140.0033  144.6277  150.7711 LP  0  0  0  0  0  0  0  0  0  0  0  0  # atno 17343 bound_to 10162
  156.0348  130.3754  150.1589 LP  0  0  0  0  0  0  0  0  0  0  0  0  # atno 17370 bound_to 10713
  156.9777  130.9854  151.3444 LP  0  0  0  0  0  0  0  0  0  0  0  0  # atno 17371 bound_to 10713
  140.5910  134.0261  155.7500 LP  0  0  0  0  0  0  0  0  0  0  0  0  # atno 17394 bound_to 11000
  141.1068  133.9681  157.2983 LP  0  0  0  0  0  0  0  0  0  0  0  0  # atno 17395 bound_to 11000

$$$$
