AV-unprocessed.smi:861|AV-procd|sdf|3975|dock10
  -GOLD-   22720 1453D 1   1.00000     0.00000
 Structure written by MMmdl.
 45 46  0  0  0  0  0  0  0  0  3 V2000
  152.3518  143.4724  161.1138 C   0  0  0  0  0  0  0  0  0  0  0  0
  152.5726  143.5697  159.5948 C   0  0  0  0  0  0  0  0  0  0  0  0
  152.0337  144.9058  159.0612 C   0  0  0  0  0  0  0  0  0  0  0  0
  151.9452  142.3851  158.8317 C   0  0  0  0  0  0  0  0  0  0  0  0
  152.4399  141.0050  159.3069 C   0  0  0  0  0  0  0  0  0  0  0  0
  151.7685  139.8865  158.5982 N   0  3  2  0  0  0  0  0  0  0  0  0
  152.1480  138.5477  159.1130 C   0  0  0  0  0  0  0  0  0  0  0  0
  151.3975  137.4462  158.3480 C   0  0  0  0  0  0  0  0  0  0  0  0
  151.6672  137.5665  156.9572 O   0  0  0  0  0  0  0  0  0  0  0  0
  151.2131  138.8055  156.4225 C   0  0  2  0  0  0  0  0  0  0  0  0
  151.4833  138.7976  154.9102 C   0  0  0  0  0  0  0  0  0  0  0  0
  150.3450  138.2835  154.1631 N   0  0  0  0  0  0  0  0  0  0  0  0
  149.1666  139.0336  154.0537 C   0  0  0  0  0  0  0  0  0  0  0  0
  148.9824  140.3104  154.6333 C   0  0  0  0  0  0  0  0  0  0  0  0
  147.7496  140.9573  154.4419 C   0  0  0  0  0  0  0  0  0  0  0  0
  146.7740  140.2885  153.6815 C   0  0  0  0  0  0  0  0  0  0  0  0
  146.9691  139.0669  153.1366 N   0  0  0  0  0  0  0  0  0  0  0  0
  148.1591  138.4737  153.3381 N   0  3  0  0  0  0  0  0  0  0  0  0
  151.9673  139.9497  157.1299 C   0  0  0  0  0  0  0  0  0  0  0  0
  151.2896  143.4453  161.3595 H   0  0  0  0  0  0  0  0  0  0  0  0
  152.7876  144.3296  161.6279 H   0  0  0  0  0  0  0  0  0  0  0  0
  152.8151  142.5800  161.5334 H   0  0  0  0  0  0  0  0  0  0  0  0
  153.6478  143.5610  159.4117 H   0  0  0  0  0  0  0  0  0  0  0  0
  150.9564  144.9870  159.2106 H   0  0  0  0  0  0  0  0  0  0  0  0
  152.2311  145.0136  157.9943 H   0  0  0  0  0  0  0  0  0  0  0  0
  152.5041  145.7499  159.5665 H   0  0  0  0  0  0  0  0  0  0  0  0
  150.8597  142.4506  158.9067 H   0  0  0  0  0  0  0  0  0  0  0  0
  152.1816  142.4859  157.7715 H   0  0  0  0  0  0  0  0  0  0  0  0
  153.5131  140.9471  159.1188 H   0  0  0  0  0  0  0  0  0  0  0  0
  152.3068  140.8849  160.3825 H   0  0  0  0  0  0  0  0  0  0  0  0
  153.2246  138.4058  159.0067 H   0  0  0  0  0  0  0  0  0  0  0  0
  151.9181  138.4660  160.1748 H   0  0  0  0  0  0  0  0  0  0  0  0
  151.7253  136.4634  158.6867 H   0  0  0  0  0  0  0  0  0  0  0  0
  150.3232  137.5043  158.5311 H   0  0  0  0  0  0  0  0  0  0  0  0
  150.1406  138.9140  156.5970 H   0  0  0  0  0  0  0  0  0  0  0  0
  151.6846  139.8138  154.5691 H   0  0  0  0  0  0  0  0  0  0  0  0
  152.3709  138.2015  154.6937 H   0  0  0  0  0  0  0  0  0  0  0  0
  150.4706  137.4619  153.5886 H   0  0  0  0  0  0  0  0  0  0  0  0
  149.7558  140.7929  155.2120 H   0  0  0  0  0  0  0  0  0  0  0  0
  147.5570  141.9332  154.8625 H   0  0  0  0  0  0  0  0  0  0  0  0
  145.8105  140.7436  153.5049 H   0  0  0  0  0  0  0  0  0  0  0  0
  151.6101  140.9097  156.7545 H   0  0  0  0  0  0  0  0  0  0  0  0
  153.0342  139.8950  156.9059 H   0  0  0  0  0  0  0  0  0  0  0  0
  150.7768  139.9964  158.7568 H   0  0  0  0  0  0  0  0  0  0  0  0
  148.3126  137.5516  152.9295 H   0  0  0  0  0  0  0  0  0  0  0  0
  1  2  1  0  0  0  0
  1 20  1  0  0  0  0
  1 21  1  0  0  0  0
  1 22  1  0  0  0  0
  2  3  1  0  0  0  0
  2  4  1  0  0  0  0
  2 23  1  0  0  0  0
  3 24  1  0  0  0  0
  3 25  1  0  0  0  0
  3 26  1  0  0  0  0
  4  5  1  0  0  0  0
  4 27  1  0  0  0  0
  4 28  1  0  0  0  0
  5  6  1  0  0  0  0
  5 29  1  0  0  0  0
  5 30  1  0  0  0  0
  6 19  1  0  0  0  0
  6  7  1  0  0  0  0
  6 44  1  0  0  0  0
  7  8  1  0  0  0  0
  7 31  1  0  0  0  0
  7 32  1  0  0  0  0
  8  9  1  0  0  0  0
  8 33  1  0  0  0  0
  8 34  1  0  0  0  0
  9 10  1  0  0  0  0
 10 11  1  0  0  0  0
 10 19  1  0  0  0  0
 10 35  1  0  0  0  0
 11 12  1  0  0  0  0
 11 36  1  0  0  0  0
 11 37  1  0  0  0  0
 12 13  1  0  0  0  0
 12 38  1  0  0  0  0
 13 18  1  0  0  0  0
 13 14  2  0  0  0  0
 14 15  1  0  0  0  0
 14 39  1  0  0  0  0
 15 16  2  0  0  0  0
 15 40  1  0  0  0  0
 16 17  1  0  0  0  0
 16 41  1  0  0  0  0
 17 18  2  0  0  0  0
 18 45  1  0  0  0  0
 19 42  1  0  0  0  0
 19 43  1  0  0  0  0
M  CHG  1   6   1
M  CHG  1  18   1
M  END
> <s_m_source_file>
AV-unprocessed.smi

> <i_m_source_file_index>
861

> <i_lp_mmshare_version>
43012

> <i_f3d_flags>
0

> <s_epik_input>
W0NIM11bQ0hdKFtDSDNdKVtDSDJdW0NIMl1OMVtDSDJdW0NIMl1PW0NASF0oW0NIMl0xKVtDSDJdW05IXWMyW2NIXVtjSF1bY0hdbm4y

> <s_epik_cmdline>
J2VwaWtfcHl0aG9uJywgJy1waCcsICc3LjAnLCAnLXRuJywgJzgnLCAnLW1hJywgJzIwMCcsICctbWV0YWxfYmluZGluZycsICctaW1hZScsICc8aW5maWxlLm1hZT4nLCAnLW9tYWUnLCAnPG91dGZpbGUubWFlPic=

> <r_lp_tautomer_probability>
0.966961

> <r_epik_Ionization_Penalty>
2.478

> <r_epik_Ionization_Penalty_Charging>
2.47799

> <r_epik_Ionization_Penalty_Neutral>
3.15286e-06

> <r_epik_State_Penalty>
2.10794

> <r_epik_Charging_Adjusted_Penalty>
4.58594

> <i_epik_Tot_Q>
2

> <i_epik_Tot_abs_Q>
2

> <r_epik_Metal_State_Penalty>
2.11378

> <b_epik_Metal_Only>
0

> <s_lp_Force_Field>
OPLS_2005

> <r_lp_Energy>
32.9485

> <b_lp_Chiralities_Consistent>
1

> <s_lp_Variant>
AV-unprocessed.smi:861-10

> <Gold.Version>
5.8.1

> <Gold.Id.Protein>
6NUR|6NUR_protein|mol2

> <Gold.PLP.Fitness>
46.1826

> <Gold.PLP.PLP>
-38.1199

> <Gold.PLP.part.hbond>
-2.0000

> <Gold.PLP.part.metal>
0.0000

> <Gold.PLP.part.buried>
-4.2110

> <Gold.PLP.part.nonpolar>
-33.9348

> <Gold.PLP.part.repulsive>
1.3252

> <Gold.PLP.ligand.clash>
0.0000

> <Gold.PLP.ligand.torsion>
0.4582

> <Gold.PLP.Chemscore.Hbond>
2.0000

> <Gold.PLP.Chemscore.CHOScore>
0.9861

> <Gold.PLP.Chemscore.Metal>
0.0000

> <Gold.Chemscore.Hbonds>
donor molecule, donor type, donor heavy atom, donor atom, acceptor molecule, acceptor atom, score
      L1  H    18    45       P1  7948  2.00
      L1  C    16    41       P1 10175  1.00

> <Gold.PLP.Chemscore.Internal.Correction>
0.0208

> <Gold.Rescore>
     Score         DG    S(hbond)    S(metal)    S(lipo)     H(rot)  DE(clash)    DE(int)     intcor
     16.29     -16.72       1.00        0.00     106.42       1.78       0.08       0.35       ----

> <Gold.Chemscore.Fitness>
16.2869

> <Gold.Chemscore.DG>
-16.7246

> <Gold.Chemscore.ZeroCoef>
-5.4800

> <Gold.Chemscore.Hbond>
0.9998

> <Gold.Chemscore.Metal>
0.0000

> <Gold.Chemscore.Lipo>
106.4217

> <Gold.Chemscore.Internal_Hbond>
0.0000

> <Gold.Chemscore.DEClash>
0.0849

> <Gold.Chemscore.DEInternal>
0.3528

> <Gold.Chemscore.Rot>
1.7759

> <Gold.Chemscore.Internal.Correction>
   9.000000E+99

> <Gold.Chemscore.Hbonds>
donor molecule, donor type, donor heavy atom, donor atom, acceptor molecule, acceptor atom, score
      L1  H    18    45       P1  7948  1.00

> <Gold.Chemscore.Hbond.Weighted>
-3.3395

> <Gold.Chemscore.Metal.Weighted>
-0.0000

> <Gold.Chemscore.Lipo.Weighted>
-12.4513

> <Gold.Chemscore.Internal_Hbond.Weighted>
0.0000

> <Gold.Chemscore.DEClash.Weighted>
0.0849

> <Gold.Chemscore.DEInternal.Weighted>
0.3528

> <Gold.Chemscore.Rot.Weighted>
4.5462

> <Gold.Chemscore.Internal.Correction.Weighted>
   9.000000E+99

> <Gold.Protein.RotatedTorsions>
[ 6907 6896 6895 6894 ] final  -59.47 input  -60.11 | X-H torsion
[ 7974 7965 7964 7962 ] final  -57.12 input  175.53 | X-H torsion
[ 8008 7997 7996 7995 ] final  -76.23 input   59.86 | X-H torsion
[ 10167 10162 10161 10158 ] final   54.78 input  -65.29 | X-H torsion
[ 10718 10713 10712 10709 ] final  144.70 input   66.30 | X-H torsion
[ 10763 10752 10751 10750 ] final   48.03 input  -60.55 | X-H torsion
[ 11005 11000 10999 10996 ] final -138.09 input  -57.11 | X-H torsion

> <Gold.Protein.ActiveResidues>
 VAL166  LYS551  ARG553  GLY616  TRP617  ASP618  TYR619  PRO620  LYS621  CYS622 
 ASP623  PHE694  ASN695  SER759  ASP760  ASP761  ALA762  ILE779  LEU786  VAL792 
 PHE793  MET794  SER795  GLU796  ALA797  LYS798  CYS799  TRP800  GLU811  SER814 

> <Gold.Protein.RotatedAtoms>
  150.7927  134.6964  159.6524 H   0  0  0  0  0  0  0  0  0  0  0  0  # atno 6907 bound_to 6896
  152.4035  134.6242  160.0068 H   0  0  0  0  0  0  0  0  0  0  0  0  # atno 6908 bound_to 6896
  151.6506  133.3284  159.3187 H   0  0  0  0  0  0  0  0  0  0  0  0  # atno 6909 bound_to 6896
  145.8548  140.8327  142.9967 H   0  0  0  0  0  0  0  0  0  0  0  0  # atno 7974 bound_to 7965
  154.5487  140.0730  156.8632 H   0  0  0  0  0  0  0  0  0  0  0  0  # atno 8008 bound_to 7997
  155.3036  140.3386  155.4228 H   0  0  0  0  0  0  0  0  0  0  0  0  # atno 8009 bound_to 7997
  156.1941  140.1697  156.8018 H   0  0  0  0  0  0  0  0  0  0  0  0  # atno 8010 bound_to 7997
  140.2265  144.3733  150.6430 H   0  0  0  0  0  0  0  0  0  0  0  0  # atno 10167 bound_to 10162
  157.3541  131.0955  151.0974 H   0  0  0  0  0  0  0  0  0  0  0  0  # atno 10718 bound_to 10713
  152.9795  135.5957  154.3859 H   0  0  0  0  0  0  0  0  0  0  0  0  # atno 10763 bound_to 10752
  154.3519  135.2767  155.2369 H   0  0  0  0  0  0  0  0  0  0  0  0  # atno 10764 bound_to 10752
  154.4405  135.6014  153.6181 H   0  0  0  0  0  0  0  0  0  0  0  0  # atno 10765 bound_to 10752
  140.8649  134.2123  157.4685 H   0  0  0  0  0  0  0  0  0  0  0  0  # atno 11005 bound_to 11000
  144.6728  140.1007  143.7460 LP  0  0  0  0  0  0  0  0  0  0  0  0  # atno 17320 bound_to 7965
  145.9316  139.2610  143.1321 LP  0  0  0  0  0  0  0  0  0  0  0  0  # atno 17321 bound_to 7965
  140.6217  143.2177  151.6680 LP  0  0  0  0  0  0  0  0  0  0  0  0  # atno 17342 bound_to 10162
  139.5125  144.3473  152.0685 LP  0  0  0  0  0  0  0  0  0  0  0  0  # atno 17343 bound_to 10162
  157.2138  130.6450  149.5784 LP  0  0  0  0  0  0  0  0  0  0  0  0  # atno 17370 bound_to 10713
  155.9726  130.4651  150.6242 LP  0  0  0  0  0  0  0  0  0  0  0  0  # atno 17371 bound_to 10713
  139.8709  134.9747  156.4856 LP  0  0  0  0  0  0  0  0  0  0  0  0  # atno 17394 bound_to 11000
  140.8640  133.8038  155.9294 LP  0  0  0  0  0  0  0  0  0  0  0  0  # atno 17395 bound_to 11000

$$$$
