AV-unprocessed.smi:1389|AV-procd|sdf|5650|dock5
  -GOLD-   22720 5273D 1   1.00000     0.00000
 Structure written by MMmdl.
 52 54  0  0  0  0  0  0  0  0  2 V2000
  146.9198  133.5926  159.8334 C   0  0  0  0  0  0  0  0  0  0  0  0
  146.8912  135.1086  159.5303 C   0  0  2  0  0  0  0  0  0  0  0  0
  148.3206  135.5427  159.1104 C   0  0  0  0  0  0  0  0  0  0  0  0
  148.3102  136.8258  158.4112 N   0  0  0  0  0  0  0  0  0  0  0  0
  149.0526  137.8955  158.7278 C   0  0  0  0  0  0  0  0  0  0  0  0
  149.7708  137.9649  159.7250 O   0  0  0  0  0  0  0  0  0  0  0  0
  148.9309  138.8583  157.8003 N   0  0  0  0  0  0  0  0  0  0  0  0
  149.6534  140.0813  157.7256 C   0  0  0  0  0  0  0  0  0  0  0  0
  150.7427  140.3570  158.5901 C   0  0  0  0  0  0  0  0  0  0  0  0
  151.4274  141.5827  158.4822 C   0  0  0  0  0  0  0  0  0  0  0  0
  151.0064  142.5168  157.5188 C   0  0  0  0  0  0  0  0  0  0  0  0
  149.9556  142.2299  156.7222 N   0  3  0  0  0  0  0  0  0  0  0  0
  149.2607  141.0668  156.7795 C   0  0  0  0  0  0  0  0  0  0  0  0
  148.1654  140.8808  155.9102 N   0  0  0  0  0  0  0  0  0  0  0  0
  147.0638  141.8150  156.1231 C   0  0  0  0  0  0  0  0  0  0  0  0
  146.4593  142.0897  154.7451 C   0  0  0  0  0  0  0  0  0  0  0  0
  147.6370  141.8736  153.8031 C   0  0  0  0  0  0  0  0  0  0  0  0
  148.3935  140.7285  154.4740 C   0  0  0  0  0  0  0  0  0  0  0  0
  146.3169  135.9231  160.6234 N   0  0  0  0  0  0  0  0  0  0  0  0
  145.5416  137.0683  160.1378 C   0  0  0  0  0  0  0  0  0  0  0  0
  144.9555  137.9109  161.2845 C   0  0  0  0  0  0  0  0  0  0  0  0
  146.0000  138.3488  162.1438 O   0  0  0  0  0  0  0  0  0  0  0  0
  146.7434  137.2646  162.6852 C   0  0  0  0  0  0  0  0  0  0  0  0
  147.3421  136.4304  161.5406 C   0  0  0  0  0  0  0  0  0  0  0  0
  147.4546  133.0440  159.0576 H   0  0  0  0  0  0  0  0  0  0  0  0
  145.9178  133.1659  159.8688 H   0  0  0  0  0  0  0  0  0  0  0  0
  147.4095  133.3812  160.7846 H   0  0  0  0  0  0  0  0  0  0  0  0
  146.2576  135.2350  158.6513 H   0  0  0  0  0  0  0  0  0  0  0  0
  148.9397  135.6627  160.0001 H   0  0  0  0  0  0  0  0  0  0  0  0
  148.8249  134.7692  158.5314 H   0  0  0  0  0  0  0  0  0  0  0  0
  147.7469  136.8729  157.5750 H   0  0  0  0  0  0  0  0  0  0  0  0
  148.3781  138.6249  156.9888 H   0  0  0  0  0  0  0  0  0  0  0  0
  151.0566  139.6478  159.3410 H   0  0  0  0  0  0  0  0  0  0  0  0
  152.2613  141.8032  159.1326 H   0  0  0  0  0  0  0  0  0  0  0  0
  151.4695  143.4811  157.3669 H   0  0  0  0  0  0  0  0  0  0  0  0
  146.3199  141.4015  156.8046 H   0  0  0  0  0  0  0  0  0  0  0  0
  147.4392  142.7430  156.5584 H   0  0  0  0  0  0  0  0  0  0  0  0
  145.6778  141.3594  154.5300 H   0  0  0  0  0  0  0  0  0  0  0  0
  146.0230  143.0855  154.6632 H   0  0  0  0  0  0  0  0  0  0  0  0
  147.3317  141.6407  152.7827 H   0  0  0  0  0  0  0  0  0  0  0  0
  148.2612  142.7679  153.7767 H   0  0  0  0  0  0  0  0  0  0  0  0
  149.4420  140.7107  154.1779 H   0  0  0  0  0  0  0  0  0  0  0  0
  147.9637  139.7733  154.1708 H   0  0  0  0  0  0  0  0  0  0  0  0
  146.1681  137.6992  159.5055 H   0  0  0  0  0  0  0  0  0  0  0  0
  144.7084  136.7324  159.5222 H   0  0  0  0  0  0  0  0  0  0  0  0
  144.4341  138.7814  160.8862 H   0  0  0  0  0  0  0  0  0  0  0  0
  144.2253  137.3333  161.8535 H   0  0  0  0  0  0  0  0  0  0  0  0
  147.5356  137.6586  163.3218 H   0  0  0  0  0  0  0  0  0  0  0  0
  146.1007  136.6485  163.3163 H   0  0  0  0  0  0  0  0  0  0  0  0
  147.9030  135.6138  161.9884 H   0  0  0  0  0  0  0  0  0  0  0  0
  148.0626  137.0376  160.9907 H   0  0  0  0  0  0  0  0  0  0  0  0
  149.6665  142.9303  156.0392 H   0  0  0  0  0  0  0  0  0  0  0  0
  1  2  1  0  0  0  0
  1 25  1  0  0  0  0
  1 26  1  0  0  0  0
  1 27  1  0  0  0  0
  2  3  1  0  0  0  0
  2 19  1  0  0  0  0
  2 28  1  0  0  0  0
  3  4  1  0  0  0  0
  3 29  1  0  0  0  0
  3 30  1  0  0  0  0
  4  5  1  0  0  0  0
  4 31  1  0  0  0  0
  5  6  2  0  0  0  0
  5  7  1  0  0  0  0
  7  8  1  0  0  0  0
  7 32  1  0  0  0  0
  8 13  1  0  0  0  0
  8  9  2  0  0  0  0
  9 10  1  0  0  0  0
  9 33  1  0  0  0  0
 10 11  2  0  0  0  0
 10 34  1  0  0  0  0
 11 12  1  0  0  0  0
 11 35  1  0  0  0  0
 12 13  2  0  0  0  0
 12 52  1  0  0  0  0
 13 14  1  0  0  0  0
 14 18  1  0  0  0  0
 14 15  1  0  0  0  0
 15 16  1  0  0  0  0
 15 36  1  0  0  0  0
 15 37  1  0  0  0  0
 16 17  1  0  0  0  0
 16 38  1  0  0  0  0
 16 39  1  0  0  0  0
 17 18  1  0  0  0  0
 17 40  1  0  0  0  0
 17 41  1  0  0  0  0
 18 42  1  0  0  0  0
 18 43  1  0  0  0  0
 19 24  1  0  0  0  0
 19 20  1  0  0  0  0
 20 21  1  0  0  0  0
 20 44  1  0  0  0  0
 20 45  1  0  0  0  0
 21 22  1  0  0  0  0
 21 46  1  0  0  0  0
 21 47  1  0  0  0  0
 22 23  1  0  0  0  0
 23 24  1  0  0  0  0
 23 48  1  0  0  0  0
 23 49  1  0  0  0  0
 24 50  1  0  0  0  0
 24 51  1  0  0  0  0
M  CHG  1  12   1
M  END
> <s_m_source_file>
AV-unprocessed.smi

> <i_m_source_file_index>
1389

> <i_lp_mmshare_version>
43012

> <i_f3d_flags>
0

> <s_epik_input>
W0NIMl0xW0NIMl1PW0NIMl1bQ0gyXU4xW0NASF0oW0NIM10pW0NIMl1bTkhdQyg9TylbTkhdYzJbY0hdW2NIXVtjSF1uYzJOM1tDSDJdW0NIMl1bQ0gyXVtDSDJdMw==

> <s_epik_cmdline>
J2VwaWtfcHl0aG9uJywgJy1waCcsICc3LjAnLCAnLXRuJywgJzgnLCAnLW1hJywgJzIwMCcsICctbWV0YWxfYmluZGluZycsICctaW1hZScsICc8aW5maWxlLm1hZT4nLCAnLW9tYWUnLCAnPG91dGZpbGUubWFlPic=

> <r_epik_Ionization_Penalty>
1.37675

> <r_epik_Ionization_Penalty_Charging>
1.11074

> <r_epik_Ionization_Penalty_Neutral>
0.26601

> <r_epik_State_Penalty>
1.46015

> <r_epik_Charging_Adjusted_Penalty>
2.57089

> <i_epik_Tot_Q>
1

> <i_epik_Tot_abs_Q>
1

> <r_epik_Metal_State_Penalty>
1.54223

> <b_epik_Metal_Only>
0

> <s_lp_Force_Field>
OPLS_2005

> <r_lp_Energy>
66.6842

> <b_lp_Chiralities_Consistent>
1

> <s_lp_Variant>
AV-unprocessed.smi:1389-5

> <Gold.Version>
5.8.1

> <Gold.Id.Protein>
6NUR|6NUR_protein|mol2

> <Gold.PLP.Fitness>
39.3233

> <Gold.PLP.PLP>
-33.3160

> <Gold.PLP.part.hbond>
-3.0155

> <Gold.PLP.part.metal>
0.0000

> <Gold.PLP.part.buried>
-6.7995

> <Gold.PLP.part.nonpolar>
-24.3468

> <Gold.PLP.part.repulsive>
0.2624

> <Gold.PLP.ligand.clash>
0.0000

> <Gold.PLP.ligand.torsion>
1.0710

> <Gold.PLP.Chemscore.Hbond>
2.6400

> <Gold.PLP.Chemscore.CHOScore>
0.0000

> <Gold.PLP.Chemscore.Metal>
0.0000

> <Gold.Chemscore.Hbonds>
donor molecule, donor type, donor heavy atom, donor atom, acceptor molecule, acceptor atom, score
      L1  H    12    52       P1  8028  1.95
      P1  H  6934  6947       L1    22  0.40

> <Gold.PLP.Chemscore.Internal.Correction>
0.2293

> <Gold.Rescore>
     Score         DG    S(hbond)    S(metal)    S(lipo)     H(rot)  DE(clash)    DE(int)     intcor
     12.75     -15.23       1.58        0.00      73.34       1.60       0.02       2.46       ----

> <Gold.Chemscore.Fitness>
12.7503

> <Gold.Chemscore.DG>
-15.2269

> <Gold.Chemscore.ZeroCoef>
-5.4800

> <Gold.Chemscore.Hbond>
1.5783

> <Gold.Chemscore.Metal>
0.0000

> <Gold.Chemscore.Lipo>
73.3364

> <Gold.Chemscore.Internal_Hbond>
0.0000

> <Gold.Chemscore.DEClash>
0.0202

> <Gold.Chemscore.DEInternal>
2.4564

> <Gold.Chemscore.Rot>
1.6035

> <Gold.Chemscore.Internal.Correction>
   9.000000E+99

> <Gold.Chemscore.Hbonds>
donor molecule, donor type, donor heavy atom, donor atom, acceptor molecule, acceptor atom, score
      L1  H    12    52       P1  8028  0.90
      P1  H  6931  6943       L1     6  0.01
      P1  H  6934  6947       L1    22  0.05

> <Gold.Chemscore.Hbond.Weighted>
-5.2715

> <Gold.Chemscore.Metal.Weighted>
-0.0000

> <Gold.Chemscore.Lipo.Weighted>
-8.5804

> <Gold.Chemscore.Internal_Hbond.Weighted>
0.0000

> <Gold.Chemscore.DEClash.Weighted>
0.0202

> <Gold.Chemscore.DEInternal.Weighted>
2.4564

> <Gold.Chemscore.Rot.Weighted>
4.1049

> <Gold.Chemscore.Internal.Correction.Weighted>
   9.000000E+99

> <Gold.Protein.RotatedTorsions>
[ 6907 6896 6895 6894 ] final -162.15 input  -60.11 | X-H torsion
[ 7974 7965 7964 7962 ] final -111.76 input  175.53 | X-H torsion
[ 8008 7997 7996 7995 ] final  101.34 input   59.86 | X-H torsion
[ 10167 10162 10161 10158 ] final   47.52 input  -65.29 | X-H torsion
[ 10718 10713 10712 10709 ] final -140.54 input   66.30 | X-H torsion
[ 10763 10752 10751 10750 ] final  -17.41 input  -60.55 | X-H torsion
[ 11005 11000 10999 10996 ] final -159.86 input  -57.11 | X-H torsion

> <Gold.Protein.ActiveResidues>
 VAL166  LYS551  ARG553  GLY616  TRP617  ASP618  TYR619  PRO620  LYS621  CYS622 
 ASP623  PHE694  ASN695  SER759  ASP760  ASP761  ALA762  ILE779  LEU786  VAL792 
 PHE793  MET794  SER795  GLU796  ALA797  LYS798  CYS799  TRP800  GLU811  SER814 

> <Gold.Protein.RotatedAtoms>
  151.3758  133.3839  159.2704 H   0  0  0  0  0  0  0  0  0  0  0  0  # atno 6907 bound_to 6896
  150.9616  134.9004  159.7744 H   0  0  0  0  0  0  0  0  0  0  0  0  # atno 6908 bound_to 6896
  152.5151  134.3717  159.9372 H   0  0  0  0  0  0  0  0  0  0  0  0  # atno 6909 bound_to 6896
  145.1522  140.8835  143.3639 H   0  0  0  0  0  0  0  0  0  0  0  0  # atno 7974 bound_to 7965
  156.1290  140.3199  155.8320 H   0  0  0  0  0  0  0  0  0  0  0  0  # atno 8008 bound_to 7997
  155.4367  140.0522  157.3031 H   0  0  0  0  0  0  0  0  0  0  0  0  # atno 8009 bound_to 7997
  154.4884  140.2082  155.9616 H   0  0  0  0  0  0  0  0  0  0  0  0  # atno 8010 bound_to 7997
  140.3028  144.2914  150.6215 H   0  0  0  0  0  0  0  0  0  0  0  0  # atno 10167 bound_to 10162
  156.3235  130.7547  151.1650 H   0  0  0  0  0  0  0  0  0  0  0  0  # atno 10718 bound_to 10713
  153.5735  135.7007  153.5494 H   0  0  0  0  0  0  0  0  0  0  0  0  # atno 10763 bound_to 10752
  153.3324  135.4043  155.1506 H   0  0  0  0  0  0  0  0  0  0  0  0  # atno 10764 bound_to 10752
  154.8629  135.3722  154.5258 H   0  0  0  0  0  0  0  0  0  0  0  0  # atno 10765 bound_to 10752
  140.6379  134.4582  157.5232 H   0  0  0  0  0  0  0  0  0  0  0  0  # atno 11005 bound_to 11000
  145.0418  139.3253  143.5972 LP  0  0  0  0  0  0  0  0  0  0  0  0  # atno 17320 bound_to 7965
  146.3493  139.9795  142.8697 LP  0  0  0  0  0  0  0  0  0  0  0  0  # atno 17321 bound_to 7965
  140.5636  143.2189  151.7722 LP  0  0  0  0  0  0  0  0  0  0  0  0  # atno 17342 bound_to 10162
  139.4911  144.4314  151.9868 LP  0  0  0  0  0  0  0  0  0  0  0  0  # atno 17343 bound_to 10162
  157.7416  131.0501  150.5082 LP  0  0  0  0  0  0  0  0  0  0  0  0  # atno 17370 bound_to 10713
  156.5237  130.4168  149.6237 LP  0  0  0  0  0  0  0  0  0  0  0  0  # atno 17371 bound_to 10713
  139.9091  134.8384  156.1594 LP  0  0  0  0  0  0  0  0  0  0  0  0  # atno 17394 bound_to 11000
  141.0628  133.6833  156.1985 LP  0  0  0  0  0  0  0  0  0  0  0  0  # atno 17395 bound_to 11000

$$$$
