AV-unprocessed.smi:1776|AV-procd|sdf|7175|dock5
  -GOLD-   22720 8413D 1   1.00000     0.00000
 Structure written by MMmdl.
 30 31  0  0  0  0  0  0  0  0  2 V2000
  150.6513  140.2311  156.7408 O   0  0  0  0  0  0  0  0  0  0  0  0
  151.5088  139.4402  157.1339 C   0  0  0  0  0  0  0  0  0  0  0  0
  152.3894  139.6779  158.1270 N   0  0  0  0  0  0  0  0  0  0  0  0
  152.5695  140.8160  158.9337 C   0  0  0  0  0  0  0  0  0  0  0  0
  151.9532  142.0173  158.7508 C   0  0  0  0  0  0  0  0  0  0  0  0
  152.1930  143.1593  159.6244 C   0  0  0  0  0  0  0  0  0  0  0  0
  151.4544  144.4809  159.5057 C   0  0  0  0  0  0  0  0  0  0  0  0
  151.8218  145.3250  160.4702 F   0  0  0  0  0  0  0  0  0  0  0  0
  151.7259  145.0483  158.3313 F   0  0  0  0  0  0  0  0  0  0  0  0
  150.1359  144.3001  159.5849 F   0  0  0  0  0  0  0  0  0  0  0  0
  153.0856  142.8666  160.6370 C   0  0  0  0  0  0  0  0  0  0  0  0
  153.7539  141.7173  160.8757 N   0  5  0  0  0  0  0  0  0  0  0  0
  153.5246  140.6570  160.0508 C   0  0  0  0  0  0  0  0  0  0  0  0
  154.0955  139.5783  160.2168 O   0  0  0  0  0  0  0  0  0  0  0  0
  151.6403  138.0621  156.4681 C   0  0  2  0  0  0  0  0  0  0  0  0
  151.8241  138.1391  154.9341 C   0  0  0  0  0  0  0  0  0  0  0  0
  151.8956  136.8225  154.4016 O   0  0  0  0  0  0  0  0  0  0  0  0
  150.7146  136.0850  154.6846 C   0  0  0  0  0  0  0  0  0  0  0  0
  150.5359  135.9951  156.2085 C   0  0  0  0  0  0  0  0  0  0  0  0
  150.4610  137.3095  156.7430 O   0  0  0  0  0  0  0  0  0  0  0  0
  153.0156  138.9168  158.3477 H   0  0  0  0  0  0  0  0  0  0  0  0
  151.2651  142.1753  157.9382 H   0  0  0  0  0  0  0  0  0  0  0  0
  153.2904  143.6771  161.3684 H   0  0  0  0  0  0  0  0  0  0  0  0
  152.5003  137.5608  156.9160 H   0  0  0  0  0  0  0  0  0  0  0  0
  151.0056  138.6867  154.4631 H   0  0  0  0  0  0  0  0  0  0  0  0
  152.7479  138.6609  154.6820 H   0  0  0  0  0  0  0  0  0  0  0  0
  149.8503  136.5607  154.2185 H   0  0  0  0  0  0  0  0  0  0  0  0
  150.8048  135.0880  154.2534 H   0  0  0  0  0  0  0  0  0  0  0  0
  149.6185  135.4592  156.4522 H   0  0  0  0  0  0  0  0  0  0  0  0
  151.3609  135.4475  156.6668 H   0  0  0  0  0  0  0  0  0  0  0  0
  1  2  2  0  0  0  0
  2  3  1  0  0  0  0
  2 15  1  0  0  0  0
  3  4  1  0  0  0  0
  3 21  1  0  0  0  0
  4 13  1  0  0  0  0
  4  5  2  0  0  0  0
  5  6  1  0  0  0  0
  5 22  1  0  0  0  0
  6  7  1  0  0  0  0
  6 11  2  0  0  0  0
  7  8  1  0  0  0  0
  7  9  1  0  0  0  0
  7 10  1  0  0  0  0
 11 12  1  0  0  0  0
 11 23  1  0  0  0  0
 12 13  1  0  0  0  0
 13 14  2  0  0  0  0
 15 20  1  0  0  0  0
 15 16  1  0  0  0  0
 15 24  1  0  0  0  0
 16 17  1  0  0  0  0
 16 25  1  0  0  0  0
 16 26  1  0  0  0  0
 17 18  1  0  0  0  0
 18 19  1  0  0  0  0
 18 27  1  0  0  0  0
 18 28  1  0  0  0  0
 19 20  1  0  0  0  0
 19 29  1  0  0  0  0
 19 30  1  0  0  0  0
M  CHG  1  12  -1
M  END
> <s_m_source_file>
AV-unprocessed.smi

> <i_m_source_file_index>
1776

> <i_lp_mmshare_version>
43012

> <i_f3d_flags>
0

> <s_epik_input>
TzFbQ0gyXVtDSDJdT1tDSDJdW0NASF0xQyg9TylbTkhdYzJbY0hdYyhDKEYpKEYpRilbY0hdW25IXWMyPU8=

> <s_epik_cmdline>
J2VwaWtfcHl0aG9uJywgJy1waCcsICc3LjAnLCAnLXRuJywgJzgnLCAnLW1hJywgJzIwMCcsICctbWV0YWxfYmluZGluZycsICctaW1hZScsICc8aW5maWxlLm1hZT4nLCAnLW9tYWUnLCAnPG91dGZpbGUubWFlPic=

> <r_epik_Ionization_Penalty>
2.46925

> <r_epik_Ionization_Penalty_Charging>
0.0509887

> <r_epik_Ionization_Penalty_Neutral>
2.41826

> <r_epik_State_Penalty>
2.57741

> <r_epik_Charging_Adjusted_Penalty>
2.6284

> <i_epik_Tot_Q>
-1

> <i_epik_Tot_abs_Q>
1

> <r_epik_Metal_State_Penalty>
0.510263

> <b_epik_Metal_Only>
0

> <s_lp_Force_Field>
OPLS_2005

> <r_lp_Energy>
25.1464

> <b_lp_Chiralities_Consistent>
1

> <s_lp_Variant>
AV-unprocessed.smi:1776-3

> <Gold.Version>
5.8.1

> <Gold.Id.Protein>
6NUR|6NUR_protein|mol2

> <Gold.PLP.Fitness>
41.2379

> <Gold.PLP.PLP>
-38.3917

> <Gold.PLP.part.hbond>
-0.8863

> <Gold.PLP.part.metal>
0.0000

> <Gold.PLP.part.buried>
-6.7355

> <Gold.PLP.part.nonpolar>
-30.6022

> <Gold.PLP.part.repulsive>
0.2454

> <Gold.PLP.ligand.clash>
0.0000

> <Gold.PLP.ligand.torsion>
0.1019

> <Gold.PLP.Chemscore.Hbond>
1.0000

> <Gold.PLP.Chemscore.CHOScore>
0.0000

> <Gold.PLP.Chemscore.Metal>
0.0000

> <Gold.Chemscore.Hbonds>
donor molecule, donor type, donor heavy atom, donor atom, acceptor molecule, acceptor atom, score
      P1  H 10752 10765       L1    17  0.95

> <Gold.PLP.Chemscore.Internal.Correction>
0.0501

> <Gold.Rescore>
     Score         DG    S(hbond)    S(metal)    S(lipo)     H(rot)  DE(clash)    DE(int)     intcor
     13.19     -14.38       0.98        0.00      69.84       1.00       0.00       1.19       ----

> <Gold.Chemscore.Fitness>
13.1877

> <Gold.Chemscore.DG>
-14.3789

> <Gold.Chemscore.ZeroCoef>
-5.4800

> <Gold.Chemscore.Hbond>
0.9844

> <Gold.Chemscore.Metal>
0.0000

> <Gold.Chemscore.Lipo>
69.8380

> <Gold.Chemscore.Internal_Hbond>
0.0000

> <Gold.Chemscore.DEClash>
0.0000

> <Gold.Chemscore.DEInternal>
1.1912

> <Gold.Chemscore.Rot>
1.0000

> <Gold.Chemscore.Internal.Correction>
   9.000000E+99

> <Gold.Chemscore.Hbonds>
donor molecule, donor type, donor heavy atom, donor atom, acceptor molecule, acceptor atom, score
      P1  H 10752 10765       L1    17  0.21

> <Gold.Chemscore.Hbond.Weighted>
-3.2879

> <Gold.Chemscore.Metal.Weighted>
-0.0000

> <Gold.Chemscore.Lipo.Weighted>
-8.1710

> <Gold.Chemscore.Internal_Hbond.Weighted>
0.0000

> <Gold.Chemscore.DEClash.Weighted>
0.0000

> <Gold.Chemscore.DEInternal.Weighted>
1.1912

> <Gold.Chemscore.Rot.Weighted>
2.5600

> <Gold.Chemscore.Internal.Correction.Weighted>
   9.000000E+99

> <Gold.Protein.RotatedTorsions>
[ 6907 6896 6895 6894 ] final  153.65 input  -60.11 | X-H torsion
[ 7974 7965 7964 7962 ] final  101.89 input  175.53 | X-H torsion
[ 8008 7997 7996 7995 ] final -163.71 input   59.86 | X-H torsion
[ 10167 10162 10161 10158 ] final -163.90 input  -65.29 | X-H torsion
[ 10718 10713 10712 10709 ] final -179.86 input   66.30 | X-H torsion
[ 10763 10752 10751 10750 ] final  172.82 input  -60.55 | X-H torsion
[ 11005 11000 10999 10996 ] final -158.08 input  -57.11 | X-H torsion

> <Gold.Protein.ActiveResidues>
 VAL166  LYS551  ARG553  GLY616  TRP617  ASP618  TYR619  PRO620  LYS621  CYS622 
 ASP623  PHE694  ASN695  SER759  ASP760  ASP761  ALA762  ILE779  LEU786  VAL792 
 PHE793  MET794  SER795  GLU796  ALA797  LYS798  CYS799  TRP800  GLU811  SER814 

> <Gold.Protein.RotatedAtoms>
  152.0697  133.4101  159.4453 H   0  0  0  0  0  0  0  0  0  0  0  0  # atno 6907 bound_to 6896
  150.6864  134.3105  159.4753 H   0  0  0  0  0  0  0  0  0  0  0  0  # atno 6908 bound_to 6896
  152.0936  134.9390  160.0622 H   0  0  0  0  0  0  0  0  0  0  0  0  # atno 6909 bound_to 6896
  145.3664  139.2407  143.3479 H   0  0  0  0  0  0  0  0  0  0  0  0  # atno 7974 bound_to 7965
  155.8252  140.0925  157.1825 H   0  0  0  0  0  0  0  0  0  0  0  0  # atno 8008 bound_to 7997
  154.3979  140.1429  156.3608 H   0  0  0  0  0  0  0  0  0  0  0  0  # atno 8009 bound_to 7997
  155.8224  140.3446  155.5525 H   0  0  0  0  0  0  0  0  0  0  0  0  # atno 8010 bound_to 7997
  139.6288  144.0480  152.1998 H   0  0  0  0  0  0  0  0  0  0  0  0  # atno 10167 bound_to 10162
  156.8653  130.9765  151.3079 H   0  0  0  0  0  0  0  0  0  0  0  0  # atno 10718 bound_to 10713
  154.4315  135.2760  155.1909 H   0  0  0  0  0  0  0  0  0  0  0  0  # atno 10763 bound_to 10752
  154.3813  135.6087  153.5796 H   0  0  0  0  0  0  0  0  0  0  0  0  # atno 10764 bound_to 10752
  152.9836  135.5881  154.4627 H   0  0  0  0  0  0  0  0  0  0  0  0  # atno 10765 bound_to 10752
  140.6576  134.4384  157.5235 H   0  0  0  0  0  0  0  0  0  0  0  0  # atno 11005 bound_to 11000
  146.2905  140.4307  142.8741 LP  0  0  0  0  0  0  0  0  0  0  0  0  # atno 17320 bound_to 7965
  144.8608  140.7137  143.6108 LP  0  0  0  0  0  0  0  0  0  0  0  0  # atno 17321 bound_to 7965
  140.0140  144.6202  150.7623 LP  0  0  0  0  0  0  0  0  0  0  0  0  # atno 17342 bound_to 10162
  140.7427  143.2835  151.3529 LP  0  0  0  0  0  0  0  0  0  0  0  0  # atno 17343 bound_to 10162
  157.6227  130.8667  149.9135 LP  0  0  0  0  0  0  0  0  0  0  0  0  # atno 17370 bound_to 10713
  156.0755  130.3679  150.0687 LP  0  0  0  0  0  0  0  0  0  0  0  0  # atno 17371 bound_to 10713
  139.9024  134.8526  156.1842 LP  0  0  0  0  0  0  0  0  0  0  0  0  # atno 17394 bound_to 11000
  141.0489  133.6899  156.1736 LP  0  0  0  0  0  0  0  0  0  0  0  0  # atno 17395 bound_to 11000

$$$$
