AV-unprocessed.smi:109|AV-procd|sdf|1031|dock6
  -GOLD-   2262018 33D 1   1.00000     0.00000
 Structure written by MMmdl.
 58 61  0  0  0  0  0  0  0  0  1 V2000
  150.9291  139.7109  154.5418 O   0  0  0  0  0  0  0  0  0  0  0  0
  151.6110  139.9513  155.7538 C   0  0  0  0  0  0  0  0  0  0  0  0
  150.6000  140.0820  156.9061 C   0  0  0  0  0  0  0  0  0  0  0  0
  150.1594  141.5371  157.2009 C   0  0  2  0  0  0  0  0  0  0  0  0
  149.6678  142.1562  155.9678 N   0  0  0  0  0  0  0  0  0  0  0  0
  148.6735  141.6109  155.2310 C   0  0  0  0  0  0  0  0  0  0  0  0
  148.6676  141.6899  153.8749 N   0  0  0  0  0  0  0  0  0  0  0  0
  147.6688  141.1430  153.1764 C   0  0  0  0  0  0  0  0  0  0  0  0
  146.5985  140.4859  153.6274 N   0  0  0  0  0  0  0  0  0  0  0  0
  146.5976  140.4032  154.9894 C   0  0  0  0  0  0  0  0  0  0  0  0
  147.5928  140.9363  155.8553 C   0  0  0  0  0  0  0  0  0  0  0  0
  147.2634  140.6620  157.1761 N   0  0  0  0  0  0  0  0  0  0  0  0
  146.1389  140.0031  157.0906 C   0  0  0  0  0  0  0  0  0  0  0  0
  145.6648  139.8059  155.8126 N   0  0  0  0  0  0  0  0  0  0  0  0
  144.4153  139.0948  155.4042 C   0  0  2  0  0  0  0  0  0  0  0  0
  143.7736  138.6492  156.5593 O   0  0  0  0  0  0  0  0  0  0  0  0
  143.2708  137.3347  156.3514 C   0  0  2  0  0  0  0  0  0  0  0  0
  143.1082  136.6208  157.7022 C   0  0  0  0  0  0  0  0  0  0  0  0
  142.7143  135.2809  157.4968 O   0  0  0  0  0  0  0  0  0  0  0  0
  144.3411  136.7110  155.4541 C   0  0  1  0  0  0  0  0  0  0  0  0
  143.8765  135.5711  154.7552 O   0  0  0  0  0  0  0  0  0  0  0  0
  144.7385  137.8664  154.5373 C   0  0  1  0  0  0  0  0  0  0  0  0
  143.9836  137.8844  153.3393 O   0  0  0  0  0  0  0  0  0  0  0  0
  151.2887  142.4188  157.8082 C   0  0  0  0  0  0  0  0  0  0  0  0
  151.9202  141.8044  159.0831 C   0  0  0  0  0  0  0  0  0  0  0  0
  153.0021  142.7074  159.6988 C   0  0  0  0  0  0  0  0  0  0  0  0
  152.4559  144.1064  160.0079 C   0  0  0  0  0  0  0  0  0  0  0  0
  151.8586  144.7407  158.7467 C   0  0  0  0  0  0  0  0  0  0  0  0
  150.7701  143.8429  158.1386 C   0  0  0  0  0  0  0  0  0  0  0  0
  143.8171  139.8508  154.8931 H   0  0  0  0  0  0  0  0  0  0  0  0
  142.3229  137.3904  155.8118 H   0  0  0  0  0  0  0  0  0  0  0  0
  145.2010  136.4189  156.0571 H   0  0  0  0  0  0  0  0  0  0  0  0
  145.7986  137.8303  154.2815 H   0  0  0  0  0  0  0  0  0  0  0  0
  150.7338  138.7880  154.4850 H   0  0  0  0  0  0  0  0  0  0  0  0
  152.3061  139.1298  155.9273 H   0  0  0  0  0  0  0  0  0  0  0  0
  152.1993  140.8639  155.6535 H   0  0  0  0  0  0  0  0  0  0  0  0
  149.7343  139.4815  156.6324 H   0  0  0  0  0  0  0  0  0  0  0  0
  151.0128  139.6324  157.8103 H   0  0  0  0  0  0  0  0  0  0  0  0
  149.3693  141.4948  157.9502 H   0  0  0  0  0  0  0  0  0  0  0  0
  150.1006  143.0357  155.7243 H   0  0  0  0  0  0  0  0  0  0  0  0
  147.7368  141.2465  152.1035 H   0  0  0  0  0  0  0  0  0  0  0  0
  145.6186  139.6428  157.9662 H   0  0  0  0  0  0  0  0  0  0  0  0
  144.0593  136.6031  158.2350 H   0  0  0  0  0  0  0  0  0  0  0  0
  142.3898  137.1368  158.3398 H   0  0  0  0  0  0  0  0  0  0  0  0
  141.7706  135.2471  157.4613 H   0  0  0  0  0  0  0  0  0  0  0  0
  144.5967  134.9672  154.6566 H   0  0  0  0  0  0  0  0  0  0  0  0
  143.8476  138.7847  153.0860 H   0  0  0  0  0  0  0  0  0  0  0  0
  152.0786  142.5152  157.0614 H   0  0  0  0  0  0  0  0  0  0  0  0
  151.1418  141.6128  159.8230 H   0  0  0  0  0  0  0  0  0  0  0  0
  152.3840  140.8440  158.8639 H   0  0  0  0  0  0  0  0  0  0  0  0
  153.3896  142.2518  160.6104 H   0  0  0  0  0  0  0  0  0  0  0  0
  153.8454  142.7879  159.0117 H   0  0  0  0  0  0  0  0  0  0  0  0
  151.6925  144.0406  160.7843 H   0  0  0  0  0  0  0  0  0  0  0  0
  153.2499  144.7397  160.4047 H   0  0  0  0  0  0  0  0  0  0  0  0
  151.4414  145.7194  158.9859 H   0  0  0  0  0  0  0  0  0  0  0  0
  152.6463  144.9110  158.0117 H   0  0  0  0  0  0  0  0  0  0  0  0
  150.3870  144.3336  157.2437 H   0  0  0  0  0  0  0  0  0  0  0  0
  149.9299  143.7744  158.8312 H   0  0  0  0  0  0  0  0  0  0  0  0
  1  2  1  0  0  0  0
  1 34  1  0  0  0  0
  2  3  1  0  0  0  0
  2 35  1  0  0  0  0
  2 36  1  0  0  0  0
  3  4  1  0  0  0  0
  3 37  1  0  0  0  0
  3 38  1  0  0  0  0
  4  5  1  0  0  0  0
  4 24  1  0  0  0  0
  4 39  1  0  0  0  0
  5  6  1  0  0  0  0
  5 40  1  0  0  0  0
  6 11  1  0  0  0  0
  6  7  2  0  0  0  0
  7  8  1  0  0  0  0
  8  9  2  0  0  0  0
  8 41  1  0  0  0  0
  9 10  1  0  0  0  0
 10 14  1  0  0  0  0
 10 11  2  0  0  0  0
 11 12  1  0  0  0  0
 12 13  2  0  0  0  0
 13 14  1  0  0  0  0
 13 42  1  0  0  0  0
 14 15  1  0  0  0  0
 15 30  1  0  0  0  0
 15 22  1  0  0  0  0
 15 16  1  0  0  0  0
 16 17  1  0  0  0  0
 17 31  1  0  0  0  0
 17 18  1  0  0  0  0
 17 20  1  0  0  0  0
 18 19  1  0  0  0  0
 18 43  1  0  0  0  0
 18 44  1  0  0  0  0
 19 45  1  0  0  0  0
 20 32  1  0  0  0  0
 20 21  1  0  0  0  0
 20 22  1  0  0  0  0
 21 46  1  0  0  0  0
 22 33  1  0  0  0  0
 22 23  1  0  0  0  0
 23 47  1  0  0  0  0
 24 29  1  0  0  0  0
 24 25  1  0  0  0  0
 24 48  1  0  0  0  0
 25 26  1  0  0  0  0
 25 49  1  0  0  0  0
 25 50  1  0  0  0  0
 26 27  1  0  0  0  0
 26 51  1  0  0  0  0
 26 52  1  0  0  0  0
 27 28  1  0  0  0  0
 27 53  1  0  0  0  0
 27 54  1  0  0  0  0
 28 29  1  0  0  0  0
 28 55  1  0  0  0  0
 28 56  1  0  0  0  0
 29 57  1  0  0  0  0
 29 58  1  0  0  0  0
M  END
> <s_m_source_file>
AV-unprocessed.smi

> <i_m_source_file_index>
109

> <i_lp_mmshare_version>
43012

> <i_f3d_flags>
0

> <s_epik_input>
W0NIMl0xW0NIMl1bQ0gyXVtDSDJdW0NIMl1bQ0hdMVtDQEhdKFtDSDJdW0NIMl1bT0hdKVtOSF1jKG5bY0hdbjIpYyhjMjMpbltjSF1uM1tDQEBIXTRPW0NASF0oW0NIMl1bT0hdKVtDQEBIXShbT0hdKVtDQEhdNFtPSF0=

> <s_epik_cmdline>
J2VwaWtfcHl0aG9uJywgJy1waCcsICc3LjAnLCAnLXRuJywgJzgnLCAnLW1hJywgJzIwMCcsICctbWV0YWxfYmluZGluZycsICctaW1hZScsICc8aW5maWxlLm1hZT4nLCAnLW9tYWUnLCAnPG91dGZpbGUubWFlPic=

> <r_lp_tautomer_probability>
1

> <r_epik_Ionization_Penalty>
0.000793976

> <r_epik_Ionization_Penalty_Charging>
0

> <r_epik_Ionization_Penalty_Neutral>
0.000793976

> <r_epik_State_Penalty>
-0

> <r_epik_Charging_Adjusted_Penalty>
0

> <i_epik_Tot_Q>
0

> <i_epik_Tot_abs_Q>
0

> <r_epik_Metal_State_Penalty>
-0

> <b_epik_Metal_Only>
0

> <s_epik_Chemistry_Notes>
This compound contains an acetal/aminal-like group ( X-CH(R)-Y where X, Y are N, S, or O) that may be acid/base labile, releasing an aldehyde.

> <s_lp_Force_Field>
OPLS_2005

> <r_lp_Energy>
54.5538

> <b_lp_Chiralities_Consistent>
1

> <s_lp_Variant>
AV-unprocessed.smi:109-1

> <Gold.Version>
5.8.1

> <Gold.Id.Protein>
6NUR|6NUR_protein|mol2

> <Gold.PLP.Fitness>
50.1959

> <Gold.PLP.PLP>
-37.2753

> <Gold.PLP.part.hbond>
-5.0000

> <Gold.PLP.part.metal>
0.0000

> <Gold.PLP.part.buried>
-3.9101

> <Gold.PLP.part.nonpolar>
-28.2978

> <Gold.PLP.part.repulsive>
0.5114

> <Gold.PLP.ligand.clash>
0.0000

> <Gold.PLP.ligand.torsion>
0.5337

> <Gold.PLP.Chemscore.Hbond>
3.9654

> <Gold.PLP.Chemscore.CHOScore>
0.6310

> <Gold.PLP.Chemscore.Metal>
0.0000

> <Gold.Chemscore.Hbonds>
donor molecule, donor type, donor heavy atom, donor atom, acceptor molecule, acceptor atom, score
      L1  H     5    40       P1  8028  0.33
      L1  H    19    45       P1 11000  0.80
      L1  H    23    47       P1 10175  1.00
      P1  H  7989  7998       L1     1  1.00
      P1  H  8011  8017       L1     7  0.55
      L1  C     8    41       P1  7957  0.68

> <Gold.PLP.Chemscore.Internal.Correction>
0.1990

> <Gold.Rescore>
     Score         DG    S(hbond)    S(metal)    S(lipo)     H(rot)  DE(clash)    DE(int)     intcor
     10.15     -11.87       3.32        0.00      79.28       5.47       0.16       1.56       ----

> <Gold.Chemscore.Fitness>
10.1498

> <Gold.Chemscore.DG>
-11.8658

> <Gold.Chemscore.ZeroCoef>
-5.4800

> <Gold.Chemscore.Hbond>
3.3244

> <Gold.Chemscore.Metal>
0.0000

> <Gold.Chemscore.Lipo>
79.2798

> <Gold.Chemscore.Internal_Hbond>
0.0000

> <Gold.Chemscore.DEClash>
0.1559

> <Gold.Chemscore.DEInternal>
1.5602

> <Gold.Chemscore.Rot>
5.4662

> <Gold.Chemscore.Internal.Correction>
   9.000000E+99

> <Gold.Chemscore.Hbonds>
donor molecule, donor type, donor heavy atom, donor atom, acceptor molecule, acceptor atom, score
      L1  H     5    40       P1  8028  0.31
      L1  H    19    45       P1 11000  0.40
      L1  H    23    47       P1 10175  1.00
      P1  H  7989  7998       L1     1  0.35
      P1  H  8011  8017       L1     7  0.12

> <Gold.Chemscore.Hbond.Weighted>
-11.1036

> <Gold.Chemscore.Metal.Weighted>
-0.0000

> <Gold.Chemscore.Lipo.Weighted>
-9.2757

> <Gold.Chemscore.Internal_Hbond.Weighted>
0.0000

> <Gold.Chemscore.DEClash.Weighted>
0.1559

> <Gold.Chemscore.DEInternal.Weighted>
1.5602

> <Gold.Chemscore.Rot.Weighted>
13.9935

> <Gold.Chemscore.Internal.Correction.Weighted>
   9.000000E+99

> <Gold.Protein.RotatedTorsions>
[ 6907 6896 6895 6894 ] final -163.32 input  -60.11 | X-H torsion
[ 7974 7965 7964 7962 ] final -106.44 input  175.53 | X-H torsion
[ 8008 7997 7996 7995 ] final -113.36 input   59.86 | X-H torsion
[ 10167 10162 10161 10158 ] final  152.66 input  -65.29 | X-H torsion
[ 10718 10713 10712 10709 ] final   17.45 input   66.30 | X-H torsion
[ 10763 10752 10751 10750 ] final  102.74 input  -60.55 | X-H torsion
[ 11005 11000 10999 10996 ] final   47.95 input  -57.11 | X-H torsion

> <Gold.Protein.ActiveResidues>
 VAL166  LYS551  ARG553  GLY616  TRP617  ASP618  TYR619  PRO620  LYS621  CYS622 
 ASP623  PHE694  ASN695  SER759  ASP760  ASP761  ALA762  ILE779  LEU786  VAL792 
 PHE793  MET794  SER795  GLU796  ALA797  LYS798  CYS799  TRP800  GLU811  SER814 

> <Gold.Protein.RotatedAtoms>
  151.3942  133.3778  159.2724 H   0  0  0  0  0  0  0  0  0  0  0  0  # atno 6907 bound_to 6896
  150.9482  134.8886  159.7666 H   0  0  0  0  0  0  0  0  0  0  0  0  # atno 6908 bound_to 6896
  152.5100  134.3896  159.9431 H   0  0  0  0  0  0  0  0  0  0  0  0  # atno 6909 bound_to 6896
  145.2178  140.9122  143.3277 H   0  0  0  0  0  0  0  0  0  0  0  0  # atno 7974 bound_to 7965
  155.0195  140.0393  157.2432 H   0  0  0  0  0  0  0  0  0  0  0  0  # atno 8008 bound_to 7997
  154.7390  140.2745  155.6366 H   0  0  0  0  0  0  0  0  0  0  0  0  # atno 8009 bound_to 7997
  156.2860  140.2669  156.2112 H   0  0  0  0  0  0  0  0  0  0  0  0  # atno 8010 bound_to 7997
  139.4831  144.5339  151.7677 H   0  0  0  0  0  0  0  0  0  0  0  0  # atno 10167 bound_to 10162
  157.0823  130.6393  149.5829 H   0  0  0  0  0  0  0  0  0  0  0  0  # atno 10718 bound_to 10713
  153.3436  135.4000  155.1591 H   0  0  0  0  0  0  0  0  0  0  0  0  # atno 10763 bound_to 10752
  154.8648  135.3639  154.5314 H   0  0  0  0  0  0  0  0  0  0  0  0  # atno 10764 bound_to 10752
  153.5760  135.7078  153.5543 H   0  0  0  0  0  0  0  0  0  0  0  0  # atno 10765 bound_to 10752
  140.1234  134.4800  155.8579 H   0  0  0  0  0  0  0  0  0  0  0  0  # atno 11005 bound_to 11000
  144.9794  139.3799  143.6269 LP  0  0  0  0  0  0  0  0  0  0  0  0  # atno 17320 bound_to 7965
  146.3383  139.8928  142.8806 LP  0  0  0  0  0  0  0  0  0  0  0  0  # atno 17321 bound_to 7965
  140.4869  144.1367  150.5943 LP  0  0  0  0  0  0  0  0  0  0  0  0  # atno 17342 bound_to 10162
  140.4215  143.2609  151.9709 LP  0  0  0  0  0  0  0  0  0  0  0  0  # atno 17343 bound_to 10162
  155.9920  130.4977  150.7323 LP  0  0  0  0  0  0  0  0  0  0  0  0  # atno 17370 bound_to 10713
  157.4790  131.0900  151.0558 LP  0  0  0  0  0  0  0  0  0  0  0  0  # atno 17371 bound_to 10713
  141.2156  133.6769  156.6932 LP  0  0  0  0  0  0  0  0  0  0  0  0  # atno 17394 bound_to 11000
  140.2936  134.8221  157.4037 LP  0  0  0  0  0  0  0  0  0  0  0  0  # atno 17395 bound_to 11000

$$$$
