AV-unprocessed.smi:949|AV-procd|sdf|4247|dock10
  -GOLD-   22720 2153D 1   1.00000     0.00000
 Structure written by MMmdl.
 32 33  0  0  0  0  0  0  0  0  1 V2000
  151.1381  141.2180  158.7638 C   0  0  0  0  0  0  0  0  0  0  0  0
  151.4093  142.5234  157.9940 C   0  0  1  0  0  0  0  0  0  0  0  0
  150.6531  142.5472  156.7464 N   0  0  0  0  0  0  0  0  0  0  0  0
  150.5425  141.4339  155.8942 C   0  0  0  0  0  0  0  0  0  0  0  0
  151.4696  140.3645  155.9051 C   0  0  0  0  0  0  0  0  0  0  0  0
  151.2810  139.2897  155.0144 C   0  0  0  0  0  0  0  0  0  0  0  0
  150.2567  139.2194  154.1402 N   0  0  0  0  0  0  0  0  0  0  0  0
  149.3729  140.2382  154.1277 C   0  0  0  0  0  0  0  0  0  0  0  0
  149.4662  141.3623  154.9753 C   0  0  0  0  0  0  0  0  0  0  0  0
  148.5020  142.3697  154.8889 N   0  0  0  0  0  0  0  0  0  0  0  0
  151.0584  143.7552  158.8515 C   0  0  2  0  0  0  0  0  0  0  0  0
  151.8931  145.0005  158.5395 C   0  0  0  0  0  0  0  0  0  0  0  0
  151.8308  145.7524  159.8485 C   0  0  0  0  0  0  0  0  0  0  0  0
  151.9258  144.6130  160.8561 C   0  0  0  0  0  0  0  0  0  0  0  0
  151.3075  143.4911  160.2321 O   0  0  0  0  0  0  0  0  0  0  0  0
  151.7247  141.1723  159.6816 H   0  0  0  0  0  0  0  0  0  0  0  0
  151.3961  140.3392  158.1731 H   0  0  0  0  0  0  0  0  0  0  0  0
  150.0864  141.1323  159.0395 H   0  0  0  0  0  0  0  0  0  0  0  0
  152.4725  142.5838  157.7621 H   0  0  0  0  0  0  0  0  0  0  0  0
  150.1967  143.4083  156.4835 H   0  0  0  0  0  0  0  0  0  0  0  0
  152.3148  140.3438  156.5753 H   0  0  0  0  0  0  0  0  0  0  0  0
  151.9749  138.4624  155.0045 H   0  0  0  0  0  0  0  0  0  0  0  0
  148.5647  140.1527  153.4159 H   0  0  0  0  0  0  0  0  0  0  0  0
  148.5460  143.1841  155.4844 H   0  0  0  0  0  0  0  0  0  0  0  0
  147.8566  142.4091  154.1134 H   0  0  0  0  0  0  0  0  0  0  0  0
  149.9999  144.0004  158.7490 H   0  0  0  0  0  0  0  0  0  0  0  0
  152.9257  144.7277  158.3165 H   0  0  0  0  0  0  0  0  0  0  0  0
  151.5031  145.5750  157.6988 H   0  0  0  0  0  0  0  0  0  0  0  0
  152.6258  146.4900  159.9609 H   0  0  0  0  0  0  0  0  0  0  0  0
  150.8713  146.2627  159.9435 H   0  0  0  0  0  0  0  0  0  0  0  0
  152.9701  144.3661  161.0524 H   0  0  0  0  0  0  0  0  0  0  0  0
  151.4498  144.8548  161.8066 H   0  0  0  0  0  0  0  0  0  0  0  0
  1  2  1  0  0  0  0
  1 16  1  0  0  0  0
  1 17  1  0  0  0  0
  1 18  1  0  0  0  0
  2  3  1  0  0  0  0
  2 11  1  0  0  0  0
  2 19  1  0  0  0  0
  3  4  1  0  0  0  0
  3 20  1  0  0  0  0
  4  9  1  0  0  0  0
  4  5  2  0  0  0  0
  5  6  1  0  0  0  0
  5 21  1  0  0  0  0
  6  7  2  0  0  0  0
  6 22  1  0  0  0  0
  7  8  1  0  0  0  0
  8  9  2  0  0  0  0
  8 23  1  0  0  0  0
  9 10  1  0  0  0  0
 10 24  1  0  0  0  0
 10 25  1  0  0  0  0
 11 15  1  0  0  0  0
 11 12  1  0  0  0  0
 11 26  1  0  0  0  0
 12 13  1  0  0  0  0
 12 27  1  0  0  0  0
 12 28  1  0  0  0  0
 13 14  1  0  0  0  0
 13 29  1  0  0  0  0
 13 30  1  0  0  0  0
 14 15  1  0  0  0  0
 14 31  1  0  0  0  0
 14 32  1  0  0  0  0
M  END
> <s_m_source_file>
AV-unprocessed.smi

> <i_m_source_file_index>
949

> <i_lp_mmshare_version>
43012

> <i_f3d_flags>
0

> <s_epik_input>
TzFbQ0gyXVtDSDJdW0NIMl1bQ0BIXTFbQ0BIXShbQ0gzXSlbTkhdYzJbY0hdW2NIXW5bY0hdYzJbTkgyXQ==

> <s_epik_cmdline>
J2VwaWtfcHl0aG9uJywgJy1waCcsICc3LjAnLCAnLXRuJywgJzgnLCAnLW1hJywgJzIwMCcsICctbWV0YWxfYmluZGluZycsICctaW1hZScsICc8aW5maWxlLm1hZT4nLCAnLW9tYWUnLCAnPG91dGZpbGUubWFlPic=

> <r_epik_Ionization_Penalty>
3.88091

> <r_epik_Ionization_Penalty_Charging>
0

> <r_epik_Ionization_Penalty_Neutral>
3.88091

> <r_epik_State_Penalty>
3.88049

> <r_epik_Charging_Adjusted_Penalty>
3.88049

> <i_epik_Tot_Q>
0

> <i_epik_Tot_abs_Q>
0

> <r_epik_Metal_State_Penalty>
0.313783

> <b_epik_Metal_Only>
1

> <s_lp_Force_Field>
OPLS_2005

> <r_lp_Energy>
23.3849

> <b_lp_Chiralities_Consistent>
1

> <s_lp_Variant>
AV-unprocessed.smi:949-6

> <Gold.Version>
5.8.1

> <Gold.Id.Protein>
6NUR|6NUR_protein|mol2

> <Gold.PLP.Fitness>
42.8605

> <Gold.PLP.PLP>
-37.1466

> <Gold.PLP.part.hbond>
-2.7470

> <Gold.PLP.part.metal>
0.0000

> <Gold.PLP.part.buried>
-2.1995

> <Gold.PLP.part.nonpolar>
-32.4620

> <Gold.PLP.part.repulsive>
0.5450

> <Gold.PLP.ligand.clash>
0.0000

> <Gold.PLP.ligand.torsion>
0.9330

> <Gold.PLP.Chemscore.Hbond>
1.9673

> <Gold.PLP.Chemscore.CHOScore>
0.5554

> <Gold.PLP.Chemscore.Metal>
0.0000

> <Gold.Chemscore.Hbonds>
donor molecule, donor type, donor heavy atom, donor atom, acceptor molecule, acceptor atom, score
      L1  H     3    20       P1  8028  1.00
      L1  H    10    24       P1  8028  0.98
      L1  C     8    23       P1  7957  0.54

> <Gold.PLP.Chemscore.Internal.Correction>
0.0121

> <Gold.Rescore>
     Score         DG    S(hbond)    S(metal)    S(lipo)     H(rot)  DE(clash)    DE(int)     intcor
     17.93     -20.12       1.89        0.00      97.79       1.22       0.30       1.89       ----

> <Gold.Chemscore.Fitness>
17.9345

> <Gold.Chemscore.DG>
-20.1250

> <Gold.Chemscore.ZeroCoef>
-5.4800

> <Gold.Chemscore.Hbond>
1.8918

> <Gold.Chemscore.Metal>
0.0000

> <Gold.Chemscore.Lipo>
97.7914

> <Gold.Chemscore.Internal_Hbond>
0.0000

> <Gold.Chemscore.DEClash>
0.3035

> <Gold.Chemscore.DEInternal>
1.8869

> <Gold.Chemscore.Rot>
1.2169

> <Gold.Chemscore.Internal.Correction>
   9.000000E+99

> <Gold.Chemscore.Hbonds>
donor molecule, donor type, donor heavy atom, donor atom, acceptor molecule, acceptor atom, score
      L1  H     3    20       P1  8028  0.93
      L1  H    10    24       P1  8028  0.90

> <Gold.Chemscore.Hbond.Weighted>
-6.3186

> <Gold.Chemscore.Metal.Weighted>
-0.0000

> <Gold.Chemscore.Lipo.Weighted>
-11.4416

> <Gold.Chemscore.Internal_Hbond.Weighted>
0.0000

> <Gold.Chemscore.DEClash.Weighted>
0.3035

> <Gold.Chemscore.DEInternal.Weighted>
1.8869

> <Gold.Chemscore.Rot.Weighted>
3.1152

> <Gold.Chemscore.Internal.Correction.Weighted>
   9.000000E+99

> <Gold.Protein.RotatedTorsions>
[ 6907 6896 6895 6894 ] final   55.70 input  -60.11 | X-H torsion
[ 7974 7965 7964 7962 ] final  178.59 input  175.53 | X-H torsion
[ 8008 7997 7996 7995 ] final  132.73 input   59.86 | X-H torsion
[ 10167 10162 10161 10158 ] final -106.15 input  -65.29 | X-H torsion
[ 10718 10713 10712 10709 ] final   91.54 input   66.30 | X-H torsion
[ 10763 10752 10751 10750 ] final    5.14 input  -60.55 | X-H torsion
[ 11005 11000 10999 10996 ] final  -64.71 input  -57.11 | X-H torsion

> <Gold.Protein.ActiveResidues>
 VAL166  LYS551  ARG553  GLY616  TRP617  ASP618  TYR619  PRO620  LYS621  CYS622 
 ASP623  PHE694  ASN695  SER759  ASP760  ASP761  ALA762  ILE779  LEU786  VAL792 
 PHE793  MET794  SER795  GLU796  ALA797  LYS798  CYS799  TRP800  GLU811  SER814 

> <Gold.Protein.RotatedAtoms>
  152.3565  134.6933  160.0220 H   0  0  0  0  0  0  0  0  0  0  0  0  # atno 6907 bound_to 6896
  151.7270  133.3311  159.3338 H   0  0  0  0  0  0  0  0  0  0  0  0  # atno 6908 bound_to 6896
  150.7575  134.6331  159.6241 H   0  0  0  0  0  0  0  0  0  0  0  0  # atno 6909 bound_to 6896
  144.7154  140.0420  143.6437 H   0  0  0  0  0  0  0  0  0  0  0  0  # atno 7974 bound_to 7965
  156.2985  140.2539  156.3137 H   0  0  0  0  0  0  0  0  0  0  0  0  # atno 8008 bound_to 7997
  154.9301  140.0398  157.2062 H   0  0  0  0  0  0  0  0  0  0  0  0  # atno 8009 bound_to 7997
  154.8226  140.2862  155.5780 H   0  0  0  0  0  0  0  0  0  0  0  0  # atno 8010 bound_to 7997
  140.1909  143.3893  152.1207 H   0  0  0  0  0  0  0  0  0  0  0  0  # atno 10167 bound_to 10162
  157.6960  131.0411  150.3745 H   0  0  0  0  0  0  0  0  0  0  0  0  # atno 10718 bound_to 10713
  153.2629  135.6925  153.7560 H   0  0  0  0  0  0  0  0  0  0  0  0  # atno 10763 bound_to 10752
  153.6612  135.3360  155.3128 H   0  0  0  0  0  0  0  0  0  0  0  0  # atno 10764 bound_to 10752
  154.8437  135.4477  154.1625 H   0  0  0  0  0  0  0  0  0  0  0  0  # atno 10765 bound_to 10752
  141.1433  133.6670  156.5875 H   0  0  0  0  0  0  0  0  0  0  0  0  # atno 11005 bound_to 11000
  146.0015  139.3095  143.0924 LP  0  0  0  0  0  0  0  0  0  0  0  0  # atno 17320 bound_to 7965
  145.8787  140.9376  143.0612 LP  0  0  0  0  0  0  0  0  0  0  0  0  # atno 17321 bound_to 7965
  139.5256  144.7098  151.5241 LP  0  0  0  0  0  0  0  0  0  0  0  0  # atno 17342 bound_to 10162
  140.6456  143.8801  150.6734 LP  0  0  0  0  0  0  0  0  0  0  0  0  # atno 17343 bound_to 10162
  156.4166  130.3944  149.6854 LP  0  0  0  0  0  0  0  0  0  0  0  0  # atno 17370 bound_to 10713
  156.4120  130.7726  151.2740 LP  0  0  0  0  0  0  0  0  0  0  0  0  # atno 17371 bound_to 10713
  140.3789  134.7541  157.4648 LP  0  0  0  0  0  0  0  0  0  0  0  0  # atno 17394 bound_to 11000
  140.0653  134.5938  155.8702 LP  0  0  0  0  0  0  0  0  0  0  0  0  # atno 17395 bound_to 11000

$$$$
