AV-unprocessed.smi:1912|AV-procd|sdf|7750|dock7
  -GOLD-   22720 9493D 1   1.00000     0.00000
 Structure written by MMmdl.
 44 46  0  0  0  0  0  0  0  0  2 V2000
  154.9126  140.3554  161.7530 C   0  0  0  0  0  0  0  0  0  0  0  0
  154.0353  139.9582  160.7095 O   0  0  0  0  0  0  0  0  0  0  0  0
  153.3595  140.9419  160.0203 C   0  0  0  0  0  0  0  0  0  0  0  0
  153.5000  142.3275  160.2672 C   0  0  0  0  0  0  0  0  0  0  0  0
  152.7768  143.2642  159.5066 C   0  0  0  0  0  0  0  0  0  0  0  0
  151.8930  142.8421  158.4825 C   0  0  0  0  0  0  0  0  0  0  0  0
  151.1775  143.7190  157.6922 O   0  0  0  0  0  0  0  0  0  0  0  0
  151.3308  145.1122  157.9169 C   0  0  0  0  0  0  0  0  0  0  0  0
  151.7423  141.4543  158.2395 C   0  0  0  0  0  0  0  0  0  0  0  0
  150.8217  140.9562  157.1257 C   0  0  2  0  0  0  0  0  0  0  0  0
  149.8474  140.0447  157.5924 O   0  0  0  0  0  0  0  0  0  0  0  0
  151.5972  140.2753  155.9782 C   0  0  0  0  0  0  0  0  0  0  0  0
  150.7466  139.3880  155.1689 N   0  0  0  0  0  0  0  0  0  0  0  0
  150.8789  138.0577  154.9011 C   0  0  0  0  0  0  0  0  0  0  0  0
  151.9712  137.1581  155.3724 C   0  0  0  0  0  0  0  0  0  0  0  0
  149.8168  137.6926  154.1296 N   0  3  0  0  0  0  0  0  0  0  0  0
  148.9965  138.7981  153.9018 C   0  0  0  0  0  0  0  0  0  0  0  0
  147.8078  138.9173  153.1886 C   0  0  0  0  0  0  0  0  0  0  0  0
  147.2133  140.1958  153.1588 C   0  0  0  0  0  0  0  0  0  0  0  0
  147.8018  141.2943  153.8177 C   0  0  0  0  0  0  0  0  0  0  0  0
  149.0099  141.1623  154.5329 C   0  0  0  0  0  0  0  0  0  0  0  0
  149.5900  139.8938  154.5620 C   0  0  0  0  0  0  0  0  0  0  0  0
  152.4789  140.5235  159.0054 C   0  0  0  0  0  0  0  0  0  0  0  0
  155.3644  139.4694  162.1991 H   0  0  0  0  0  0  0  0  0  0  0  0
  154.3786  140.8864  162.5424 H   0  0  0  0  0  0  0  0  0  0  0  0
  155.7212  140.9837  161.3771 H   0  0  0  0  0  0  0  0  0  0  0  0
  154.1614  142.6999  161.0347 H   0  0  0  0  0  0  0  0  0  0  0  0
  152.9225  144.3098  159.7307 H   0  0  0  0  0  0  0  0  0  0  0  0
  150.7514  145.6603  157.1739 H   0  0  0  0  0  0  0  0  0  0  0  0
  152.3723  145.4203  157.8137 H   0  0  0  0  0  0  0  0  0  0  0  0
  150.9617  145.4008  158.9017 H   0  0  0  0  0  0  0  0  0  0  0  0
  150.2571  141.7973  156.7235 H   0  0  0  0  0  0  0  0  0  0  0  0
  150.2866  139.3478  158.0559 H   0  0  0  0  0  0  0  0  0  0  0  0
  152.0867  141.0062  155.3343 H   0  0  0  0  0  0  0  0  0  0  0  0
  152.3944  139.6541  156.3886 H   0  0  0  0  0  0  0  0  0  0  0  0
  151.8379  136.1521  154.9738 H   0  0  0  0  0  0  0  0  0  0  0  0
  151.9697  137.1027  156.4610 H   0  0  0  0  0  0  0  0  0  0  0  0
  152.9393  137.5354  155.0427 H   0  0  0  0  0  0  0  0  0  0  0  0
  147.3546  138.0768  152.6837 H   0  0  0  0  0  0  0  0  0  0  0  0
  146.2873  140.3364  152.6205 H   0  0  0  0  0  0  0  0  0  0  0  0
  147.3166  142.2586  153.7757 H   0  0  0  0  0  0  0  0  0  0  0  0
  149.4461  142.0110  155.0380 H   0  0  0  0  0  0  0  0  0  0  0  0
  152.3789  139.4659  158.8089 H   0  0  0  0  0  0  0  0  0  0  0  0
  149.6638  136.7524  153.7881 H   0  0  0  0  0  0  0  0  0  0  0  0
  1  2  1  0  0  0  0
  1 24  1  0  0  0  0
  1 25  1  0  0  0  0
  1 26  1  0  0  0  0
  2  3  1  0  0  0  0
  3 23  1  0  0  0  0
  3  4  2  0  0  0  0
  4  5  1  0  0  0  0
  4 27  1  0  0  0  0
  5  6  2  0  0  0  0
  5 28  1  0  0  0  0
  6  7  1  0  0  0  0
  6  9  1  0  0  0  0
  7  8  1  0  0  0  0
  8 29  1  0  0  0  0
  8 30  1  0  0  0  0
  8 31  1  0  0  0  0
  9 10  1  0  0  0  0
  9 23  2  0  0  0  0
 10 11  1  0  0  0  0
 10 12  1  0  0  0  0
 10 32  1  0  0  0  0
 11 33  1  0  0  0  0
 12 13  1  0  0  0  0
 12 34  1  0  0  0  0
 12 35  1  0  0  0  0
 13 22  1  0  0  0  0
 13 14  1  0  0  0  0
 14 15  1  0  0  0  0
 14 16  2  0  0  0  0
 15 36  1  0  0  0  0
 15 37  1  0  0  0  0
 15 38  1  0  0  0  0
 16 17  1  0  0  0  0
 16 44  1  0  0  0  0
 17 22  2  0  0  0  0
 17 18  1  0  0  0  0
 18 19  2  0  0  0  0
 18 39  1  0  0  0  0
 19 20  1  0  0  0  0
 19 40  1  0  0  0  0
 20 21  2  0  0  0  0
 20 41  1  0  0  0  0
 21 22  1  0  0  0  0
 21 42  1  0  0  0  0
 23 43  1  0  0  0  0
M  CHG  1  16   1
M  END
> <s_m_source_file>
AV-unprocessed.smi

> <i_m_source_file_index>
1912

> <i_lp_mmshare_version>
43012

> <i_f3d_flags>
0

> <s_epik_input>
W0NIM11PYzFbY0hdW2NIXWMoT1tDSDNdKWMoW2NIXTEpW0NASF0oW09IXSlbQ0gyXW4oYyhuMilbQ0gzXSljKGMyMylbY0hdW2NIXVtjSF1bY0hdMw==

> <s_epik_cmdline>
J2VwaWtfcHl0aG9uJywgJy1waCcsICc3LjAnLCAnLXRuJywgJzgnLCAnLW1hJywgJzIwMCcsICctbWV0YWxfYmluZGluZycsICctaW1hZScsICc8aW5maWxlLm1hZT4nLCAnLW9tYWUnLCAnPG91dGZpbGUubWFlPic=

> <r_lp_tautomer_probability>
1

> <r_epik_Ionization_Penalty>
0.963869

> <r_epik_Ionization_Penalty_Charging>
0.963868

> <r_epik_Ionization_Penalty_Neutral>
1.34362e-06

> <r_epik_State_Penalty>
1.00924

> <r_epik_Charging_Adjusted_Penalty>
1.9731

> <i_epik_Tot_Q>
1

> <i_epik_Tot_abs_Q>
1

> <r_epik_Metal_State_Penalty>
4.98304

> <b_epik_Metal_Only>
0

> <s_lp_Force_Field>
OPLS_2005

> <r_lp_Energy>
21.5299

> <b_lp_Chiralities_Consistent>
1

> <s_lp_Variant>
AV-unprocessed.smi:1912-3

> <Gold.Version>
5.8.1

> <Gold.Id.Protein>
6NUR|6NUR_protein|mol2

> <Gold.PLP.Fitness>
55.7936

> <Gold.PLP.PLP>
-50.3732

> <Gold.PLP.part.hbond>
-2.0000

> <Gold.PLP.part.metal>
0.0000

> <Gold.PLP.part.buried>
1.0111

> <Gold.PLP.part.nonpolar>
-48.5791

> <Gold.PLP.part.repulsive>
0.2175

> <Gold.PLP.ligand.clash>
0.0000

> <Gold.PLP.ligand.torsion>
0.3064

> <Gold.PLP.Chemscore.Hbond>
2.0000

> <Gold.PLP.Chemscore.CHOScore>
0.0000

> <Gold.PLP.Chemscore.Metal>
0.0000

> <Gold.Chemscore.Hbonds>
donor molecule, donor type, donor heavy atom, donor atom, acceptor molecule, acceptor atom, score
      L1  H    16    44       P1  7948  0.88

> <Gold.PLP.Chemscore.Internal.Correction>
0.0332

> <Gold.Rescore>
     Score         DG    S(hbond)    S(metal)    S(lipo)     H(rot)  DE(clash)    DE(int)     intcor
     16.57     -18.38       0.90        0.00     133.58       2.24       0.86       0.94       ----

> <Gold.Chemscore.Fitness>
16.5717

> <Gold.Chemscore.DG>
-18.3750

> <Gold.Chemscore.ZeroCoef>
-5.4800

> <Gold.Chemscore.Hbond>
0.9019

> <Gold.Chemscore.Metal>
0.0000

> <Gold.Chemscore.Lipo>
133.5845

> <Gold.Chemscore.Internal_Hbond>
0.0000

> <Gold.Chemscore.DEClash>
0.8597

> <Gold.Chemscore.DEInternal>
0.9436

> <Gold.Chemscore.Rot>
2.2448

> <Gold.Chemscore.Internal.Correction>
   9.000000E+99

> <Gold.Chemscore.Hbonds>
donor molecule, donor type, donor heavy atom, donor atom, acceptor molecule, acceptor atom, score
      L1  H    16    44       P1  7948  0.31

> <Gold.Chemscore.Hbond.Weighted>
-3.0124

> <Gold.Chemscore.Metal.Weighted>
-0.0000

> <Gold.Chemscore.Lipo.Weighted>
-15.6294

> <Gold.Chemscore.Internal_Hbond.Weighted>
0.0000

> <Gold.Chemscore.DEClash.Weighted>
0.8597

> <Gold.Chemscore.DEInternal.Weighted>
0.9436

> <Gold.Chemscore.Rot.Weighted>
5.7467

> <Gold.Chemscore.Internal.Correction.Weighted>
   9.000000E+99

> <Gold.Protein.RotatedTorsions>
[ 6907 6896 6895 6894 ] final  -51.51 input  -60.11 | X-H torsion
[ 7974 7965 7964 7962 ] final   85.95 input  175.53 | X-H torsion
[ 8008 7997 7996 7995 ] final   97.32 input   59.86 | X-H torsion
[ 10167 10162 10161 10158 ] final  -64.96 input  -65.29 | X-H torsion
[ 10718 10713 10712 10709 ] final -130.13 input   66.30 | X-H torsion
[ 10763 10752 10751 10750 ] final  -62.55 input  -60.55 | X-H torsion
[ 11005 11000 10999 10996 ] final  129.83 input  -57.11 | X-H torsion

> <Gold.Protein.ActiveResidues>
 VAL166  LYS551  ARG553  GLY616  TRP617  ASP618  TYR619  PRO620  LYS621  CYS622 
 ASP623  PHE694  ASN695  SER759  ASP760  ASP761  ALA762  ILE779  LEU786  VAL792 
 PHE793  MET794  SER795  GLU796  ALA797  LYS798  CYS799  TRP800  GLU811  SER814 

> <Gold.Protein.RotatedAtoms>
  150.8604  134.7955  159.7078 H   0  0  0  0  0  0  0  0  0  0  0  0  # atno 6907 bound_to 6896
  152.4643  134.5109  159.9763 H   0  0  0  0  0  0  0  0  0  0  0  0  # atno 6908 bound_to 6896
  151.5213  133.3427  159.2937 H   0  0  0  0  0  0  0  0  0  0  0  0  # atno 6909 bound_to 6896
  145.5788  139.2322  143.2365 H   0  0  0  0  0  0  0  0  0  0  0  0  # atno 7974 bound_to 7965
  156.0889  140.3260  155.7790 H   0  0  0  0  0  0  0  0  0  0  0  0  # atno 8008 bound_to 7997
  155.5030  140.0571  157.2953 H   0  0  0  0  0  0  0  0  0  0  0  0  # atno 8009 bound_to 7997
  154.4626  140.1974  156.0221 H   0  0  0  0  0  0  0  0  0  0  0  0  # atno 8010 bound_to 7997
  140.5764  143.2322  151.6433 H   0  0  0  0  0  0  0  0  0  0  0  0  # atno 10167 bound_to 10162
  156.2114  130.6921  151.0654 H   0  0  0  0  0  0  0  0  0  0  0  0  # atno 10718 bound_to 10713
  154.3016  135.6233  153.5427 H   0  0  0  0  0  0  0  0  0  0  0  0  # atno 10763 bound_to 10752
  152.9840  135.5680  154.5277 H   0  0  0  0  0  0  0  0  0  0  0  0  # atno 10764 bound_to 10752
  154.4909  135.2867  155.1474 H   0  0  0  0  0  0  0  0  0  0  0  0  # atno 10765 bound_to 10752
  139.9637  134.9596  156.9205 H   0  0  0  0  0  0  0  0  0  0  0  0  # atno 11005 bound_to 11000
  146.1731  140.6614  142.9224 LP  0  0  0  0  0  0  0  0  0  0  0  0  # atno 17320 bound_to 7965
  144.7404  140.4925  143.6873 LP  0  0  0  0  0  0  0  0  0  0  0  0  # atno 17321 bound_to 7965
  139.5145  144.3408  152.0741 LP  0  0  0  0  0  0  0  0  0  0  0  0  # atno 17342 bound_to 10162
  140.2552  144.4126  150.6206 LP  0  0  0  0  0  0  0  0  0  0  0  0  # atno 17343 bound_to 10162
  157.7040  131.0764  150.6727 LP  0  0  0  0  0  0  0  0  0  0  0  0  # atno 17370 bound_to 10713
  156.6787  130.4561  149.5634 LP  0  0  0  0  0  0  0  0  0  0  0  0  # atno 17371 bound_to 10713
  140.5443  134.0689  155.7350 LP  0  0  0  0  0  0  0  0  0  0  0  0  # atno 17394 bound_to 11000
  141.1316  133.9292  157.2523 LP  0  0  0  0  0  0  0  0  0  0  0  0  # atno 17395 bound_to 11000

$$$$
