AV-unprocessed.smi:102|AV-procd|sdf|968|dock8
  -GOLD-   2262017513D 1   1.00000     0.00000
 Structure written by MMmdl.
 43 44  0  0  0  0  0  0  0  0  2 V2000
  145.6835  133.5962  162.4094 C   0  0  0  0  0  0  0  0  0  0  0  0
  146.8131  133.5265  161.3897 C   0  0  0  0  0  0  0  0  0  0  0  0
  147.2708  132.4473  161.0133 O   0  0  0  0  0  0  0  0  0  0  0  0
  147.2168  134.7398  160.9825 O   0  0  0  0  0  0  0  0  0  0  0  0
  148.2395  134.8459  160.0061 C   0  0  0  0  0  0  0  0  0  0  0  0
  148.5779  136.3324  159.7793 C   0  0  1  0  0  0  0  0  0  0  0  0
  149.7730  136.4205  159.0143 O   0  0  0  0  0  0  0  0  0  0  0  0
  149.4662  136.3477  157.6536 C   0  0  2  0  0  0  0  0  0  0  0  0
  150.4029  137.2658  156.8981 N   0  0  0  0  0  0  0  0  0  0  0  0
  150.3853  138.6300  157.1319 C   0  0  0  0  0  0  0  0  0  0  0  0
  151.1930  139.4660  156.4483 C   0  0  0  0  0  0  0  0  0  0  0  0
  151.1519  140.7866  156.6950 F   0  0  0  0  0  0  0  0  0  0  0  0
  152.1023  138.9275  155.4382 C   0  0  0  0  0  0  0  0  0  0  0  0
  152.8435  139.6936  154.8241 O   0  0  0  0  0  0  0  0  0  0  0  0
  152.0848  137.5808  155.2167 N   0  5  0  0  0  0  0  0  0  0  0  0
  151.2615  136.7318  155.8991 C   0  0  0  0  0  0  0  0  0  0  0  0
  151.2156  135.5207  155.6832 O   0  0  0  0  0  0  0  0  0  0  0  0
  147.9792  136.7299  157.4834 C   0  0  2  0  0  0  0  0  0  0  0  0
  147.7998  137.8429  156.6125 O   0  0  0  0  0  0  0  0  0  0  0  0
  146.5873  138.3957  156.4556 C   0  0  0  0  0  0  0  0  0  0  0  0
  146.5783  139.4673  155.3742 C   0  0  0  0  0  0  0  0  0  0  0  0
  145.5708  138.1105  157.0891 O   0  0  0  0  0  0  0  0  0  0  0  0
  147.5688  137.0881  158.9048 C   0  0  1  0  0  0  0  0  0  0  0  0
  146.2197  136.7063  159.1437 O   0  0  0  0  0  0  0  0  0  0  0  0
  145.6480  136.9516  160.3340 C   0  0  0  0  0  0  0  0  0  0  0  0
  144.2248  136.4166  160.4133 C   0  0  0  0  0  0  0  0  0  0  0  0
  146.1723  137.5317  161.2848 O   0  0  0  0  0  0  0  0  0  0  0  0
  145.2233  134.5848  162.4140 H   0  0  0  0  0  0  0  0  0  0  0  0
  146.0655  133.3875  163.4087 H   0  0  0  0  0  0  0  0  0  0  0  0
  144.9152  132.8603  162.1723 H   0  0  0  0  0  0  0  0  0  0  0  0
  149.1213  134.2821  160.3131 H   0  0  0  0  0  0  0  0  0  0  0  0
  147.8752  134.4005  159.0793 H   0  0  0  0  0  0  0  0  0  0  0  0
  148.6998  136.8342  160.7399 H   0  0  0  0  0  0  0  0  0  0  0  0
  149.6816  135.3326  157.3170 H   0  0  0  0  0  0  0  0  0  0  0  0
  149.7092  139.0410  157.8667 H   0  0  0  0  0  0  0  0  0  0  0  0
  147.4537  135.8414  157.1291 H   0  0  0  0  0  0  0  0  0  0  0  0
  147.0160  139.0799  154.4538 H   0  0  0  0  0  0  0  0  0  0  0  0
  147.1571  140.3330  155.6959 H   0  0  0  0  0  0  0  0  0  0  0  0
  145.5589  139.7902  155.1625 H   0  0  0  0  0  0  0  0  0  0  0  0
  147.7085  138.1614  159.0470 H   0  0  0  0  0  0  0  0  0  0  0  0
  143.6157  136.8422  159.6158 H   0  0  0  0  0  0  0  0  0  0  0  0
  143.7707  136.6747  161.3702 H   0  0  0  0  0  0  0  0  0  0  0  0
  144.2222  135.3314  160.3106 H   0  0  0  0  0  0  0  0  0  0  0  0
  1  2  1  0  0  0  0
  1 28  1  0  0  0  0
  1 29  1  0  0  0  0
  1 30  1  0  0  0  0
  2  3  2  0  0  0  0
  2  4  1  0  0  0  0
  4  5  1  0  0  0  0
  5  6  1  0  0  0  0
  5 31  1  0  0  0  0
  5 32  1  0  0  0  0
  6 23  1  0  0  0  0
  6  7  1  0  0  0  0
  6 33  1  0  0  0  0
  7  8  1  0  0  0  0
  8  9  1  0  0  0  0
  8 18  1  0  0  0  0
  8 34  1  0  0  0  0
  9 16  1  0  0  0  0
  9 10  1  0  0  0  0
 10 11  2  0  0  0  0
 10 35  1  0  0  0  0
 11 12  1  0  0  0  0
 11 13  1  0  0  0  0
 13 14  2  0  0  0  0
 13 15  1  0  0  0  0
 15 16  1  0  0  0  0
 16 17  2  0  0  0  0
 18 19  1  0  0  0  0
 18 23  1  0  0  0  0
 18 36  1  0  0  0  0
 19 20  1  0  0  0  0
 20 21  1  0  0  0  0
 20 22  2  0  0  0  0
 21 37  1  0  0  0  0
 21 38  1  0  0  0  0
 21 39  1  0  0  0  0
 23 24  1  0  0  0  0
 23 40  1  0  0  0  0
 24 25  1  0  0  0  0
 25 26  1  0  0  0  0
 25 27  2  0  0  0  0
 26 41  1  0  0  0  0
 26 42  1  0  0  0  0
 26 43  1  0  0  0  0
M  CHG  1  15  -1
M  END
> <s_m_source_file>
AV-unprocessed.smi

> <i_m_source_file_index>
102

> <i_lp_mmshare_version>
43012

> <i_f3d_flags>
0

> <s_epik_input>
W0NIM11DKD1PKU9bQ0gyXVtDQEBIXTFPW0NASF0oW0NAQEhdKE9DKD1PKVtDSDNdKVtDQEhdMU9DKD1PKVtDSDNdKW4yW2NIXWMoRiljKD1PKVtuSF1jMj1P

> <s_epik_cmdline>
J2VwaWtfcHl0aG9uJywgJy1waCcsICc3LjAnLCAnLXRuJywgJzgnLCAnLW1hJywgJzIwMCcsICctbWV0YWxfYmluZGluZycsICctaW1hZScsICc8aW5maWxlLm1hZT4nLCAnLW9tYWUnLCAnPG91dGZpbGUubWFlPic=

> <r_epik_Ionization_Penalty>
1.40304

> <r_epik_Ionization_Penalty_Charging>
1.43915e-08

> <r_epik_Ionization_Penalty_Neutral>
1.40304

> <r_epik_State_Penalty>
1.48536

> <r_epik_Charging_Adjusted_Penalty>
1.48536

> <i_epik_Tot_Q>
-1

> <i_epik_Tot_abs_Q>
1

> <r_epik_Metal_State_Penalty>
0.00663881

> <b_epik_Metal_Only>
0

> <s_epik_Chemistry_Notes>
This compound has an ester and may undergo hydrolysis at high or low pH. This compound contains an acetal/aminal-like group ( X-CH(R)-Y where X, Y are N, S, or O) that may be acid/base labile, releasing an aldehyde.

> <s_lp_Force_Field>
OPLS_2005

> <r_lp_Energy>
24.6661

> <b_lp_Chiralities_Consistent>
1

> <s_lp_Variant>
AV-unprocessed.smi:102-24

> <Gold.Version>
5.8.1

> <Gold.Id.Protein>
6NUR|6NUR_protein|mol2

> <Gold.PLP.Fitness>
39.2675

> <Gold.PLP.PLP>
-27.8326

> <Gold.PLP.part.hbond>
-5.9706

> <Gold.PLP.part.metal>
0.0000

> <Gold.PLP.part.buried>
-5.5702

> <Gold.PLP.part.nonpolar>
-17.1315

> <Gold.PLP.part.repulsive>
0.1603

> <Gold.PLP.ligand.clash>
0.0000

> <Gold.PLP.ligand.torsion>
0.1878

> <Gold.PLP.Chemscore.Hbond>
3.9035

> <Gold.PLP.Chemscore.CHOScore>
0.0000

> <Gold.PLP.Chemscore.Metal>
0.0000

> <Gold.Chemscore.Hbonds>
donor molecule, donor type, donor heavy atom, donor atom, acceptor molecule, acceptor atom, score
      P1  H  6896  6908       L1     7  1.00
      P1  H  6934  6947       L1    27  1.00
      P1  H  7989  7998       L1    14  0.37
      P1  H  7997  8010       L1    14  1.00
      P1  H 10752 10765       L1    17  0.65

> <Gold.PLP.Chemscore.Internal.Correction>
0.1000

> <Gold.Rescore>
     Score         DG    S(hbond)    S(metal)    S(lipo)     H(rot)  DE(clash)    DE(int)     intcor
      2.74      -8.06       2.72        0.00      31.77       4.00       0.36       4.96       ----

> <Gold.Chemscore.Fitness>
2.7380

> <Gold.Chemscore.DG>
-8.0616

> <Gold.Chemscore.ZeroCoef>
-5.4800

> <Gold.Chemscore.Hbond>
2.7221

> <Gold.Chemscore.Metal>
0.0000

> <Gold.Chemscore.Lipo>
31.7709

> <Gold.Chemscore.Internal_Hbond>
0.0000

> <Gold.Chemscore.DEClash>
0.3635

> <Gold.Chemscore.DEInternal>
4.9601

> <Gold.Chemscore.Rot>
3.9951

> <Gold.Chemscore.Internal.Correction>
   9.000000E+99

> <Gold.Chemscore.Hbonds>
donor molecule, donor type, donor heavy atom, donor atom, acceptor molecule, acceptor atom, score
      P1  H  6896  6908       L1     7  0.29
      P1  H  6934  6947       L1    27  0.95
      P1  H  7989  7998       L1    14  0.27
      P1  H  7997  8010       L1    14  0.85
      P1  H 10752 10765       L1    17  0.05

> <Gold.Chemscore.Hbond.Weighted>
-9.0918

> <Gold.Chemscore.Metal.Weighted>
-0.0000

> <Gold.Chemscore.Lipo.Weighted>
-3.7172

> <Gold.Chemscore.Internal_Hbond.Weighted>
0.0000

> <Gold.Chemscore.DEClash.Weighted>
0.3635

> <Gold.Chemscore.DEInternal.Weighted>
4.9601

> <Gold.Chemscore.Rot.Weighted>
10.2274

> <Gold.Chemscore.Internal.Correction.Weighted>
   9.000000E+99

> <Gold.Protein.RotatedTorsions>
[ 6907 6896 6895 6894 ] final -171.19 input  -60.11 | X-H torsion
[ 7974 7965 7964 7962 ] final -153.11 input  175.53 | X-H torsion
[ 8008 7997 7996 7995 ] final  108.44 input   59.86 | X-H torsion
[ 10167 10162 10161 10158 ] final   95.34 input  -65.29 | X-H torsion
[ 10718 10713 10712 10709 ] final -130.57 input   66.30 | X-H torsion
[ 10763 10752 10751 10750 ] final -164.40 input  -60.55 | X-H torsion
[ 11005 11000 10999 10996 ] final  -81.74 input  -57.11 | X-H torsion

> <Gold.Protein.ActiveResidues>
 VAL166  LYS551  ARG553  GLY616  TRP617  ASP618  TYR619  PRO620  LYS621  CYS622 
 ASP623  PHE694  ASN695  SER759  ASP760  ASP761  ALA762  ILE779  LEU786  VAL792 
 PHE793  MET794  SER795  GLU796  ALA797  LYS798  CYS799  TRP800  GLU811  SER814 

> <Gold.Protein.RotatedAtoms>
  151.5199  133.3468  159.2899 H   0  0  0  0  0  0  0  0  0  0  0  0  # atno 6907 bound_to 6896
  150.8659  134.8025  159.7129 H   0  0  0  0  0  0  0  0  0  0  0  0  # atno 6908 bound_to 6896
  152.4664  134.5075  159.9795 H   0  0  0  0  0  0  0  0  0  0  0  0  # atno 6909 bound_to 6896
  144.7758  140.4570  143.5874 H   0  0  0  0  0  0  0  0  0  0  0  0  # atno 7974 bound_to 7965
  156.1903  140.3076  155.9319 H   0  0  0  0  0  0  0  0  0  0  0  0  # atno 8008 bound_to 7997
  155.3189  140.0455  157.3055 H   0  0  0  0  0  0  0  0  0  0  0  0  # atno 8009 bound_to 7997
  154.5444  140.2272  155.8597 H   0  0  0  0  0  0  0  0  0  0  0  0  # atno 8010 bound_to 7997
  139.7998  144.6818  150.9780 H   0  0  0  0  0  0  0  0  0  0  0  0  # atno 10167 bound_to 10162
  156.2157  130.6947  151.0700 H   0  0  0  0  0  0  0  0  0  0  0  0  # atno 10718 bound_to 10713
  154.7032  135.2992  154.9310 H   0  0  0  0  0  0  0  0  0  0  0  0  # atno 10763 bound_to 10752
  154.0236  135.6679  153.4778 H   0  0  0  0  0  0  0  0  0  0  0  0  # atno 10764 bound_to 10752
  153.0697  135.5068  154.8187 H   0  0  0  0  0  0  0  0  0  0  0  0  # atno 10765 bound_to 10752
  141.1665  133.7211  156.8468 H   0  0  0  0  0  0  0  0  0  0  0  0  # atno 11005 bound_to 11000
  145.6191  139.1522  143.3033 LP  0  0  0  0  0  0  0  0  0  0  0  0  # atno 17320 bound_to 7965
  146.1936  140.6302  142.9134 LP  0  0  0  0  0  0  0  0  0  0  0  0  # atno 17321 bound_to 7965
  140.7820  143.4293  151.0719 LP  0  0  0  0  0  0  0  0  0  0  0  0  # atno 17342 bound_to 10162
  139.7966  143.8143  152.3158 LP  0  0  0  0  0  0  0  0  0  0  0  0  # atno 17343 bound_to 10162
  157.7062  131.0755  150.6659 LP  0  0  0  0  0  0  0  0  0  0  0  0  # atno 17370 bound_to 10713
  156.6720  130.4542  149.5654 LP  0  0  0  0  0  0  0  0  0  0  0  0  # atno 17371 bound_to 10713
  140.1944  134.8942  157.3097 LP  0  0  0  0  0  0  0  0  0  0  0  0  # atno 17394 bound_to 11000
  140.2255  134.3972  155.7545 LP  0  0  0  0  0  0  0  0  0  0  0  0  # atno 17395 bound_to 11000

$$$$
