AV-unprocessed.smi:2718|AV-procd|sdf|10487|dock8
  -GOLD-   2272014533D 1   1.00000     0.00000
 Structure written by MMmdl.
 47 48  0  0  0  0  0  0  0  0  1 V2000
  144.9010  134.8644  152.6689 C   0  0  0  0  0  0  0  0  0  0  0  0
  146.0821  133.9199  152.5687 C   0  0  0  0  0  0  0  0  0  0  0  0
  145.9951  132.9168  151.4319 C   0  0  0  0  0  0  0  0  0  0  0  0
  147.1160  133.9875  153.4300 C   0  0  0  0  0  0  0  0  0  0  0  0
  148.3378  133.1308  153.4366 C   0  0  1  0  0  0  0  0  0  0  0  0
  149.5920  133.4261  154.2528 C   0  0  1  0  0  0  0  0  0  0  0  0
  149.6572  134.6526  155.1195 C   0  0  0  0  0  0  0  0  0  0  0  0
  149.7910  134.6336  156.3434 O   0  0  0  0  0  0  0  0  0  0  0  0
  149.5135  135.7971  154.4338 N   0  0  0  0  0  0  0  0  0  0  0  0
  149.4213  137.1230  155.0370 C   0  0  0  0  0  0  0  0  0  0  0  0
  150.2886  138.1609  154.2927 C   0  0  2  0  0  0  0  0  0  0  0  0
  151.7643  138.1356  154.7283 C   0  0  0  0  0  0  0  0  0  0  0  0
  149.7073  139.5414  154.4127 C   0  0  0  0  0  0  0  0  0  0  0  0
  150.3963  140.6005  154.8592 N   0  0  0  0  0  0  0  0  0  0  0  0
  149.5142  141.6616  154.8280 N   0  0  0  0  0  0  0  0  0  0  0  0
  148.3782  141.1388  154.3689 C   0  0  0  0  0  0  0  0  0  0  0  0
  148.4271  139.8271  154.0920 N   0  0  0  0  0  0  0  0  0  0  0  0
  147.3695  138.9731  153.5879 C   0  0  0  0  0  0  0  0  0  0  0  0
  148.7029  132.2389  154.6139 C   0  0  0  0  0  0  0  0  0  0  0  0
  147.8328  132.1876  155.8686 C   0  0  0  0  0  0  0  0  0  0  0  0
  149.2513  130.8486  154.3404 C   0  0  0  0  0  0  0  0  0  0  0  0
  143.9783  134.3028  152.8160 H   0  0  0  0  0  0  0  0  0  0  0  0
  144.8062  135.4473  151.7525 H   0  0  0  0  0  0  0  0  0  0  0  0
  145.0116  135.5593  153.5020 H   0  0  0  0  0  0  0  0  0  0  0  0
  145.9526  133.4386  150.4759 H   0  0  0  0  0  0  0  0  0  0  0  0
  145.0917  132.3149  151.5311 H   0  0  0  0  0  0  0  0  0  0  0  0
  146.8466  132.2377  151.4072 H   0  0  0  0  0  0  0  0  0  0  0  0
  147.0757  134.7303  154.2132 H   0  0  0  0  0  0  0  0  0  0  0  0
  148.5063  132.7091  152.4474 H   0  0  0  0  0  0  0  0  0  0  0  0
  150.5304  133.1793  153.7578 H   0  0  0  0  0  0  0  0  0  0  0  0
  149.4101  135.7418  153.4308 H   0  0  0  0  0  0  0  0  0  0  0  0
  148.3779  137.4437  155.0504 H   0  0  0  0  0  0  0  0  0  0  0  0
  149.7320  137.0502  156.0796 H   0  0  0  0  0  0  0  0  0  0  0  0
  150.2789  137.8880  153.2382 H   0  0  0  0  0  0  0  0  0  0  0  0
  152.3524  138.8501  154.1516 H   0  0  0  0  0  0  0  0  0  0  0  0
  152.2100  137.1524  154.5779 H   0  0  0  0  0  0  0  0  0  0  0  0
  151.8713  138.3908  155.7831 H   0  0  0  0  0  0  0  0  0  0  0  0
  147.4842  141.7299  154.2332 H   0  0  0  0  0  0  0  0  0  0  0  0
  146.4577  139.5524  153.4385 H   0  0  0  0  0  0  0  0  0  0  0  0
  147.1688  138.1747  154.3030 H   0  0  0  0  0  0  0  0  0  0  0  0
  147.6703  138.5362  152.6353 H   0  0  0  0  0  0  0  0  0  0  0  0
  148.4541  132.0264  156.7498 H   0  0  0  0  0  0  0  0  0  0  0  0
  147.1178  131.3672  155.7993 H   0  0  0  0  0  0  0  0  0  0  0  0
  147.2586  133.0998  156.0167 H   0  0  0  0  0  0  0  0  0  0  0  0
  149.8481  130.5028  155.1849 H   0  0  0  0  0  0  0  0  0  0  0  0
  149.8839  130.8482  153.4522 H   0  0  0  0  0  0  0  0  0  0  0  0
  148.4365  130.1431  154.1753 H   0  0  0  0  0  0  0  0  0  0  0  0
  1  2  1  0  0  0  0
  1 22  1  0  0  0  0
  1 23  1  0  0  0  0
  1 24  1  0  0  0  0
  2  3  1  0  0  0  0
  2  4  2  0  0  0  0
  3 25  1  0  0  0  0
  3 26  1  0  0  0  0
  3 27  1  0  0  0  0
  4  5  1  0  0  0  0
  4 28  1  0  0  0  0
  5 19  1  0  0  0  0
  5  6  1  0  0  0  0
  5 29  1  0  0  0  0
  6  7  1  0  0  0  0
  6 19  1  0  0  0  0
  6 30  1  0  0  0  0
  7  8  2  0  0  0  0
  7  9  1  0  0  0  0
  9 10  1  0  0  0  0
  9 31  1  0  0  0  0
 10 11  1  0  0  0  0
 10 32  1  0  0  0  0
 10 33  1  0  0  0  0
 11 12  1  0  0  0  0
 11 13  1  0  0  0  0
 11 34  1  0  0  0  0
 12 35  1  0  0  0  0
 12 36  1  0  0  0  0
 12 37  1  0  0  0  0
 13 17  1  0  0  0  0
 13 14  2  0  0  0  0
 14 15  1  0  0  0  0
 15 16  2  0  0  0  0
 16 17  1  0  0  0  0
 16 38  1  0  0  0  0
 17 18  1  0  0  0  0
 18 39  1  0  0  0  0
 18 40  1  0  0  0  0
 18 41  1  0  0  0  0
 19 20  1  0  0  0  0
 19 21  1  0  0  0  0
 20 42  1  0  0  0  0
 20 43  1  0  0  0  0
 20 44  1  0  0  0  0
 21 45  1  0  0  0  0
 21 46  1  0  0  0  0
 21 47  1  0  0  0  0
M  END
> <s_m_source_file>
AV-unprocessed.smi

> <i_m_source_file_index>
2718

> <i_lp_mmshare_version>
43012

> <i_f3d_flags>
0

> <s_epik_input>
W0NIM11DKFtDSDNdKT1bQ0hdW0NAQEhdKEMxKFtDSDNdKVtDSDNdKVtDQEhdMUMoPU8pW05IXVtDSDJdW0NASF0oW0NIM10pYzJubltjSF1uMltDSDNd

> <s_epik_cmdline>
J2VwaWtfcHl0aG9uJywgJy1waCcsICc3LjAnLCAnLXRuJywgJzgnLCAnLW1hJywgJzIwMCcsICctbWV0YWxfYmluZGluZycsICctaW1hZScsICc8aW5maWxlLm1hZT4nLCAnLW9tYWUnLCAnPG91dGZpbGUubWFlPic=

> <r_lp_tautomer_probability>
1

> <r_epik_Ionization_Penalty>
0.000449586

> <r_epik_Ionization_Penalty_Charging>
0

> <r_epik_Ionization_Penalty_Neutral>
0.000449586

> <r_epik_State_Penalty>
0.000243372

> <r_epik_Charging_Adjusted_Penalty>
0.000243372

> <i_epik_Tot_Q>
0

> <i_epik_Tot_abs_Q>
0

> <r_epik_Metal_State_Penalty>
-0

> <b_epik_Metal_Only>
0

> <s_lp_Force_Field>
OPLS_2005

> <r_lp_Energy>
16.2745

> <b_lp_Chiralities_Consistent>
1

> <s_lp_Variant>
AV-unprocessed.smi:2718-2

> <Gold.Version>
5.8.1

> <Gold.Id.Protein>
6NUR|6NUR_protein|mol2

> <Gold.PLP.Fitness>
41.1854

> <Gold.PLP.PLP>
-36.2898

> <Gold.PLP.part.hbond>
-2.7719

> <Gold.PLP.part.metal>
0.0000

> <Gold.PLP.part.buried>
-2.8110

> <Gold.PLP.part.nonpolar>
-31.4238

> <Gold.PLP.part.repulsive>
0.2849

> <Gold.PLP.ligand.clash>
0.0000

> <Gold.PLP.ligand.torsion>
0.6429

> <Gold.PLP.Chemscore.Hbond>
1.9600

> <Gold.PLP.Chemscore.CHOScore>
0.0000

> <Gold.PLP.Chemscore.Metal>
0.0000

> <Gold.Chemscore.Hbonds>
donor molecule, donor type, donor heavy atom, donor atom, acceptor molecule, acceptor atom, score
      L1  H     9    31       P1  7948  1.00
      P1  H  7989  7998       L1    14  0.94

> <Gold.PLP.Chemscore.Internal.Correction>
0.3014

> <Gold.Rescore>
     Score         DG    S(hbond)    S(metal)    S(lipo)     H(rot)  DE(clash)    DE(int)     intcor
     11.39     -12.29       1.40        0.00      61.05       1.95       0.17       0.74       ----

> <Gold.Chemscore.Fitness>
11.3854

> <Gold.Chemscore.DG>
-12.2897

> <Gold.Chemscore.ZeroCoef>
-5.4800

> <Gold.Chemscore.Hbond>
1.3975

> <Gold.Chemscore.Metal>
0.0000

> <Gold.Chemscore.Lipo>
61.0487

> <Gold.Chemscore.Internal_Hbond>
0.0000

> <Gold.Chemscore.DEClash>
0.1652

> <Gold.Chemscore.DEInternal>
0.7391

> <Gold.Chemscore.Rot>
1.9533

> <Gold.Chemscore.Internal.Correction>
   9.000000E+99

> <Gold.Chemscore.Hbonds>
donor molecule, donor type, donor heavy atom, donor atom, acceptor molecule, acceptor atom, score
      L1  H     9    31       P1  7948  0.34
      P1  H  7989  7998       L1    14  0.20

> <Gold.Chemscore.Hbond.Weighted>
-4.6675

> <Gold.Chemscore.Metal.Weighted>
-0.0000

> <Gold.Chemscore.Lipo.Weighted>
-7.1427

> <Gold.Chemscore.Internal_Hbond.Weighted>
0.0000

> <Gold.Chemscore.DEClash.Weighted>
0.1652

> <Gold.Chemscore.DEInternal.Weighted>
0.7391

> <Gold.Chemscore.Rot.Weighted>
5.0005

> <Gold.Chemscore.Internal.Correction.Weighted>
   9.000000E+99

> <Gold.Protein.RotatedTorsions>
[ 6907 6896 6895 6894 ] final  -43.80 input  -60.11 | X-H torsion
[ 7974 7965 7964 7962 ] final   35.41 input  175.53 | X-H torsion
[ 8008 7997 7996 7995 ] final  -65.67 input   59.86 | X-H torsion
[ 10167 10162 10161 10158 ] final  161.09 input  -65.29 | X-H torsion
[ 10718 10713 10712 10709 ] final  175.06 input   66.30 | X-H torsion
[ 10763 10752 10751 10750 ] final  171.72 input  -60.55 | X-H torsion
[ 11005 11000 10999 10996 ] final   15.58 input  -57.11 | X-H torsion

> <Gold.Protein.ActiveResidues>
 VAL166  LYS551  ARG553  GLY616  TRP617  ASP618  TYR619  PRO620  LYS621  CYS622 
 ASP623  PHE694  ASN695  SER759  ASP760  ASP761  ALA762  ILE779  LEU786  VAL792 
 PHE793  MET794  SER795  GLU796  ALA797  LYS798  CYS799  TRP800  GLU811  SER814 

> <Gold.Protein.RotatedAtoms>
  150.9399  134.8809  159.7605 H   0  0  0  0  0  0  0  0  0  0  0  0  # atno 6907 bound_to 6896
  152.5075  134.3956  159.9409 H   0  0  0  0  0  0  0  0  0  0  0  0  # atno 6908 bound_to 6896
  151.3978  133.3727  159.2763 H   0  0  0  0  0  0  0  0  0  0  0  0  # atno 6909 bound_to 6896
  146.1285  139.6146  142.9243 H   0  0  0  0  0  0  0  0  0  0  0  0  # atno 7974 bound_to 7965
  154.4686  140.0928  156.7086 H   0  0  0  0  0  0  0  0  0  0  0  0  # atno 8008 bound_to 7997
  155.4788  140.3467  155.4318 H   0  0  0  0  0  0  0  0  0  0  0  0  # atno 8009 bound_to 7997
  156.1000  140.1419  156.9469 H   0  0  0  0  0  0  0  0  0  0  0  0  # atno 8010 bound_to 7997
  139.4846  144.4571  151.8754 H   0  0  0  0  0  0  0  0  0  0  0  0  # atno 10167 bound_to 10162
  156.9405  130.9999  151.2969 H   0  0  0  0  0  0  0  0  0  0  0  0  # atno 10718 bound_to 10713
  154.4159  135.2757  155.2006 H   0  0  0  0  0  0  0  0  0  0  0  0  # atno 10763 bound_to 10752
  154.3972  135.6052  153.5880 H   0  0  0  0  0  0  0  0  0  0  0  0  # atno 10764 bound_to 10752
  152.9832  135.5918  154.4448 H   0  0  0  0  0  0  0  0  0  0  0  0  # atno 10765 bound_to 10752
  140.4567  134.1169  155.7710 H   0  0  0  0  0  0  0  0  0  0  0  0  # atno 11005 bound_to 11000
  145.5313  141.0427  143.2381 LP  0  0  0  0  0  0  0  0  0  0  0  0  # atno 17320 bound_to 7965
  144.7666  139.6831  143.7212 LP  0  0  0  0  0  0  0  0  0  0  0  0  # atno 17321 bound_to 7965
  140.4031  144.2467  150.5892 LP  0  0  0  0  0  0  0  0  0  0  0  0  # atno 17342 bound_to 10162
  140.5038  143.2310  151.8638 LP  0  0  0  0  0  0  0  0  0  0  0  0  # atno 17343 bound_to 10162
  157.5788  130.8362  149.8493 LP  0  0  0  0  0  0  0  0  0  0  0  0  # atno 17370 bound_to 10713
  156.0407  130.3740  150.1444 LP  0  0  0  0  0  0  0  0  0  0  0  0  # atno 17371 bound_to 10713
  141.1640  133.8739  157.1768 LP  0  0  0  0  0  0  0  0  0  0  0  0  # atno 17394 bound_to 11000
  139.9972  135.0042  157.0109 LP  0  0  0  0  0  0  0  0  0  0  0  0  # atno 17395 bound_to 11000

$$$$
