AV-unprocessed.smi:2786|AV-procd|sdf|10752|dock3
  -GOLD-   2272015183D 1   1.00000     0.00000
 Structure written by MMmdl.
 27 28  0  0  0  0  0  0  0  0  2 V2000
  152.4870  141.2615  159.1666 C   0  0  0  0  0  0  0  0  0  0  0  0
  152.1656  142.5526  158.5555 N   0  0  0  0  0  0  0  0  0  0  0  0
  152.6640  143.7762  158.9236 C   0  0  0  0  0  0  0  0  0  0  0  0
  152.1026  144.6992  158.0808 C   0  0  0  0  0  0  0  0  0  0  0  0
  151.2841  144.0014  157.2352 N   0  3  0  0  0  0  0  0  0  0  0  0
  151.3130  142.6947  157.5267 C   0  0  0  0  0  0  0  0  0  0  0  0
  150.5550  141.6176  156.8079 C   0  0  2  0  0  0  0  0  0  0  0  0
  151.4810  140.4369  156.4418 C   0  0  0  0  0  0  0  0  0  0  0  0
  150.7354  139.3807  155.7553 N   0  0  0  0  0  0  0  0  0  0  0  0
  150.0730  139.8992  154.5579 C   0  0  0  0  0  0  0  0  0  0  0  0
  149.1413  141.0700  154.9196 C   0  0  0  0  0  0  0  0  0  0  0  0
  149.8812  142.1300  155.6083 N   0  0  0  0  0  0  0  0  0  0  0  0
  153.2838  141.3921  159.8994 H   0  0  0  0  0  0  0  0  0  0  0  0
  152.8191  140.5663  158.3951 H   0  0  0  0  0  0  0  0  0  0  0  0
  151.5997  140.8682  159.6634 H   0  0  0  0  0  0  0  0  0  0  0  0
  153.3660  143.8967  159.7360 H   0  0  0  0  0  0  0  0  0  0  0  0
  152.2218  145.7712  158.0200 H   0  0  0  0  0  0  0  0  0  0  0  0
  149.7979  141.2656  157.5095 H   0  0  0  0  0  0  0  0  0  0  0  0
  152.2966  140.7870  155.8073 H   0  0  0  0  0  0  0  0  0  0  0  0
  151.9418  140.0316  157.3429 H   0  0  0  0  0  0  0  0  0  0  0  0
  151.3700  138.6328  155.4928 H   0  0  0  0  0  0  0  0  0  0  0  0
  150.8174  140.2288  153.8319 H   0  0  0  0  0  0  0  0  0  0  0  0
  149.5006  139.1057  154.0768 H   0  0  0  0  0  0  0  0  0  0  0  0
  148.6790  141.4672  154.0160 H   0  0  0  0  0  0  0  0  0  0  0  0
  148.3282  140.7116  155.5524 H   0  0  0  0  0  0  0  0  0  0  0  0
  149.2312  142.8623  155.8759 H   0  0  0  0  0  0  0  0  0  0  0  0
  150.7284  144.4092  156.4935 H   0  0  0  0  0  0  0  0  0  0  0  0
  1  2  1  0  0  0  0
  1 13  1  0  0  0  0
  1 14  1  0  0  0  0
  1 15  1  0  0  0  0
  2  6  1  0  0  0  0
  2  3  1  0  0  0  0
  3  4  2  0  0  0  0
  3 16  1  0  0  0  0
  4  5  1  0  0  0  0
  4 17  1  0  0  0  0
  5  6  2  0  0  0  0
  5 27  1  0  0  0  0
  6  7  1  0  0  0  0
  7 12  1  0  0  0  0
  7  8  1  0  0  0  0
  7 18  1  0  0  0  0
  8  9  1  0  0  0  0
  8 19  1  0  0  0  0
  8 20  1  0  0  0  0
  9 10  1  0  0  0  0
  9 21  1  0  0  0  0
 10 11  1  0  0  0  0
 10 22  1  0  0  0  0
 10 23  1  0  0  0  0
 11 12  1  0  0  0  0
 11 24  1  0  0  0  0
 11 25  1  0  0  0  0
 12 26  1  0  0  0  0
M  CHG  1   5   1
M  END
> <s_m_source_file>
AV-unprocessed.smi

> <i_m_source_file_index>
2786

> <i_lp_mmshare_version>
43012

> <i_f3d_flags>
0

> <s_epik_input>
W0NIM11uMVtjSF1bY0hdbmMxW0NAQEhdMltDSDJdW05IXVtDSDJdW0NIMl1bTkhdMg==

> <s_epik_cmdline>
J2VwaWtfcHl0aG9uJywgJy1waCcsICc3LjAnLCAnLXRuJywgJzgnLCAnLW1hJywgJzIwMCcsICctbWV0YWxfYmluZGluZycsICctaW1hZScsICc8aW5maWxlLm1hZT4nLCAnLW9tYWUnLCAnPG91dGZpbGUubWFlPic=

> <r_epik_Ionization_Penalty>
1.38811

> <r_epik_Ionization_Penalty_Charging>
0

> <r_epik_Ionization_Penalty_Neutral>
1.38811

> <r_epik_State_Penalty>
1.49833

> <r_epik_Charging_Adjusted_Penalty>
1.49833

> <i_epik_Tot_Q>
1

> <i_epik_Tot_abs_Q>
1

> <r_epik_Metal_State_Penalty>
3.89997

> <b_epik_Metal_Only>
0

> <s_lp_Force_Field>
OPLS_2005

> <r_lp_Energy>
24.8343

> <b_lp_Chiralities_Consistent>
1

> <s_lp_Variant>
AV-unprocessed.smi:2786-5

> <Gold.Version>
5.8.1

> <Gold.Id.Protein>
6NUR|6NUR_protein|mol2

> <Gold.PLP.Fitness>
37.4585

> <Gold.PLP.PLP>
-29.2768

> <Gold.PLP.part.hbond>
-2.0000

> <Gold.PLP.part.metal>
0.0000

> <Gold.PLP.part.buried>
-3.1293

> <Gold.PLP.part.nonpolar>
-23.9446

> <Gold.PLP.part.repulsive>
0.0156

> <Gold.PLP.ligand.clash>
0.0000

> <Gold.PLP.ligand.torsion>
0.1899

> <Gold.PLP.Chemscore.Hbond>
2.8480

> <Gold.PLP.Chemscore.CHOScore>
0.0000

> <Gold.PLP.Chemscore.Metal>
0.0000

> <Gold.Chemscore.Hbonds>
donor molecule, donor type, donor heavy atom, donor atom, acceptor molecule, acceptor atom, score
      L1  H     5    27       P1  8028  1.98
      L1  H    12    26       P1  8028  0.85

> <Gold.PLP.Chemscore.Internal.Correction>
0.0174

> <Gold.Rescore>
     Score         DG    S(hbond)    S(metal)    S(lipo)     H(rot)  DE(clash)    DE(int)     intcor
     15.42     -15.47       1.58        0.00      62.10       1.00       0.01       0.04       ----

> <Gold.Chemscore.Fitness>
15.4204

> <Gold.Chemscore.DG>
-15.4717

> <Gold.Chemscore.ZeroCoef>
-5.4800

> <Gold.Chemscore.Hbond>
1.5825

> <Gold.Chemscore.Metal>
0.0000

> <Gold.Chemscore.Lipo>
62.1031

> <Gold.Chemscore.Internal_Hbond>
0.0000

> <Gold.Chemscore.DEClash>
0.0149

> <Gold.Chemscore.DEInternal>
0.0365

> <Gold.Chemscore.Rot>
1.0000

> <Gold.Chemscore.Internal.Correction>
   9.000000E+99

> <Gold.Chemscore.Hbonds>
donor molecule, donor type, donor heavy atom, donor atom, acceptor molecule, acceptor atom, score
      L1  H     5    27       P1  8028  0.89
      L1  H    12    26       P1  8028  0.83

> <Gold.Chemscore.Hbond.Weighted>
-5.2857

> <Gold.Chemscore.Metal.Weighted>
-0.0000

> <Gold.Chemscore.Lipo.Weighted>
-7.2661

> <Gold.Chemscore.Internal_Hbond.Weighted>
0.0000

> <Gold.Chemscore.DEClash.Weighted>
0.0149

> <Gold.Chemscore.DEInternal.Weighted>
0.0365

> <Gold.Chemscore.Rot.Weighted>
2.5600

> <Gold.Chemscore.Internal.Correction.Weighted>
   9.000000E+99

> <Gold.Protein.RotatedTorsions>
[ 6907 6896 6895 6894 ] final   17.64 input  -60.11 | X-H torsion
[ 7974 7965 7964 7962 ] final  -80.23 input  175.53 | X-H torsion
[ 8008 7997 7996 7995 ] final -127.10 input   59.86 | X-H torsion
[ 10167 10162 10161 10158 ] final  153.82 input  -65.29 | X-H torsion
[ 10718 10713 10712 10709 ] final   -0.70 input   66.30 | X-H torsion
[ 10763 10752 10751 10750 ] final   23.81 input  -60.55 | X-H torsion
[ 11005 11000 10999 10996 ] final -165.49 input  -57.11 | X-H torsion

> <Gold.Protein.ActiveResidues>
 VAL166  LYS551  ARG553  GLY616  TRP617  ASP618  TYR619  PRO620  LYS621  CYS622 
 ASP623  PHE694  ASN695  SER759  ASP760  ASP761  ALA762  ILE779  LEU786  VAL792 
 PHE793  MET794  SER795  GLU796  ALA797  LYS798  CYS799  TRP800  GLU811  SER814 

> <Gold.Protein.RotatedAtoms>
  151.8527  135.0552  160.0460 H   0  0  0  0  0  0  0  0  0  0  0  0  # atno 6907 bound_to 6896
  152.2724  133.5390  159.5455 H   0  0  0  0  0  0  0  0  0  0  0  0  # atno 6908 bound_to 6896
  150.7157  134.0596  159.3869 H   0  0  0  0  0  0  0  0  0  0  0  0  # atno 6909 bound_to 6896
  145.5627  140.9479  143.1438 H   0  0  0  0  0  0  0  0  0  0  0  0  # atno 7974 bound_to 7965
  155.2406  140.0428  157.2974 H   0  0  0  0  0  0  0  0  0  0  0  0  # atno 8008 bound_to 7997
  154.5830  140.2406  155.7996 H   0  0  0  0  0  0  0  0  0  0  0  0  # atno 8009 bound_to 7997
  156.2207  140.2971  155.9953 H   0  0  0  0  0  0  0  0  0  0  0  0  # atno 8010 bound_to 7997
  139.4825  144.5240  151.7830 H   0  0  0  0  0  0  0  0  0  0  0  0  # atno 10167 bound_to 10162
  156.8166  130.5442  149.5702 H   0  0  0  0  0  0  0  0  0  0  0  0  # atno 10718 bound_to 10713
  153.0810  135.6619  154.0045 H   0  0  0  0  0  0  0  0  0  0  0  0  # atno 10763 bound_to 10752
  153.9667  135.2968  155.3431 H   0  0  0  0  0  0  0  0  0  0  0  0  # atno 10764 bound_to 10752
  154.7209  135.5165  153.8882 H   0  0  0  0  0  0  0  0  0  0  0  0  # atno 10765 bound_to 10752
  140.5751  134.5199  157.5169 H   0  0  0  0  0  0  0  0  0  0  0  0  # atno 11005 bound_to 11000
  144.7475  139.7281  143.7286 LP  0  0  0  0  0  0  0  0  0  0  0  0  # atno 17320 bound_to 7965
  146.1839  139.5045  142.9848 LP  0  0  0  0  0  0  0  0  0  0  0  0  # atno 17321 bound_to 7965
  140.4758  144.1522  150.5924 LP  0  0  0  0  0  0  0  0  0  0  0  0  # atno 17342 bound_to 10162
  140.4333  143.2558  151.9568 LP  0  0  0  0  0  0  0  0  0  0  0  0  # atno 17343 bound_to 10162
  156.1013  130.5971  150.9898 LP  0  0  0  0  0  0  0  0  0  0  0  0  # atno 17370 bound_to 10713
  157.6478  131.0901  150.8115 LP  0  0  0  0  0  0  0  0  0  0  0  0  # atno 17371 bound_to 10713
  139.9343  134.7904  156.0844 LP  0  0  0  0  0  0  0  0  0  0  0  0  # atno 17394 bound_to 11000
  141.1032  133.6669  156.2802 LP  0  0  0  0  0  0  0  0  0  0  0  0  # atno 17395 bound_to 11000

$$$$
