AV-unprocessed.smi:2717|AV-procd|sdf|10485|dock6
  -GOLD-   2272014533D 1   1.00000     0.00000
 Structure written by MMmdl.
 43 44  0  0  0  0  0  0  0  0  1 V2000
  150.5559  141.7559  157.8430 C   0  0  0  0  0  0  0  0  0  0  0  0
  151.4257  140.6441  157.2463 C   0  0  0  0  0  0  0  0  0  0  0  0
  150.7002  139.8340  156.2248 C   0  0  0  0  0  0  0  0  0  0  0  0
  149.4233  140.0414  155.8914 N   0  0  0  0  0  0  0  0  0  0  0  0
  148.9813  139.1724  154.8893 C   0  0  0  0  0  0  0  0  0  0  0  0
  147.5619  139.2434  154.4058 C   0  0  0  0  0  0  0  0  0  0  0  0
  146.7382  137.9795  154.7271 C   0  0  0  0  0  0  0  0  0  0  0  0
  146.9158  136.9173  153.7412 N   0  0  0  0  0  0  0  0  0  0  0  0
  146.0899  135.8754  153.5761 C   0  0  0  0  0  0  0  0  0  0  0  0
  145.0923  135.6690  154.2676 O   0  0  0  0  0  0  0  0  0  0  0  0
  146.4702  135.0990  152.5521 N   0  0  0  0  0  0  0  0  0  0  0  0
  145.7498  133.9223  152.0769 C   0  0  2  0  0  0  0  0  0  0  0  0
  146.3629  133.4441  150.7484 C   0  0  0  0  0  0  0  0  0  0  0  0
  145.6005  132.2360  150.1762 C   0  0  0  0  0  0  0  0  0  0  0  0
  144.0935  132.5162  150.0236 C   0  0  2  0  0  0  0  0  0  0  0  0
  143.8758  133.4485  148.9831 O   0  0  0  0  0  0  0  0  0  0  0  0
  143.4785  133.0388  151.3353 C   0  0  0  0  0  0  0  0  0  0  0  0
  144.2512  134.2422  151.9032 C   0  0  0  0  0  0  0  0  0  0  0  0
  149.9547  138.3076  154.4540 C   0  0  0  0  0  0  0  0  0  0  0  0
  151.4620  138.5510  155.2914 S   0  0  0  0  0  0  0  0  0  0  0  0
  151.1129  142.3301  158.5836 H   0  0  0  0  0  0  0  0  0  0  0  0
  149.6739  141.3444  158.3348 H   0  0  0  0  0  0  0  0  0  0  0  0
  150.2176  142.4471  157.0704 H   0  0  0  0  0  0  0  0  0  0  0  0
  152.3137  141.0750  156.7831 H   0  0  0  0  0  0  0  0  0  0  0  0
  151.7767  139.9810  158.0383 H   0  0  0  0  0  0  0  0  0  0  0  0
  147.0641  140.1119  154.8382 H   0  0  0  0  0  0  0  0  0  0  0  0
  147.5520  139.4121  153.3284 H   0  0  0  0  0  0  0  0  0  0  0  0
  147.0520  137.5799  155.6917 H   0  0  0  0  0  0  0  0  0  0  0  0
  145.6805  138.2281  154.8254 H   0  0  0  0  0  0  0  0  0  0  0  0
  147.7069  137.0017  153.1195 H   0  0  0  0  0  0  0  0  0  0  0  0
  147.3046  135.3558  152.0453 H   0  0  0  0  0  0  0  0  0  0  0  0
  145.8574  133.1187  152.8085 H   0  0  0  0  0  0  0  0  0  0  0  0
  146.3526  134.2578  150.0216 H   0  0  0  0  0  0  0  0  0  0  0  0
  147.4103  133.1774  150.8955 H   0  0  0  0  0  0  0  0  0  0  0  0
  146.0299  131.9407  149.2182 H   0  0  0  0  0  0  0  0  0  0  0  0
  145.7370  131.3847  150.8443 H   0  0  0  0  0  0  0  0  0  0  0  0
  143.5871  131.5945  149.7354 H   0  0  0  0  0  0  0  0  0  0  0  0
  144.6915  133.8879  148.7975 H   0  0  0  0  0  0  0  0  0  0  0  0
  142.4316  133.3039  151.1836 H   0  0  0  0  0  0  0  0  0  0  0  0
  143.4835  132.2363  152.0740 H   0  0  0  0  0  0  0  0  0  0  0  0
  143.8150  134.5343  152.8593 H   0  0  0  0  0  0  0  0  0  0  0  0
  144.1307  135.0987  151.2382 H   0  0  0  0  0  0  0  0  0  0  0  0
  149.8734  137.5417  153.6968 H   0  0  0  0  0  0  0  0  0  0  0  0
  1  2  1  0  0  0  0
  1 21  1  0  0  0  0
  1 22  1  0  0  0  0
  1 23  1  0  0  0  0
  2  3  1  0  0  0  0
  2 24  1  0  0  0  0
  2 25  1  0  0  0  0
  3 20  1  0  0  0  0
  3  4  2  0  0  0  0
  4  5  1  0  0  0  0
  5  6  1  0  0  0  0
  5 19  2  0  0  0  0
  6  7  1  0  0  0  0
  6 26  1  0  0  0  0
  6 27  1  0  0  0  0
  7  8  1  0  0  0  0
  7 28  1  0  0  0  0
  7 29  1  0  0  0  0
  8  9  1  0  0  0  0
  8 30  1  0  0  0  0
  9 10  2  0  0  0  0
  9 11  1  0  0  0  0
 11 12  1  0  0  0  0
 11 31  1  0  0  0  0
 12 18  1  0  0  0  0
 12 13  1  0  0  0  0
 12 32  1  0  0  0  0
 13 14  1  0  0  0  0
 13 33  1  0  0  0  0
 13 34  1  0  0  0  0
 14 15  1  0  0  0  0
 14 35  1  0  0  0  0
 14 36  1  0  0  0  0
 15 16  1  0  0  0  0
 15 17  1  0  0  0  0
 15 37  1  0  0  0  0
 16 38  1  0  0  0  0
 17 18  1  0  0  0  0
 17 39  1  0  0  0  0
 17 40  1  0  0  0  0
 18 41  1  0  0  0  0
 18 42  1  0  0  0  0
 19 20  1  0  0  0  0
 19 43  1  0  0  0  0
M  END
> <s_m_source_file>
AV-unprocessed.smi

> <i_m_source_file_index>
2717

> <i_lp_mmshare_version>
43012

> <i_f3d_flags>
0

> <s_epik_input>
W0NIM11bQ0gyXWMxbmMoW2NIXXMxKVtDSDJdW0NIMl1bTkhdQyg9TylbTkhdW0NAQEhdMltDSDJdW0NIMl1bQ0BASF0oW09IXSlbQ0gyXVtDSDJdMg==

> <s_epik_cmdline>
J2VwaWtfcHl0aG9uJywgJy1waCcsICc3LjAnLCAnLXRuJywgJzgnLCAnLW1hJywgJzIwMCcsICctbWV0YWxfYmluZGluZycsICctaW1hZScsICc8aW5maWxlLm1hZT4nLCAnLW9tYWUnLCAnPG91dGZpbGUubWFlPic=

> <r_epik_Ionization_Penalty>
0.00202099

> <r_epik_Ionization_Penalty_Charging>
0

> <r_epik_Ionization_Penalty_Neutral>
0.00202099

> <r_epik_State_Penalty>
0.00133629

> <r_epik_Charging_Adjusted_Penalty>
0.00133629

> <i_epik_Tot_Q>
0

> <i_epik_Tot_abs_Q>
0

> <r_epik_Metal_State_Penalty>
-0

> <b_epik_Metal_Only>
0

> <s_lp_Force_Field>
OPLS_2005

> <r_lp_Energy>
0.0101123

> <b_lp_Chiralities_Consistent>
1

> <s_lp_Variant>
AV-unprocessed.smi:2717-2

> <Gold.Version>
5.8.1

> <Gold.Id.Protein>
6NUR|6NUR_protein|mol2

> <Gold.PLP.Fitness>
48.5134

> <Gold.PLP.PLP>
-37.2641

> <Gold.PLP.part.hbond>
-3.1332

> <Gold.PLP.part.metal>
0.0000

> <Gold.PLP.part.buried>
-6.0242

> <Gold.PLP.part.nonpolar>
-28.7305

> <Gold.PLP.part.repulsive>
0.1309

> <Gold.PLP.ligand.clash>
0.0000

> <Gold.PLP.ligand.torsion>
0.3978

> <Gold.PLP.Chemscore.Hbond>
2.9680

> <Gold.PLP.Chemscore.CHOScore>
1.0383

> <Gold.PLP.Chemscore.Metal>
0.0000

> <Gold.Chemscore.Hbonds>
donor molecule, donor type, donor heavy atom, donor atom, acceptor molecule, acceptor atom, score
      L1  H     8    30       P1  7948  1.00
      L1  H    11    31       P1  7948  1.00
      L1  H    16    38       P1  7921  0.91
      L1  C    19    43       P1  7948  1.00

> <Gold.PLP.Chemscore.Internal.Correction>
0.0261

> <Gold.Rescore>
     Score         DG    S(hbond)    S(metal)    S(lipo)     H(rot)  DE(clash)    DE(int)     intcor
     18.28     -20.22       2.84        0.00      93.15       2.21       0.10       1.84       ----

> <Gold.Chemscore.Fitness>
18.2755

> <Gold.Chemscore.DG>
-20.2188

> <Gold.Chemscore.ZeroCoef>
-5.4800

> <Gold.Chemscore.Hbond>
2.8423

> <Gold.Chemscore.Metal>
0.0000

> <Gold.Chemscore.Lipo>
93.1540

> <Gold.Chemscore.Internal_Hbond>
0.0000

> <Gold.Chemscore.DEClash>
0.1023

> <Gold.Chemscore.DEInternal>
1.8410

> <Gold.Chemscore.Rot>
2.2084

> <Gold.Chemscore.Internal.Correction>
   9.000000E+99

> <Gold.Chemscore.Hbonds>
donor molecule, donor type, donor heavy atom, donor atom, acceptor molecule, acceptor atom, score
      L1  H     8    30       P1  7948  0.95
      L1  H    11    31       P1  7948  0.98
      L1  H    16    38       P1  7921  0.87

> <Gold.Chemscore.Hbond.Weighted>
-9.4933

> <Gold.Chemscore.Metal.Weighted>
-0.0000

> <Gold.Chemscore.Lipo.Weighted>
-10.8990

> <Gold.Chemscore.Internal_Hbond.Weighted>
0.0000

> <Gold.Chemscore.DEClash.Weighted>
0.1023

> <Gold.Chemscore.DEInternal.Weighted>
1.8410

> <Gold.Chemscore.Rot.Weighted>
5.6535

> <Gold.Chemscore.Internal.Correction.Weighted>
   9.000000E+99

> <Gold.Protein.RotatedTorsions>
[ 6907 6896 6895 6894 ] final  169.95 input  -60.11 | X-H torsion
[ 7974 7965 7964 7962 ] final  -95.61 input  175.53 | X-H torsion
[ 8008 7997 7996 7995 ] final  -24.94 input   59.86 | X-H torsion
[ 10167 10162 10161 10158 ] final   -0.24 input  -65.29 | X-H torsion
[ 10718 10713 10712 10709 ] final -105.41 input   66.30 | X-H torsion
[ 10763 10752 10751 10750 ] final   15.93 input  -60.55 | X-H torsion
[ 11005 11000 10999 10996 ] final  117.93 input  -57.11 | X-H torsion

> <Gold.Protein.ActiveResidues>
 VAL166  LYS551  ARG553  GLY616  TRP617  ASP618  TYR619  PRO620  LYS621  CYS622 
 ASP623  PHE694  ASN695  SER759  ASP760  ASP761  ALA762  ILE779  LEU786  VAL792 
 PHE793  MET794  SER795  GLU796  ALA797  LYS798  CYS799  TRP800  GLU811  SER814 

> <Gold.Protein.RotatedAtoms>
  151.8238  133.3398  159.3591 H   0  0  0  0  0  0  0  0  0  0  0  0  # atno 6907 bound_to 6896
  150.7286  134.5548  159.5822 H   0  0  0  0  0  0  0  0  0  0  0  0  # atno 6908 bound_to 6896
  152.2986  134.7638  160.0414 H   0  0  0  0  0  0  0  0  0  0  0  0  # atno 6909 bound_to 6896
  145.3578  140.9487  143.2517 H   0  0  0  0  0  0  0  0  0  0  0  0  # atno 7974 bound_to 7965
  154.4502  140.1940  156.0542 H   0  0  0  0  0  0  0  0  0  0  0  0  # atno 8008 bound_to 7997
  156.0631  140.3294  155.7458 H   0  0  0  0  0  0  0  0  0  0  0  0  # atno 8009 bound_to 7997
  155.5380  140.0584  157.2866 H   0  0  0  0  0  0  0  0  0  0  0  0  # atno 8010 bound_to 7997
  140.6759  143.6918  150.8022 H   0  0  0  0  0  0  0  0  0  0  0  0  # atno 10167 bound_to 10162
  156.0345  130.5562  150.7536 H   0  0  0  0  0  0  0  0  0  0  0  0  # atno 10718 bound_to 10713
  153.1479  135.6773  153.8927 H   0  0  0  0  0  0  0  0  0  0  0  0  # atno 10763 bound_to 10752
  153.8363  135.3111  155.3424 H   0  0  0  0  0  0  0  0  0  0  0  0  # atno 10764 bound_to 10752
  154.7839  135.4873  153.9989 H   0  0  0  0  0  0  0  0  0  0  0  0  # atno 10765 bound_to 10752
  139.9091  134.9615  156.7425 H   0  0  0  0  0  0  0  0  0  0  0  0  # atno 11005 bound_to 11000
  144.8669  139.5095  143.6786 LP  0  0  0  0  0  0  0  0  0  0  0  0  # atno 17320 bound_to 7965
  146.2940  139.7223  142.9140 LP  0  0  0  0  0  0  0  0  0  0  0  0  # atno 17321 bound_to 7965
  140.0610  143.5154  152.2627 LP  0  0  0  0  0  0  0  0  0  0  0  0  # atno 17342 bound_to 10162
  139.6051  144.7594  151.3081 LP  0  0  0  0  0  0  0  0  0  0  0  0  # atno 17343 bound_to 10162
  157.5074  131.0923  151.0241 LP  0  0  0  0  0  0  0  0  0  0  0  0  # atno 17370 bound_to 10713
  157.0605  130.5823  149.5385 LP  0  0  0  0  0  0  0  0  0  0  0  0  # atno 17371 bound_to 10713
  140.6838  133.9451  155.7925 LP  0  0  0  0  0  0  0  0  0  0  0  0  # atno 17394 bound_to 11000
  141.0491  134.0510  157.3806 LP  0  0  0  0  0  0  0  0  0  0  0  0  # atno 17395 bound_to 11000

$$$$
