AV-unprocessed.smi:1585|AV-procd|sdf|6372|dock4
  -GOLD-   22720 7 03D 1   1.00000     0.00000
 Structure written by MMmdl.
 42 43  0  0  0  0  0  0  0  0  3 V2000
  150.7897  142.9078  158.4543 C   0  0  0  0  0  0  0  0  0  0  0  0
  151.2178  141.7994  157.5546 C   0  0  0  0  0  0  0  0  0  0  0  0
  150.8926  141.4669  156.2701 C   0  0  0  0  0  0  0  0  0  0  0  0
  151.6590  140.2931  156.0344 C   0  0  0  0  0  0  0  0  0  0  0  0
  151.6899  139.5855  154.8943 N   0  5  0  0  0  0  0  0  0  0  0  0
  151.1057  138.3676  154.8335 C   0  0  0  0  0  0  0  0  0  0  0  0
  151.6842  137.2788  154.8222 O   0  0  0  0  0  0  0  0  0  0  0  0
  149.7678  138.4150  154.7753 N   0  0  0  0  0  0  0  0  0  0  0  0
  148.8744  137.2663  154.6719 C   0  0  0  0  0  0  0  0  0  0  0  0
  147.4171  137.6968  154.4026 C   0  0  1  0  0  0  0  0  0  0  0  0
  147.3556  138.2988  153.1242 O   0  0  0  0  0  0  0  0  0  0  0  0
  146.4615  136.4875  154.3743 C   0  0  0  0  0  0  0  0  0  0  0  0
  146.3772  135.8658  153.0278 N   0  3  0  0  0  0  0  0  0  0  0  0
  146.3886  134.3812  153.0881 C   0  0  0  0  0  0  0  0  0  0  0  0
  146.4504  133.7676  151.6790 C   0  0  0  0  0  0  0  0  0  0  0  0
  145.2904  134.2687  150.8093 C   0  0  0  0  0  0  0  0  0  0  0  0
  145.2777  135.8027  150.7877 C   0  0  0  0  0  0  0  0  0  0  0  0
  145.2394  136.3742  152.2150 C   0  0  0  0  0  0  0  0  0  0  0  0
  152.3978  139.9534  157.0774 N   0  0  0  0  0  0  0  0  0  0  0  0
  152.1164  140.9114  158.0587 O   0  0  0  0  0  0  0  0  0  0  0  0
  151.4580  143.7633  158.3558 H   0  0  0  0  0  0  0  0  0  0  0  0
  150.7972  142.5890  159.4972 H   0  0  0  0  0  0  0  0  0  0  0  0
  149.7795  143.2366  158.2096 H   0  0  0  0  0  0  0  0  0  0  0  0
  150.2124  141.9783  155.6056 H   0  0  0  0  0  0  0  0  0  0  0  0
  149.3381  139.3285  154.7943 H   0  0  0  0  0  0  0  0  0  0  0  0
  149.2313  136.5454  153.9339 H   0  0  0  0  0  0  0  0  0  0  0  0
  148.9331  136.7615  155.6364 H   0  0  0  0  0  0  0  0  0  0  0  0
  147.1006  138.4161  155.1581 H   0  0  0  0  0  0  0  0  0  0  0  0
  147.6456  137.6644  152.4838 H   0  0  0  0  0  0  0  0  0  0  0  0
  146.8124  135.7545  155.1030 H   0  0  0  0  0  0  0  0  0  0  0  0
  145.4605  136.7779  154.6971 H   0  0  0  0  0  0  0  0  0  0  0  0
  147.2530  134.0425  153.6607 H   0  0  0  0  0  0  0  0  0  0  0  0
  145.5000  134.0300  153.6151 H   0  0  0  0  0  0  0  0  0  0  0  0
  147.3997  134.0266  151.2080 H   0  0  0  0  0  0  0  0  0  0  0  0
  146.4244  132.6794  151.7444 H   0  0  0  0  0  0  0  0  0  0  0  0
  145.3817  133.8774  149.7957 H   0  0  0  0  0  0  0  0  0  0  0  0
  144.3443  133.8962  151.2047 H   0  0  0  0  0  0  0  0  0  0  0  0
  146.1648  136.1700  150.2699 H   0  0  0  0  0  0  0  0  0  0  0  0
  144.4179  136.1597  150.2198 H   0  0  0  0  0  0  0  0  0  0  0  0
  144.2982  136.1073  152.6982 H   0  0  0  0  0  0  0  0  0  0  0  0
  145.2664  137.4620  152.1604 H   0  0  0  0  0  0  0  0  0  0  0  0
  147.2257  136.1332  152.5485 H   0  0  0  0  0  0  0  0  0  0  0  0
  1  2  1  0  0  0  0
  1 21  1  0  0  0  0
  1 22  1  0  0  0  0
  1 23  1  0  0  0  0
  2 20  1  0  0  0  0
  2  3  2  0  0  0  0
  3  4  1  0  0  0  0
  3 24  1  0  0  0  0
  4  5  1  0  0  0  0
  4 19  2  0  0  0  0
  5  6  1  0  0  0  0
  6  7  2  0  0  0  0
  6  8  1  0  0  0  0
  8  9  1  0  0  0  0
  8 25  1  0  0  0  0
  9 10  1  0  0  0  0
  9 26  1  0  0  0  0
  9 27  1  0  0  0  0
 10 11  1  0  0  0  0
 10 12  1  0  0  0  0
 10 28  1  0  0  0  0
 11 29  1  0  0  0  0
 12 13  1  0  0  0  0
 12 30  1  0  0  0  0
 12 31  1  0  0  0  0
 13 18  1  0  0  0  0
 13 14  1  0  0  0  0
 13 42  1  0  0  0  0
 14 15  1  0  0  0  0
 14 32  1  0  0  0  0
 14 33  1  0  0  0  0
 15 16  1  0  0  0  0
 15 34  1  0  0  0  0
 15 35  1  0  0  0  0
 16 17  1  0  0  0  0
 16 36  1  0  0  0  0
 16 37  1  0  0  0  0
 17 18  1  0  0  0  0
 17 38  1  0  0  0  0
 17 39  1  0  0  0  0
 18 40  1  0  0  0  0
 18 41  1  0  0  0  0
 19 20  1  0  0  0  0
M  CHG  1   5  -1
M  CHG  1  13   1
M  END
> <s_m_source_file>
AV-unprocessed.smi

> <i_m_source_file_index>
1585

> <i_lp_mmshare_version>
43012

> <i_f3d_flags>
0

> <s_epik_input>
W0NIM11jMVtjSF1jKG5vMSlbTkhdQyg9TylbTkhdW0NIMl1bQ0BIXShbT0hdKVtDSDJdTjJbQ0gyXVtDSDJdW0NIMl1bQ0gyXVtDSDJdMg==

> <s_epik_cmdline>
J2VwaWtfcHl0aG9uJywgJy1waCcsICc3LjAnLCAnLXRuJywgJzgnLCAnLW1hJywgJzIwMCcsICctbWV0YWxfYmluZGluZycsICctaW1hZScsICc8aW5maWxlLm1hZT4nLCAnLW9tYWUnLCAnPG91dGZpbGUubWFlPic=

> <r_epik_Ionization_Penalty>
6.29903

> <r_epik_Ionization_Penalty_Charging>
6.29893

> <r_epik_Ionization_Penalty_Neutral>
0.000107719

> <r_epik_State_Penalty>
6.29786

> <r_epik_Charging_Adjusted_Penalty>
12.5968

> <i_epik_Tot_Q>
0

> <i_epik_Tot_abs_Q>
2

> <r_epik_Metal_State_Penalty>
2.22942

> <b_epik_Metal_Only>
1

> <s_lp_Force_Field>
OPLS_2005

> <r_lp_Energy>
6.33274

> <b_lp_Chiralities_Consistent>
1

> <s_lp_Variant>
AV-unprocessed.smi:1585-4

> <Gold.Version>
5.8.1

> <Gold.Id.Protein>
6NUR|6NUR_protein|mol2

> <Gold.PLP.Fitness>
43.9890

> <Gold.PLP.PLP>
-30.4463

> <Gold.PLP.part.hbond>
-5.0000

> <Gold.PLP.part.metal>
0.0000

> <Gold.PLP.part.buried>
-4.3620

> <Gold.PLP.part.nonpolar>
-21.7999

> <Gold.PLP.part.repulsive>
0.2096

> <Gold.PLP.ligand.clash>
0.0000

> <Gold.PLP.ligand.torsion>
2.2917

> <Gold.PLP.Chemscore.Hbond>
6.0000

> <Gold.PLP.Chemscore.CHOScore>
0.0000

> <Gold.PLP.Chemscore.Metal>
0.0000

> <Gold.Chemscore.Hbonds>
donor molecule, donor type, donor heavy atom, donor atom, acceptor molecule, acceptor atom, score
      L1  H    11    29       P1  7948  1.00
      L1  H    13    42       P1  7948  2.00
      P1  H  7989  7998       L1     5  1.00
      P1  H  7997  8010       L1    19  0.99
      P1  H 10752 10765       L1     7  0.83

> <Gold.PLP.Chemscore.Internal.Correction>
0.1261

> <Gold.Rescore>
     Score         DG    S(hbond)    S(metal)    S(lipo)     H(rot)  DE(clash)    DE(int)     intcor
     17.44     -19.89       4.36        0.00      52.30       2.45       0.21       2.23       ----

> <Gold.Chemscore.Fitness>
17.4438

> <Gold.Chemscore.DG>
-19.8890

> <Gold.Chemscore.ZeroCoef>
-5.4800

> <Gold.Chemscore.Hbond>
4.3567

> <Gold.Chemscore.Metal>
0.0000

> <Gold.Chemscore.Lipo>
52.3014

> <Gold.Chemscore.Internal_Hbond>
0.0000

> <Gold.Chemscore.DEClash>
0.2107

> <Gold.Chemscore.DEInternal>
2.2344

> <Gold.Chemscore.Rot>
2.4459

> <Gold.Chemscore.Internal.Correction>
   9.000000E+99

> <Gold.Chemscore.Hbonds>
donor molecule, donor type, donor heavy atom, donor atom, acceptor molecule, acceptor atom, score
      L1  H    11    29       P1  7948  0.91
      L1  H    13    42       P1  7948  1.00
      P1  H  7989  7998       L1     5  0.54
      P1  H  7997  8010       L1    19  0.43
      P1  H 10752 10765       L1     7  0.79

> <Gold.Chemscore.Hbond.Weighted>
-14.5513

> <Gold.Chemscore.Metal.Weighted>
-0.0000

> <Gold.Chemscore.Lipo.Weighted>
-6.1193

> <Gold.Chemscore.Internal_Hbond.Weighted>
0.0000

> <Gold.Chemscore.DEClash.Weighted>
0.2107

> <Gold.Chemscore.DEInternal.Weighted>
2.2344

> <Gold.Chemscore.Rot.Weighted>
6.2615

> <Gold.Chemscore.Internal.Correction.Weighted>
   9.000000E+99

> <Gold.Protein.RotatedTorsions>
[ 6907 6896 6895 6894 ] final  139.18 input  -60.11 | X-H torsion
[ 7974 7965 7964 7962 ] final  -73.84 input  175.53 | X-H torsion
[ 8008 7997 7996 7995 ] final   55.90 input   59.86 | X-H torsion
[ 10167 10162 10161 10158 ] final  -36.43 input  -65.29 | X-H torsion
[ 10718 10713 10712 10709 ] final  -69.78 input   66.30 | X-H torsion
[ 10763 10752 10751 10750 ] final  167.01 input  -60.55 | X-H torsion
[ 11005 11000 10999 10996 ] final   93.25 input  -57.11 | X-H torsion

> <Gold.Protein.ActiveResidues>
 VAL166  LYS551  ARG553  GLY616  TRP617  ASP618  TYR619  PRO620  LYS621  CYS622 
 ASP623  PHE694  ASN695  SER759  ASP760  ASP761  ALA762  ILE779  LEU786  VAL792 
 PHE793  MET794  SER795  GLU796  ALA797  LYS798  CYS799  TRP800  GLU811  SER814 

> <Gold.Protein.RotatedAtoms>
  152.2579  133.5272  159.5364 H   0  0  0  0  0  0  0  0  0  0  0  0  # atno 6907 bound_to 6896
  150.7115  134.0870  159.3927 H   0  0  0  0  0  0  0  0  0  0  0  0  # atno 6908 bound_to 6896
  151.8788  135.0461  160.0537 H   0  0  0  0  0  0  0  0  0  0  0  0  # atno 6909 bound_to 6896
  145.6470  140.9294  143.1005 H   0  0  0  0  0  0  0  0  0  0  0  0  # atno 7974 bound_to 7965
  155.5086  140.3476  155.4384 H   0  0  0  0  0  0  0  0  0  0  0  0  # atno 8008 bound_to 7997
  156.0865  140.1399  156.9674 H   0  0  0  0  0  0  0  0  0  0  0  0  # atno 8009 bound_to 7997
  154.4609  140.0935  156.6868 H   0  0  0  0  0  0  0  0  0  0  0  0  # atno 8010 bound_to 7997
  140.7143  143.3409  151.2359 H   0  0  0  0  0  0  0  0  0  0  0  0  # atno 10167 bound_to 10162
  156.0439  130.4319  150.2199 H   0  0  0  0  0  0  0  0  0  0  0  0  # atno 10718 bound_to 10713
  154.3475  135.2753  155.2390 H   0  0  0  0  0  0  0  0  0  0  0  0  # atno 10763 bound_to 10752
  154.4633  135.5901  153.6274 H   0  0  0  0  0  0  0  0  0  0  0  0  # atno 10764 bound_to 10752
  152.9852  135.6070  154.3682 H   0  0  0  0  0  0  0  0  0  0  0  0  # atno 10765 bound_to 10752
  139.8812  134.8779  156.3691 H   0  0  0  0  0  0  0  0  0  0  0  0  # atno 11005 bound_to 11000
  144.7136  139.8277  143.7406 LP  0  0  0  0  0  0  0  0  0  0  0  0  # atno 17320 bound_to 7965
  146.1235  139.4257  143.0213 LP  0  0  0  0  0  0  0  0  0  0  0  0  # atno 17321 bound_to 7965
  139.6916  143.9682  152.2862 LP  0  0  0  0  0  0  0  0  0  0  0  0  # atno 17342 bound_to 10162
  139.9345  144.6720  150.8328 LP  0  0  0  0  0  0  0  0  0  0  0  0  # atno 17343 bound_to 10162
  157.0291  131.0002  151.3317 LP  0  0  0  0  0  0  0  0  0  0  0  0  # atno 17370 bound_to 10713
  157.5290  130.8046  149.7895 LP  0  0  0  0  0  0  0  0  0  0  0  0  # atno 17371 bound_to 10713
  140.9476  133.7472  156.0229 LP  0  0  0  0  0  0  0  0  0  0  0  0  # atno 17394 bound_to 11000
  140.8144  134.3362  157.5402 LP  0  0  0  0  0  0  0  0  0  0  0  0  # atno 17395 bound_to 11000

$$$$
