#       Name:                AV-unprocessed.smi:196
#       Creating user name   scv26
#       Creation time:       Thu Mar 26 19:40:19 2020


#       File generated by GOLD software.
#

@<TRIPOS>MOLECULE
AV-unprocessed.smi:196
    57    60     1
SMALL
NO_CHARGES


@<TRIPOS>ATOM
      1 ****        -1.9273  -2.4213  -4.8430 C.3            1 S1                 0.0000
      2 ****        -2.8729  -1.5061  -4.0494 C.3            1 S1                 0.0000
      3 ****        -3.8578  -2.3362  -3.4381 O.3            1 S1                 0.0000
      4 ****        -4.2598  -1.7484  -2.2138 C.3            1 S1                 0.0000
      5 ****        -2.9456  -1.2251  -1.6554 C.3            1 S1                 0.0000
      6 ****        -2.2406  -0.6791  -2.8938 C.3            1 S1                 0.0000
      7 ****        -2.6434   0.6706  -3.0577 O.3            1 S1                 0.0000
      8 ****        -0.6927  -0.7021  -2.7935 C.3            1 S1                 0.0000
      9 ****        -0.1778   0.0245  -1.6426 N.pl3          1 S1                 0.0000
     10 ****         0.0841   1.3749  -1.5681 C.2            1 S1                 0.0000
     11 ****         0.5375   1.7926  -0.4176 N.2            1 S1                 0.0000
     12 ****         0.6062   0.6398   0.3531 C.ar           1 S1                 0.0000
     13 ****         1.0155   0.3671   1.6835 C.ar           1 S1                 0.0000
     14 ****         1.4523   1.3443   2.5084 N.3            1 S1                 0.0000
     15 ****         0.5047   1.7657   3.5352 C.3            1 S1                 0.0000
     16 ****         1.3151   1.9332   4.8235 C.3            1 S1                 0.0000
     17 ****         1.2223   0.8196   5.5521 F              1 S1                 0.0000
     18 ****         2.7475   2.0956   4.3242 C.3            1 S1                 0.0000
     19 ****         2.7868   1.1865   3.0895 C.3            1 S1                 0.0000
     20 ****         3.8975   1.5917   2.1095 C.2            1 S1                 0.0000
     21 ****         5.0628   0.9508   2.2247 N.am           1 S1                 0.0000
     22 ****         3.7164   2.4735   1.2710 O.2            1 S1                 0.0000
     23 ****         0.9486  -0.9173   2.1221 N.ar           1 S1                 0.0000
     24 ****         0.5139  -1.8786   1.3015 C.ar           1 S1                 0.0000
     25 ****         0.1039  -1.7733   0.0352 N.ar           1 S1                 0.0000
     26 ****         0.1656  -0.4822  -0.4014 C.ar           1 S1                 0.0000
     27 ****         0.9747   2.7620   5.4447 H              1 S1                 0.0000
     28 ****         2.9409   0.1549   3.4121 H              1 S1                 0.0000
     29 ****        -1.1486  -1.8488  -5.3472 H              1 S1                 0.0000
     30 ****        -2.4772  -2.9688  -5.6087 H              1 S1                 0.0000
     31 ****        -1.4480  -3.1580  -4.1977 H              1 S1                 0.0000
     32 ****        -3.3853  -0.8473  -4.7532 H              1 S1                 0.0000
     33 ****        -4.9597  -0.9338  -2.4058 H              1 S1                 0.0000
     34 ****        -4.7407  -2.4730  -1.5565 H              1 S1                 0.0000
     35 ****        -3.0772  -0.4900  -0.8600 H              1 S1                 0.0000
     36 ****        -2.3848  -2.0644  -1.2431 H              1 S1                 0.0000
     37 ****        -2.3654   1.1588  -2.2979 H              1 S1                 0.0000
     38 ****        -0.3280  -1.7271  -2.7258 H              1 S1                 0.0000
     39 ****        -0.2460  -0.2747  -3.6922 H              1 S1                 0.0000
     40 ****        -0.0794   2.0467  -2.3984 H              1 S1                 0.0000
     41 ****         0.0890   2.7254   3.2265 H              1 S1                 0.0000
     42 ****        -0.3313   1.0761   3.6694 H              1 S1                 0.0000
     43 ****         2.9212   3.1371   4.0471 H              1 S1                 0.0000
     44 ****         3.4882   1.8210   5.0761 H              1 S1                 0.0000
     45 ****         5.8276   1.1796   1.6066 H              1 S1                 0.0000
     46 ****         5.1747   0.2395   2.9326 H              1 S1                 0.0000
     47 ****         0.4908  -2.8743   1.7191 H              1 S1                 0.0000
     48 ****        -3.4719  -3.2423  -3.2644 LP             1 S1                 0.0000
     49 ****        -4.6482  -2.4213  -4.0448 LP             1 S1                 0.0000
     50 ****        -3.6385   0.7180  -3.1442 LP             1 S1                 0.0000
     51 ****        -2.2188   1.0525  -3.8786 LP             1 S1                 0.0000
     52 ****         0.7793   2.7261  -0.1528 LP             1 S1                 0.0000
     53 ****         1.5355   2.0835   1.8401 LP             1 S1                 0.0000
     54 ****         2.8336   2.9403   1.2190 LP             1 S1                 0.0000
     55 ****         4.4520   2.7234   0.6414 LP             1 S1                 0.0000
     56 ****         1.2240  -1.1428   3.0566 LP             1 S1                 0.0000
     57 ****        -0.2085  -2.5426  -0.5221 LP             1 S1                 0.0000
@<TRIPOS>BOND
    1    1    2 1     
    2    1   29 1     
    3    1   30 1     
    4    1   31 1     
    5    2    6 1     
    6    2    3 1     
    7    2   32 1     
    8    3    4 1     
    9    4    5 1     
   10    4   33 1     
   11    4   34 1     
   12    5    6 1     
   13    5   35 1     
   14    5   36 1     
   15    6    7 1     
   16    6    8 1     
   17    7   37 1     
   18    8    9 1     
   19    8   38 1     
   20    8   39 1     
   21    9   26 1     
   22    9   10 1     
   23   10   11 2     
   24   10   40 1     
   25   11   12 1     
   26   12   26 ar    
   27   12   13 ar    
   28   13   14 1     
   29   13   23 ar    
   30   14   19 1     
   31   14   15 1     
   32   15   16 1     
   33   15   41 1     
   34   15   42 1     
   35   16   27 1     
   36   16   17 1     
   37   16   18 1     
   38   18   19 1     
   39   18   43 1     
   40   18   44 1     
   41   19   28 1     
   42   19   20 1     
   43   20   21 am    
   44   20   22 2     
   45   21   45 1     
   46   21   46 1     
   47   23   24 ar    
   48   24   25 ar    
   49   24   47 1     
   50   25   26 ar    
   51    3   48 1     
   52    3   49 1     
   53    7   50 1     
   54    7   51 1     
   55   11   52 1     
   56   14   53 1     
   57   22   54 1     
   58   22   55 1     
   59   23   56 1     
   60   25   57 1     
@<TRIPOS>SUBSTRUCTURE
      1 S1             1
@<TRIPOS>SET
LONE_PAIRS      STATIC     ATOMS    <user>   **** ""
10 48 49 50 51 52 53 54 55 56 57
DONOR_HYDROGENS      STATIC     ATOMS    <user>   **** ""
3 37 45 46
ATOM$BLUE        STATIC     ATOMS    COLORGROUP SYSTEM
10 48 49 50 51 52 53 54 55 56 57
ATOM$RED        STATIC     ATOMS    COLORGROUP SYSTEM
3 37 45 46
