#       Name:                AV-unprocessed.smi:3218
#       Creating user name   scv26
#       Creation time:       Fri Mar 27 18:13:37 2020


#       File generated by GOLD software.
#

@<TRIPOS>MOLECULE
AV-unprocessed.smi:3218
    41    42     1
SMALL
NO_CHARGES


@<TRIPOS>ATOM
      1 ****        -6.2700   2.5993   0.1810 C.3            1 S1                 0.0000
      2 ****        -5.0331   2.1307  -0.5298 C.2            1 S1                 0.0000
      3 ****        -4.9437   1.2031  -1.6067 C.2            1 S1                 0.0000
      4 ****        -3.6997   0.9987  -2.0080 N.2            1 S1                 0.0000
      5 ****        -2.9537   1.7879  -1.2064 N.pl3          1 S1                 0.0000
      6 ****        -1.5124   1.8129  -1.3593 C.3            1 S1                 0.0000
      7 ****        -0.8485   0.6693  -0.5809 C.3            1 S1                 0.0000
      8 ****         0.5923   0.7226  -0.7645 N.3            1 S1                 0.0000
      9 ****         1.2253  -0.3445  -0.0083 C.3            1 S1                 0.0000
     10 ****         2.7445  -0.3043  -0.2314 C.3            1 S1                 0.0000
     11 ****         3.4141  -1.3664   0.5127 N.am           1 S1                 0.0000
     12 ****         3.8914  -2.5611  -0.1632 C.3            1 S1                 0.0000
     13 ****         4.3087  -3.5143   0.9658 C.3            1 S1                 0.0000
     14 ****         4.3970  -2.6488   2.2275 C.3            1 S1                 0.0000
     15 ****         3.6871  -1.3679   1.8228 C.2            1 S1                 0.0000
     16 ****         3.4154  -0.4732   2.6222 O.2            1 S1                 0.0000
     17 ****        -3.7319   2.4812  -0.3041 C.2            1 S1                 0.0000
     18 ****        -7.1137   2.7004  -0.5019 H              1 S1                 0.0000
     19 ****        -6.1223   3.5703   0.6542 H              1 S1                 0.0000
     20 ****        -6.5709   1.9021   0.9630 H              1 S1                 0.0000
     21 ****        -5.7423   0.6735  -2.1050 H              1 S1                 0.0000
     22 ****        -1.2714   1.7474  -2.4217 H              1 S1                 0.0000
     23 ****        -1.1451   2.7786  -1.0088 H              1 S1                 0.0000
     24 ****        -1.0880   0.7515   0.4803 H              1 S1                 0.0000
     25 ****        -1.2268  -0.2925  -0.9300 H              1 S1                 0.0000
     26 ****         0.9442   1.6160  -0.4508 H              1 S1                 0.0000
     27 ****         0.9933  -0.2275   1.0512 H              1 S1                 0.0000
     28 ****         0.8268  -1.3086  -0.3280 H              1 S1                 0.0000
     29 ****         2.9709  -0.4113  -1.2934 H              1 S1                 0.0000
     30 ****         3.1492   0.6620   0.0750 H              1 S1                 0.0000
     31 ****         3.1175  -2.9970  -0.7963 H              1 S1                 0.0000
     32 ****         4.7441  -2.3024  -0.7924 H              1 S1                 0.0000
     33 ****         3.5505  -4.2869   1.1011 H              1 S1                 0.0000
     34 ****         5.2517  -4.0154   0.7448 H              1 S1                 0.0000
     35 ****         3.9168  -3.1189   3.0863 H              1 S1                 0.0000
     36 ****         5.4327  -2.4231   2.4836 H              1 S1                 0.0000
     37 ****        -3.2991   3.1578   0.4183 H              1 S1                 0.0000
     38 ****        -3.3834   0.3954  -2.7401 LP             1 S1                 0.0000
     39 ****         0.8025   0.6076  -1.7353 LP             1 S1                 0.0000
     40 ****         2.9462   0.3522   2.3084 LP             1 S1                 0.0000
     41 ****         3.6637  -0.5714   3.5859 LP             1 S1                 0.0000
@<TRIPOS>BOND
    1    1    2 1     
    2    1   18 1     
    3    1   19 1     
    4    1   20 1     
    5    2   17 2     
    6    2    3 1     
    7    3    4 2     
    8    3   21 1     
    9    4    5 1     
   10    5    6 1     
   11    5   17 1     
   12    6    7 1     
   13    6   22 1     
   14    6   23 1     
   15    7    8 1     
   16    7   24 1     
   17    7   25 1     
   18    8    9 1     
   19    8   26 1     
   20    9   10 1     
   21    9   27 1     
   22    9   28 1     
   23   10   11 1     
   24   10   29 1     
   25   10   30 1     
   26   11   15 am    
   27   11   12 1     
   28   12   13 1     
   29   12   31 1     
   30   12   32 1     
   31   13   14 1     
   32   13   33 1     
   33   13   34 1     
   34   14   15 1     
   35   14   35 1     
   36   14   36 1     
   37   15   16 2     
   38   17   37 1     
   39    4   38 1     
   40    8   39 1     
   41   16   40 1     
   42   16   41 1     
@<TRIPOS>SUBSTRUCTURE
      1 S1             1
@<TRIPOS>SET
LONE_PAIRS      STATIC     ATOMS    <user>   **** ""
4 38 39 40 41
DONOR_HYDROGENS      STATIC     ATOMS    <user>   **** ""
1 26
ATOM$BLUE        STATIC     ATOMS    COLORGROUP SYSTEM
4 38 39 40 41
ATOM$RED        STATIC     ATOMS    COLORGROUP SYSTEM
1 26
