AV-unprocessed.smi:561|AV-procd|sdf|2937|dock3
  -GOLD-   2262023433D 1   1.00000     0.00000
 Structure written by MMmdl.
 37 38  0  0  0  0  0  0  0  0  2 V2000
  145.7590  135.3357  151.3621 C   0  0  0  0  0  0  0  0  0  0  0  0
  145.9726  134.0291  152.1377 C   0  0  1  0  0  0  0  0  0  0  0  0
  146.1304  132.8293  151.1796 C   0  0  0  0  0  0  0  0  0  0  0  0
  144.9337  132.5876  150.3669 N   0  0  0  0  0  0  0  0  0  0  0  0
  144.8256  132.6789  149.0031 C   0  0  0  0  0  0  0  0  0  0  0  0
  143.5241  132.3795  148.6933 C   0  0  0  0  0  0  0  0  0  0  0  0
  142.8945  132.1130  149.8796 N   0  3  0  0  0  0  0  0  0  0  0  0
  143.7546  132.2355  150.8958 C   0  0  0  0  0  0  0  0  0  0  0  0
  147.1489  134.1762  152.9937 N   0  0  0  0  0  0  0  0  0  0  0  0
  147.6361  133.2459  153.8361 C   0  0  0  0  0  0  0  0  0  0  0  0
  147.1298  132.1317  153.9711 O   0  0  0  0  0  0  0  0  0  0  0  0
  148.8512  133.6340  154.6003 C   0  0  0  0  0  0  0  0  0  0  0  0
  149.1533  134.8862  154.7444 N   0  0  0  0  0  0  0  0  0  0  0  0
  150.2788  135.2936  155.4308 N   0  0  0  0  0  0  0  0  0  0  0  0
  150.6174  136.7063  155.2705 C   0  0  0  0  0  0  0  0  0  0  0  0
  151.0263  134.4930  156.2306 C   0  0  0  0  0  0  0  0  0  0  0  0
  152.0357  134.8705  156.8252 O   0  0  0  0  0  0  0  0  0  0  0  0
  150.5369  133.0521  156.4026 C   0  0  0  0  0  0  0  0  0  0  0  0
  149.7457  132.5544  155.1766 C   0  0  0  0  0  0  0  0  0  0  0  0
  144.8702  135.2778  150.7330 H   0  0  0  0  0  0  0  0  0  0  0  0
  146.6090  135.5592  150.7166 H   0  0  0  0  0  0  0  0  0  0  0  0
  145.6250  136.1784  152.0412 H   0  0  0  0  0  0  0  0  0  0  0  0
  145.0857  133.8740  152.7549 H   0  0  0  0  0  0  0  0  0  0  0  0
  146.9537  133.0056  150.4862 H   0  0  0  0  0  0  0  0  0  0  0  0
  146.3720  131.9183  151.7299 H   0  0  0  0  0  0  0  0  0  0  0  0
  145.6595  132.9502  148.3721 H   0  0  0  0  0  0  0  0  0  0  0  0
  143.0124  132.3381  147.7429 H   0  0  0  0  0  0  0  0  0  0  0  0
  143.5357  132.0901  151.9387 H   0  0  0  0  0  0  0  0  0  0  0  0
  147.6304  135.0635  152.9518 H   0  0  0  0  0  0  0  0  0  0  0  0
  151.6210  136.8166  154.8573 H   0  0  0  0  0  0  0  0  0  0  0  0
  150.5857  137.2204  156.2324 H   0  0  0  0  0  0  0  0  0  0  0  0
  149.9271  137.2199  154.5993 H   0  0  0  0  0  0  0  0  0  0  0  0
  151.3800  132.3907  156.6048 H   0  0  0  0  0  0  0  0  0  0  0  0
  149.8983  133.0267  157.2865 H   0  0  0  0  0  0  0  0  0  0  0  0
  149.1575  131.6857  155.4751 H   0  0  0  0  0  0  0  0  0  0  0  0
  150.4345  132.2087  154.4050 H   0  0  0  0  0  0  0  0  0  0  0  0
  141.9190  131.8611  149.9764 H   0  0  0  0  0  0  0  0  0  0  0  0
  1  2  1  0  0  0  0
  1 20  1  0  0  0  0
  1 21  1  0  0  0  0
  1 22  1  0  0  0  0
  2  3  1  0  0  0  0
  2  9  1  0  0  0  0
  2 23  1  0  0  0  0
  3  4  1  0  0  0  0
  3 24  1  0  0  0  0
  3 25  1  0  0  0  0
  4  8  1  0  0  0  0
  4  5  1  0  0  0  0
  5  6  2  0  0  0  0
  5 26  1  0  0  0  0
  6  7  1  0  0  0  0
  6 27  1  0  0  0  0
  7  8  2  0  0  0  0
  7 37  1  0  0  0  0
  8 28  1  0  0  0  0
  9 10  1  0  0  0  0
  9 29  1  0  0  0  0
 10 11  2  0  0  0  0
 10 12  1  0  0  0  0
 12 19  1  0  0  0  0
 12 13  2  0  0  0  0
 13 14  1  0  0  0  0
 14 15  1  0  0  0  0
 14 16  1  0  0  0  0
 15 30  1  0  0  0  0
 15 31  1  0  0  0  0
 15 32  1  0  0  0  0
 16 17  2  0  0  0  0
 16 18  1  0  0  0  0
 18 19  1  0  0  0  0
 18 33  1  0  0  0  0
 18 34  1  0  0  0  0
 19 35  1  0  0  0  0
 19 36  1  0  0  0  0
M  CHG  1   7   1
M  END
> <s_m_source_file>
AV-unprocessed.smi

> <i_m_source_file_index>
561

> <i_lp_mmshare_version>
43012

> <i_f3d_flags>
0

> <s_epik_input>
W2NIXTFuW2NIXVtjSF1uMVtDSDJdW0NAQEhdKFtDSDNdKVtOSF1DKD1PKUMyPU5OKFtDSDNdKUMoPU8pW0NIMl1bQ0gyXTI=

> <s_epik_cmdline>
J2VwaWtfcHl0aG9uJywgJy1waCcsICc3LjAnLCAnLXRuJywgJzgnLCAnLW1hJywgJzIwMCcsICctbWV0YWxfYmluZGluZycsICctaW1hZScsICc8aW5maWxlLm1hZT4nLCAnLW9tYWUnLCAnPG91dGZpbGUubWFlPic=

> <r_lp_tautomer_probability>
1

> <r_epik_Ionization_Penalty>
0.358595

> <r_epik_Ionization_Penalty_Charging>
0

> <r_epik_Ionization_Penalty_Neutral>
0.358595

> <r_epik_State_Penalty>
0.355181

> <r_epik_Charging_Adjusted_Penalty>
0.355181

> <i_epik_Tot_Q>
1

> <i_epik_Tot_abs_Q>
1

> <r_epik_Metal_State_Penalty>
0.718565

> <b_epik_Metal_Only>
0

> <s_epik_Chemistry_Notes>
This compound has an imine and may undergo hydrolysis.

> <s_lp_Force_Field>
OPLS_2005

> <r_lp_Energy>
19.4288

> <b_lp_Chiralities_Consistent>
1

> <s_lp_Variant>
AV-unprocessed.smi:561-2

> <Gold.Version>
5.8.1

> <Gold.Id.Protein>
6NUR|6NUR_protein|mol2

> <Gold.PLP.Fitness>
43.3189

> <Gold.PLP.PLP>
-34.7887

> <Gold.PLP.part.hbond>
-4.1140

> <Gold.PLP.part.metal>
0.0000

> <Gold.PLP.part.buried>
-2.8213

> <Gold.PLP.part.nonpolar>
-28.4575

> <Gold.PLP.part.repulsive>
0.4271

> <Gold.PLP.ligand.clash>
0.0000

> <Gold.PLP.ligand.torsion>
0.2054

> <Gold.PLP.Chemscore.Hbond>
2.6480

> <Gold.PLP.Chemscore.CHOScore>
0.3252

> <Gold.PLP.Chemscore.Metal>
0.0000

> <Gold.Chemscore.Hbonds>
donor molecule, donor type, donor heavy atom, donor atom, acceptor molecule, acceptor atom, score
      L1  H     7    37       P1 10952  0.77
      L1  H     9    29       P1  7948  0.83
      P1  H 10752 10763       L1    17  0.80
      L1  C     5    26       P1  7921  0.31

> <Gold.PLP.Chemscore.Internal.Correction>
0.0214

> <Gold.Rescore>
     Score         DG    S(hbond)    S(metal)    S(lipo)     H(rot)  DE(clash)    DE(int)     intcor
     14.39     -16.29       2.36        0.00      63.55       1.76       1.56       0.34       ----

> <Gold.Chemscore.Fitness>
14.3949

> <Gold.Chemscore.DG>
-16.2944

> <Gold.Chemscore.ZeroCoef>
-5.4800

> <Gold.Chemscore.Hbond>
2.3600

> <Gold.Chemscore.Metal>
0.0000

> <Gold.Chemscore.Lipo>
63.5450

> <Gold.Chemscore.Internal_Hbond>
0.0000

> <Gold.Chemscore.DEClash>
1.5592

> <Gold.Chemscore.DEInternal>
0.3402

> <Gold.Chemscore.Rot>
1.7589

> <Gold.Chemscore.Internal.Correction>
   9.000000E+99

> <Gold.Chemscore.Hbonds>
donor molecule, donor type, donor heavy atom, donor atom, acceptor molecule, acceptor atom, score
      L1  H     7    37       P1 10952  0.69
      L1  H     9    29       P1  7948  0.78
      P1  H 10752 10763       L1    17  0.26

> <Gold.Chemscore.Hbond.Weighted>
-7.8824

> <Gold.Chemscore.Metal.Weighted>
-0.0000

> <Gold.Chemscore.Lipo.Weighted>
-7.4348

> <Gold.Chemscore.Internal_Hbond.Weighted>
0.0000

> <Gold.Chemscore.DEClash.Weighted>
1.5592

> <Gold.Chemscore.DEInternal.Weighted>
0.3402

> <Gold.Chemscore.Rot.Weighted>
4.5028

> <Gold.Chemscore.Internal.Correction.Weighted>
   9.000000E+99

> <Gold.Protein.RotatedTorsions>
[ 6907 6896 6895 6894 ] final   83.16 input  -60.11 | X-H torsion
[ 7974 7965 7964 7962 ] final -177.43 input  175.53 | X-H torsion
[ 8008 7997 7996 7995 ] final  137.78 input   59.86 | X-H torsion
[ 10167 10162 10161 10158 ] final -144.16 input  -65.29 | X-H torsion
[ 10718 10713 10712 10709 ] final   54.02 input   66.30 | X-H torsion
[ 10763 10752 10751 10750 ] final  105.13 input  -60.55 | X-H torsion
[ 11005 11000 10999 10996 ] final -178.76 input  -57.11 | X-H torsion

> <Gold.Protein.ActiveResidues>
 VAL166  LYS551  ARG553  GLY616  TRP617  ASP618  TYR619  PRO620  LYS621  CYS622 
 ASP623  PHE694  ASN695  SER759  ASP760  ASP761  ALA762  ILE779  LEU786  VAL792 
 PHE793  MET794  SER795  GLU796  ALA797  LYS798  CYS799  TRP800  GLU811  SER814 

> <Gold.Protein.RotatedAtoms>
  152.5319  134.2938  159.9052 H   0  0  0  0  0  0  0  0  0  0  0  0  # atno 6907 bound_to 6896
  151.2890  133.4168  159.2639 H   0  0  0  0  0  0  0  0  0  0  0  0  # atno 6908 bound_to 6896
  151.0218  134.9490  159.8120 H   0  0  0  0  0  0  0  0  0  0  0  0  # atno 6909 bound_to 6896
  144.7128  140.1021  143.6416 H   0  0  0  0  0  0  0  0  0  0  0  0  # atno 7974 bound_to 7965
  156.3000  140.2410  156.3966 H   0  0  0  0  0  0  0  0  0  0  0  0  # atno 8008 bound_to 7997
  154.8565  140.0422  157.1657 H   0  0  0  0  0  0  0  0  0  0  0  0  # atno 8009 bound_to 7997
  154.8942  140.2967  155.5357 H   0  0  0  0  0  0  0  0  0  0  0  0  # atno 8010 bound_to 7997
  139.7925  143.7946  152.2651 H   0  0  0  0  0  0  0  0  0  0  0  0  # atno 10167 bound_to 10162
  157.5220  130.8571  149.8571 H   0  0  0  0  0  0  0  0  0  0  0  0  # atno 10718 bound_to 10713
  153.3752  135.3920  155.1817 H   0  0  0  0  0  0  0  0  0  0  0  0  # atno 10763 bound_to 10752
  154.8700  135.3712  154.4926 H   0  0  0  0  0  0  0  0  0  0  0  0  # atno 10764 bound_to 10752
  153.5398  135.7084  153.5703 H   0  0  0  0  0  0  0  0  0  0  0  0  # atno 10765 bound_to 10752
  140.4262  134.6561  157.4689 H   0  0  0  0  0  0  0  0  0  0  0  0  # atno 11005 bound_to 11000
  145.9529  139.2746  143.1201 LP  0  0  0  0  0  0  0  0  0  0  0  0  # atno 17320 bound_to 7965
  145.9304  140.9053  143.0359 LP  0  0  0  0  0  0  0  0  0  0  0  0  # atno 17321 bound_to 7965
  139.8042  144.7362  150.9784 LP  0  0  0  0  0  0  0  0  0  0  0  0  # atno 17342 bound_to 10162
  140.7820  143.4315  151.0688 LP  0  0  0  0  0  0  0  0  0  0  0  0  # atno 17343 bound_to 10162
  156.0360  130.3751  150.1560 LP  0  0  0  0  0  0  0  0  0  0  0  0  # atno 17370 bound_to 10713
  156.9747  130.9845  151.3451 LP  0  0  0  0  0  0  0  0  0  0  0  0  # atno 17371 bound_to 10713
  140.0166  134.6610  155.9301 LP  0  0  0  0  0  0  0  0  0  0  0  0  # atno 17394 bound_to 11000
  141.1764  133.6541  156.4846 LP  0  0  0  0  0  0  0  0  0  0  0  0  # atno 17395 bound_to 11000

$$$$
