AV-unprocessed.smi:1703|AV-procd|sdf|6877|dock10
  -GOLD-   22720 8 83D 1   1.00000     0.00000
 Structure written by MMmdl.
 50 52  0  0  0  0  0  0  0  0  3 V2000
  147.7308  135.7425  157.5294 C   0  0  0  0  0  0  0  0  0  0  0  0
  148.0581  136.2789  156.1316 C   0  0  2  0  0  0  0  0  0  0  0  0
  149.5308  136.7120  156.0051 C   0  0  0  0  0  0  0  0  0  0  0  0
  149.7899  137.2908  154.6656 N   0  3  2  0  0  0  0  0  0  0  0  0
  151.2160  137.6602  154.4737 C   0  0  0  0  0  0  0  0  0  0  0  0
  151.5090  139.1247  154.8581 C   0  0  2  0  0  0  0  0  0  0  0  0
  152.8394  139.4341  154.4922 O   0  0  0  0  0  0  0  0  0  0  0  0
  151.3423  139.3864  156.3722 C   0  0  0  0  0  0  0  0  0  0  0  0
  151.0615  140.7997  156.6633 N   0  0  0  0  0  0  0  0  0  0  0  0
  150.1457  141.6419  156.1036 C   0  0  0  0  0  0  0  0  0  0  0  0
  149.1747  141.3147  155.0181 C   0  0  0  0  0  0  0  0  0  0  0  0
  148.4197  142.4366  154.6190 O   0  0  0  0  0  0  0  0  0  0  0  0
  150.2816  142.8515  156.7156 N   0  3  0  0  0  0  0  0  0  0  0  0
  151.2879  142.7828  157.6796 C   0  0  0  0  0  0  0  0  0  0  0  0
  151.7815  143.7500  158.5496 C   0  0  0  0  0  0  0  0  0  0  0  0
  152.8219  143.3516  159.4140 C   0  0  0  0  0  0  0  0  0  0  0  0
  153.3294  142.0364  159.3942 C   0  0  0  0  0  0  0  0  0  0  0  0
  152.8199  141.0635  158.5088 C   0  0  0  0  0  0  0  0  0  0  0  0
  151.7932  141.4659  157.6541 C   0  0  0  0  0  0  0  0  0  0  0  0
  148.8433  138.4002  154.3912 C   0  0  0  0  0  0  0  0  0  0  0  0
  147.3888  137.9217  154.5627 C   0  0  2  0  0  0  0  0  0  0  0  0
  146.3788  139.0573  154.3646 C   0  0  0  0  0  0  0  0  0  0  0  0
  147.2222  137.4027  155.8776 O   0  0  0  0  0  0  0  0  0  0  0  0
  148.3406  134.8706  157.7682 H   0  0  0  0  0  0  0  0  0  0  0  0
  146.6844  135.4437  157.5970 H   0  0  0  0  0  0  0  0  0  0  0  0
  147.9110  136.4972  158.2953 H   0  0  0  0  0  0  0  0  0  0  0  0
  147.8406  135.4970  155.4017 H   0  0  0  0  0  0  0  0  0  0  0  0
  149.7775  137.4473  156.7730 H   0  0  0  0  0  0  0  0  0  0  0  0
  150.1800  135.8501  156.1654 H   0  0  0  0  0  0  0  0  0  0  0  0
  151.8407  136.9789  155.0525 H   0  0  0  0  0  0  0  0  0  0  0  0
  151.4950  137.5151  153.4288 H   0  0  0  0  0  0  0  0  0  0  0  0
  150.8601  139.8000  154.3006 H   0  0  0  0  0  0  0  0  0  0  0  0
  153.2933  138.6308  154.2853 H   0  0  0  0  0  0  0  0  0  0  0  0
  150.5649  138.7619  156.8128 H   0  0  0  0  0  0  0  0  0  0  0  0
  152.2538  139.1341  156.9166 H   0  0  0  0  0  0  0  0  0  0  0  0
  149.7089  140.9146  154.1563 H   0  0  0  0  0  0  0  0  0  0  0  0
  148.4946  140.5356  155.3635 H   0  0  0  0  0  0  0  0  0  0  0  0
  148.7086  143.1873  155.1152 H   0  0  0  0  0  0  0  0  0  0  0  0
  151.3938  144.7584  158.5673 H   0  0  0  0  0  0  0  0  0  0  0  0
  153.2395  144.0693  160.1056 H   0  0  0  0  0  0  0  0  0  0  0  0
  154.1280  141.7694  160.0716 H   0  0  0  0  0  0  0  0  0  0  0  0
  153.2222  140.0620  158.5038 H   0  0  0  0  0  0  0  0  0  0  0  0
  149.0478  139.2301  155.0695 H   0  0  0  0  0  0  0  0  0  0  0  0
  148.9809  138.7762  153.3781 H   0  0  0  0  0  0  0  0  0  0  0  0
  147.1719  137.1358  153.8370 H   0  0  0  0  0  0  0  0  0  0  0  0
  146.4561  139.4820  153.3634 H   0  0  0  0  0  0  0  0  0  0  0  0
  146.5404  139.8608  155.0839 H   0  0  0  0  0  0  0  0  0  0  0  0
  145.3580  138.6966  154.4929 H   0  0  0  0  0  0  0  0  0  0  0  0
  149.5921  136.5582  153.9982 H   0  0  0  0  0  0  0  0  0  0  0  0
  149.7256  143.6652  156.4847 H   0  0  0  0  0  0  0  0  0  0  0  0
  1  2  1  0  0  0  0
  1 24  1  0  0  0  0
  1 25  1  0  0  0  0
  1 26  1  0  0  0  0
  2 23  1  0  0  0  0
  2  3  1  0  0  0  0
  2 27  1  0  0  0  0
  3  4  1  0  0  0  0
  3 28  1  0  0  0  0
  3 29  1  0  0  0  0
  4  5  1  0  0  0  0
  4 20  1  0  0  0  0
  4 49  1  0  0  0  0
  5  6  1  0  0  0  0
  5 30  1  0  0  0  0
  5 31  1  0  0  0  0
  6  7  1  0  0  0  0
  6  8  1  0  0  0  0
  6 32  1  0  0  0  0
  7 33  1  0  0  0  0
  8  9  1  0  0  0  0
  8 34  1  0  0  0  0
  8 35  1  0  0  0  0
  9 19  1  0  0  0  0
  9 10  1  0  0  0  0
 10 11  1  0  0  0  0
 10 13  2  0  0  0  0
 11 12  1  0  0  0  0
 11 36  1  0  0  0  0
 11 37  1  0  0  0  0
 12 38  1  0  0  0  0
 13 14  1  0  0  0  0
 13 50  1  0  0  0  0
 14 19  2  0  0  0  0
 14 15  1  0  0  0  0
 15 16  2  0  0  0  0
 15 39  1  0  0  0  0
 16 17  1  0  0  0  0
 16 40  1  0  0  0  0
 17 18  2  0  0  0  0
 17 41  1  0  0  0  0
 18 19  1  0  0  0  0
 18 42  1  0  0  0  0
 20 21  1  0  0  0  0
 20 43  1  0  0  0  0
 20 44  1  0  0  0  0
 21 22  1  0  0  0  0
 21 23  1  0  0  0  0
 21 45  1  0  0  0  0
 22 46  1  0  0  0  0
 22 47  1  0  0  0  0
 22 48  1  0  0  0  0
M  CHG  1   4   1
M  CHG  1  13   1
M  END
> <s_m_source_file>
AV-unprocessed.smi

> <i_m_source_file_index>
1703

> <i_lp_mmshare_version>
43012

> <i_f3d_flags>
0

> <s_epik_input>
W0NIM11bQ0BASF0xW0NIMl1OKFtDSDJdW0NASF0oTzEpW0NIM10pW0NIMl1bQ0BIXShbT0hdKVtDSDJdbihjKG4yKVtDSDJdW09IXSljKGMyMylbY0hdW2NIXVtjSF1bY0hdMw==

> <s_epik_cmdline>
J2VwaWtfcHl0aG9uJywgJy1waCcsICc3LjAnLCAnLXRuJywgJzgnLCAnLW1hJywgJzIwMCcsICctbWV0YWxfYmluZGluZycsICctaW1hZScsICc8aW5maWxlLm1hZT4nLCAnLW9tYWUnLCAnPG91dGZpbGUubWFlPic=

> <r_epik_Ionization_Penalty>
2.22579

> <r_epik_Ionization_Penalty_Charging>
2.22492

> <r_epik_Ionization_Penalty_Neutral>
0.000870007

> <r_epik_State_Penalty>
2.3141

> <r_epik_Charging_Adjusted_Penalty>
4.53902

> <i_epik_Tot_Q>
2

> <i_epik_Tot_abs_Q>
2

> <r_epik_Metal_State_Penalty>
6.36517

> <b_epik_Metal_Only>
0

> <s_lp_Force_Field>
OPLS_2005

> <r_lp_Energy>
31.942

> <b_lp_Chiralities_Consistent>
1

> <s_lp_Variant>
AV-unprocessed.smi:1703-25

> <Gold.Version>
5.8.1

> <Gold.Id.Protein>
6NUR|6NUR_protein|mol2

> <Gold.PLP.Fitness>
60.1772

> <Gold.PLP.PLP>
-43.7231

> <Gold.PLP.part.hbond>
-5.8770

> <Gold.PLP.part.metal>
0.0000

> <Gold.PLP.part.buried>
-3.6809

> <Gold.PLP.part.nonpolar>
-34.9836

> <Gold.PLP.part.repulsive>
0.1187

> <Gold.PLP.ligand.clash>
0.0132

> <Gold.PLP.ligand.torsion>
0.7570

> <Gold.PLP.Chemscore.Hbond>
5.9715

> <Gold.PLP.Chemscore.CHOScore>
0.0000

> <Gold.PLP.Chemscore.Metal>
0.0000

> <Gold.Chemscore.Hbonds>
donor molecule, donor type, donor heavy atom, donor atom, acceptor molecule, acceptor atom, score
      L1  H     4    49       P1  7948  0.88
      L1  H    12    38       P1  8028  1.00
      L1  H    13    50       P1  8028  2.00
      P1  H  7997  8009       L1     7  0.23

> <Gold.PLP.Chemscore.Internal.Correction>
0.0668

> <Gold.Rescore>
     Score         DG    S(hbond)    S(metal)    S(lipo)     H(rot)  DE(clash)    DE(int)     intcor
     20.40     -22.55       3.56        0.00     110.66       3.04       0.04       2.11       ----

> <Gold.Chemscore.Fitness>
20.3956

> <Gold.Chemscore.DG>
-22.5495

> <Gold.Chemscore.ZeroCoef>
-5.4800

> <Gold.Chemscore.Hbond>
3.5625

> <Gold.Chemscore.Metal>
0.0000

> <Gold.Chemscore.Lipo>
110.6625

> <Gold.Chemscore.Internal_Hbond>
0.0000

> <Gold.Chemscore.DEClash>
0.0417

> <Gold.Chemscore.DEInternal>
2.1122

> <Gold.Chemscore.Rot>
3.0378

> <Gold.Chemscore.Internal.Correction>
   9.000000E+99

> <Gold.Chemscore.Hbonds>
donor molecule, donor type, donor heavy atom, donor atom, acceptor molecule, acceptor atom, score
      L1  H     4    49       P1  7948  0.32
      L1  H    12    38       P1  8028  0.99
      L1  H    13    50       P1  8028  0.97
      P1  H  7997  8009       L1     7  0.03

> <Gold.Chemscore.Hbond.Weighted>
-11.8987

> <Gold.Chemscore.Metal.Weighted>
-0.0000

> <Gold.Chemscore.Lipo.Weighted>
-12.9475

> <Gold.Chemscore.Internal_Hbond.Weighted>
0.0000

> <Gold.Chemscore.DEClash.Weighted>
0.0417

> <Gold.Chemscore.DEInternal.Weighted>
2.1122

> <Gold.Chemscore.Rot.Weighted>
7.7767

> <Gold.Chemscore.Internal.Correction.Weighted>
   9.000000E+99

> <Gold.Protein.RotatedTorsions>
[ 6907 6896 6895 6894 ] final -128.39 input  -60.11 | X-H torsion
[ 7974 7965 7964 7962 ] final  144.30 input  175.53 | X-H torsion
[ 8008 7997 7996 7995 ] final -146.11 input   59.86 | X-H torsion
[ 10167 10162 10161 10158 ] final  -10.47 input  -65.29 | X-H torsion
[ 10718 10713 10712 10709 ] final  108.07 input   66.30 | X-H torsion
[ 10763 10752 10751 10750 ] final  -33.80 input  -60.55 | X-H torsion
[ 11005 11000 10999 10996 ] final -136.79 input  -57.11 | X-H torsion

> <Gold.Protein.ActiveResidues>
 VAL166  LYS551  ARG553  GLY616  TRP617  ASP618  TYR619  PRO620  LYS621  CYS622 
 ASP623  PHE694  ASN695  SER759  ASP760  ASP761  ALA762  ILE779  LEU786  VAL792 
 PHE793  MET794  SER795  GLU796  ALA797  LYS798  CYS799  TRP800  GLU811  SER814 

> <Gold.Protein.RotatedAtoms>
  150.9174  133.6922  159.2839 H   0  0  0  0  0  0  0  0  0  0  0  0  # atno 6907 bound_to 6896
  151.4388  135.1016  159.9674 H   0  0  0  0  0  0  0  0  0  0  0  0  # atno 6908 bound_to 6896
  152.4962  133.8587  159.7294 H   0  0  0  0  0  0  0  0  0  0  0  0  # atno 6909 bound_to 6896
  144.8848  139.5646  143.5826 H   0  0  0  0  0  0  0  0  0  0  0  0  # atno 7974 bound_to 7965
  155.5540  140.0619  157.2843 H   0  0  0  0  0  0  0  0  0  0  0  0  # atno 8008 bound_to 7997
  154.4411  140.1897  156.0760 H   0  0  0  0  0  0  0  0  0  0  0  0  # atno 8009 bound_to 7997
  156.0495  140.3286  155.7339 H   0  0  0  0  0  0  0  0  0  0  0  0  # atno 8010 bound_to 7997
  140.7114  143.5745  150.9057 H   0  0  0  0  0  0  0  0  0  0  0  0  # atno 10167 bound_to 10162
  157.6602  131.0886  150.6251 H   0  0  0  0  0  0  0  0  0  0  0  0  # atno 10718 bound_to 10713
  153.8362  135.6861  153.4808 H   0  0  0  0  0  0  0  0  0  0  0  0  # atno 10763 bound_to 10752
  153.1481  135.4629  154.9594 H   0  0  0  0  0  0  0  0  0  0  0  0  # atno 10764 bound_to 10752
  154.7865  135.3286  154.7821 H   0  0  0  0  0  0  0  0  0  0  0  0  # atno 10765 bound_to 10752
  140.8772  134.1977  157.4614 H   0  0  0  0  0  0  0  0  0  0  0  0  # atno 11005 bound_to 11000
  146.3017  139.7448  142.9086 LP  0  0  0  0  0  0  0  0  0  0  0  0  # atno 17320 bound_to 7965
  145.3889  141.0369  143.3135 LP  0  0  0  0  0  0  0  0  0  0  0  0  # atno 17321 bound_to 7965
  139.9471  143.6315  152.3039 LP  0  0  0  0  0  0  0  0  0  0  0  0  # atno 17342 bound_to 10162
  139.6820  144.7654  151.1591 LP  0  0  0  0  0  0  0  0  0  0  0  0  # atno 17343 bound_to 10162
  156.6554  130.4497  149.5705 LP  0  0  0  0  0  0  0  0  0  0  0  0  # atno 17370 bound_to 10713
  156.2106  130.6676  151.1265 LP  0  0  0  0  0  0  0  0  0  0  0  0  # atno 17371 bound_to 10713
  139.8716  134.9801  156.5062 LP  0  0  0  0  0  0  0  0  0  0  0  0  # atno 17394 bound_to 11000
  140.8504  133.8136  155.9163 LP  0  0  0  0  0  0  0  0  0  0  0  0  # atno 17395 bound_to 11000

$$$$
