AV-unprocessed.smi:699|AV-procd|sdf|3403|dock9
  -GOLD-   22720 0383D 1   1.00000     0.00000
 Structure written by MMmdl.
 35 36  0  0  0  0  0  0  0  0  2 V2000
  142.5309  134.6661  154.7173 N   0  0  0  0  0  0  0  0  0  0  0  0
  142.9457  135.6959  153.9755 C   0  0  0  0  0  0  0  0  0  0  0  0
  142.5060  136.8332  154.1336 O   0  0  0  0  0  0  0  0  0  0  0  0
  144.0048  135.4029  152.9015 C   0  0  2  0  0  0  0  0  0  0  0  0
  143.5950  134.2526  151.9665 C   0  0  0  0  0  0  0  0  0  0  0  0
  144.9123  133.6257  151.5211 C   0  0  0  0  0  0  0  0  0  0  0  0
  145.7997  133.7028  152.7607 C   0  0  0  0  0  0  0  0  0  0  0  0
  145.3753  134.9831  153.5004 C   0  0  1  0  0  0  0  0  0  0  0  0
  146.3844  136.0293  153.3408 N   0  0  0  0  0  0  0  0  0  0  0  0
  146.2814  137.2818  153.8080 C   0  0  0  0  0  0  0  0  0  0  0  0
  145.2967  137.7014  154.4151 O   0  0  0  0  0  0  0  0  0  0  0  0
  147.3738  138.0055  153.5073 N   0  0  0  0  0  0  0  0  0  0  0  0
  147.6617  139.3560  153.8457 C   0  0  0  0  0  0  0  0  0  0  0  0
  149.0028  139.6839  154.1457 C   0  0  0  0  0  0  0  0  0  0  0  0
  149.3326  141.0071  154.5037 C   0  0  0  0  0  0  0  0  0  0  0  0
  148.3657  141.9475  154.5666 N   0  3  0  0  0  0  0  0  0  0  0  0
  147.0689  141.6795  154.3027 C   0  0  0  0  0  0  0  0  0  0  0  0
  146.6787  140.3743  153.9401 C   0  0  0  0  0  0  0  0  0  0  0  0
  141.8334  134.8140  155.4322 H   0  0  0  0  0  0  0  0  0  0  0  0
  142.9112  133.7442  154.5607 H   0  0  0  0  0  0  0  0  0  0  0  0
  144.1404  136.2929  152.2834 H   0  0  0  0  0  0  0  0  0  0  0  0
  142.9994  133.5048  152.4928 H   0  0  0  0  0  0  0  0  0  0  0  0
  143.0061  134.6021  151.1179 H   0  0  0  0  0  0  0  0  0  0  0  0
  144.7898  132.6060  151.1549 H   0  0  0  0  0  0  0  0  0  0  0  0
  145.3494  134.2199  150.7177 H   0  0  0  0  0  0  0  0  0  0  0  0
  145.5978  132.8390  153.3958 H   0  0  0  0  0  0  0  0  0  0  0  0
  146.8615  133.6749  152.5118 H   0  0  0  0  0  0  0  0  0  0  0  0
  145.2984  134.7462  154.5641 H   0  0  0  0  0  0  0  0  0  0  0  0
  147.2262  135.7719  152.8467 H   0  0  0  0  0  0  0  0  0  0  0  0
  148.0615  137.5476  152.9270 H   0  0  0  0  0  0  0  0  0  0  0  0
  149.7764  138.9310  154.0981 H   0  0  0  0  0  0  0  0  0  0  0  0
  150.3329  141.3379  154.7426 H   0  0  0  0  0  0  0  0  0  0  0  0
  146.3843  142.5101  154.3956 H   0  0  0  0  0  0  0  0  0  0  0  0
  145.6336  140.1787  153.7549 H   0  0  0  0  0  0  0  0  0  0  0  0
  148.6244  142.8990  154.8298 H   0  0  0  0  0  0  0  0  0  0  0  0
  1  2  1  0  0  0  0
  1 19  1  0  0  0  0
  1 20  1  0  0  0  0
  2  3  2  0  0  0  0
  2  4  1  0  0  0  0
  4  8  1  0  0  0  0
  4  5  1  0  0  0  0
  4 21  1  0  0  0  0
  5  6  1  0  0  0  0
  5 22  1  0  0  0  0
  5 23  1  0  0  0  0
  6  7  1  0  0  0  0
  6 24  1  0  0  0  0
  6 25  1  0  0  0  0
  7  8  1  0  0  0  0
  7 26  1  0  0  0  0
  7 27  1  0  0  0  0
  8  9  1  0  0  0  0
  8 28  1  0  0  0  0
  9 10  1  0  0  0  0
  9 29  1  0  0  0  0
 10 11  2  0  0  0  0
 10 12  1  0  0  0  0
 12 13  1  0  0  0  0
 12 30  1  0  0  0  0
 13 18  1  0  0  0  0
 13 14  2  0  0  0  0
 14 15  1  0  0  0  0
 14 31  1  0  0  0  0
 15 16  2  0  0  0  0
 15 32  1  0  0  0  0
 16 17  1  0  0  0  0
 16 35  1  0  0  0  0
 17 18  2  0  0  0  0
 17 33  1  0  0  0  0
 18 34  1  0  0  0  0
M  CHG  1  16   1
M  END
> <s_m_source_file>
AV-unprocessed.smi

> <i_m_source_file_index>
699

> <i_lp_mmshare_version>
43012

> <i_f3d_flags>
0

> <s_epik_input>
W05IMl1DKD1PKVtDQEBIXTFbQ0gyXVtDSDJdW0NIMl1bQ0BIXTFbTkhdQyg9TylbTkhdYzJbY0hdW2NIXW5bY0hdW2NIXTI=

> <s_epik_cmdline>
J2VwaWtfcHl0aG9uJywgJy1waCcsICc3LjAnLCAnLXRuJywgJzgnLCAnLW1hJywgJzIwMCcsICctbWV0YWxfYmluZGluZycsICctaW1hZScsICc8aW5maWxlLm1hZT4nLCAnLW9tYWUnLCAnPG91dGZpbGUubWFlPic=

> <r_epik_Ionization_Penalty>
1.0332

> <r_epik_Ionization_Penalty_Charging>
1.03318

> <r_epik_Ionization_Penalty_Neutral>
1.91967e-05

> <r_epik_State_Penalty>
1.08452

> <r_epik_Charging_Adjusted_Penalty>
2.11769

> <i_epik_Tot_Q>
1

> <i_epik_Tot_abs_Q>
1

> <r_epik_Metal_State_Penalty>
1.18144

> <b_epik_Metal_Only>
0

> <s_lp_Force_Field>
OPLS_2005

> <r_lp_Energy>
26.3794

> <b_lp_Chiralities_Consistent>
1

> <s_lp_Variant>
AV-unprocessed.smi:699-5

> <Gold.Version>
5.8.1

> <Gold.Id.Protein>
6NUR|6NUR_protein|mol2

> <Gold.PLP.Fitness>
41.3068

> <Gold.PLP.PLP>
-24.5846

> <Gold.PLP.part.hbond>
-4.9997

> <Gold.PLP.part.metal>
0.0000

> <Gold.PLP.part.buried>
-3.7272

> <Gold.PLP.part.nonpolar>
-17.8930

> <Gold.PLP.part.repulsive>
0.4055

> <Gold.PLP.ligand.clash>
0.0000

> <Gold.PLP.ligand.torsion>
0.3484

> <Gold.PLP.Chemscore.Hbond>
5.8055

> <Gold.PLP.Chemscore.CHOScore>
0.0000

> <Gold.PLP.Chemscore.Metal>
0.0000

> <Gold.Chemscore.Hbonds>
donor molecule, donor type, donor heavy atom, donor atom, acceptor molecule, acceptor atom, score
      L1  H     1    19       P1 11000  0.98
      L1  H     1    20       P1 10957  0.93
      L1  H     9    29       P1  7948  1.00
      L1  H    12    30       P1  7948  1.00
      L1  H    16    35       P1  8028  2.00

> <Gold.PLP.Chemscore.Internal.Correction>
0.0024

> <Gold.Rescore>
     Score         DG    S(hbond)    S(metal)    S(lipo)     H(rot)  DE(clash)    DE(int)     intcor
     20.02     -21.24       4.17        0.00      48.72       1.50       0.07       1.15       ----

> <Gold.Chemscore.Fitness>
20.0190

> <Gold.Chemscore.DG>
-21.2422

> <Gold.Chemscore.ZeroCoef>
-5.4800

> <Gold.Chemscore.Hbond>
4.1652

> <Gold.Chemscore.Metal>
0.0000

> <Gold.Chemscore.Lipo>
48.7182

> <Gold.Chemscore.Internal_Hbond>
0.0000

> <Gold.Chemscore.DEClash>
0.0727

> <Gold.Chemscore.DEInternal>
1.1505

> <Gold.Chemscore.Rot>
1.5038

> <Gold.Chemscore.Internal.Correction>
   9.000000E+99

> <Gold.Chemscore.Hbonds>
donor molecule, donor type, donor heavy atom, donor atom, acceptor molecule, acceptor atom, score
      L1  H     1    19       P1 11000  0.31
      L1  H     1    20       P1 10957  0.86
      L1  H     9    29       P1  7948  0.91
      L1  H    12    30       P1  7948  1.00
      L1  H    16    35       P1  8028  0.96

> <Gold.Chemscore.Hbond.Weighted>
-13.9118

> <Gold.Chemscore.Metal.Weighted>
-0.0000

> <Gold.Chemscore.Lipo.Weighted>
-5.7000

> <Gold.Chemscore.Internal_Hbond.Weighted>
0.0000

> <Gold.Chemscore.DEClash.Weighted>
0.0727

> <Gold.Chemscore.DEInternal.Weighted>
1.1505

> <Gold.Chemscore.Rot.Weighted>
3.8496

> <Gold.Chemscore.Internal.Correction.Weighted>
   9.000000E+99

> <Gold.Protein.RotatedTorsions>
[ 6907 6896 6895 6894 ] final   30.10 input  -60.11 | X-H torsion
[ 7974 7965 7964 7962 ] final -145.75 input  175.53 | X-H torsion
[ 8008 7997 7996 7995 ] final  116.54 input   59.86 | X-H torsion
[ 10167 10162 10161 10158 ] final -131.42 input  -65.29 | X-H torsion
[ 10718 10713 10712 10709 ] final  125.73 input   66.30 | X-H torsion
[ 10763 10752 10751 10750 ] final  -27.33 input  -60.55 | X-H torsion
[ 11005 11000 10999 10996 ] final -179.22 input  -57.11 | X-H torsion

> <Gold.Protein.ActiveResidues>
 VAL166  LYS551  ARG553  GLY616  TRP617  ASP618  TYR619  PRO620  LYS621  CYS622 
 ASP623  PHE694  ASN695  SER759  ASP760  ASP761  ALA762  ILE779  LEU786  VAL792 
 PHE793  MET794  SER795  GLU796  ALA797  LYS798  CYS799  TRP800  GLU811  SER814 

> <Gold.Protein.RotatedAtoms>
  152.0411  134.9710  160.0573 H   0  0  0  0  0  0  0  0  0  0  0  0  # atno 6907 bound_to 6896
  152.1149  133.4316  159.4656 H   0  0  0  0  0  0  0  0  0  0  0  0  # atno 6908 bound_to 6896
  150.6845  134.2523  159.4559 H   0  0  0  0  0  0  0  0  0  0  0  0  # atno 6909 bound_to 6896
  144.8206  140.5543  143.5581 H   0  0  0  0  0  0  0  0  0  0  0  0  # atno 7974 bound_to 7965
  156.2445  140.2915  156.0539 H   0  0  0  0  0  0  0  0  0  0  0  0  # atno 8008 bound_to 7997
  155.1851  140.0405  157.2907 H   0  0  0  0  0  0  0  0  0  0  0  0  # atno 8009 bound_to 7997
  154.6233  140.2481  155.7529 H   0  0  0  0  0  0  0  0  0  0  0  0  # atno 8010 bound_to 7997
  139.9191  143.6403  152.2558 H   0  0  0  0  0  0  0  0  0  0  0  0  # atno 10167 bound_to 10162
  157.5478  131.1095  150.8752 H   0  0  0  0  0  0  0  0  0  0  0  0  # atno 10718 bound_to 10713
  153.7303  135.6939  153.4991 H   0  0  0  0  0  0  0  0  0  0  0  0  # atno 10763 bound_to 10752
  153.2140  135.4393  155.0412 H   0  0  0  0  0  0  0  0  0  0  0  0  # atno 10764 bound_to 10752
  154.8255  135.3444  154.6833 H   0  0  0  0  0  0  0  0  0  0  0  0  # atno 10765 bound_to 10752
  140.4211  134.6605  157.4664 H   0  0  0  0  0  0  0  0  0  0  0  0  # atno 11005 bound_to 11000
  145.5115  139.1479  143.3602 LP  0  0  0  0  0  0  0  0  0  0  0  0  # atno 17320 bound_to 7965
  146.2511  140.5255  142.8893 LP  0  0  0  0  0  0  0  0  0  0  0  0  # atno 17321 bound_to 7965
  139.6877  144.7650  151.1495 LP  0  0  0  0  0  0  0  0  0  0  0  0  # atno 17342 bound_to 10162
  140.7666  143.5634  150.9074 LP  0  0  0  0  0  0  0  0  0  0  0  0  # atno 17343 bound_to 10162
  156.9286  130.5341  149.5279 LP  0  0  0  0  0  0  0  0  0  0  0  0  # atno 17370 bound_to 10713
  156.0551  130.5614  150.9073 LP  0  0  0  0  0  0  0  0  0  0  0  0  # atno 17371 bound_to 10713
  140.0199  134.6562  155.9254 LP  0  0  0  0  0  0  0  0  0  0  0  0  # atno 17394 bound_to 11000
  141.1784  133.6543  156.4919 LP  0  0  0  0  0  0  0  0  0  0  0  0  # atno 17395 bound_to 11000

$$$$
