#       Name:                AV-unprocessed.smi:368
#       Creating user name   scv26
#       Creation time:       Thu Mar 26 22:37:25 2020


#       File generated by GOLD software.
#

@<TRIPOS>MOLECULE
AV-unprocessed.smi:368
    42    43     1
SMALL
NO_CHARGES


@<TRIPOS>ATOM
      1 ****         0.3118   1.7498   0.5889 O.2            1 S1                 0.0000
      2 ****         1.0068   0.7472   0.4176 C.2            1 S1                 0.0000
      3 ****         2.5395   0.8412   0.3992 C.3            1 S1                 0.0000
      4 ****         3.0428   2.2139   0.2276 N.am           1 S1                 0.0000
      5 ****         3.4159   2.9170   1.3854 C.2            1 S1                 0.0000
      6 ****         3.8814   4.1720   1.3088 C.2            1 S1                 0.0000
      7 ****         3.9736   4.7526  -0.0372 C.2            1 S1                 0.0000
      8 ****         3.6296   4.1163  -1.0942 N.2            1 S1                 0.0000
      9 ****         3.1359   2.8004  -1.0104 C.2            1 S1                 0.0000
     10 ****         2.7949   2.1859  -2.0213 O.2            1 S1                 0.0000
     11 ****         0.4963  -0.4824   0.2494 N.am           1 S1                 0.0000
     12 ****        -0.9252  -0.8193   0.2287 C.3            1 S1                 0.0000
     13 ****        -1.1045  -2.2449   0.7913 C.3            1 S1                 0.0000
     14 ****        -2.5652  -2.5825   1.1357 C.3            1 S1                 0.0000
     15 ****        -3.4070  -3.1512  -0.0199 C.3            1 S1                 0.0000
     16 ****        -3.1940  -2.5136  -1.4037 C.3            1 S1                 0.0000
     17 ****        -2.9486  -0.9962  -1.3998 C.3            1 S1                 0.0000
     18 ****        -1.4668  -0.6320  -1.2038 C.3            1 S1                 0.0000
     19 ****         2.9173   0.4120   1.3283 H              1 S1                 0.0000
     20 ****         2.9297   0.1987  -0.3924 H              1 S1                 0.0000
     21 ****         3.2948   2.3819   2.3160 H              1 S1                 0.0000
     22 ****         4.1825   4.7681   2.1575 H              1 S1                 0.0000
     23 ****         4.3588   5.7747  -0.0798 H              1 S1                 0.0000
     24 ****         1.1438  -1.2460   0.1182 H              1 S1                 0.0000
     25 ****        -1.4516  -0.1308   0.8927 H              1 S1                 0.0000
     26 ****        -0.6812  -2.9913   0.1178 H              1 S1                 0.0000
     27 ****        -0.5282  -2.3185   1.7150 H              1 S1                 0.0000
     28 ****        -2.5763  -3.3133   1.9452 H              1 S1                 0.0000
     29 ****        -3.0553  -1.6985   1.5453 H              1 S1                 0.0000
     30 ****        -3.2191  -4.2219  -0.1067 H              1 S1                 0.0000
     31 ****        -4.4588  -3.0620   0.2547 H              1 S1                 0.0000
     32 ****        -2.3678  -3.0122  -1.9119 H              1 S1                 0.0000
     33 ****        -4.0740  -2.7296  -2.0107 H              1 S1                 0.0000
     34 ****        -3.2555  -0.6059  -2.3706 H              1 S1                 0.0000
     35 ****        -3.5799  -0.4951  -0.6652 H              1 S1                 0.0000
     36 ****        -1.3384   0.4139  -1.4860 H              1 S1                 0.0000
     37 ****        -0.8575  -1.1999  -1.9087 H              1 S1                 0.0000
     38 ****         0.7445   2.6420   0.7186 LP             1 S1                 0.0000
     39 ****        -0.6851   1.6716   0.5982 LP             1 S1                 0.0000
     40 ****         3.7124   4.5583  -1.9874 LP             1 S1                 0.0000
     41 ****         2.4466   1.2517  -1.9449 LP             1 S1                 0.0000
     42 ****         2.8662   2.6211  -2.9189 LP             1 S1                 0.0000
@<TRIPOS>BOND
    1    1    2 2     
    2    2    3 1     
    3    2   11 am    
    4    3    4 1     
    5    3   19 1     
    6    3   20 1     
    7    4    9 am    
    8    4    5 1     
    9    5    6 2     
   10    5   21 1     
   11    6    7 1     
   12    6   22 1     
   13    7    8 2     
   14    7   23 1     
   15    8    9 1     
   16    9   10 2     
   17   11   12 1     
   18   11   24 1     
   19   12   18 1     
   20   12   13 1     
   21   12   25 1     
   22   13   14 1     
   23   13   26 1     
   24   13   27 1     
   25   14   15 1     
   26   14   28 1     
   27   14   29 1     
   28   15   16 1     
   29   15   30 1     
   30   15   31 1     
   31   16   17 1     
   32   16   32 1     
   33   16   33 1     
   34   17   18 1     
   35   17   34 1     
   36   17   35 1     
   37   18   36 1     
   38   18   37 1     
   39    1   38 1     
   40    1   39 1     
   41    8   40 1     
   42   10   41 1     
   43   10   42 1     
@<TRIPOS>SUBSTRUCTURE
      1 S1             1
@<TRIPOS>SET
LONE_PAIRS      STATIC     ATOMS    <user>   **** ""
5 38 39 40 41 42
DONOR_HYDROGENS      STATIC     ATOMS    <user>   **** ""
1 24
ATOM$BLUE        STATIC     ATOMS    COLORGROUP SYSTEM
5 38 39 40 41 42
ATOM$RED        STATIC     ATOMS    COLORGROUP SYSTEM
1 24
