#       Name:                AV-unprocessed.smi:874
#       Creating user name   scv26
#       Creation time:       Fri Mar 27 01:50:33 2020


#       File generated by GOLD software.
#

@<TRIPOS>MOLECULE
AV-unprocessed.smi:874
    43    45     1
SMALL
NO_CHARGES


@<TRIPOS>ATOM
      1 ****        -3.6787   1.7439  -1.5218 C.3            1 S1                 0.0000
      2 ****        -2.5315   0.8544  -1.3861 N.am           1 S1                 0.0000
      3 ****        -1.2250   1.2062  -1.3634 C.2            1 S1                 0.0000
      4 ****        -0.7830   2.3509  -1.4615 O.2            1 S1                 0.0000
      5 ****        -0.4871   0.0785  -1.2160 N.am           1 S1                 0.0000
      6 ****         0.9748  -0.0121  -1.1553 C.3            1 S1                 0.0000
      7 ****         1.5644   0.0028   0.2824 C.3            1 S1                 0.0000
      8 ****         1.3698  -1.2907   0.8243 O.3            1 S1                 0.0000
      9 ****         3.0941   0.2301   0.2032 C.3            1 S1                 0.0000
     10 ****         3.7680   0.3247   1.5838 C.3            1 S1                 0.0000
     11 ****         3.1079   1.4047   2.4510 C.3            1 S1                 0.0000
     12 ****         1.6027   1.1438   2.5951 C.3            1 S1                 0.0000
     13 ****         0.9125   1.0496   1.2225 C.3            1 S1                 0.0000
     14 ****        -1.3497  -1.0278  -1.1729 C.ar           1 S1                 0.0000
     15 ****        -1.0887  -2.4048  -1.0594 C.ar           1 S1                 0.0000
     16 ****        -2.2026  -3.2766  -1.0461 C.ar           1 S1                 0.0000
     17 ****        -3.5242  -2.7693  -1.1472 C.ar           1 S1                 0.0000
     18 ****        -3.7594  -1.3795  -1.2652 C.ar           1 S1                 0.0000
     19 ****        -2.6345  -0.5372  -1.2750 C.ar           1 S1                 0.0000
     20 ****        -3.3876   2.7950  -1.5045 H              1 S1                 0.0000
     21 ****        -4.3829   1.5784  -0.7060 H              1 S1                 0.0000
     22 ****        -4.1941   1.5513  -2.4630 H              1 S1                 0.0000
     23 ****         1.3093  -0.8977  -1.6976 H              1 S1                 0.0000
     24 ****         1.3816   0.8309  -1.7162 H              1 S1                 0.0000
     25 ****         1.7535  -1.3131   1.6877 H              1 S1                 0.0000
     26 ****         3.5643  -0.5628  -0.3804 H              1 S1                 0.0000
     27 ****         3.2916   1.1567  -0.3378 H              1 S1                 0.0000
     28 ****         3.7126  -0.6388   2.0918 H              1 S1                 0.0000
     29 ****         4.8287   0.5453   1.4623 H              1 S1                 0.0000
     30 ****         3.5778   1.4313   3.4346 H              1 S1                 0.0000
     31 ****         3.2696   2.3861   2.0030 H              1 S1                 0.0000
     32 ****         1.4431   0.2206   3.1534 H              1 S1                 0.0000
     33 ****         1.1446   1.9393   3.1834 H              1 S1                 0.0000
     34 ****         0.9507   2.0303   0.7468 H              1 S1                 0.0000
     35 ****        -0.1434   0.8241   1.3751 H              1 S1                 0.0000
     36 ****        -0.0817  -2.7874  -0.9848 H              1 S1                 0.0000
     37 ****        -2.0448  -4.3415  -0.9585 H              1 S1                 0.0000
     38 ****        -4.3604  -3.4529  -1.1363 H              1 S1                 0.0000
     39 ****        -4.7617  -0.9854  -1.3467 H              1 S1                 0.0000
     40 ****        -1.4108   3.1217  -1.5693 LP             1 S1                 0.0000
     41 ****         0.2039   2.5099  -1.4333 LP             1 S1                 0.0000
     42 ****         1.8120  -1.9716   0.2404 LP             1 S1                 0.0000
     43 ****         0.3913  -1.4881   0.8843 LP             1 S1                 0.0000
@<TRIPOS>BOND
    1    1    2 1     
    2    1   20 1     
    3    1   21 1     
    4    1   22 1     
    5    2   19 1     
    6    2    3 am    
    7    3    4 2     
    8    3    5 am    
    9    5    6 1     
   10    5   14 1     
   11    6    7 1     
   12    6   23 1     
   13    6   24 1     
   14    7   13 1     
   15    7    8 1     
   16    7    9 1     
   17    8   25 1     
   18    9   10 1     
   19    9   26 1     
   20    9   27 1     
   21   10   11 1     
   22   10   28 1     
   23   10   29 1     
   24   11   12 1     
   25   11   30 1     
   26   11   31 1     
   27   12   13 1     
   28   12   32 1     
   29   12   33 1     
   30   13   34 1     
   31   13   35 1     
   32   14   19 ar    
   33   14   15 ar    
   34   15   16 ar    
   35   15   36 1     
   36   16   17 ar    
   37   16   37 1     
   38   17   18 ar    
   39   17   38 1     
   40   18   19 ar    
   41   18   39 1     
   42    4   40 1     
   43    4   41 1     
   44    8   42 1     
   45    8   43 1     
@<TRIPOS>SUBSTRUCTURE
      1 S1             1
@<TRIPOS>SET
LONE_PAIRS      STATIC     ATOMS    <user>   **** ""
4 40 41 42 43
DONOR_HYDROGENS      STATIC     ATOMS    <user>   **** ""
1 25
ATOM$BLUE        STATIC     ATOMS    COLORGROUP SYSTEM
4 40 41 42 43
ATOM$RED        STATIC     ATOMS    COLORGROUP SYSTEM
1 25
