AV-unprocessed.smi:771|AV-procd|sdf|3683|dock3
  -GOLD-   22720 1 93D 1   1.00000     0.00000
 Structure written by MMmdl.
 41 42  0  0  0  0  0  0  0  0  3 V2000
  149.8552  140.8044  158.0845 O   0  0  0  0  0  0  0  0  0  0  0  0
  149.9460  141.9180  157.5652 C   0  0  0  0  0  0  0  0  0  0  0  0
  151.2622  142.7073  157.6131 C   0  0  0  0  0  0  0  0  0  0  0  0
  151.9569  142.6120  158.9084 N   0  0  0  0  0  0  0  0  0  0  0  0
  153.0460  141.7215  158.9854 C   0  0  0  0  0  0  0  0  0  0  0  0
  153.7503  141.5485  160.1211 C   0  0  0  0  0  0  0  0  0  0  0  0
  154.8636  140.6271  160.1833 N   0  3  0  0  0  0  0  0  0  0  0  0
  155.0286  139.8409  159.2561 O   0  0  0  0  0  0  0  0  0  0  0  0
  155.6084  140.6573  161.1583 O   0  5  0  0  0  0  0  0  0  0  0  0
  153.3526  142.3172  161.2846 C   0  0  0  0  0  0  0  0  0  0  0  0
  152.3091  143.1671  161.2186 C   0  0  0  0  0  0  0  0  0  0  0  0
  151.5414  143.3506  159.9825 C   0  0  0  0  0  0  0  0  0  0  0  0
  150.5827  144.1203  159.9176 O   0  0  0  0  0  0  0  0  0  0  0  0
  148.9338  142.5097  156.9125 N   0  0  0  0  0  0  0  0  0  0  0  0
  147.5974  141.9500  156.7297 C   0  0  0  0  0  0  0  0  0  0  0  0
  147.5892  140.7400  155.7680 C   0  0  2  0  0  0  0  0  0  0  0  0
  148.5477  140.9670  154.5795 C   0  0  0  0  0  0  0  0  0  0  0  0
  148.6099  139.7406  153.6550 C   0  0  0  0  0  0  0  0  0  0  0  0
  147.2135  139.3550  153.1463 C   0  0  0  0  0  0  0  0  0  0  0  0
  146.2398  139.1235  154.3140 C   0  0  0  0  0  0  0  0  0  0  0  0
  146.1773  140.3306  155.2703 C   0  0  2  0  0  0  0  0  0  0  0  0
  145.5346  141.4092  154.6172 O   0  0  0  0  0  0  0  0  0  0  0  0
  151.9056  142.3450  156.8099 H   0  0  0  0  0  0  0  0  0  0  0  0
  151.0620  143.7518  157.3670 H   0  0  0  0  0  0  0  0  0  0  0  0
  153.2578  141.1926  158.0672 H   0  0  0  0  0  0  0  0  0  0  0  0
  153.8873  142.2163  162.2176 H   0  0  0  0  0  0  0  0  0  0  0  0
  152.0292  143.7286  162.0977 H   0  0  0  0  0  0  0  0  0  0  0  0
  149.1003  143.4223  156.5133 H   0  0  0  0  0  0  0  0  0  0  0  0
  147.1454  141.6847  157.6869 H   0  0  0  0  0  0  0  0  0  0  0  0
  146.9728  142.7433  156.3178 H   0  0  0  0  0  0  0  0  0  0  0  0
  147.9838  139.8916  156.3296 H   0  0  0  0  0  0  0  0  0  0  0  0
  148.2303  141.8398  154.0071 H   0  0  0  0  0  0  0  0  0  0  0  0
  149.5495  141.1910  154.9472 H   0  0  0  0  0  0  0  0  0  0  0  0
  149.2687  139.9452  152.8106 H   0  0  0  0  0  0  0  0  0  0  0  0
  149.0489  138.8992  154.1922 H   0  0  0  0  0  0  0  0  0  0  0  0
  146.8309  140.1435  152.4971 H   0  0  0  0  0  0  0  0  0  0  0  0
  147.2767  138.4560  152.5324 H   0  0  0  0  0  0  0  0  0  0  0  0
  145.2449  138.8919  153.9317 H   0  0  0  0  0  0  0  0  0  0  0  0
  146.5614  138.2437  154.8728 H   0  0  0  0  0  0  0  0  0  0  0  0
  145.5537  140.0550  156.1208 H   0  0  0  0  0  0  0  0  0  0  0  0
  145.0010  141.0614  153.9182 H   0  0  0  0  0  0  0  0  0  0  0  0
  1  2  2  0  0  0  0
  2  3  1  0  0  0  0
  2 14  1  0  0  0  0
  3  4  1  0  0  0  0
  3 23  1  0  0  0  0
  3 24  1  0  0  0  0
  4 12  1  0  0  0  0
  4  5  1  0  0  0  0
  5  6  2  0  0  0  0
  5 25  1  0  0  0  0
  6  7  1  0  0  0  0
  6 10  1  0  0  0  0
  7  8  2  0  0  0  0
  7  9  1  0  0  0  0
 10 11  2  0  0  0  0
 10 26  1  0  0  0  0
 11 12  1  0  0  0  0
 11 27  1  0  0  0  0
 12 13  2  0  0  0  0
 14 15  1  0  0  0  0
 14 28  1  0  0  0  0
 15 16  1  0  0  0  0
 15 29  1  0  0  0  0
 15 30  1  0  0  0  0
 16 21  1  0  0  0  0
 16 17  1  0  0  0  0
 16 31  1  0  0  0  0
 17 18  1  0  0  0  0
 17 32  1  0  0  0  0
 17 33  1  0  0  0  0
 18 19  1  0  0  0  0
 18 34  1  0  0  0  0
 18 35  1  0  0  0  0
 19 20  1  0  0  0  0
 19 36  1  0  0  0  0
 19 37  1  0  0  0  0
 20 21  1  0  0  0  0
 20 38  1  0  0  0  0
 20 39  1  0  0  0  0
 21 22  1  0  0  0  0
 21 40  1  0  0  0  0
 22 41  1  0  0  0  0
M  CHG  1   7   1
M  CHG  1   9  -1
M  END
> <s_m_source_file>
AV-unprocessed.smi

> <i_m_source_file_index>
771

> <i_lp_mmshare_version>
43012

> <i_f3d_flags>
0

> <s_epik_input>
Tz1jMVtjSF1bY0hdYyhbTitdKD1PKVtPLV0pW2NIXW4xW0NIMl1DKD1PKVtOSF1bQ0gyXVtDQEBIXTJbQ0gyXVtDSDJdW0NIMl1bQ0gyXVtDQEhdMltPSF0=

> <s_epik_cmdline>
J2VwaWtfcHl0aG9uJywgJy1waCcsICc3LjAnLCAnLXRuJywgJzgnLCAnLW1hJywgJzIwMCcsICctbWV0YWxfYmluZGluZycsICctaW1hZScsICc8aW5maWxlLm1hZT4nLCAnLW9tYWUnLCAnPG91dGZpbGUubWFlPic=

> <r_lp_tautomer_probability>
1

> <r_epik_Ionization_Penalty>
3.77175e-07

> <r_epik_Ionization_Penalty_Charging>
7.70067e-11

> <r_epik_Ionization_Penalty_Neutral>
3.77098e-07

> <r_epik_State_Penalty>
-0

> <r_epik_Charging_Adjusted_Penalty>
7.70067e-11

> <i_epik_Tot_Q>
0

> <i_epik_Tot_abs_Q>
2

> <r_epik_Metal_State_Penalty>
-0

> <b_epik_Metal_Only>
0

> <s_lp_Force_Field>
OPLS_2005

> <r_lp_Energy>
25.3676

> <b_lp_Chiralities_Consistent>
1

> <s_lp_Variant>
AV-unprocessed.smi:771-3

> <Gold.Version>
5.8.1

> <Gold.Id.Protein>
6NUR|6NUR_protein|mol2

> <Gold.PLP.Fitness>
45.0772

> <Gold.PLP.PLP>
-37.6605

> <Gold.PLP.part.hbond>
-3.9910

> <Gold.PLP.part.metal>
0.0000

> <Gold.PLP.part.buried>
-1.7515

> <Gold.PLP.part.nonpolar>
-31.3084

> <Gold.PLP.part.repulsive>
0.1472

> <Gold.PLP.ligand.clash>
0.0000

> <Gold.PLP.ligand.torsion>
0.7910

> <Gold.PLP.Chemscore.Hbond>
2.9913

> <Gold.PLP.Chemscore.CHOScore>
0.0000

> <Gold.PLP.Chemscore.Metal>
0.0000

> <Gold.Chemscore.Hbonds>
donor molecule, donor type, donor heavy atom, donor atom, acceptor molecule, acceptor atom, score
      L1  H    14    28       P1  8028  1.00
      L1  H    22    41       P1 10175  1.00
      P1  H  7997  8008       L1     8  1.00

> <Gold.PLP.Chemscore.Internal.Correction>
0.0250

> <Gold.Rescore>
     Score         DG    S(hbond)    S(metal)    S(lipo)     H(rot)  DE(clash)    DE(int)     intcor
     17.05     -17.99       2.93        0.00      77.33       2.48       0.08       0.86       ----

> <Gold.Chemscore.Fitness>
17.0490

> <Gold.Chemscore.DG>
-17.9901

> <Gold.Chemscore.ZeroCoef>
-5.4800

> <Gold.Chemscore.Hbond>
2.9339

> <Gold.Chemscore.Metal>
0.0000

> <Gold.Chemscore.Lipo>
77.3320

> <Gold.Chemscore.Internal_Hbond>
0.0000

> <Gold.Chemscore.DEClash>
0.0811

> <Gold.Chemscore.DEInternal>
0.8600

> <Gold.Chemscore.Rot>
2.4753

> <Gold.Chemscore.Internal.Correction>
   9.000000E+99

> <Gold.Chemscore.Hbonds>
donor molecule, donor type, donor heavy atom, donor atom, acceptor molecule, acceptor atom, score
      L1  H    14    28       P1  8028  0.95
      L1  H    22    41       P1 10175  0.73
      P1  H  7997  8008       L1     8  0.99

> <Gold.Chemscore.Hbond.Weighted>
-9.7992

> <Gold.Chemscore.Metal.Weighted>
-0.0000

> <Gold.Chemscore.Lipo.Weighted>
-9.0478

> <Gold.Chemscore.Internal_Hbond.Weighted>
0.0000

> <Gold.Chemscore.DEClash.Weighted>
0.0811

> <Gold.Chemscore.DEInternal.Weighted>
0.8600

> <Gold.Chemscore.Rot.Weighted>
6.3369

> <Gold.Chemscore.Internal.Correction.Weighted>
   9.000000E+99

> <Gold.Protein.RotatedTorsions>
[ 6907 6896 6895 6894 ] final -115.81 input  -60.11 | X-H torsion
[ 7974 7965 7964 7962 ] final  123.51 input  175.53 | X-H torsion
[ 8008 7997 7996 7995 ] final -128.29 input   59.86 | X-H torsion
[ 10167 10162 10161 10158 ] final   19.78 input  -65.29 | X-H torsion
[ 10718 10713 10712 10709 ] final  164.13 input   66.30 | X-H torsion
[ 10763 10752 10751 10750 ] final -150.93 input  -60.55 | X-H torsion
[ 11005 11000 10999 10996 ] final  152.05 input  -57.11 | X-H torsion

> <Gold.Protein.ActiveResidues>
 VAL166  LYS551  ARG553  GLY616  TRP617  ASP618  TYR619  PRO620  LYS621  CYS622 
 ASP623  PHE694  ASN695  SER759  ASP760  ASP761  ALA762  ILE779  LEU786  VAL792 
 PHE793  MET794  SER795  GLU796  ALA797  LYS798  CYS799  TRP800  GLU811  SER814 

> <Gold.Protein.RotatedAtoms>
  150.8006  133.8606  159.3230 H   0  0  0  0  0  0  0  0  0  0  0  0  # atno 6907 bound_to 6896
  151.6419  135.1010  160.0152 H   0  0  0  0  0  0  0  0  0  0  0  0  # atno 6908 bound_to 6896
  152.4093  133.6899  159.6419 H   0  0  0  0  0  0  0  0  0  0  0  0  # atno 6909 bound_to 6896
  145.0951  139.3559  143.4841 H   0  0  0  0  0  0  0  0  0  0  0  0  # atno 7974 bound_to 7965
  155.2603  140.0436  157.2996 H   0  0  0  0  0  0  0  0  0  0  0  0  # atno 8008 bound_to 7997
  154.5715  140.2375  155.8154 H   0  0  0  0  0  0  0  0  0  0  0  0  # atno 8009 bound_to 7997
  156.2126  140.2994  155.9774 H   0  0  0  0  0  0  0  0  0  0  0  0  # atno 8010 bound_to 7997
  140.5553  143.9436  150.6605 H   0  0  0  0  0  0  0  0  0  0  0  0  # atno 10167 bound_to 10162
  157.0988  131.0437  151.2507 H   0  0  0  0  0  0  0  0  0  0  0  0  # atno 10718 bound_to 10713
  154.8089  135.3272  154.7358 H   0  0  0  0  0  0  0  0  0  0  0  0  # atno 10763 bound_to 10752
  153.8011  135.6903  153.4860 H   0  0  0  0  0  0  0  0  0  0  0  0  # atno 10764 bound_to 10752
  153.1853  135.4571  155.0027 H   0  0  0  0  0  0  0  0  0  0  0  0  # atno 10765 bound_to 10752
  140.1273  134.8824  157.2156 H   0  0  0  0  0  0  0  0  0  0  0  0  # atno 11005 bound_to 11000
  146.3531  140.0802  142.8618 LP  0  0  0  0  0  0  0  0  0  0  0  0  # atno 17320 bound_to 7965
  145.1021  140.9352  143.4706 LP  0  0  0  0  0  0  0  0  0  0  0  0  # atno 17321 bound_to 7965
  140.2872  143.3349  152.1096 LP  0  0  0  0  0  0  0  0  0  0  0  0  # atno 17342 bound_to 10162
  139.5045  144.6777  151.6088 LP  0  0  0  0  0  0  0  0  0  0  0  0  # atno 17343 bound_to 10162
  157.4659  130.7680  149.7278 LP  0  0  0  0  0  0  0  0  0  0  0  0  # atno 17370 bound_to 10713
  155.9879  130.3963  150.3144 LP  0  0  0  0  0  0  0  0  0  0  0  0  # atno 17371 bound_to 10713
  140.2887  134.3266  155.7321 LP  0  0  0  0  0  0  0  0  0  0  0  0  # atno 17394 bound_to 11000
  141.2163  133.7521  156.9471 LP  0  0  0  0  0  0  0  0  0  0  0  0  # atno 17395 bound_to 11000

$$$$
