AV-unprocessed.smi:2198|AV-procd|sdf|8920|dock5
  -GOLD-   2272012133D 1   1.00000     0.00000
 Structure written by MMmdl.
 42 43  0  0  0  0  0  0  0  0  2 V2000
  147.9525  136.2063  161.0663 C   0  0  0  0  0  0  0  0  0  0  0  0
  148.4585  136.8418  159.7891 C   0  0  0  0  0  0  0  0  0  0  0  0
  147.7690  137.7651  159.2357 N   0  0  0  0  0  0  0  0  0  0  0  0
  148.2295  138.3529  158.0452 C   0  0  0  0  0  0  0  0  0  0  0  0
  147.3432  139.4348  157.4535 C   0  0  0  0  0  0  0  0  0  0  0  0
  149.4011  137.9571  157.4697 C   0  0  0  0  0  0  0  0  0  0  0  0
  149.9387  138.5546  156.1688 C   0  0  0  0  0  0  0  0  0  0  0  0
  150.7859  139.8228  156.2992 C   0  0  0  0  0  0  0  0  0  0  0  0
  151.2579  140.3721  155.3032 O   0  0  0  0  0  0  0  0  0  0  0  0
  150.9803  140.2713  157.5487 N   0  0  0  0  0  0  0  0  0  0  0  0
  151.7809  141.4371  157.9099 C   0  0  1  0  0  0  0  0  0  0  0  0
  151.1098  142.7142  157.3734 C   0  0  0  0  0  0  0  0  0  0  0  0
  151.8973  143.9689  157.7812 C   0  0  0  0  0  0  0  0  0  0  0  0
  152.0756  144.0435  159.3057 C   0  0  0  0  0  0  0  0  0  0  0  0
  152.7495  142.7736  159.8593 C   0  0  1  0  0  0  0  0  0  0  0  0
  152.9179  142.8476  161.3835 C   0  0  0  0  0  0  0  0  0  0  0  0
  151.9615  141.5174  159.4405 C   0  0  0  0  0  0  0  0  0  0  0  0
  150.1726  136.8995  158.1467 C   0  0  0  0  0  0  0  0  0  0  0  0
  151.2477  136.5217  157.6825 O   0  0  0  0  0  0  0  0  0  0  0  0
  149.6532  136.3716  159.2919 N   0  5  0  0  0  0  0  0  0  0  0  0
  147.1353  136.7868  161.4966 H   0  0  0  0  0  0  0  0  0  0  0  0
  148.7520  136.1452  161.8054 H   0  0  0  0  0  0  0  0  0  0  0  0
  147.5892  135.1984  160.8648 H   0  0  0  0  0  0  0  0  0  0  0  0
  146.9188  139.1023  156.5061 H   0  0  0  0  0  0  0  0  0  0  0  0
  147.9113  140.3489  157.2799 H   0  0  0  0  0  0  0  0  0  0  0  0
  146.5188  139.6793  158.1243 H   0  0  0  0  0  0  0  0  0  0  0  0
  150.5113  137.8104  155.6141 H   0  0  0  0  0  0  0  0  0  0  0  0
  149.0908  138.7870  155.5243 H   0  0  0  0  0  0  0  0  0  0  0  0
  150.5521  139.7593  158.3062 H   0  0  0  0  0  0  0  0  0  0  0  0
  152.7635  141.3503  157.4418 H   0  0  0  0  0  0  0  0  0  0  0  0
  151.0302  142.6679  156.2865 H   0  0  0  0  0  0  0  0  0  0  0  0
  150.0905  142.7868  157.7559 H   0  0  0  0  0  0  0  0  0  0  0  0
  152.8753  143.9592  157.2985 H   0  0  0  0  0  0  0  0  0  0  0  0
  151.3847  144.8622  157.4234 H   0  0  0  0  0  0  0  0  0  0  0  0
  152.6687  144.9225  159.5608 H   0  0  0  0  0  0  0  0  0  0  0  0
  151.1023  144.1808  159.7785 H   0  0  0  0  0  0  0  0  0  0  0  0
  153.7466  142.7045  159.4218 H   0  0  0  0  0  0  0  0  0  0  0  0
  151.9531  142.9262  161.8854 H   0  0  0  0  0  0  0  0  0  0  0  0
  153.5143  143.7141  161.6708 H   0  0  0  0  0  0  0  0  0  0  0  0
  153.4214  141.9597  161.7669 H   0  0  0  0  0  0  0  0  0  0  0  0
  150.9838  141.5212  159.9250 H   0  0  0  0  0  0  0  0  0  0  0  0
  152.4780  140.6262  159.7997 H   0  0  0  0  0  0  0  0  0  0  0  0
  1  2  1  0  0  0  0
  1 21  1  0  0  0  0
  1 22  1  0  0  0  0
  1 23  1  0  0  0  0
  2 20  1  0  0  0  0
  2  3  2  0  0  0  0
  3  4  1  0  0  0  0
  4  5  1  0  0  0  0
  4  6  2  0  0  0  0
  5 24  1  0  0  0  0
  5 25  1  0  0  0  0
  5 26  1  0  0  0  0
  6  7  1  0  0  0  0
  6 18  1  0  0  0  0
  7  8  1  0  0  0  0
  7 27  1  0  0  0  0
  7 28  1  0  0  0  0
  8  9  2  0  0  0  0
  8 10  1  0  0  0  0
 10 11  1  0  0  0  0
 10 29  1  0  0  0  0
 11 17  1  0  0  0  0
 11 12  1  0  0  0  0
 11 30  1  0  0  0  0
 12 13  1  0  0  0  0
 12 31  1  0  0  0  0
 12 32  1  0  0  0  0
 13 14  1  0  0  0  0
 13 33  1  0  0  0  0
 13 34  1  0  0  0  0
 14 15  1  0  0  0  0
 14 35  1  0  0  0  0
 14 36  1  0  0  0  0
 15 16  1  0  0  0  0
 15 17  1  0  0  0  0
 15 37  1  0  0  0  0
 16 38  1  0  0  0  0
 16 39  1  0  0  0  0
 16 40  1  0  0  0  0
 17 41  1  0  0  0  0
 17 42  1  0  0  0  0
 18 19  2  0  0  0  0
 18 20  1  0  0  0  0
M  CHG  1  20  -1
M  END
> <s_m_source_file>
AV-unprocessed.smi

> <i_m_source_file_index>
2198

> <i_lp_mmshare_version>
43012

> <i_f3d_flags>
0

> <s_epik_input>
W0NIM11jMW5jKFtDSDNdKWMoYyg9TylbbkhdMSlbQ0gyXUMoPU8pW05IXVtDQEBIXTJbQ0gyXVtDSDJdW0NIMl1bQ0BASF0oW0NIM10pW0NIMl0y

> <s_epik_cmdline>
J2VwaWtfcHl0aG9uJywgJy1waCcsICc3LjAnLCAnLXRuJywgJzgnLCAnLW1hJywgJzIwMCcsICctbWV0YWxfYmluZGluZycsICctaW1hZScsICc8aW5maWxlLm1hZT4nLCAnLW9tYWUnLCAnPG91dGZpbGUubWFlPic=

> <r_lp_tautomer_probability>
0.839158

> <r_epik_Ionization_Penalty>
6.67193

> <r_epik_Ionization_Penalty_Charging>
7.66837e-08

> <r_epik_Ionization_Penalty_Neutral>
6.67193

> <r_epik_State_Penalty>
4.51643

> <r_epik_Charging_Adjusted_Penalty>
4.51643

> <i_epik_Tot_Q>
-1

> <i_epik_Tot_abs_Q>
1

> <r_epik_Metal_State_Penalty>
0.851582

> <b_epik_Metal_Only>
1

> <s_lp_Force_Field>
OPLS_2005

> <r_lp_Energy>
13.5939

> <b_lp_Chiralities_Consistent>
1

> <s_lp_Variant>
AV-unprocessed.smi:2198-10

> <Gold.Version>
5.8.1

> <Gold.Id.Protein>
6NUR|6NUR_protein|mol2

> <Gold.PLP.Fitness>
46.4487

> <Gold.PLP.PLP>
-37.3966

> <Gold.PLP.part.hbond>
-3.3502

> <Gold.PLP.part.metal>
0.0000

> <Gold.PLP.part.buried>
-5.7458

> <Gold.PLP.part.nonpolar>
-28.7119

> <Gold.PLP.part.repulsive>
0.0741

> <Gold.PLP.ligand.clash>
0.0000

> <Gold.PLP.ligand.torsion>
0.4234

> <Gold.PLP.Chemscore.Hbond>
3.2984

> <Gold.PLP.Chemscore.CHOScore>
0.0000

> <Gold.PLP.Chemscore.Metal>
0.0000

> <Gold.Chemscore.Hbonds>
donor molecule, donor type, donor heavy atom, donor atom, acceptor molecule, acceptor atom, score
      P1  H  6896  6909       L1    20  2.00
      P1  H  6934  6947       L1     3  0.33
      P1  H  7989  7998       L1     9  0.98

> <Gold.PLP.Chemscore.Internal.Correction>
0.0037

> <Gold.Rescore>
     Score         DG    S(hbond)    S(metal)    S(lipo)     H(rot)  DE(clash)    DE(int)     intcor
     18.52     -19.10       2.23        0.00      84.41       1.45       0.06       0.52       ----

> <Gold.Chemscore.Fitness>
18.5213

> <Gold.Chemscore.DG>
-19.0969

> <Gold.Chemscore.ZeroCoef>
-5.4800

> <Gold.Chemscore.Hbond>
2.2275

> <Gold.Chemscore.Metal>
0.0000

> <Gold.Chemscore.Lipo>
84.4133

> <Gold.Chemscore.Internal_Hbond>
0.0000

> <Gold.Chemscore.DEClash>
0.0576

> <Gold.Chemscore.DEInternal>
0.5180

> <Gold.Chemscore.Rot>
1.4450

> <Gold.Chemscore.Internal.Correction>
   9.000000E+99

> <Gold.Chemscore.Hbonds>
donor molecule, donor type, donor heavy atom, donor atom, acceptor molecule, acceptor atom, score
      P1  H  6896  6909       L1    20  0.47
      P1  H  6934  6947       L1     3  0.14
      P1  H  7989  7998       L1     9  0.93

> <Gold.Chemscore.Hbond.Weighted>
-7.4398

> <Gold.Chemscore.Metal.Weighted>
-0.0000

> <Gold.Chemscore.Lipo.Weighted>
-9.8764

> <Gold.Chemscore.Internal_Hbond.Weighted>
0.0000

> <Gold.Chemscore.DEClash.Weighted>
0.0576

> <Gold.Chemscore.DEInternal.Weighted>
0.5180

> <Gold.Chemscore.Rot.Weighted>
3.6992

> <Gold.Chemscore.Internal.Correction.Weighted>
   9.000000E+99

> <Gold.Protein.RotatedTorsions>
[ 6907 6896 6895 6894 ] final   56.40 input  -60.11 | X-H torsion
[ 7974 7965 7964 7962 ] final   27.16 input  175.53 | X-H torsion
[ 8008 7997 7996 7995 ] final   75.15 input   59.86 | X-H torsion
[ 10167 10162 10161 10158 ] final   16.31 input  -65.29 | X-H torsion
[ 10718 10713 10712 10709 ] final   65.23 input   66.30 | X-H torsion
[ 10763 10752 10751 10750 ] final  -75.56 input  -60.55 | X-H torsion
[ 11005 11000 10999 10996 ] final  177.65 input  -57.11 | X-H torsion

> <Gold.Protein.ActiveResidues>
 VAL166  LYS551  ARG553  GLY616  TRP617  ASP618  TYR619  PRO620  LYS621  CYS622 
 ASP623  PHE694  ASN695  SER759  ASP760  ASP761  ALA762  ILE779  LEU786  VAL792 
 PHE793  MET794  SER795  GLU796  ALA797  LYS798  CYS799  TRP800  GLU811  SER814 

> <Gold.Protein.RotatedAtoms>
  152.3632  134.6842  160.0200 H   0  0  0  0  0  0  0  0  0  0  0  0  # atno 6907 bound_to 6896
  151.7159  133.3308  159.3310 H   0  0  0  0  0  0  0  0  0  0  0  0  # atno 6908 bound_to 6896
  150.7619  134.6426  159.6289 H   0  0  0  0  0  0  0  0  0  0  0  0  # atno 6909 bound_to 6896
  146.1799  139.7230  142.8907 H   0  0  0  0  0  0  0  0  0  0  0  0  # atno 7974 bound_to 7965
  155.8087  140.3474  155.5445 H   0  0  0  0  0  0  0  0  0  0  0  0  # atno 8008 bound_to 7997
  155.8463  140.0949  157.1723 H   0  0  0  0  0  0  0  0  0  0  0  0  # atno 8009 bound_to 7997
  154.4006  140.1385  156.3777 H   0  0  0  0  0  0  0  0  0  0  0  0  # atno 8010 bound_to 7997
  140.5806  143.8987  150.6787 H   0  0  0  0  0  0  0  0  0  0  0  0  # atno 10167 bound_to 10162
  157.6092  130.9203  149.9950 H   0  0  0  0  0  0  0  0  0  0  0  0  # atno 10718 bound_to 10713
  154.4882  135.5827  153.6439 H   0  0  0  0  0  0  0  0  0  0  0  0  # atno 10763 bound_to 10752
  152.9858  135.6106  154.3159 H   0  0  0  0  0  0  0  0  0  0  0  0  # atno 10764 bound_to 10752
  154.3057  135.2846  155.2569 H   0  0  0  0  0  0  0  0  0  0  0  0  # atno 10765 bound_to 10752
  140.3865  134.6900  157.4482 H   0  0  0  0  0  0  0  0  0  0  0  0  # atno 11005 bound_to 11000
  145.4105  141.0396  143.3020 LP  0  0  0  0  0  0  0  0  0  0  0  0  # atno 17320 bound_to 7965
  144.8298  139.5648  143.6949 LP  0  0  0  0  0  0  0  0  0  0  0  0  # atno 17321 bound_to 7965
  140.2486  143.3610  152.1425 LP  0  0  0  0  0  0  0  0  0  0  0  0  # atno 17342 bound_to 10162
  139.5168  144.6982  151.5569 LP  0  0  0  0  0  0  0  0  0  0  0  0  # atno 17343 bound_to 10162
  156.1189  130.3646  149.9921 LP  0  0  0  0  0  0  0  0  0  0  0  0  # atno 17370 bound_to 10713
  156.8005  130.9289  151.3646 LP  0  0  0  0  0  0  0  0  0  0  0  0  # atno 17371 bound_to 10713
  140.0439  134.6228  155.8946 LP  0  0  0  0  0  0  0  0  0  0  0  0  # atno 17394 bound_to 11000
  141.1906  133.6569  156.5417 LP  0  0  0  0  0  0  0  0  0  0  0  0  # atno 17395 bound_to 11000

$$$$
