AV-unprocessed.smi:1561|AV-procd|sdf|6284|dock7
  -GOLD-   22720 6483D 1   1.00000     0.00000
 Structure written by MMmdl.
 33 34  0  0  0  0  0  0  0  0  1 V2000
  152.4768  144.9954  158.6300 C   0  0  0  0  0  0  0  0  0  0  0  0
  151.6846  144.2573  159.7287 C   0  0  1  0  0  0  0  0  0  0  0  0
  150.3590  143.6761  159.2125 C   0  0  0  0  0  0  0  0  0  0  0  0
  149.2973  143.9331  159.7810 O   0  0  0  0  0  0  0  0  0  0  0  0
  150.4393  142.8891  158.1274 N   0  0  0  0  0  0  0  0  0  0  0  0
  149.3120  142.2458  157.4600 C   0  0  0  0  0  0  0  0  0  0  0  0
  149.6349  141.8899  155.9967 C   0  0  2  0  0  0  0  0  0  0  0  0
  148.6370  140.9422  155.3632 C   0  0  0  0  0  0  0  0  0  0  0  0
  149.4132  140.4171  154.1583 C   0  0  0  0  0  0  0  0  0  0  0  0
  150.7889  140.4606  154.5276 O   0  0  0  0  0  0  0  0  0  0  0  0
  150.9360  141.1143  155.7840 C   0  0  0  0  0  0  0  0  0  0  0  0
  152.4734  143.2161  160.3778 N   0  0  0  0  0  0  0  0  0  0  0  0
  153.1388  142.1631  159.7829 C   0  0  0  0  0  0  0  0  0  0  0  0
  153.7762  141.4684  160.7704 C   0  0  0  0  0  0  0  0  0  0  0  0
  153.4511  142.1881  161.9533 C   0  0  0  0  0  0  0  0  0  0  0  0
  152.6802  143.2362  161.7156 N   0  0  0  0  0  0  0  0  0  0  0  0
  151.8869  145.8041  158.1972 H   0  0  0  0  0  0  0  0  0  0  0  0
  152.7712  144.3310  157.8164 H   0  0  0  0  0  0  0  0  0  0  0  0
  153.3854  145.4380  159.0389 H   0  0  0  0  0  0  0  0  0  0  0  0
  151.4404  144.9961  160.4939 H   0  0  0  0  0  0  0  0  0  0  0  0
  151.3527  142.7310  157.7273 H   0  0  0  0  0  0  0  0  0  0  0  0
  148.9871  141.3612  158.0106 H   0  0  0  0  0  0  0  0  0  0  0  0
  148.4743  142.9430  157.4863 H   0  0  0  0  0  0  0  0  0  0  0  0
  149.6695  142.8031  155.3999 H   0  0  0  0  0  0  0  0  0  0  0  0
  148.4075  140.1208  156.0441 H   0  0  0  0  0  0  0  0  0  0  0  0
  147.7000  141.4263  155.0857 H   0  0  0  0  0  0  0  0  0  0  0  0
  149.1081  139.4091  153.8765 H   0  0  0  0  0  0  0  0  0  0  0  0
  149.2660  141.0688  153.2963 H   0  0  0  0  0  0  0  0  0  0  0  0
  151.8163  141.7572  155.7964 H   0  0  0  0  0  0  0  0  0  0  0  0
  151.0616  140.3526  156.5551 H   0  0  0  0  0  0  0  0  0  0  0  0
  153.1033  141.9973  158.7162 H   0  0  0  0  0  0  0  0  0  0  0  0
  154.3866  140.5842  160.6638 H   0  0  0  0  0  0  0  0  0  0  0  0
  153.7539  141.9841  162.9699 H   0  0  0  0  0  0  0  0  0  0  0  0
  1  2  1  0  0  0  0
  1 17  1  0  0  0  0
  1 18  1  0  0  0  0
  1 19  1  0  0  0  0
  2  3  1  0  0  0  0
  2 12  1  0  0  0  0
  2 20  1  0  0  0  0
  3  4  2  0  0  0  0
  3  5  1  0  0  0  0
  5  6  1  0  0  0  0
  5 21  1  0  0  0  0
  6  7  1  0  0  0  0
  6 22  1  0  0  0  0
  6 23  1  0  0  0  0
  7 11  1  0  0  0  0
  7  8  1  0  0  0  0
  7 24  1  0  0  0  0
  8  9  1  0  0  0  0
  8 25  1  0  0  0  0
  8 26  1  0  0  0  0
  9 10  1  0  0  0  0
  9 27  1  0  0  0  0
  9 28  1  0  0  0  0
 10 11  1  0  0  0  0
 11 29  1  0  0  0  0
 11 30  1  0  0  0  0
 12 16  1  0  0  0  0
 12 13  1  0  0  0  0
 13 14  2  0  0  0  0
 13 31  1  0  0  0  0
 14 15  1  0  0  0  0
 14 32  1  0  0  0  0
 15 16  2  0  0  0  0
 15 33  1  0  0  0  0
M  END
> <s_m_source_file>
AV-unprocessed.smi

> <i_m_source_file_index>
1561

> <i_lp_mmshare_version>
43012

> <i_f3d_flags>
0

> <s_epik_input>
bjFbY0hdW2NIXVtjSF1uMVtDQEhdKFtDSDNdKUMoPU8pW05IXVtDSDJdW0NAQEhdMltDSDJdW0NIMl1PW0NIMl0y

> <s_epik_cmdline>
J2VwaWtfcHl0aG9uJywgJy1waCcsICc3LjAnLCAnLXRuJywgJzgnLCAnLW1hJywgJzIwMCcsICctbWV0YWxfYmluZGluZycsICctaW1hZScsICc8aW5maWxlLm1hZT4nLCAnLW9tYWUnLCAnPG91dGZpbGUubWFlPic=

> <r_lp_tautomer_probability>
1

> <r_epik_Ionization_Penalty>
3.82077e-05

> <r_epik_Ionization_Penalty_Charging>
0

> <r_epik_Ionization_Penalty_Neutral>
3.82077e-05

> <r_epik_State_Penalty>
-0

> <r_epik_Charging_Adjusted_Penalty>
0

> <i_epik_Tot_Q>
0

> <i_epik_Tot_abs_Q>
0

> <r_epik_Metal_State_Penalty>
-0

> <b_epik_Metal_Only>
0

> <s_lp_Force_Field>
OPLS_2005

> <r_lp_Energy>
22.8323

> <b_lp_Chiralities_Consistent>
1

> <s_lp_Variant>
AV-unprocessed.smi:1561-2

> <Gold.Version>
5.8.1

> <Gold.Id.Protein>
6NUR|6NUR_protein|mol2

> <Gold.PLP.Fitness>
41.6292

> <Gold.PLP.PLP>
-39.4550

> <Gold.PLP.part.hbond>
-1.9597

> <Gold.PLP.part.metal>
0.0000

> <Gold.PLP.part.buried>
-5.6380

> <Gold.PLP.part.nonpolar>
-32.9242

> <Gold.PLP.part.repulsive>
0.3998

> <Gold.PLP.ligand.clash>
0.0000

> <Gold.PLP.ligand.torsion>
0.5411

> <Gold.PLP.Chemscore.Hbond>
1.0510

> <Gold.PLP.Chemscore.CHOScore>
0.0000

> <Gold.PLP.Chemscore.Metal>
0.0000

> <Gold.Chemscore.Hbonds>
donor molecule, donor type, donor heavy atom, donor atom, acceptor molecule, acceptor atom, score
      P1  H  6933  6944       L1     4  0.05
      P1  H  7989  7998       L1    10  0.65

> <Gold.PLP.Chemscore.Internal.Correction>
0.1036

> <Gold.Rescore>
     Score         DG    S(hbond)    S(metal)    S(lipo)     H(rot)  DE(clash)    DE(int)     intcor
     15.55     -16.17       1.41        0.00      86.24       1.61       0.22       0.41       ----

> <Gold.Chemscore.Fitness>
15.5456

> <Gold.Chemscore.DG>
-16.1684

> <Gold.Chemscore.ZeroCoef>
-5.4800

> <Gold.Chemscore.Hbond>
1.4126

> <Gold.Chemscore.Metal>
0.0000

> <Gold.Chemscore.Lipo>
86.2416

> <Gold.Chemscore.Internal_Hbond>
0.0000

> <Gold.Chemscore.DEClash>
0.2174

> <Gold.Chemscore.DEInternal>
0.4055

> <Gold.Chemscore.Rot>
1.6094

> <Gold.Chemscore.Internal.Correction>
   9.000000E+99

> <Gold.Chemscore.Hbonds>
donor molecule, donor type, donor heavy atom, donor atom, acceptor molecule, acceptor atom, score
      P1  H  6933  6944       L1     4  0.05
      P1  H  7989  7998       L1    10  0.51

> <Gold.Chemscore.Hbond.Weighted>
-4.7182

> <Gold.Chemscore.Metal.Weighted>
-0.0000

> <Gold.Chemscore.Lipo.Weighted>
-10.0903

> <Gold.Chemscore.Internal_Hbond.Weighted>
0.0000

> <Gold.Chemscore.DEClash.Weighted>
0.2174

> <Gold.Chemscore.DEInternal.Weighted>
0.4055

> <Gold.Chemscore.Rot.Weighted>
4.1201

> <Gold.Chemscore.Internal.Correction.Weighted>
   9.000000E+99

> <Gold.Protein.RotatedTorsions>
[ 6907 6896 6895 6894 ] final  -13.12 input  -60.11 | X-H torsion
[ 7974 7965 7964 7962 ] final  -70.39 input  175.53 | X-H torsion
[ 8008 7997 7996 7995 ] final   25.31 input   59.86 | X-H torsion
[ 10167 10162 10161 10158 ] final -112.79 input  -65.29 | X-H torsion
[ 10718 10713 10712 10709 ] final  -76.90 input   66.30 | X-H torsion
[ 10763 10752 10751 10750 ] final  -28.46 input  -60.55 | X-H torsion
[ 11005 11000 10999 10996 ] final   84.24 input  -57.11 | X-H torsion

> <Gold.Protein.ActiveResidues>
 VAL166  LYS551  ARG553  GLY616  TRP617  ASP618  TYR619  PRO620  LYS621  CYS622 
 ASP623  PHE694  ASN695  SER759  ASP760  ASP761  ALA762  ILE779  LEU786  VAL792 
 PHE793  MET794  SER795  GLU796  ALA797  LYS798  CYS799  TRP800  GLU811  SER814 

> <Gold.Protein.RotatedAtoms>
  151.3598  135.0902  159.9430 H   0  0  0  0  0  0  0  0  0  0  0  0  # atno 6907 bound_to 6896
  152.5165  133.9269  159.7572 H   0  0  0  0  0  0  0  0  0  0  0  0  # atno 6908 bound_to 6896
  150.9661  133.6339  159.2775 H   0  0  0  0  0  0  0  0  0  0  0  0  # atno 6909 bound_to 6896
  145.6916  140.9151  143.0779 H   0  0  0  0  0  0  0  0  0  0  0  0  # atno 7974 bound_to 7965
  155.0098  140.3135  155.4834 H   0  0  0  0  0  0  0  0  0  0  0  0  # atno 8008 bound_to 7997
  156.2911  140.2216  156.5153 H   0  0  0  0  0  0  0  0  0  0  0  0  # atno 8009 bound_to 7997
  154.7545  140.0463  157.0909 H   0  0  0  0  0  0  0  0  0  0  0  0  # atno 8010 bound_to 7997
  140.1188  143.4461  152.1704 H   0  0  0  0  0  0  0  0  0  0  0  0  # atno 10167 bound_to 10162
  156.0161  130.4477  150.3263 H   0  0  0  0  0  0  0  0  0  0  0  0  # atno 10718 bound_to 10713
  153.7488  135.6927  153.4950 H   0  0  0  0  0  0  0  0  0  0  0  0  # atno 10763 bound_to 10752
  153.2018  135.4434  155.0274 H   0  0  0  0  0  0  0  0  0  0  0  0  # atno 10764 bound_to 10752
  154.8195  135.3415  154.7009 H   0  0  0  0  0  0  0  0  0  0  0  0  # atno 10765 bound_to 10752
  139.9006  134.8202  156.2418 H   0  0  0  0  0  0  0  0  0  0  0  0  # atno 11005 bound_to 11000
  144.6995  139.8829  143.7448 LP  0  0  0  0  0  0  0  0  0  0  0  0  # atno 17320 bound_to 7965
  146.0877  139.3866  143.0425 LP  0  0  0  0  0  0  0  0  0  0  0  0  # atno 17321 bound_to 7965
  139.5579  144.7386  151.4239 LP  0  0  0  0  0  0  0  0  0  0  0  0  # atno 17342 bound_to 10162
  140.6884  143.7920  150.7219 LP  0  0  0  0  0  0  0  0  0  0  0  0  # atno 17343 bound_to 10162
  157.1362  131.0285  151.2947 LP  0  0  0  0  0  0  0  0  0  0  0  0  # atno 17370 bound_to 10713
  157.4509  130.7598  149.7151 LP  0  0  0  0  0  0  0  0  0  0  0  0  # atno 17371 bound_to 10713
  141.0280  133.7004  156.1380 LP  0  0  0  0  0  0  0  0  0  0  0  0  # atno 17394 bound_to 11000
  140.7138  134.4432  157.5580 LP  0  0  0  0  0  0  0  0  0  0  0  0  # atno 17395 bound_to 11000

$$$$
