AV-unprocessed.smi:113|AV-procd|sdf|1099|dock3
  -GOLD-   2262018203D 1   1.00000     0.00000
 Structure written by MMmdl.
 53 56  0  0  0  0  0  0  0  0  2 V2000
  147.9352  141.7464  156.1685 C   0  0  0  0  0  0  0  0  0  0  0  0
  149.1938  141.4656  156.9617 C   0  0  0  0  0  0  0  0  0  0  0  0
  149.6872  140.1594  157.1451 C   0  0  0  0  0  0  0  0  0  0  0  0
  150.8707  139.9490  157.8956 C   0  0  0  0  0  0  0  0  0  0  0  0
  151.4316  138.5393  158.1113 C   0  0  0  0  0  0  0  0  0  0  0  0
  150.5019  137.4289  157.9594 N   0  0  0  0  0  0  0  0  0  0  0  0
  149.5699  137.1974  158.9987 C   0  0  0  0  0  0  0  0  0  0  0  0
  149.5350  137.9096  160.0044 O   0  0  0  0  0  0  0  0  0  0  0  0
  148.6891  136.0455  158.7960 C   0  0  0  0  0  0  0  0  0  0  0  0
  147.6853  135.7119  159.8889 C   0  0  0  0  0  0  0  0  0  0  0  0
  148.7973  135.3042  157.6668 C   0  0  0  0  0  0  0  0  0  0  0  0
  149.7012  135.5685  156.6465 N   0  0  0  0  0  0  0  0  0  0  0  0
  149.8625  134.6747  155.4227 C   0  0  2  0  0  0  0  0  0  0  0  0
  148.6357  133.8246  155.0740 C   0  0  0  0  0  0  0  0  0  0  0  0
  148.9291  132.4857  155.7543 C   0  0  1  0  0  0  0  0  0  0  0  0
  148.8114  131.4313  154.8174 O   0  0  0  0  0  0  0  0  0  0  0  0
  150.3511  132.6452  156.3422 C   0  0  1  0  0  0  0  0  0  0  0  0
  151.3043  131.4418  156.2293 C   0  0  0  0  0  0  0  0  0  0  0  0
  152.4495  131.6445  157.0304 O   0  0  0  0  0  0  0  0  0  0  0  0
  150.8934  133.7717  155.6636 O   0  0  0  0  0  0  0  0  0  0  0  0
  150.6224  136.6262  156.8033 C   0  0  0  0  0  0  0  0  0  0  0  0
  151.5037  136.8303  155.9646 O   0  0  0  0  0  0  0  0  0  0  0  0
  151.5304  141.0824  158.4454 C   0  0  0  0  0  0  0  0  0  0  0  0
  152.7165  140.9676  159.2096 C   0  0  0  0  0  0  0  0  0  0  0  0
  153.3393  142.1144  159.7405 C   0  0  0  0  0  0  0  0  0  0  0  0
  152.7893  143.3900  159.5144 C   0  0  0  0  0  0  0  0  0  0  0  0
  151.6119  143.5226  158.7554 C   0  0  0  0  0  0  0  0  0  0  0  0
  150.9861  142.3766  158.2252 C   0  0  0  0  0  0  0  0  0  0  0  0
  149.8552  142.5101  157.5004 N   0  3  0  0  0  0  0  0  0  0  0  0
  147.2723  140.8807  156.1755 H   0  0  0  0  0  0  0  0  0  0  0  0
  148.1862  141.9784  155.1332 H   0  0  0  0  0  0  0  0  0  0  0  0
  147.3909  142.5924  156.5893 H   0  0  0  0  0  0  0  0  0  0  0  0
  149.1484  139.3331  156.7058 H   0  0  0  0  0  0  0  0  0  0  0  0
  152.2694  138.3618  157.4350 H   0  0  0  0  0  0  0  0  0  0  0  0
  151.8694  138.4560  159.1075 H   0  0  0  0  0  0  0  0  0  0  0  0
  147.0786  134.8427  159.6337 H   0  0  0  0  0  0  0  0  0  0  0  0
  147.0091  136.5513  160.0552 H   0  0  0  0  0  0  0  0  0  0  0  0
  148.1994  135.4948  160.8257 H   0  0  0  0  0  0  0  0  0  0  0  0
  148.1405  134.4537  157.5853 H   0  0  0  0  0  0  0  0  0  0  0  0
  150.1120  135.3516  154.6038 H   0  0  0  0  0  0  0  0  0  0  0  0
  147.6981  134.2977  155.3650 H   0  0  0  0  0  0  0  0  0  0  0  0
  148.6170  133.7104  153.9890 H   0  0  0  0  0  0  0  0  0  0  0  0
  148.2194  132.2928  156.5590 H   0  0  0  0  0  0  0  0  0  0  0  0
  148.5973  130.6371  155.2826 H   0  0  0  0  0  0  0  0  0  0  0  0
  150.2673  132.9223  157.3945 H   0  0  0  0  0  0  0  0  0  0  0  0
  150.8120  130.5097  156.5072 H   0  0  0  0  0  0  0  0  0  0  0  0
  151.6330  131.3279  155.1961 H   0  0  0  0  0  0  0  0  0  0  0  0
  152.8656  130.8086  157.1766 H   0  0  0  0  0  0  0  0  0  0  0  0
  153.1686  140.0068  159.4036 H   0  0  0  0  0  0  0  0  0  0  0  0
  154.2430  142.0144  160.3239 H   0  0  0  0  0  0  0  0  0  0  0  0
  153.2710  144.2662  159.9237 H   0  0  0  0  0  0  0  0  0  0  0  0
  151.1943  144.5045  158.5855 H   0  0  0  0  0  0  0  0  0  0  0  0
  149.4815  143.4476  157.3541 H   0  0  0  0  0  0  0  0  0  0  0  0
  1  2  1  0  0  0  0
  1 30  1  0  0  0  0
  1 31  1  0  0  0  0
  1 32  1  0  0  0  0
  2 29  1  0  0  0  0
  2  3  2  0  0  0  0
  3  4  1  0  0  0  0
  3 33  1  0  0  0  0
  4  5  1  0  0  0  0
  4 23  2  0  0  0  0
  5  6  1  0  0  0  0
  5 34  1  0  0  0  0
  5 35  1  0  0  0  0
  6 21  1  0  0  0  0
  6  7  1  0  0  0  0
  7  8  2  0  0  0  0
  7  9  1  0  0  0  0
  9 10  1  0  0  0  0
  9 11  2  0  0  0  0
 10 36  1  0  0  0  0
 10 37  1  0  0  0  0
 10 38  1  0  0  0  0
 11 12  1  0  0  0  0
 11 39  1  0  0  0  0
 12 13  1  0  0  0  0
 12 21  1  0  0  0  0
 13 20  1  0  0  0  0
 13 14  1  0  0  0  0
 13 40  1  0  0  0  0
 14 15  1  0  0  0  0
 14 41  1  0  0  0  0
 14 42  1  0  0  0  0
 15 16  1  0  0  0  0
 15 17  1  0  0  0  0
 15 43  1  0  0  0  0
 16 44  1  0  0  0  0
 17 18  1  0  0  0  0
 17 20  1  0  0  0  0
 17 45  1  0  0  0  0
 18 19  1  0  0  0  0
 18 46  1  0  0  0  0
 18 47  1  0  0  0  0
 19 48  1  0  0  0  0
 21 22  2  0  0  0  0
 23 28  1  0  0  0  0
 23 24  1  0  0  0  0
 24 25  2  0  0  0  0
 24 49  1  0  0  0  0
 25 26  1  0  0  0  0
 25 50  1  0  0  0  0
 26 27  2  0  0  0  0
 26 51  1  0  0  0  0
 27 28  1  0  0  0  0
 27 52  1  0  0  0  0
 28 29  2  0  0  0  0
 29 53  1  0  0  0  0
M  CHG  1  29   1
M  END
> <s_m_source_file>
AV-unprocessed.smi

> <i_m_source_file_index>
113

> <i_lp_mmshare_version>
43012

> <i_f3d_flags>
0

> <s_epik_input>
W2NIXTFbY0hdW2NIXVtjSF1jKGMxMiluYyhbQ0gzXSlbY0hdYzJbQ0gyXW4zYyg9TyljKFtDSDNdKVtjSF1uKGMzPU8pW0NAQEhdNFtDSDJdW0NAQEhdKFtPSF0pW0NASF0oTzQpW0NIMl1bT0hd

> <s_epik_cmdline>
J2VwaWtfcHl0aG9uJywgJy1waCcsICc3LjAnLCAnLXRuJywgJzgnLCAnLW1hJywgJzIwMCcsICctbWV0YWxfYmluZGluZycsICctaW1hZScsICc8aW5maWxlLm1hZT4nLCAnLW9tYWUnLCAnPG91dGZpbGUubWFlPic=

> <r_lp_tautomer_probability>
1

> <r_epik_Ionization_Penalty>
0.705471

> <r_epik_Ionization_Penalty_Charging>
0.70547

> <r_epik_Ionization_Penalty_Neutral>
1.19947e-07

> <r_epik_State_Penalty>
0.728574

> <r_epik_Charging_Adjusted_Penalty>
1.43404

> <i_epik_Tot_Q>
1

> <i_epik_Tot_abs_Q>
1

> <r_epik_Metal_State_Penalty>
4.61665

> <b_epik_Metal_Only>
0

> <s_epik_Chemistry_Notes>
This compound contains an acetal/aminal-like group ( X-CH(R)-Y where X, Y are N, S, or O) that may be acid/base labile, releasing an aldehyde.

> <s_lp_Force_Field>
OPLS_2005

> <r_lp_Energy>
45.3358

> <b_lp_Chiralities_Consistent>
1

> <s_lp_Variant>
AV-unprocessed.smi:113-9

> <Gold.Version>
5.8.1

> <Gold.Id.Protein>
6NUR|6NUR_protein|mol2

> <Gold.PLP.Fitness>
53.4199

> <Gold.PLP.PLP>
-43.6629

> <Gold.PLP.part.hbond>
-5.0000

> <Gold.PLP.part.metal>
0.0000

> <Gold.PLP.part.buried>
-4.5754

> <Gold.PLP.part.nonpolar>
-34.9404

> <Gold.PLP.part.repulsive>
0.0813

> <Gold.PLP.ligand.clash>
0.0000

> <Gold.PLP.ligand.torsion>
1.1402

> <Gold.PLP.Chemscore.Hbond>
3.9840

> <Gold.PLP.Chemscore.CHOScore>
0.0000

> <Gold.PLP.Chemscore.Metal>
0.0000

> <Gold.Chemscore.Hbonds>
donor molecule, donor type, donor heavy atom, donor atom, acceptor molecule, acceptor atom, score
      L1  H    29    53       P1  8028  0.94
      P1  H  6931  6943       L1     8  0.02
      P1  H 10752 10763       L1    22  0.37

> <Gold.PLP.Chemscore.Internal.Correction>
0.0854

> <Gold.Rescore>
     Score         DG    S(hbond)    S(metal)    S(lipo)     H(rot)  DE(clash)    DE(int)     intcor
     19.62     -20.49       2.91        0.00     111.18       3.01       0.00       0.86       ----

> <Gold.Chemscore.Fitness>
19.6237

> <Gold.Chemscore.DG>
-20.4871

> <Gold.Chemscore.ZeroCoef>
-5.4800

> <Gold.Chemscore.Hbond>
2.9070

> <Gold.Chemscore.Metal>
0.0000

> <Gold.Chemscore.Lipo>
111.1837

> <Gold.Chemscore.Internal_Hbond>
0.0000

> <Gold.Chemscore.DEClash>
0.0004

> <Gold.Chemscore.DEInternal>
0.8629

> <Gold.Chemscore.Rot>
3.0120

> <Gold.Chemscore.Internal.Correction>
   9.000000E+99

> <Gold.Chemscore.Hbonds>
donor molecule, donor type, donor heavy atom, donor atom, acceptor molecule, acceptor atom, score
      L1  H    29    53       P1  8028  0.37
      P1  H  6931  6943       L1     8  0.07
      P1  H 10752 10763       L1    22  0.37

> <Gold.Chemscore.Hbond.Weighted>
-9.7094

> <Gold.Chemscore.Metal.Weighted>
-0.0000

> <Gold.Chemscore.Lipo.Weighted>
-13.0085

> <Gold.Chemscore.Internal_Hbond.Weighted>
0.0000

> <Gold.Chemscore.DEClash.Weighted>
0.0004

> <Gold.Chemscore.DEInternal.Weighted>
0.8629

> <Gold.Chemscore.Rot.Weighted>
7.7108

> <Gold.Chemscore.Internal.Correction.Weighted>
   9.000000E+99

> <Gold.Protein.RotatedTorsions>
[ 6907 6896 6895 6894 ] final  155.34 input  -60.11 | X-H torsion
[ 7974 7965 7964 7962 ] final   11.85 input  175.53 | X-H torsion
[ 8008 7997 7996 7995 ] final  -52.74 input   59.86 | X-H torsion
[ 10167 10162 10161 10158 ] final  115.35 input  -65.29 | X-H torsion
[ 10718 10713 10712 10709 ] final  -37.33 input   66.30 | X-H torsion
[ 10763 10752 10751 10750 ] final   78.65 input  -60.55 | X-H torsion
[ 11005 11000 10999 10996 ] final  120.53 input  -57.11 | X-H torsion

> <Gold.Protein.ActiveResidues>
 VAL166  LYS551  ARG553  GLY616  TRP617  ASP618  TYR619  PRO620  LYS621  CYS622 
 ASP623  PHE694  ASN695  SER759  ASP760  ASP761  ALA762  ILE779  LEU786  VAL792 
 PHE793  MET794  SER795  GLU796  ALA797  LYS798  CYS799  TRP800  GLU811  SER814 

> <Gold.Protein.RotatedAtoms>
  152.0456  133.3996  159.4355 H   0  0  0  0  0  0  0  0  0  0  0  0  # atno 6907 bound_to 6896
  150.6873  134.3365  159.4859 H   0  0  0  0  0  0  0  0  0  0  0  0  # atno 6908 bound_to 6896
  152.1169  134.9233  160.0615 H   0  0  0  0  0  0  0  0  0  0  0  0  # atno 6909 bound_to 6896
  146.2363  139.9424  142.8481 H   0  0  0  0  0  0  0  0  0  0  0  0  # atno 7974 bound_to 7965
  154.4114  140.1216  156.5041 H   0  0  0  0  0  0  0  0  0  0  0  0  # atno 8008 bound_to 7997
  155.6865  140.3495  155.4857 H   0  0  0  0  0  0  0  0  0  0  0  0  # atno 8009 bound_to 7997
  155.9506  140.1104  157.0970 H   0  0  0  0  0  0  0  0  0  0  0  0  # atno 8010 bound_to 7997
  139.6323  144.7116  151.2406 H   0  0  0  0  0  0  0  0  0  0  0  0  # atno 10167 bound_to 10162
  156.3164  130.4259  149.8001 H   0  0  0  0  0  0  0  0  0  0  0  0  # atno 10718 bound_to 10713
  153.0891  135.4869  154.8654 H   0  0  0  0  0  0  0  0  0  0  0  0  # atno 10763 bound_to 10752
  154.7247  135.3047  154.8993 H   0  0  0  0  0  0  0  0  0  0  0  0  # atno 10764 bound_to 10752
  153.9647  135.6808  153.4799 H   0  0  0  0  0  0  0  0  0  0  0  0  # atno 10765 bound_to 10752
  139.9189  134.9635  156.7821 H   0  0  0  0  0  0  0  0  0  0  0  0  # atno 11005 bound_to 11000
  145.1940  140.9824  143.4194 LP  0  0  0  0  0  0  0  0  0  0  0  0  # atno 17320 bound_to 7965
  144.9832  139.3762  143.6251 LP  0  0  0  0  0  0  0  0  0  0  0  0  # atno 17321 bound_to 7965
  140.7446  143.6457  150.8294 LP  0  0  0  0  0  0  0  0  0  0  0  0  # atno 17342 bound_to 10162
  140.0084  143.5669  152.2848 LP  0  0  0  0  0  0  0  0  0  0  0  0  # atno 17343 bound_to 10162
  156.5325  130.8264  151.3242 LP  0  0  0  0  0  0  0  0  0  0  0  0  # atno 17370 bound_to 10713
  157.7402  130.9846  150.2365 LP  0  0  0  0  0  0  0  0  0  0  0  0  # atno 17371 bound_to 10713
  140.6535  133.9709  155.7767 LP  0  0  0  0  0  0  0  0  0  0  0  0  # atno 17394 bound_to 11000
  141.0692  134.0231  157.3551 LP  0  0  0  0  0  0  0  0  0  0  0  0  # atno 17395 bound_to 11000

$$$$
