AV-unprocessed.smi:2605|AV-procd|sdf|10194|dock4
  -GOLD-   2272014203D 1   1.00000     0.00000
 Structure written by MMmdl.
 26 27  0  0  0  0  0  0  0  0  2 V2000
  146.2103  133.0124  150.5052 C   0  0  0  0  0  0  0  0  0  0  0  0
  146.2900  134.2154  151.2352 C   0  0  0  0  0  0  0  0  0  0  0  0
  145.1988  135.1077  151.1862 C   0  0  0  0  0  0  0  0  0  0  0  0
  145.2460  136.4204  151.9519 C   0  0  1  0  0  0  0  0  0  0  0  0
  144.0076  136.5831  152.8625 C   0  0  0  0  0  0  0  0  0  0  0  0
  144.0499  137.8809  153.5674 N   0  3  0  0  0  0  0  0  0  0  0  0
  145.3090  138.0357  154.3225 C   0  0  0  0  0  0  0  0  0  0  0  0
  146.5131  137.8552  153.3805 C   0  0  0  0  0  0  0  0  0  0  0  0
  146.4600  136.5351  152.7601 N   0  0  0  0  0  0  0  0  0  0  0  0
  144.0791  134.7553  150.4013 C   0  0  0  0  0  0  0  0  0  0  0  0
  144.1003  133.5277  149.7097 C   0  0  0  0  0  0  0  0  0  0  0  0
  145.1411  132.6692  149.7558 N   0  0  0  0  0  0  0  0  0  0  0  0
  147.0283  132.3074  150.5236 H   0  0  0  0  0  0  0  0  0  0  0  0
  147.1704  134.4416  151.8187 H   0  0  0  0  0  0  0  0  0  0  0  0
  145.2564  137.2274  151.2172 H   0  0  0  0  0  0  0  0  0  0  0  0
  143.0923  136.5371  152.2717 H   0  0  0  0  0  0  0  0  0  0  0  0
  143.9549  135.7765  153.5957 H   0  0  0  0  0  0  0  0  0  0  0  0
  143.9883  138.6229  152.8851 H   0  0  0  0  0  0  0  0  0  0  0  0
  145.3303  139.0244  154.7813 H   0  0  0  0  0  0  0  0  0  0  0  0
  145.3416  137.3052  155.1323 H   0  0  0  0  0  0  0  0  0  0  0  0
  146.5276  138.6293  152.6119 H   0  0  0  0  0  0  0  0  0  0  0  0
  147.4437  137.9441  153.9415 H   0  0  0  0  0  0  0  0  0  0  0  0
  147.2708  136.3971  152.1726 H   0  0  0  0  0  0  0  0  0  0  0  0
  143.2207  135.4069  150.3285 H   0  0  0  0  0  0  0  0  0  0  0  0
  143.2589  133.2283  149.1026 H   0  0  0  0  0  0  0  0  0  0  0  0
  143.2660  137.9460  154.2008 H   0  0  0  0  0  0  0  0  0  0  0  0
  1 12  1  0  0  0  0
  1  2  2  0  0  0  0
  1 13  1  0  0  0  0
  2  3  1  0  0  0  0
  2 14  1  0  0  0  0
  3  4  1  0  0  0  0
  3 10  2  0  0  0  0
  4  9  1  0  0  0  0
  4  5  1  0  0  0  0
  4 15  1  0  0  0  0
  5  6  1  0  0  0  0
  5 16  1  0  0  0  0
  5 17  1  0  0  0  0
  6  7  1  0  0  0  0
  6 18  1  0  0  0  0
  6 26  1  0  0  0  0
  7  8  1  0  0  0  0
  7 19  1  0  0  0  0
  7 20  1  0  0  0  0
  8  9  1  0  0  0  0
  8 21  1  0  0  0  0
  8 22  1  0  0  0  0
  9 23  1  0  0  0  0
 10 11  1  0  0  0  0
 10 24  1  0  0  0  0
 11 12  2  0  0  0  0
 11 25  1  0  0  0  0
M  CHG  1   6   1
M  END
> <s_m_source_file>
AV-unprocessed.smi

> <i_m_source_file_index>
2605

> <i_lp_mmshare_version>
43012

> <i_f3d_flags>
0

> <s_epik_input>
W2NIXTFbY0hdbltjSF1bY0hdYzFbQ0BASF0yW0NIMl1bTkhdW0NIMl1bQ0gyXVtOSF0y

> <s_epik_cmdline>
J2VwaWtfcHl0aG9uJywgJy1waCcsICc3LjAnLCAnLXRuJywgJzgnLCAnLW1hJywgJzIwMCcsICctbWV0YWxfYmluZGluZycsICctaW1hZScsICc8aW5maWxlLm1hZT4nLCAnLW9tYWUnLCAnPG91dGZpbGUubWFlPic=

> <r_epik_Ionization_Penalty>
0.0197506

> <r_epik_Ionization_Penalty_Charging>
0.010317

> <r_epik_Ionization_Penalty_Neutral>
0.00943359

> <r_epik_State_Penalty>
0.319455

> <r_epik_Charging_Adjusted_Penalty>
0.329772

> <i_epik_Tot_Q>
1

> <i_epik_Tot_abs_Q>
1

> <r_epik_Metal_State_Penalty>
0.318246

> <b_epik_Metal_Only>
0

> <s_lp_Force_Field>
OPLS_2005

> <r_lp_Energy>
9.79217

> <b_lp_Chiralities_Consistent>
1

> <s_lp_Variant>
AV-unprocessed.smi:2605-2

> <Gold.Version>
5.8.1

> <Gold.Id.Protein>
6NUR|6NUR_protein|mol2

> <Gold.PLP.Fitness>
32.7296

> <Gold.PLP.PLP>
-18.8897

> <Gold.PLP.part.hbond>
-2.0000

> <Gold.PLP.part.metal>
0.0000

> <Gold.PLP.part.buried>
-2.3003

> <Gold.PLP.part.nonpolar>
-15.8473

> <Gold.PLP.part.repulsive>
0.1610

> <Gold.PLP.ligand.clash>
0.0000

> <Gold.PLP.ligand.torsion>
0.0566

> <Gold.PLP.Chemscore.Hbond>
3.0000

> <Gold.PLP.Chemscore.CHOScore>
1.6486

> <Gold.PLP.Chemscore.Metal>
0.0000

> <Gold.Chemscore.Hbonds>
donor molecule, donor type, donor heavy atom, donor atom, acceptor molecule, acceptor atom, score
      L1  H     6    18       P1 10175  2.00
      L1  H     9    23       P1  7948  1.00
      L1  C     1    13       P1 10747  1.00
      L1  C    11    25       P1 10186  0.65

> <Gold.PLP.Chemscore.Internal.Correction>
0.0074

> <Gold.Rescore>
     Score         DG    S(hbond)    S(metal)    S(lipo)     H(rot)  DE(clash)    DE(int)     intcor
     14.95     -15.15       1.87        0.00      51.22       1.00       0.16       0.04       ----

> <Gold.Chemscore.Fitness>
14.9502

> <Gold.Chemscore.DG>
-15.1549

> <Gold.Chemscore.ZeroCoef>
-5.4800

> <Gold.Chemscore.Hbond>
1.8688

> <Gold.Chemscore.Metal>
0.0000

> <Gold.Chemscore.Lipo>
51.2226

> <Gold.Chemscore.Internal_Hbond>
0.0000

> <Gold.Chemscore.DEClash>
0.1613

> <Gold.Chemscore.DEInternal>
0.0435

> <Gold.Chemscore.Rot>
1.0000

> <Gold.Chemscore.Internal.Correction>
   9.000000E+99

> <Gold.Chemscore.Hbonds>
donor molecule, donor type, donor heavy atom, donor atom, acceptor molecule, acceptor atom, score
      L1  H     6    18       P1 10175  0.94
      L1  H     9    23       P1  7948  0.98

> <Gold.Chemscore.Hbond.Weighted>
-6.2419

> <Gold.Chemscore.Metal.Weighted>
-0.0000

> <Gold.Chemscore.Lipo.Weighted>
-5.9930

> <Gold.Chemscore.Internal_Hbond.Weighted>
0.0000

> <Gold.Chemscore.DEClash.Weighted>
0.1613

> <Gold.Chemscore.DEInternal.Weighted>
0.0435

> <Gold.Chemscore.Rot.Weighted>
2.5600

> <Gold.Chemscore.Internal.Correction.Weighted>
   9.000000E+99

> <Gold.Protein.RotatedTorsions>
[ 6907 6896 6895 6894 ] final  131.49 input  -60.11 | X-H torsion
[ 7974 7965 7964 7962 ] final -178.55 input  175.53 | X-H torsion
[ 8008 7997 7996 7995 ] final   72.72 input   59.86 | X-H torsion
[ 10167 10162 10161 10158 ] final  102.51 input  -65.29 | X-H torsion
[ 10718 10713 10712 10709 ] final   -7.65 input   66.30 | X-H torsion
[ 10763 10752 10751 10750 ] final -169.66 input  -60.55 | X-H torsion
[ 11005 11000 10999 10996 ] final   49.08 input  -57.11 | X-H torsion

> <Gold.Protein.ActiveResidues>
 VAL166  LYS551  ARG553  GLY616  TRP617  ASP618  TYR619  PRO620  LYS621  CYS622 
 ASP623  PHE694  ASN695  SER759  ASP760  ASP761  ALA762  ILE779  LEU786  VAL792 
 PHE793  MET794  SER795  GLU796  ALA797  LYS798  CYS799  TRP800  GLU811  SER814 

> <Gold.Protein.RotatedAtoms>
  152.3421  133.6079  159.5883 H   0  0  0  0  0  0  0  0  0  0  0  0  # atno 6907 bound_to 6896
  150.7485  133.9706  159.3553 H   0  0  0  0  0  0  0  0  0  0  0  0  # atno 6908 bound_to 6896
  151.7569  135.0820  160.0390 H   0  0  0  0  0  0  0  0  0  0  0  0  # atno 6909 bound_to 6896
  144.7131  140.0851  143.6424 H   0  0  0  0  0  0  0  0  0  0  0  0  # atno 7974 bound_to 7965
  155.7730  140.3484  155.5257 H   0  0  0  0  0  0  0  0  0  0  0  0  # atno 8008 bound_to 7997
  155.8803  140.1001  157.1510 H   0  0  0  0  0  0  0  0  0  0  0  0  # atno 8009 bound_to 7997
  154.4024  140.1323  156.4176 H   0  0  0  0  0  0  0  0  0  0  0  0  # atno 8010 bound_to 7997
  139.7344  144.7028  151.0672 H   0  0  0  0  0  0  0  0  0  0  0  0  # atno 10167 bound_to 10162
  156.7142  130.5131  149.5884 H   0  0  0  0  0  0  0  0  0  0  0  0  # atno 10718 bound_to 10713
  154.6499  135.2910  155.0000 H   0  0  0  0  0  0  0  0  0  0  0  0  # atno 10763 bound_to 10752
  154.1097  135.6564  153.4886 H   0  0  0  0  0  0  0  0  0  0  0  0  # atno 10764 bound_to 10752
  153.0371  135.5262  154.7402 H   0  0  0  0  0  0  0  0  0  0  0  0  # atno 10765 bound_to 10752
  140.1134  134.4924  155.8658 H   0  0  0  0  0  0  0  0  0  0  0  0  # atno 11005 bound_to 11000
  145.9669  139.2841  143.1122 LP  0  0  0  0  0  0  0  0  0  0  0  0  # atno 17320 bound_to 7965
  145.9160  140.9148  143.0429 LP  0  0  0  0  0  0  0  0  0  0  0  0  # atno 17321 bound_to 7965
  140.7776  143.5003  150.9780 LP  0  0  0  0  0  0  0  0  0  0  0  0  # atno 17342 bound_to 10162
  139.8691  143.7215  152.3168 LP  0  0  0  0  0  0  0  0  0  0  0  0  # atno 17343 bound_to 10162
  156.1640  130.6393  151.0754 LP  0  0  0  0  0  0  0  0  0  0  0  0  # atno 17370 bound_to 10713
  157.6924  131.0805  150.7069 LP  0  0  0  0  0  0  0  0  0  0  0  0  # atno 17371 bound_to 10713
  141.2135  133.6735  156.6749 LP  0  0  0  0  0  0  0  0  0  0  0  0  # atno 17394 bound_to 11000
  140.3060  134.8125  157.4137 LP  0  0  0  0  0  0  0  0  0  0  0  0  # atno 17395 bound_to 11000

$$$$
