AV-unprocessed.smi:1601|AV-procd|sdf|6432|dock9
  -GOLD-   22720 7 73D 1   1.00000     0.00000
 Structure written by MMmdl.
 41 42  0  0  0  0  0  0  0  0  1 V2000
  148.8357  141.4580  154.7048 C   0  0  0  0  0  0  0  0  0  0  0  0
  150.1309  141.0038  155.4252 C   0  0  1  0  0  0  0  0  0  0  0  0
  149.9370  141.1860  156.9592 C   0  0  0  0  0  0  0  0  0  0  0  0
  151.1962  141.2826  157.6924 N   0  0  0  0  0  0  0  0  0  0  0  0
  151.4531  142.1683  158.6683 C   0  0  0  0  0  0  0  0  0  0  0  0
  150.6347  143.0102  159.0406 O   0  0  0  0  0  0  0  0  0  0  0  0
  152.8401  142.0731  159.3259 C   0  0  2  0  0  0  0  0  0  0  0  0
  153.2455  140.6244  159.6654 C   0  0  0  0  0  0  0  0  0  0  0  0
  152.9199  142.9482  160.4899 N   0  0  0  0  0  0  0  0  0  0  0  0
  152.6079  144.2907  160.5656 C   0  0  0  0  0  0  0  0  0  0  0  0
  152.8105  144.6872  161.8563 C   0  0  0  0  0  0  0  0  0  0  0  0
  153.2415  143.5004  162.5109 C   0  0  0  0  0  0  0  0  0  0  0  0
  153.3019  142.4618  161.6940 N   0  0  0  0  0  0  0  0  0  0  0  0
  150.5525  139.6358  155.0423 N   0  0  0  0  0  0  0  0  0  0  0  0
  151.8880  139.2999  155.5509 C   0  0  0  0  0  0  0  0  0  0  0  0
  152.3236  137.8675  155.1975 C   0  0  0  0  0  0  0  0  0  0  0  0
  151.3678  136.9414  155.6939 O   0  0  0  0  0  0  0  0  0  0  0  0
  150.0720  137.1781  155.1622 C   0  0  0  0  0  0  0  0  0  0  0  0
  149.6185  138.6058  155.5127 C   0  0  0  0  0  0  0  0  0  0  0  0
  148.5079  142.4465  155.0242 H   0  0  0  0  0  0  0  0  0  0  0  0
  148.0154  140.7649  154.8939 H   0  0  0  0  0  0  0  0  0  0  0  0
  148.9677  141.5394  153.6268 H   0  0  0  0  0  0  0  0  0  0  0  0
  150.9209  141.6903  155.1171 H   0  0  0  0  0  0  0  0  0  0  0  0
  149.3597  142.0902  157.1554 H   0  0  0  0  0  0  0  0  0  0  0  0
  149.3801  140.3639  157.4062 H   0  0  0  0  0  0  0  0  0  0  0  0
  151.9212  140.6259  157.4428 H   0  0  0  0  0  0  0  0  0  0  0  0
  153.5611  142.4437  158.5955 H   0  0  0  0  0  0  0  0  0  0  0  0
  153.2322  139.9939  158.7758 H   0  0  0  0  0  0  0  0  0  0  0  0
  152.5775  140.1733  160.4003 H   0  0  0  0  0  0  0  0  0  0  0  0
  154.2560  140.5898  160.0730 H   0  0  0  0  0  0  0  0  0  0  0  0
  152.2719  144.8474  159.7031 H   0  0  0  0  0  0  0  0  0  0  0  0
  152.6689  145.6740  162.2713 H   0  0  0  0  0  0  0  0  0  0  0  0
  153.5082  143.3633  163.5483 H   0  0  0  0  0  0  0  0  0  0  0  0
  152.6369  139.9712  155.1349 H   0  0  0  0  0  0  0  0  0  0  0  0
  151.9137  139.4274  156.6342 H   0  0  0  0  0  0  0  0  0  0  0  0
  152.4308  137.7505  154.1181 H   0  0  0  0  0  0  0  0  0  0  0  0
  153.2948  137.6475  155.6411 H   0  0  0  0  0  0  0  0  0  0  0  0
  150.0806  137.0300  154.0813 H   0  0  0  0  0  0  0  0  0  0  0  0
  149.3782  136.4481  155.5794 H   0  0  0  0  0  0  0  0  0  0  0  0
  149.4890  138.6894  156.5929 H   0  0  0  0  0  0  0  0  0  0  0  0
  148.6370  138.7404  155.0636 H   0  0  0  0  0  0  0  0  0  0  0  0
  1  2  1  0  0  0  0
  1 20  1  0  0  0  0
  1 21  1  0  0  0  0
  1 22  1  0  0  0  0
  2  3  1  0  0  0  0
  2 14  1  0  0  0  0
  2 23  1  0  0  0  0
  3  4  1  0  0  0  0
  3 24  1  0  0  0  0
  3 25  1  0  0  0  0
  4  5  1  0  0  0  0
  4 26  1  0  0  0  0
  5  6  2  0  0  0  0
  5  7  1  0  0  0  0
  7  8  1  0  0  0  0
  7  9  1  0  0  0  0
  7 27  1  0  0  0  0
  8 28  1  0  0  0  0
  8 29  1  0  0  0  0
  8 30  1  0  0  0  0
  9 13  1  0  0  0  0
  9 10  1  0  0  0  0
 10 11  2  0  0  0  0
 10 31  1  0  0  0  0
 11 12  1  0  0  0  0
 11 32  1  0  0  0  0
 12 13  2  0  0  0  0
 12 33  1  0  0  0  0
 14 19  1  0  0  0  0
 14 15  1  0  0  0  0
 15 16  1  0  0  0  0
 15 34  1  0  0  0  0
 15 35  1  0  0  0  0
 16 17  1  0  0  0  0
 16 36  1  0  0  0  0
 16 37  1  0  0  0  0
 17 18  1  0  0  0  0
 18 19  1  0  0  0  0
 18 38  1  0  0  0  0
 18 39  1  0  0  0  0
 19 40  1  0  0  0  0
 19 41  1  0  0  0  0
M  END
> <s_m_source_file>
AV-unprocessed.smi

> <i_m_source_file_index>
1601

> <i_lp_mmshare_version>
43012

> <i_f3d_flags>
0

> <s_epik_input>
W0NIMl0xW0NIMl1PW0NIMl1bQ0gyXU4xW0NASF0oW0NIM10pW0NIMl1bTkhdQyg9TylbQ0BIXShbQ0gzXSluMltjSF1bY0hdW2NIXW4y

> <s_epik_cmdline>
J2VwaWtfcHl0aG9uJywgJy1waCcsICc3LjAnLCAnLXRuJywgJzgnLCAnLW1hJywgJzIwMCcsICctbWV0YWxfYmluZGluZycsICctaW1hZScsICc8aW5maWxlLm1hZT4nLCAnLW9tYWUnLCAnPG91dGZpbGUubWFlPic=

> <r_lp_tautomer_probability>
1

> <r_epik_Ionization_Penalty>
0.203323

> <r_epik_Ionization_Penalty_Charging>
0

> <r_epik_Ionization_Penalty_Neutral>
0.203323

> <r_epik_State_Penalty>
0.193192

> <r_epik_Charging_Adjusted_Penalty>
0.193192

> <i_epik_Tot_Q>
0

> <i_epik_Tot_abs_Q>
0

> <r_epik_Metal_State_Penalty>
0.193187

> <b_epik_Metal_Only>
0

> <s_lp_Force_Field>
OPLS_2005

> <r_lp_Energy>
32.6682

> <b_lp_Chiralities_Consistent>
1

> <s_lp_Variant>
AV-unprocessed.smi:1601-2

> <Gold.Version>
5.8.1

> <Gold.Id.Protein>
6NUR|6NUR_protein|mol2

> <Gold.PLP.Fitness>
45.8083

> <Gold.PLP.PLP>
-43.9077

> <Gold.PLP.part.hbond>
-3.0000

> <Gold.PLP.part.metal>
0.0000

> <Gold.PLP.part.buried>
-3.9455

> <Gold.PLP.part.nonpolar>
-37.8789

> <Gold.PLP.part.repulsive>
0.2786

> <Gold.PLP.ligand.clash>
0.0254

> <Gold.PLP.ligand.torsion>
0.6118

> <Gold.PLP.Chemscore.Hbond>
1.0060

> <Gold.PLP.Chemscore.CHOScore>
0.0000

> <Gold.PLP.Chemscore.Metal>
0.0000

> <Gold.PLP.Chemscore.Internal.Correction>
0.1316

> <Gold.Rescore>
     Score         DG    S(hbond)    S(metal)    S(lipo)     H(rot)  DE(clash)    DE(int)     intcor
     12.53     -15.54       0.78        0.00     102.95       1.79       0.29       2.72       ----

> <Gold.Chemscore.Fitness>
12.5343

> <Gold.Chemscore.DG>
-15.5447

> <Gold.Chemscore.ZeroCoef>
-5.4800

> <Gold.Chemscore.Hbond>
0.7768

> <Gold.Chemscore.Metal>
0.0000

> <Gold.Chemscore.Lipo>
102.9516

> <Gold.Chemscore.Internal_Hbond>
0.0000

> <Gold.Chemscore.DEClash>
0.2869

> <Gold.Chemscore.DEInternal>
2.7235

> <Gold.Chemscore.Rot>
1.7872

> <Gold.Chemscore.Internal.Correction>
   9.000000E+99

> <Gold.Chemscore.Hbond.Weighted>
-2.5945

> <Gold.Chemscore.Metal.Weighted>
-0.0000

> <Gold.Chemscore.Lipo.Weighted>
-12.0453

> <Gold.Chemscore.Internal_Hbond.Weighted>
0.0000

> <Gold.Chemscore.DEClash.Weighted>
0.2869

> <Gold.Chemscore.DEInternal.Weighted>
2.7235

> <Gold.Chemscore.Rot.Weighted>
4.5752

> <Gold.Chemscore.Internal.Correction.Weighted>
   9.000000E+99

> <Gold.Protein.RotatedTorsions>
[ 6907 6896 6895 6894 ] final   62.89 input  -60.11 | X-H torsion
[ 7974 7965 7964 7962 ] final  -88.62 input  175.53 | X-H torsion
[ 8008 7997 7996 7995 ] final  153.63 input   59.86 | X-H torsion
[ 10167 10162 10161 10158 ] final  164.49 input  -65.29 | X-H torsion
[ 10718 10713 10712 10709 ] final   16.29 input   66.30 | X-H torsion
[ 10763 10752 10751 10750 ] final  -57.72 input  -60.55 | X-H torsion
[ 11005 11000 10999 10996 ] final   69.30 input  -57.11 | X-H torsion

> <Gold.Protein.ActiveResidues>
 VAL166  LYS551  ARG553  GLY616  TRP617  ASP618  TYR619  PRO620  LYS621  CYS622 
 ASP623  PHE694  ASN695  SER759  ASP760  ASP761  ALA762  ILE779  LEU786  VAL792 
 PHE793  MET794  SER795  GLU796  ALA797  LYS798  CYS799  TRP800  GLU811  SER814 

> <Gold.Protein.RotatedAtoms>
  152.4209  134.5957  159.9986 H   0  0  0  0  0  0  0  0  0  0  0  0  # atno 6907 bound_to 6896
  151.6107  133.3342  159.3075 H   0  0  0  0  0  0  0  0  0  0  0  0  # atno 6908 bound_to 6896
  150.8097  134.7282  159.6742 H   0  0  0  0  0  0  0  0  0  0  0  0  # atno 6909 bound_to 6896
  145.4508  140.9560  143.2023 H   0  0  0  0  0  0  0  0  0  0  0  0  # atno 7974 bound_to 7965
  156.2572  140.1988  156.6520 H   0  0  0  0  0  0  0  0  0  0  0  0  # atno 8008 bound_to 7997
  154.6529  140.0570  157.0001 H   0  0  0  0  0  0  0  0  0  0  0  0  # atno 8009 bound_to 7997
  155.1390  140.3241  155.4459 H   0  0  0  0  0  0  0  0  0  0  0  0  # atno 8010 bound_to 7997
  139.4890  144.4230  151.9164 H   0  0  0  0  0  0  0  0  0  0  0  0  # atno 10167 bound_to 10162
  157.0658  130.6327  149.5795 H   0  0  0  0  0  0  0  0  0  0  0  0  # atno 10718 bound_to 10713
  154.2269  135.6368  153.5162 H   0  0  0  0  0  0  0  0  0  0  0  0  # atno 10763 bound_to 10752
  152.9957  135.5510  154.6055 H   0  0  0  0  0  0  0  0  0  0  0  0  # atno 10764 bound_to 10752
  154.5528  135.2903  155.0966 H   0  0  0  0  0  0  0  0  0  0  0  0  # atno 10765 bound_to 10752
  139.9661  134.6978  156.0542 H   0  0  0  0  0  0  0  0  0  0  0  0  # atno 11005 bound_to 11000
  144.8063  139.6045  143.7049 LP  0  0  0  0  0  0  0  0  0  0  0  0  # atno 17320 bound_to 7965
  146.2505  139.6190  142.9430 LP  0  0  0  0  0  0  0  0  0  0  0  0  # atno 17321 bound_to 7965
  140.3675  144.2897  150.5924 LP  0  0  0  0  0  0  0  0  0  0  0  0  # atno 17342 bound_to 10162
  140.5349  143.2235  151.8179 LP  0  0  0  0  0  0  0  0  0  0  0  0  # atno 17343 bound_to 10162
  155.9965  130.5034  150.7498 LP  0  0  0  0  0  0  0  0  0  0  0  0  # atno 17370 bound_to 10713
  157.4918  131.0911  151.0418 LP  0  0  0  0  0  0  0  0  0  0  0  0  # atno 17371 bound_to 10713
  141.1341  133.6579  156.3545 LP  0  0  0  0  0  0  0  0  0  0  0  0  # atno 17394 bound_to 11000
  140.5392  134.6136  157.5374 LP  0  0  0  0  0  0  0  0  0  0  0  0  # atno 17395 bound_to 11000

$$$$
