AV-unprocessed.smi:1732|AV-procd|sdf|6976|dock3
  -GOLD-   22720 8183D 1   1.00000     0.00000
 Structure written by MMmdl.
 36 37  0  0  0  0  0  0  0  0  1 V2000
  150.5866  140.2000  158.5221 O   0  0  0  0  0  0  0  0  0  0  0  0
  151.7010  140.1346  158.0049 C   0  0  0  0  0  0  0  0  0  0  0  0
  152.9316  140.4960  158.8344 C   0  0  0  0  0  0  0  0  0  0  0  0
  153.1197  141.9030  158.7838 O   0  0  0  0  0  0  0  0  0  0  0  0
  152.2535  142.6298  159.6419 C   0  0  0  0  0  0  0  0  0  0  0  0
  152.0769  144.0576  159.1302 C   0  0  0  0  0  0  0  0  0  0  0  0
  151.5929  144.8364  160.3542 C   0  0  0  0  0  0  0  0  0  0  0  0
  152.2129  144.1320  161.5706 C   0  0  0  0  0  0  0  0  0  0  0  0
  152.8271  142.8242  161.0504 C   0  0  0  0  0  0  0  0  0  0  0  0
  151.9541  139.7339  156.7429 N   0  0  0  0  0  0  0  0  0  0  0  0
  151.0591  139.3721  155.7225 C   0  0  0  0  0  0  0  0  0  0  0  0
  149.8334  139.9265  155.5313 C   0  0  0  0  0  0  0  0  0  0  0  0
  148.9647  139.5195  154.4395 C   0  0  0  0  0  0  0  0  0  0  0  0
  147.5635  140.0896  154.2833 C   0  0  0  0  0  0  0  0  0  0  0  0
  146.6349  139.1487  154.4600 F   0  0  0  0  0  0  0  0  0  0  0  0
  147.3436  141.0653  155.1647 F   0  0  0  0  0  0  0  0  0  0  0  0
  147.4144  140.5952  153.0596 F   0  0  0  0  0  0  0  0  0  0  0  0
  149.4343  138.5557  153.6260 C   0  0  0  0  0  0  0  0  0  0  0  0
  150.7017  137.9965  153.8026 N   0  0  0  0  0  0  0  0  0  0  0  0
  151.5514  138.3383  154.7968 C   0  0  0  0  0  0  0  0  0  0  0  0
  152.6528  137.7965  154.8859 O   0  0  0  0  0  0  0  0  0  0  0  0
  150.9879  137.2898  153.1405 H   0  0  0  0  0  0  0  0  0  0  0  0
  152.7933  140.1696  159.8666 H   0  0  0  0  0  0  0  0  0  0  0  0
  153.7962  139.9689  158.4296 H   0  0  0  0  0  0  0  0  0  0  0  0
  151.2732  142.1524  159.6968 H   0  0  0  0  0  0  0  0  0  0  0  0
  153.0382  144.4555  158.8019 H   0  0  0  0  0  0  0  0  0  0  0  0
  151.3858  144.1209  158.2890 H   0  0  0  0  0  0  0  0  0  0  0  0
  151.8629  145.8916  160.3016 H   0  0  0  0  0  0  0  0  0  0  0  0
  150.5054  144.7793  160.4161 H   0  0  0  0  0  0  0  0  0  0  0  0
  152.9771  144.7524  162.0399 H   0  0  0  0  0  0  0  0  0  0  0  0
  151.4484  143.9337  162.3225 H   0  0  0  0  0  0  0  0  0  0  0  0
  152.6196  141.9778  161.7055 H   0  0  0  0  0  0  0  0  0  0  0  0
  153.9108  142.9354  160.9918 H   0  0  0  0  0  0  0  0  0  0  0  0
  152.9294  139.6618  156.4898 H   0  0  0  0  0  0  0  0  0  0  0  0
  149.4724  140.7119  156.1750 H   0  0  0  0  0  0  0  0  0  0  0  0
  148.8847  138.1408  152.7938 H   0  0  0  0  0  0  0  0  0  0  0  0
  1  2  2  0  0  0  0
  2  3  1  0  0  0  0
  2 10  1  0  0  0  0
  3  4  1  0  0  0  0
  3 23  1  0  0  0  0
  3 24  1  0  0  0  0
  4  5  1  0  0  0  0
  5  9  1  0  0  0  0
  5  6  1  0  0  0  0
  5 25  1  0  0  0  0
  6  7  1  0  0  0  0
  6 26  1  0  0  0  0
  6 27  1  0  0  0  0
  7  8  1  0  0  0  0
  7 28  1  0  0  0  0
  7 29  1  0  0  0  0
  8  9  1  0  0  0  0
  8 30  1  0  0  0  0
  8 31  1  0  0  0  0
  9 32  1  0  0  0  0
  9 33  1  0  0  0  0
 10 11  1  0  0  0  0
 10 34  1  0  0  0  0
 11 20  1  0  0  0  0
 11 12  2  0  0  0  0
 12 13  1  0  0  0  0
 12 35  1  0  0  0  0
 13 14  1  0  0  0  0
 13 18  2  0  0  0  0
 14 15  1  0  0  0  0
 14 16  1  0  0  0  0
 14 17  1  0  0  0  0
 18 19  1  0  0  0  0
 18 36  1  0  0  0  0
 19 22  1  0  0  0  0
 19 20  1  0  0  0  0
 20 21  2  0  0  0  0
M  END
> <s_m_source_file>
AV-unprocessed.smi

> <i_m_source_file_index>
1732

> <i_lp_mmshare_version>
43012

> <i_f3d_flags>
0

> <s_epik_input>
W0NIMl0xW0NIMl1bQ0gyXVtDSDJdW0NIXTFPW0NIMl1DKD1PKVtOSF1jMltjSF1jKEMoRikoRilGKVtjSF1bbkhdYzI9Tw==

> <s_epik_cmdline>
J2VwaWtfcHl0aG9uJywgJy1waCcsICc3LjAnLCAnLXRuJywgJzgnLCAnLW1hJywgJzIwMCcsICctbWV0YWxfYmluZGluZycsICctaW1hZScsICc8aW5maWxlLm1hZT4nLCAnLW9tYWUnLCAnPG91dGZpbGUubWFlPic=

> <r_lp_tautomer_probability>
0.999

> <r_epik_Ionization_Penalty>
0.0109735

> <r_epik_Ionization_Penalty_Charging>
0.0109734

> <r_epik_Ionization_Penalty_Neutral>
9.17026e-08

> <r_epik_State_Penalty>
0.0084206

> <r_epik_Charging_Adjusted_Penalty>
0.019394

> <i_epik_Tot_Q>
0

> <i_epik_Tot_abs_Q>
0

> <r_epik_Metal_State_Penalty>
0.328349

> <b_epik_Metal_Only>
0

> <s_lp_Force_Field>
OPLS_2005

> <r_lp_Energy>
36.3652

> <b_lp_Chiralities_Consistent>
1

> <s_lp_Variant>
AV-unprocessed.smi:1732-1

> <Gold.Version>
5.8.1

> <Gold.Id.Protein>
6NUR|6NUR_protein|mol2

> <Gold.PLP.Fitness>
42.3682

> <Gold.PLP.PLP>
-37.6344

> <Gold.PLP.part.hbond>
-2.4718

> <Gold.PLP.part.metal>
0.0000

> <Gold.PLP.part.buried>
2.2456

> <Gold.PLP.part.nonpolar>
-37.4867

> <Gold.PLP.part.repulsive>
0.2573

> <Gold.PLP.ligand.clash>
0.0000

> <Gold.PLP.ligand.torsion>
1.0148

> <Gold.PLP.Chemscore.Hbond>
0.8996

> <Gold.PLP.Chemscore.CHOScore>
1.3282

> <Gold.PLP.Chemscore.Metal>
0.0000

> <Gold.Chemscore.Hbonds>
donor molecule, donor type, donor heavy atom, donor atom, acceptor molecule, acceptor atom, score
      L1  H    19    22       P1  7949  0.81
      P1  H 10752 10765       L1    21  0.11
      L1  C    18    36       P1  7948  1.00
      L1  C    18    36       P1  7957  0.25

> <Gold.PLP.Chemscore.Internal.Correction>
0.0799

> <Gold.Rescore>
     Score         DG    S(hbond)    S(metal)    S(lipo)     H(rot)  DE(clash)    DE(int)     intcor
     11.77     -12.99       0.23        0.00      92.76       1.60       0.11       1.11       ----

> <Gold.Chemscore.Fitness>
11.7699

> <Gold.Chemscore.DG>
-12.9917

> <Gold.Chemscore.ZeroCoef>
-5.4800

> <Gold.Chemscore.Hbond>
0.2265

> <Gold.Chemscore.Metal>
0.0000

> <Gold.Chemscore.Lipo>
92.7644

> <Gold.Chemscore.Internal_Hbond>
0.0000

> <Gold.Chemscore.DEClash>
0.1128

> <Gold.Chemscore.DEInternal>
1.1090

> <Gold.Chemscore.Rot>
1.6009

> <Gold.Chemscore.Internal.Correction>
   9.000000E+99

> <Gold.Chemscore.Hbonds>
donor molecule, donor type, donor heavy atom, donor atom, acceptor molecule, acceptor atom, score
      L1  H    19    22       P1  7949  0.24
      P1  H 10752 10765       L1    21  0.11

> <Gold.Chemscore.Hbond.Weighted>
-0.7565

> <Gold.Chemscore.Metal.Weighted>
-0.0000

> <Gold.Chemscore.Lipo.Weighted>
-10.8534

> <Gold.Chemscore.Internal_Hbond.Weighted>
0.0000

> <Gold.Chemscore.DEClash.Weighted>
0.1128

> <Gold.Chemscore.DEInternal.Weighted>
1.1090

> <Gold.Chemscore.Rot.Weighted>
4.0982

> <Gold.Chemscore.Internal.Correction.Weighted>
   9.000000E+99

> <Gold.Protein.RotatedTorsions>
[ 6907 6896 6895 6894 ] final  -20.43 input  -60.11 | X-H torsion
[ 7974 7965 7964 7962 ] final  -92.59 input  175.53 | X-H torsion
[ 8008 7997 7996 7995 ] final   94.99 input   59.86 | X-H torsion
[ 10167 10162 10161 10158 ] final  148.38 input  -65.29 | X-H torsion
[ 10718 10713 10712 10709 ] final -150.72 input   66.30 | X-H torsion
[ 10763 10752 10751 10750 ] final  139.01 input  -60.55 | X-H torsion
[ 11005 11000 10999 10996 ] final   15.32 input  -57.11 | X-H torsion

> <Gold.Protein.ActiveResidues>
 VAL166  LYS551  ARG553  GLY616  TRP617  ASP618  TYR619  PRO620  LYS621  CYS622 
 ASP623  PHE694  ASN695  SER759  ASP760  ASP761  ALA762  ILE779  LEU786  VAL792 
 PHE793  MET794  SER795  GLU796  ALA797  LYS798  CYS799  TRP800  GLU811  SER814 

> <Gold.Protein.RotatedAtoms>
  151.2483  135.0613  159.9051 H   0  0  0  0  0  0  0  0  0  0  0  0  # atno 6907 bound_to 6896
  152.5383  134.0359  159.8056 H   0  0  0  0  0  0  0  0  0  0  0  0  # atno 6908 bound_to 6896
  151.0564  133.5532  159.2669 H   0  0  0  0  0  0  0  0  0  0  0  0  # atno 6909 bound_to 6896
  145.3978  140.9534  143.2304 H   0  0  0  0  0  0  0  0  0  0  0  0  # atno 7974 bound_to 7965
  156.0639  140.3292  155.7495 H   0  0  0  0  0  0  0  0  0  0  0  0  # atno 8008 bound_to 7997
  155.5411  140.0602  157.2887 H   0  0  0  0  0  0  0  0  0  0  0  0  # atno 8009 bound_to 7997
  154.4495  140.1910  156.0580 H   0  0  0  0  0  0  0  0  0  0  0  0  # atno 8010 bound_to 7997
  139.4876  144.5684  151.7102 H   0  0  0  0  0  0  0  0  0  0  0  0  # atno 10167 bound_to 10162
  156.4498  130.8162  151.2393 H   0  0  0  0  0  0  0  0  0  0  0  0  # atno 10718 bound_to 10713
  153.8990  135.3024  155.3448 H   0  0  0  0  0  0  0  0  0  0  0  0  # atno 10763 bound_to 10752
  154.7680  135.4901  153.9595 H   0  0  0  0  0  0  0  0  0  0  0  0  # atno 10764 bound_to 10752
  153.1255  135.6792  153.9363 H   0  0  0  0  0  0  0  0  0  0  0  0  # atno 10765 bound_to 10752
  140.4596  134.1140  155.7714 H   0  0  0  0  0  0  0  0  0  0  0  0  # atno 11005 bound_to 11000
  144.8395  139.5495  143.6907 LP  0  0  0  0  0  0  0  0  0  0  0  0  # atno 17320 bound_to 7965
  146.2766  139.6769  142.9258 LP  0  0  0  0  0  0  0  0  0  0  0  0  # atno 17321 bound_to 7965
  140.5266  144.0796  150.6039 LP  0  0  0  0  0  0  0  0  0  0  0  0  # atno 17342 bound_to 10162
  140.3772  143.2822  152.0212 LP  0  0  0  0  0  0  0  0  0  0  0  0  # atno 17343 bound_to 10162
  157.7503  131.0141  150.3452 LP  0  0  0  0  0  0  0  0  0  0  0  0  # atno 17370 bound_to 10713
  156.3828  130.3883  149.7089 LP  0  0  0  0  0  0  0  0  0  0  0  0  # atno 17371 bound_to 10713
  141.1627  133.8762  157.1803 LP  0  0  0  0  0  0  0  0  0  0  0  0  # atno 17394 bound_to 11000
  139.9953  135.0049  157.0069 LP  0  0  0  0  0  0  0  0  0  0  0  0  # atno 17395 bound_to 11000

$$$$
