AV-unprocessed.smi:287|AV-procd|sdf|2207|dock8
  -GOLD-   2262022 33D 1   1.00000     0.00000
 Structure written by MMmdl.
 55 58  0  0  0  0  0  0  0  0  1 V2000
  147.6887  137.4687  164.1113 C   0  0  0  0  0  0  0  0  0  0  0  0
  147.3393  136.7318  162.8642 C   0  0  0  0  0  0  0  0  0  0  0  0
  147.3839  135.4176  162.5002 C   0  0  0  0  0  0  0  0  0  0  0  0
  146.9261  135.3328  161.1510 C   0  0  0  0  0  0  0  0  0  0  0  0
  146.8005  134.0635  160.3193 C   0  0  1  0  0  0  0  0  0  0  0  0
  147.2158  132.8484  161.1645 C   0  0  0  0  0  0  0  0  0  0  0  0
  145.4697  133.8065  159.9137 O   0  0  0  0  0  0  0  0  0  0  0  0
  147.6388  134.1186  159.0215 C   0  0  0  0  0  0  0  0  0  0  0  0
  146.9330  134.7587  157.9183 N   0  0  0  0  0  0  0  0  0  0  0  0
  147.2338  134.4489  156.6401 C   0  0  0  0  0  0  0  0  0  0  0  0
  148.3091  133.6432  156.4718 N   0  0  0  0  0  0  0  0  0  0  0  0
  148.6794  133.2662  155.2455 C   0  0  0  0  0  0  0  0  0  0  0  0
  148.1212  133.5756  154.0744 N   0  0  0  0  0  0  0  0  0  0  0  0
  147.0420  134.3956  154.2320 C   0  0  0  0  0  0  0  0  0  0  0  0
  146.5362  134.8805  155.4729 C   0  0  0  0  0  0  0  0  0  0  0  0
  145.4359  135.6966  155.2322 N   0  0  0  0  0  0  0  0  0  0  0  0
  145.2991  135.6820  153.9346 C   0  0  0  0  0  0  0  0  0  0  0  0
  146.2185  134.9175  153.2545 N   0  0  0  0  0  0  0  0  0  0  0  0
  146.3023  134.6983  151.7784 C   0  0  1  0  0  0  0  0  0  0  0  0
  146.2114  133.3281  151.5330 O   0  0  0  0  0  0  0  0  0  0  0  0
  145.3583  133.0963  150.4175 C   0  0  1  0  0  0  0  0  0  0  0  0
  144.7771  131.6759  150.4948 C   0  0  0  0  0  0  0  0  0  0  0  0
  143.5543  131.6123  149.7926 O   0  0  0  0  0  0  0  0  0  0  0  0
  144.3083  134.1979  150.5737 C   0  0  2  0  0  0  0  0  0  0  0  0
  143.5922  134.4613  149.3808 O   0  0  0  0  0  0  0  0  0  0  0  0
  145.1322  135.3881  151.0585 C   0  0  2  0  0  0  0  0  0  0  0  0
  145.6035  136.1855  149.9874 O   0  0  0  0  0  0  0  0  0  0  0  0
  146.6138  136.6257  160.8058 C   0  0  0  0  0  0  0  0  0  0  0  0
  146.0650  137.2641  159.5726 C   0  0  0  0  0  0  0  0  0  0  0  0
  146.8684  137.4806  161.8357 O   0  0  0  0  0  0  0  0  0  0  0  0
  147.2835  135.0814  151.4935 H   0  0  0  0  0  0  0  0  0  0  0  0
  145.9192  133.2503  149.4932 H   0  0  0  0  0  0  0  0  0  0  0  0
  143.5948  133.9164  151.3483 H   0  0  0  0  0  0  0  0  0  0  0  0
  144.5616  136.0200  151.7408 H   0  0  0  0  0  0  0  0  0  0  0  0
  147.9825  136.7782  164.9021 H   0  0  0  0  0  0  0  0  0  0  0  0
  146.8386  138.0502  164.4685 H   0  0  0  0  0  0  0  0  0  0  0  0
  148.5185  138.1533  163.9354 H   0  0  0  0  0  0  0  0  0  0  0  0
  147.7174  134.6057  163.1296 H   0  0  0  0  0  0  0  0  0  0  0  0
  148.2497  132.9370  161.5001 H   0  0  0  0  0  0  0  0  0  0  0  0
  147.1342  131.9193  160.5989 H   0  0  0  0  0  0  0  0  0  0  0  0
  146.5905  132.7508  162.0530 H   0  0  0  0  0  0  0  0  0  0  0  0
  144.8835  134.2207  160.5285 H   0  0  0  0  0  0  0  0  0  0  0  0
  148.5376  134.7030  159.2227 H   0  0  0  0  0  0  0  0  0  0  0  0
  147.9692  133.1214  158.7278 H   0  0  0  0  0  0  0  0  0  0  0  0
  146.3791  135.5646  158.1713 H   0  0  0  0  0  0  0  0  0  0  0  0
  149.5445  132.6218  155.1956 H   0  0  0  0  0  0  0  0  0  0  0  0
  144.5120  136.2277  153.4346 H   0  0  0  0  0  0  0  0  0  0  0  0
  145.4795  130.9378  150.1056 H   0  0  0  0  0  0  0  0  0  0  0  0
  144.5705  131.4100  151.5317 H   0  0  0  0  0  0  0  0  0  0  0  0
  143.4381  132.4206  149.3169 H   0  0  0  0  0  0  0  0  0  0  0  0
  142.6892  134.6278  149.6038 H   0  0  0  0  0  0  0  0  0  0  0  0
  144.9839  136.8854  149.8454 H   0  0  0  0  0  0  0  0  0  0  0  0
  145.1697  136.7429  159.2336 H   0  0  0  0  0  0  0  0  0  0  0  0
  146.7982  137.2391  158.7666 H   0  0  0  0  0  0  0  0  0  0  0  0
  145.7978  138.3058  159.7524 H   0  0  0  0  0  0  0  0  0  0  0  0
  1  2  1  0  0  0  0
  1 35  1  0  0  0  0
  1 36  1  0  0  0  0
  1 37  1  0  0  0  0
  2 30  1  0  0  0  0
  2  3  2  0  0  0  0
  3  4  1  0  0  0  0
  3 38  1  0  0  0  0
  4  5  1  0  0  0  0
  4 28  2  0  0  0  0
  5  6  1  0  0  0  0
  5  7  1  0  0  0  0
  5  8  1  0  0  0  0
  6 39  1  0  0  0  0
  6 40  1  0  0  0  0
  6 41  1  0  0  0  0
  7 42  1  0  0  0  0
  8  9  1  0  0  0  0
  8 43  1  0  0  0  0
  8 44  1  0  0  0  0
  9 10  1  0  0  0  0
  9 45  1  0  0  0  0
 10 15  1  0  0  0  0
 10 11  2  0  0  0  0
 11 12  1  0  0  0  0
 12 13  2  0  0  0  0
 12 46  1  0  0  0  0
 13 14  1  0  0  0  0
 14 18  1  0  0  0  0
 14 15  2  0  0  0  0
 15 16  1  0  0  0  0
 16 17  2  0  0  0  0
 17 18  1  0  0  0  0
 17 47  1  0  0  0  0
 18 19  1  0  0  0  0
 19 31  1  0  0  0  0
 19 26  1  0  0  0  0
 19 20  1  0  0  0  0
 20 21  1  0  0  0  0
 21 32  1  0  0  0  0
 21 22  1  0  0  0  0
 21 24  1  0  0  0  0
 22 23  1  0  0  0  0
 22 48  1  0  0  0  0
 22 49  1  0  0  0  0
 23 50  1  0  0  0  0
 24 33  1  0  0  0  0
 24 25  1  0  0  0  0
 24 26  1  0  0  0  0
 25 51  1  0  0  0  0
 26 34  1  0  0  0  0
 26 27  1  0  0  0  0
 27 52  1  0  0  0  0
 28 29  1  0  0  0  0
 28 30  1  0  0  0  0
 29 53  1  0  0  0  0
 29 54  1  0  0  0  0
 29 55  1  0  0  0  0
M  END
> <s_m_source_file>
AV-unprocessed.smi

> <i_m_source_file_index>
287

> <i_lp_mmshare_version>
43012

> <i_f3d_flags>
0

> <s_epik_input>
W0NIM11jMVtjSF1jKGMobzEpW0NIM10pW0NAQF0oW0NIM10pKFtPSF0pW0NIMl1bTkhdYyhuW2NIXW4yKWMoYzIzKW5bY0hdbjNbQ0BASF00T1tDQEhdKFtDSDJdW09IXSlbQ0BASF0oW09IXSlbQ0BIXTRbT0hd

> <s_epik_cmdline>
J2VwaWtfcHl0aG9uJywgJy1waCcsICc3LjAnLCAnLXRuJywgJzgnLCAnLW1hJywgJzIwMCcsICctbWV0YWxfYmluZGluZycsICctaW1hZScsICc8aW5maWxlLm1hZT4nLCAnLW9tYWUnLCAnPG91dGZpbGUubWFlPic=

> <r_lp_tautomer_probability>
1

> <r_epik_Ionization_Penalty>
0.000992612

> <r_epik_Ionization_Penalty_Charging>
0

> <r_epik_Ionization_Penalty_Neutral>
0.000992612

> <r_epik_State_Penalty>
-0

> <r_epik_Charging_Adjusted_Penalty>
0

> <i_epik_Tot_Q>
0

> <i_epik_Tot_abs_Q>
0

> <r_epik_Metal_State_Penalty>
-0

> <b_epik_Metal_Only>
0

> <s_epik_Chemistry_Notes>
This compound contains an acetal/aminal-like group ( X-CH(R)-Y where X, Y are N, S, or O) that may be acid/base labile, releasing an aldehyde.

> <s_lp_Force_Field>
OPLS_2005

> <r_lp_Energy>
44.3809

> <b_lp_Chiralities_Consistent>
1

> <s_lp_Variant>
AV-unprocessed.smi:287-31

> <Gold.Version>
5.8.1

> <Gold.Id.Protein>
6NUR|6NUR_protein|mol2

> <Gold.PLP.Fitness>
50.4835

> <Gold.PLP.PLP>
-40.2939

> <Gold.PLP.part.hbond>
-7.6385

> <Gold.PLP.part.metal>
0.0000

> <Gold.PLP.part.buried>
-3.1507

> <Gold.PLP.part.nonpolar>
-30.6246

> <Gold.PLP.part.repulsive>
0.2801

> <Gold.PLP.ligand.clash>
0.0000

> <Gold.PLP.ligand.torsion>
0.8747

> <Gold.PLP.Chemscore.Hbond>
3.9504

> <Gold.PLP.Chemscore.CHOScore>
0.0000

> <Gold.PLP.Chemscore.Metal>
0.0000

> <Gold.Chemscore.Hbonds>
donor molecule, donor type, donor heavy atom, donor atom, acceptor molecule, acceptor atom, score
      L1  H    25    51       P1 10186  1.00
      L1  H    27    52       P1 10171  1.00
      P1  H  6931  6943       L1    30  0.01
      P1  H  6934  6947       L1    30  0.85
      P1  H 10785 10796       L1    23  0.96

> <Gold.PLP.Chemscore.Internal.Correction>
0.0877

> <Gold.Rescore>
     Score         DG    S(hbond)    S(metal)    S(lipo)     H(rot)  DE(clash)    DE(int)     intcor
     12.63     -14.59       3.65        0.00      88.92       5.27       1.17       0.79       ----

> <Gold.Chemscore.Fitness>
12.6322

> <Gold.Chemscore.DG>
-14.5916

> <Gold.Chemscore.ZeroCoef>
-5.4800

> <Gold.Chemscore.Hbond>
3.6503

> <Gold.Chemscore.Metal>
0.0000

> <Gold.Chemscore.Lipo>
88.9188

> <Gold.Chemscore.Internal_Hbond>
0.0000

> <Gold.Chemscore.DEClash>
1.1659

> <Gold.Chemscore.DEInternal>
0.7936

> <Gold.Chemscore.Rot>
5.2672

> <Gold.Chemscore.Internal.Correction>
   9.000000E+99

> <Gold.Chemscore.Hbonds>
donor molecule, donor type, donor heavy atom, donor atom, acceptor molecule, acceptor atom, score
      L1  H    25    51       P1 10186  0.92
      L1  H    27    52       P1 10171  0.95
      P1  H  6934  6947       L1    30  0.29
      P1  H 10785 10796       L1    23  0.73

> <Gold.Chemscore.Hbond.Weighted>
-12.1921

> <Gold.Chemscore.Metal.Weighted>
-0.0000

> <Gold.Chemscore.Lipo.Weighted>
-10.4035

> <Gold.Chemscore.Internal_Hbond.Weighted>
0.0000

> <Gold.Chemscore.DEClash.Weighted>
1.1659

> <Gold.Chemscore.DEInternal.Weighted>
0.7936

> <Gold.Chemscore.Rot.Weighted>
13.4839

> <Gold.Chemscore.Internal.Correction.Weighted>
   9.000000E+99

> <Gold.Protein.RotatedTorsions>
[ 6907 6896 6895 6894 ] final  -26.78 input  -60.11 | X-H torsion
[ 7974 7965 7964 7962 ] final -112.35 input  175.53 | X-H torsion
[ 8008 7997 7996 7995 ] final   94.26 input   59.86 | X-H torsion
[ 10167 10162 10161 10158 ] final -121.26 input  -65.29 | X-H torsion
[ 10718 10713 10712 10709 ] final  165.77 input   66.30 | X-H torsion
[ 10763 10752 10751 10750 ] final  -32.48 input  -60.55 | X-H torsion
[ 11005 11000 10999 10996 ] final    2.23 input  -57.11 | X-H torsion

> <Gold.Protein.ActiveResidues>
 VAL166  LYS551  ARG553  GLY616  TRP617  ASP618  TYR619  PRO620  LYS621  CYS622 
 ASP623  PHE694  ASN695  SER759  ASP760  ASP761  ALA762  ILE779  LEU786  VAL792 
 PHE793  MET794  SER795  GLU796  ALA797  LYS798  CYS799  TRP800  GLU811  SER814 

> <Gold.Protein.RotatedAtoms>
  151.1561  135.0251  159.8689 H   0  0  0  0  0  0  0  0  0  0  0  0  # atno 6907 bound_to 6896
  152.5452  134.1333  159.8458 H   0  0  0  0  0  0  0  0  0  0  0  0  # atno 6908 bound_to 6896
  151.1423  133.4917  159.2629 H   0  0  0  0  0  0  0  0  0  0  0  0  # atno 6909 bound_to 6896
  145.1451  140.8799  143.3679 H   0  0  0  0  0  0  0  0  0  0  0  0  # atno 7974 bound_to 7965
  156.0559  140.3302  155.7405 H   0  0  0  0  0  0  0  0  0  0  0  0  # atno 8008 bound_to 7997
  155.5529  140.0612  157.2863 H   0  0  0  0  0  0  0  0  0  0  0  0  # atno 8009 bound_to 7997
  154.4458  140.1891  156.0693 H   0  0  0  0  0  0  0  0  0  0  0  0  # atno 8010 bound_to 7997
  140.0269  143.5287  152.2194 H   0  0  0  0  0  0  0  0  0  0  0  0  # atno 10167 bound_to 10162
  157.0754  131.0378  151.2595 H   0  0  0  0  0  0  0  0  0  0  0  0  # atno 10718 bound_to 10713
  153.8144  135.6879  153.4836 H   0  0  0  0  0  0  0  0  0  0  0  0  # atno 10763 bound_to 10752
  153.1608  135.4581  154.9767 H   0  0  0  0  0  0  0  0  0  0  0  0  # atno 10764 bound_to 10752
  154.7954  135.3317  154.7622 H   0  0  0  0  0  0  0  0  0  0  0  0  # atno 10765 bound_to 10752
  140.6066  133.9787  155.8157 H   0  0  0  0  0  0  0  0  0  0  0  0  # atno 11005 bound_to 11000
  145.0491  139.3196  143.5938 LP  0  0  0  0  0  0  0  0  0  0  0  0  # atno 17320 bound_to 7965
  146.3501  139.9892  142.8687 LP  0  0  0  0  0  0  0  0  0  0  0  0  # atno 17321 bound_to 7965
  139.6102  144.7606  151.2970 LP  0  0  0  0  0  0  0  0  0  0  0  0  # atno 17342 bound_to 10162
  140.7319  143.6840  150.7977 LP  0  0  0  0  0  0  0  0  0  0  0  0  # atno 17343 bound_to 10162
  157.4843  130.7784  149.7445 LP  0  0  0  0  0  0  0  0  0  0  0  0  # atno 17370 bound_to 10713
  155.9938  130.3922  150.2884 LP  0  0  0  0  0  0  0  0  0  0  0  0  # atno 17371 bound_to 10713
  141.0837  134.0024  157.3347 LP  0  0  0  0  0  0  0  0  0  0  0  0  # atno 17394 bound_to 11000
  139.9210  135.0200  156.8063 LP  0  0  0  0  0  0  0  0  0  0  0  0  # atno 17395 bound_to 11000

$$$$
