AV-unprocessed.smi:623|AV-procd|sdf|3094|dock5
  -GOLD-   22720 0 13D 1   1.00000     0.00000
 Structure written by MMmdl.
 45 47  0  0  0  0  0  0  0  0  1 V2000
  149.4857  141.5003  154.6695 C   0  0  0  0  0  0  0  0  0  0  0  0
  148.2079  140.8946  155.3162 C   0  0  0  0  0  0  0  0  0  0  0  0
  148.6428  140.4309  156.7346 C   0  0  0  0  0  0  0  0  0  0  0  0
  146.9902  141.8400  155.2998 C   0  0  1  0  0  0  0  0  0  0  0  0
  146.6904  142.0260  153.7947 C   0  0  0  0  0  0  0  0  0  0  0  0
  147.0526  140.6477  153.2070 C   0  0  0  0  0  0  0  0  0  0  0  0
  147.4530  139.8340  154.4689 C   0  0  1  0  0  0  0  0  0  0  0  0
  148.2477  138.5597  154.1343 C   0  0  0  0  0  0  0  0  0  0  0  0
  146.1636  139.5701  155.3138 C   0  0  2  0  0  0  0  0  0  0  0  0
  145.0326  139.0619  154.5396 N   0  0  0  0  0  0  0  0  0  0  0  0
  144.4428  137.8694  154.7087 C   0  0  0  0  0  0  0  0  0  0  0  0
  144.7526  137.0748  155.5961 O   0  0  0  0  0  0  0  0  0  0  0  0
  143.3422  137.5143  153.7056 C   0  0  0  0  0  0  0  0  0  0  0  0
  143.6006  136.2082  153.0850 N   0  0  0  0  0  0  0  0  0  0  0  0
  144.3642  136.1277  151.9288 C   0  0  0  0  0  0  0  0  0  0  0  0
  144.6653  134.9605  151.3124 C   0  0  0  0  0  0  0  0  0  0  0  0
  144.1844  133.6943  151.8539 C   0  0  0  0  0  0  0  0  0  0  0  0
  144.4014  132.5867  151.3675 O   0  0  0  0  0  0  0  0  0  0  0  0
  143.4226  133.8157  153.0187 N   0  0  0  0  0  0  0  0  0  0  0  0
  143.1105  135.0153  153.6605 C   0  0  0  0  0  0  0  0  0  0  0  0
  142.4340  135.0073  154.6880 O   0  0  0  0  0  0  0  0  0  0  0  0
  145.8523  140.9738  155.8816 C   0  0  0  0  0  0  0  0  0  0  0  0
  143.0700  132.9647  153.4320 H   0  0  0  0  0  0  0  0  0  0  0  0
  149.8686  142.3205  155.2776 H   0  0  0  0  0  0  0  0  0  0  0  0
  149.3523  141.9016  153.6677 H   0  0  0  0  0  0  0  0  0  0  0  0
  150.2787  140.7551  154.6039 H   0  0  0  0  0  0  0  0  0  0  0  0
  147.8601  139.9697  157.3325 H   0  0  0  0  0  0  0  0  0  0  0  0
  149.0169  141.2740  157.3161 H   0  0  0  0  0  0  0  0  0  0  0  0
  149.4514  139.7023  156.6716 H   0  0  0  0  0  0  0  0  0  0  0  0
  147.1303  142.7813  155.8321 H   0  0  0  0  0  0  0  0  0  0  0  0
  145.6482  142.2891  153.6104 H   0  0  0  0  0  0  0  0  0  0  0  0
  147.3014  142.8152  153.3562 H   0  0  0  0  0  0  0  0  0  0  0  0
  146.2333  140.2103  152.6370 H   0  0  0  0  0  0  0  0  0  0  0  0
  147.8843  140.7309  152.5073 H   0  0  0  0  0  0  0  0  0  0  0  0
  147.6703  137.8947  153.4920 H   0  0  0  0  0  0  0  0  0  0  0  0
  148.5067  138.0044  155.0360 H   0  0  0  0  0  0  0  0  0  0  0  0
  149.1741  138.7932  153.6098 H   0  0  0  0  0  0  0  0  0  0  0  0
  146.3691  138.8816  156.1350 H   0  0  0  0  0  0  0  0  0  0  0  0
  144.7048  139.6461  153.7845 H   0  0  0  0  0  0  0  0  0  0  0  0
  142.3726  137.5255  154.2074 H   0  0  0  0  0  0  0  0  0  0  0  0
  143.2766  138.2933  152.9439 H   0  0  0  0  0  0  0  0  0  0  0  0
  144.7467  137.0409  151.4953 H   0  0  0  0  0  0  0  0  0  0  0  0
  145.2663  134.9635  150.4144 H   0  0  0  0  0  0  0  0  0  0  0  0
  145.8730  140.9702  156.9716 H   0  0  0  0  0  0  0  0  0  0  0  0
  144.8687  141.3461  155.5910 H   0  0  0  0  0  0  0  0  0  0  0  0
  1  2  1  0  0  0  0
  1 24  1  0  0  0  0
  1 25  1  0  0  0  0
  1 26  1  0  0  0  0
  2  7  1  0  0  0  0
  2  3  1  0  0  0  0
  2  4  1  0  0  0  0
  3 27  1  0  0  0  0
  3 28  1  0  0  0  0
  3 29  1  0  0  0  0
  4 22  1  0  0  0  0
  4  5  1  0  0  0  0
  4 30  1  0  0  0  0
  5  6  1  0  0  0  0
  5 31  1  0  0  0  0
  5 32  1  0  0  0  0
  6  7  1  0  0  0  0
  6 33  1  0  0  0  0
  6 34  1  0  0  0  0
  7  8  1  0  0  0  0
  7  9  1  0  0  0  0
  8 35  1  0  0  0  0
  8 36  1  0  0  0  0
  8 37  1  0  0  0  0
  9 10  1  0  0  0  0
  9 22  1  0  0  0  0
  9 38  1  0  0  0  0
 10 11  1  0  0  0  0
 10 39  1  0  0  0  0
 11 12  2  0  0  0  0
 11 13  1  0  0  0  0
 13 14  1  0  0  0  0
 13 40  1  0  0  0  0
 13 41  1  0  0  0  0
 14 20  1  0  0  0  0
 14 15  1  0  0  0  0
 15 16  2  0  0  0  0
 15 42  1  0  0  0  0
 16 17  1  0  0  0  0
 16 43  1  0  0  0  0
 17 18  2  0  0  0  0
 17 19  1  0  0  0  0
 19 23  1  0  0  0  0
 19 20  1  0  0  0  0
 20 21  2  0  0  0  0
 22 44  1  0  0  0  0
 22 45  1  0  0  0  0
M  END
> <s_m_source_file>
AV-unprocessed.smi

> <i_m_source_file_index>
623

> <i_lp_mmshare_version>
43012

> <i_f3d_flags>
0

> <s_epik_input>
W0NIM11bQ0BdMTJDKFtDSDNdKShbQ0gzXSlbQ0BIXShbQ0gyXVtDSDJdMSlbQ0gyXVtDQEBIXTJbTkhdQyg9TylbQ0gyXW4zW2NIXVtjSF1jKD1PKVtuSF1jMz1P

> <s_epik_cmdline>
J2VwaWtfcHl0aG9uJywgJy1waCcsICc3LjAnLCAnLXRuJywgJzgnLCAnLW1hJywgJzIwMCcsICctbWV0YWxfYmluZGluZycsICctaW1hZScsICc8aW5maWxlLm1hZT4nLCAnLW9tYWUnLCAnPG91dGZpbGUubWFlPic=

> <r_lp_tautomer_probability>
0.999537

> <r_epik_Ionization_Penalty>
0.00303563

> <r_epik_Ionization_Penalty_Charging>
0.00303561

> <r_epik_Ionization_Penalty_Neutral>
2.03238e-08

> <r_epik_State_Penalty>
0.00213308

> <r_epik_Charging_Adjusted_Penalty>
0.00516869

> <i_epik_Tot_Q>
0

> <i_epik_Tot_abs_Q>
0

> <r_epik_Metal_State_Penalty>
0.361714

> <b_epik_Metal_Only>
0

> <s_lp_Force_Field>
OPLS_2005

> <r_lp_Energy>
57.3757

> <b_lp_Chiralities_Consistent>
1

> <s_lp_Variant>
AV-unprocessed.smi:623-4

> <Gold.Version>
5.8.1

> <Gold.Id.Protein>
6NUR|6NUR_protein|mol2

> <Gold.PLP.Fitness>
38.4723

> <Gold.PLP.PLP>
-30.3739

> <Gold.PLP.part.hbond>
-3.0000

> <Gold.PLP.part.metal>
0.0000

> <Gold.PLP.part.buried>
-3.8872

> <Gold.PLP.part.nonpolar>
-23.3292

> <Gold.PLP.part.repulsive>
0.2653

> <Gold.PLP.ligand.clash>
0.0000

> <Gold.PLP.ligand.torsion>
0.4590

> <Gold.PLP.Chemscore.Hbond>
2.0000

> <Gold.PLP.Chemscore.CHOScore>
1.0000

> <Gold.PLP.Chemscore.Metal>
0.0000

> <Gold.Chemscore.Hbonds>
donor molecule, donor type, donor heavy atom, donor atom, acceptor molecule, acceptor atom, score
      L1  H    10    39       P1 10175  1.00
      L1  H    19    23       P1 10957  1.00
      L1  C    15    42       P1 10171  1.00

> <Gold.PLP.Chemscore.Internal.Correction>
0.0164

> <Gold.Rescore>
     Score         DG    S(hbond)    S(metal)    S(lipo)     H(rot)  DE(clash)    DE(int)     intcor
     14.33     -14.92       1.99        0.00      60.15       1.66       0.15       0.43       ----

> <Gold.Chemscore.Fitness>
14.3347

> <Gold.Chemscore.DG>
-14.9179

> <Gold.Chemscore.ZeroCoef>
-5.4800

> <Gold.Chemscore.Hbond>
1.9946

> <Gold.Chemscore.Metal>
0.0000

> <Gold.Chemscore.Lipo>
60.1511

> <Gold.Chemscore.Internal_Hbond>
0.0000

> <Gold.Chemscore.DEClash>
0.1487

> <Gold.Chemscore.DEInternal>
0.4344

> <Gold.Chemscore.Rot>
1.6647

> <Gold.Chemscore.Internal.Correction>
   9.000000E+99

> <Gold.Chemscore.Hbonds>
donor molecule, donor type, donor heavy atom, donor atom, acceptor molecule, acceptor atom, score
      L1  H    10    39       P1 10175  1.00
      L1  H    19    23       P1 10957  0.81

> <Gold.Chemscore.Hbond.Weighted>
-6.6619

> <Gold.Chemscore.Metal.Weighted>
-0.0000

> <Gold.Chemscore.Lipo.Weighted>
-7.0377

> <Gold.Chemscore.Internal_Hbond.Weighted>
0.0000

> <Gold.Chemscore.DEClash.Weighted>
0.1487

> <Gold.Chemscore.DEInternal.Weighted>
0.4344

> <Gold.Chemscore.Rot.Weighted>
4.2617

> <Gold.Chemscore.Internal.Correction.Weighted>
   9.000000E+99

> <Gold.Protein.RotatedTorsions>
[ 6907 6896 6895 6894 ] final   40.30 input  -60.11 | X-H torsion
[ 7974 7965 7964 7962 ] final -119.55 input  175.53 | X-H torsion
[ 8008 7997 7996 7995 ] final   45.79 input   59.86 | X-H torsion
[ 10167 10162 10161 10158 ] final -135.66 input  -65.29 | X-H torsion
[ 10718 10713 10712 10709 ] final    2.12 input   66.30 | X-H torsion
[ 10763 10752 10751 10750 ] final   77.39 input  -60.55 | X-H torsion
[ 11005 11000 10999 10996 ] final   81.26 input  -57.11 | X-H torsion

> <Gold.Protein.ActiveResidues>
 VAL166  LYS551  ARG553  GLY616  TRP617  ASP618  TYR619  PRO620  LYS621  CYS622 
 ASP623  PHE694  ASN695  SER759  ASP760  ASP761  ALA762  ILE779  LEU786  VAL792 
 PHE793  MET794  SER795  GLU796  ALA797  LYS798  CYS799  TRP800  GLU811  SER814 

> <Gold.Protein.RotatedAtoms>
  152.1807  134.8756  160.0526 H   0  0  0  0  0  0  0  0  0  0  0  0  # atno 6907 bound_to 6896
  151.9681  133.3712  159.4069 H   0  0  0  0  0  0  0  0  0  0  0  0  # atno 6908 bound_to 6896
  150.6917  134.4092  159.5198 H   0  0  0  0  0  0  0  0  0  0  0  0  # atno 6909 bound_to 6896
  145.0613  140.8292  143.4151 H   0  0  0  0  0  0  0  0  0  0  0  0  # atno 7974 bound_to 7965
  155.3417  140.3408  155.4239 H   0  0  0  0  0  0  0  0  0  0  0  0  # atno 8008 bound_to 7997
  156.1809  140.1664  156.8311 H   0  0  0  0  0  0  0  0  0  0  0  0  # atno 8009 bound_to 7997
  154.5333  140.0740  156.8366 H   0  0  0  0  0  0  0  0  0  0  0  0  # atno 8010 bound_to 7997
  139.8757  143.6902  152.2634 H   0  0  0  0  0  0  0  0  0  0  0  0  # atno 10167 bound_to 10162
  156.8583  130.5578  149.5664 H   0  0  0  0  0  0  0  0  0  0  0  0  # atno 10718 bound_to 10713
  153.0795  135.4916  154.8474 H   0  0  0  0  0  0  0  0  0  0  0  0  # atno 10763 bound_to 10752
  154.7132  135.3024  154.9166 H   0  0  0  0  0  0  0  0  0  0  0  0  # atno 10764 bound_to 10752
  153.9853  135.6785  153.4805 H   0  0  0  0  0  0  0  0  0  0  0  0  # atno 10765 bound_to 10752
  139.9104  134.7983  156.2018 H   0  0  0  0  0  0  0  0  0  0  0  0  # atno 11005 bound_to 11000
  145.1406  139.2575  143.5492 LP  0  0  0  0  0  0  0  0  0  0  0  0  # atno 17320 bound_to 7965
  146.3524  140.1081  142.8605 LP  0  0  0  0  0  0  0  0  0  0  0  0  # atno 17321 bound_to 7965
  139.7243  144.7596  151.0905 LP  0  0  0  0  0  0  0  0  0  0  0  0  # atno 17342 bound_to 10162
  140.7753  143.5168  150.9584 LP  0  0  0  0  0  0  0  0  0  0  0  0  # atno 17343 bound_to 10162
  156.0790  130.5805  150.9528 LP  0  0  0  0  0  0  0  0  0  0  0  0  # atno 17370 bound_to 10713
  157.6264  131.0925  150.8525 LP  0  0  0  0  0  0  0  0  0  0  0  0  # atno 17371 bound_to 10713
  141.0520  133.6884  156.1790 LP  0  0  0  0  0  0  0  0  0  0  0  0  # atno 17394 bound_to 11000
  140.6795  134.4782  157.5589 LP  0  0  0  0  0  0  0  0  0  0  0  0  # atno 17395 bound_to 11000

$$$$
