AV-unprocessed.smi:104|AV-procd|sdf|1005|dock7
  -GOLD-   2262018 03D 1   1.00000     0.00000
 Structure written by MMmdl.
 47 49  0  0  0  0  0  0  0  0  1 V2000
  147.4683  134.7682  161.9823 C   0  0  0  0  0  0  0  0  0  0  0  0
  147.6844  136.1134  161.3020 C   0  0  0  0  0  0  0  0  0  0  0  0
  147.4498  137.1714  161.8852 O   0  0  0  0  0  0  0  0  0  0  0  0
  148.1430  135.9832  160.0453 O   0  0  0  0  0  0  0  0  0  0  0  0
  148.5062  137.1257  159.2817 C   0  0  0  0  0  0  0  0  0  0  0  0
  147.3832  137.5063  158.3003 C   0  0  2  0  0  0  0  0  0  0  0  0
  147.0354  136.4080  157.4584 O   0  0  0  0  0  0  0  0  0  0  0  0
  146.5730  136.8889  156.2304 C   0  0  1  0  0  0  0  0  0  0  0  0
  145.1930  136.3774  155.9699 N   0  0  0  0  0  0  0  0  0  0  0  0
  144.4328  135.5320  156.7450 C   0  0  0  0  0  0  0  0  0  0  0  0
  145.0688  134.8153  158.3910 Br  0  0  0  0  0  0  0  0  0  0  0  0
  143.2494  135.2161  156.2992 N   0  0  0  0  0  0  0  0  0  0  0  0
  143.1869  135.8976  155.0904 C   0  0  0  0  0  0  0  0  0  0  0  0
  142.2057  136.0088  154.0732 C   0  0  0  0  0  0  0  0  0  0  0  0
  141.0174  135.3919  154.1325 N   0  0  0  0  0  0  0  0  0  0  0  0
  142.4807  136.7706  152.9889 N   0  0  0  0  0  0  0  0  0  0  0  0
  143.6597  137.3942  152.9036 C   0  0  0  0  0  0  0  0  0  0  0  0
  144.6735  137.3867  153.7730 N   0  0  0  0  0  0  0  0  0  0  0  0
  144.3957  136.6213  154.8687 C   0  0  0  0  0  0  0  0  0  0  0  0
  146.5649  138.4139  156.3086 C   0  0  2  0  0  0  0  0  0  0  0  0
  146.8091  138.9902  155.0323 O   0  0  0  0  0  0  0  0  0  0  0  0
  146.7742  140.3227  154.8763 C   0  0  0  0  0  0  0  0  0  0  0  0
  147.2763  140.7574  153.5063 C   0  0  0  0  0  0  0  0  0  0  0  0
  146.3967  141.1415  155.7142 O   0  0  0  0  0  0  0  0  0  0  0  0
  147.6597  138.6660  157.3365 C   0  0  2  0  0  0  0  0  0  0  0  0
  148.9621  138.5218  156.7715 O   0  0  0  0  0  0  0  0  0  0  0  0
  149.5846  139.5714  156.2044 C   0  0  0  0  0  0  0  0  0  0  0  0
  150.8900  139.1745  155.5297 C   0  0  0  0  0  0  0  0  0  0  0  0
  149.1871  140.7363  156.2016 O   0  0  0  0  0  0  0  0  0  0  0  0
  146.5365  134.3186  161.6396 H   0  0  0  0  0  0  0  0  0  0  0  0
  147.4159  134.8915  163.0644 H   0  0  0  0  0  0  0  0  0  0  0  0
  148.2877  134.0871  161.7527 H   0  0  0  0  0  0  0  0  0  0  0  0
  148.8121  137.9674  159.9043 H   0  0  0  0  0  0  0  0  0  0  0  0
  149.3876  136.8421  158.7063 H   0  0  0  0  0  0  0  0  0  0  0  0
  146.4889  137.7446  158.8774 H   0  0  0  0  0  0  0  0  0  0  0  0
  147.1990  136.4906  155.4320 H   0  0  0  0  0  0  0  0  0  0  0  0
  140.7886  134.8157  154.9298 H   0  0  0  0  0  0  0  0  0  0  0  0
  140.3531  135.5046  153.3804 H   0  0  0  0  0  0  0  0  0  0  0  0
  143.8131  137.9836  152.0115 H   0  0  0  0  0  0  0  0  0  0  0  0
  145.6018  138.7277  156.7161 H   0  0  0  0  0  0  0  0  0  0  0  0
  146.6584  140.3216  152.7210 H   0  0  0  0  0  0  0  0  0  0  0  0
  148.3057  140.4301  153.3603 H   0  0  0  0  0  0  0  0  0  0  0  0
  147.2420  141.8429  153.4119 H   0  0  0  0  0  0  0  0  0  0  0  0
  147.5439  139.6291  157.8359 H   0  0  0  0  0  0  0  0  0  0  0  0
  150.7046  138.4321  154.7534 H   0  0  0  0  0  0  0  0  0  0  0  0
  151.5787  138.7499  156.2604 H   0  0  0  0  0  0  0  0  0  0  0  0
  151.3639  140.0431  155.0715 H   0  0  0  0  0  0  0  0  0  0  0  0
  1  2  1  0  0  0  0
  1 30  1  0  0  0  0
  1 31  1  0  0  0  0
  1 32  1  0  0  0  0
  2  3  2  0  0  0  0
  2  4  1  0  0  0  0
  4  5  1  0  0  0  0
  5  6  1  0  0  0  0
  5 33  1  0  0  0  0
  5 34  1  0  0  0  0
  6 25  1  0  0  0  0
  6  7  1  0  0  0  0
  6 35  1  0  0  0  0
  7  8  1  0  0  0  0
  8  9  1  0  0  0  0
  8 20  1  0  0  0  0
  8 36  1  0  0  0  0
  9 19  1  0  0  0  0
  9 10  1  0  0  0  0
 10 11  1  0  0  0  0
 10 12  2  0  0  0  0
 12 13  1  0  0  0  0
 13 19  2  0  0  0  0
 13 14  1  0  0  0  0
 14 15  1  0  0  0  0
 14 16  2  0  0  0  0
 15 37  1  0  0  0  0
 15 38  1  0  0  0  0
 16 17  1  0  0  0  0
 17 18  2  0  0  0  0
 17 39  1  0  0  0  0
 18 19  1  0  0  0  0
 20 21  1  0  0  0  0
 20 25  1  0  0  0  0
 20 40  1  0  0  0  0
 21 22  1  0  0  0  0
 22 23  1  0  0  0  0
 22 24  2  0  0  0  0
 23 41  1  0  0  0  0
 23 42  1  0  0  0  0
 23 43  1  0  0  0  0
 25 26  1  0  0  0  0
 25 44  1  0  0  0  0
 26 27  1  0  0  0  0
 27 28  1  0  0  0  0
 27 29  2  0  0  0  0
 28 45  1  0  0  0  0
 28 46  1  0  0  0  0
 28 47  1  0  0  0  0
M  END
> <s_m_source_file>
AV-unprocessed.smi

> <i_m_source_file_index>
104

> <i_lp_mmshare_version>
43012

> <i_f3d_flags>
0

> <s_epik_input>
W0NIM11DKD1PKU9bQ0gyXVtDQEBIXTFPW0NASF0oW0NAQEhdKE9DKD1PKVtDSDNdKVtDQEhdMU9DKD1PKVtDSDNdKW4oYyhCciluMiljKGMyMyluW2NIXW5jM1tOSDJd

> <s_epik_cmdline>
J2VwaWtfcHl0aG9uJywgJy1waCcsICc3LjAnLCAnLXRuJywgJzgnLCAnLW1hJywgJzIwMCcsICctbWV0YWxfYmluZGluZycsICctaW1hZScsICc8aW5maWxlLm1hZT4nLCAnLW9tYWUnLCAnPG91dGZpbGUubWFlPic=

> <r_lp_tautomer_probability>
1

> <r_epik_Ionization_Penalty>
7.36622e-05

> <r_epik_Ionization_Penalty_Charging>
0

> <r_epik_Ionization_Penalty_Neutral>
7.36622e-05

> <r_epik_State_Penalty>
-0

> <r_epik_Charging_Adjusted_Penalty>
0

> <i_epik_Tot_Q>
0

> <i_epik_Tot_abs_Q>
0

> <r_epik_Metal_State_Penalty>
-0

> <b_epik_Metal_Only>
0

> <s_epik_Chemistry_Notes>
This compound has an ester and may undergo hydrolysis at high or low pH. This compound contains an acetal/aminal-like group ( X-CH(R)-Y where X, Y are N, S, or O) that may be acid/base labile, releasing an aldehyde.

> <s_lp_Force_Field>
OPLS_2005

> <r_lp_Energy>
18.0917

> <b_lp_Chiralities_Consistent>
1

> <s_lp_Variant>
AV-unprocessed.smi:104-13

> <Gold.Version>
5.8.1

> <Gold.Id.Protein>
6NUR|6NUR_protein|mol2

> <Gold.PLP.Fitness>
36.1869

> <Gold.PLP.PLP>
-24.3044

> <Gold.PLP.part.hbond>
-3.9244

> <Gold.PLP.part.metal>
0.0000

> <Gold.PLP.part.buried>
-4.6007

> <Gold.PLP.part.nonpolar>
-16.1202

> <Gold.PLP.part.repulsive>
0.6784

> <Gold.PLP.ligand.clash>
0.0000

> <Gold.PLP.ligand.torsion>
0.7240

> <Gold.PLP.Chemscore.Hbond>
2.6772

> <Gold.PLP.Chemscore.CHOScore>
1.6622

> <Gold.PLP.Chemscore.Metal>
0.0000

> <Gold.Chemscore.Hbonds>
donor molecule, donor type, donor heavy atom, donor atom, acceptor molecule, acceptor atom, score
      L1  H    15    37       P1 11000  1.00
      P1  H  6931  6943       L1     3  0.93
      P1  H  6934  6947       L1     3  0.62
      L1  C    17    39       P1 10171  1.00
      L1  C    17    39       P1 10175  0.66

> <Gold.PLP.Chemscore.Internal.Correction>
0.3122

> <Gold.Rescore>
     Score         DG    S(hbond)    S(metal)    S(lipo)     H(rot)  DE(clash)    DE(int)     intcor
      3.14      -6.89       2.66        0.00      30.40       4.31       0.02       3.73       ----

> <Gold.Chemscore.Fitness>
3.1402

> <Gold.Chemscore.DG>
-6.8892

> <Gold.Chemscore.ZeroCoef>
-5.4800

> <Gold.Chemscore.Hbond>
2.6583

> <Gold.Chemscore.Metal>
0.0000

> <Gold.Chemscore.Lipo>
30.3951

> <Gold.Chemscore.Internal_Hbond>
0.0000

> <Gold.Chemscore.DEClash>
0.0210

> <Gold.Chemscore.DEInternal>
3.7280

> <Gold.Chemscore.Rot>
4.3070

> <Gold.Chemscore.Internal.Correction>
   9.000000E+99

> <Gold.Chemscore.Hbonds>
donor molecule, donor type, donor heavy atom, donor atom, acceptor molecule, acceptor atom, score
      L1  H    15    37       P1 11000  0.99
      P1  H  6931  6943       L1     3  0.67
      P1  H  6934  6947       L1     3  0.62

> <Gold.Chemscore.Hbond.Weighted>
-8.8789

> <Gold.Chemscore.Metal.Weighted>
-0.0000

> <Gold.Chemscore.Lipo.Weighted>
-3.5562

> <Gold.Chemscore.Internal_Hbond.Weighted>
0.0000

> <Gold.Chemscore.DEClash.Weighted>
0.0210

> <Gold.Chemscore.DEInternal.Weighted>
3.7280

> <Gold.Chemscore.Rot.Weighted>
11.0259

> <Gold.Chemscore.Internal.Correction.Weighted>
   9.000000E+99

> <Gold.Protein.RotatedTorsions>
[ 6907 6896 6895 6894 ] final  116.35 input  -60.11 | X-H torsion
[ 7974 7965 7964 7962 ] final  131.94 input  175.53 | X-H torsion
[ 8008 7997 7996 7995 ] final  176.40 input   59.86 | X-H torsion
[ 10167 10162 10161 10158 ] final  -91.72 input  -65.29 | X-H torsion
[ 10718 10713 10712 10709 ] final   60.52 input   66.30 | X-H torsion
[ 10763 10752 10751 10750 ] final  174.39 input  -60.55 | X-H torsion
[ 11005 11000 10999 10996 ] final -164.62 input  -57.11 | X-H torsion

> <Gold.Protein.ActiveResidues>
 VAL166  LYS551  ARG553  GLY616  TRP617  ASP618  TYR619  PRO620  LYS621  CYS622 
 ASP623  PHE694  ASN695  SER759  ASP760  ASP761  ALA762  ILE779  LEU786  VAL792 
 PHE793  MET794  SER795  GLU796  ALA797  LYS798  CYS799  TRP800  GLU811  SER814 

> <Gold.Protein.RotatedAtoms>
  152.4684  133.7973  159.6933 H   0  0  0  0  0  0  0  0  0  0  0  0  # atno 6907 bound_to 6896
  150.8659  133.7565  159.2983 H   0  0  0  0  0  0  0  0  0  0  0  0  # atno 6908 bound_to 6896
  151.5115  135.1068  159.9907 H   0  0  0  0  0  0  0  0  0  0  0  0  # atno 6909 bound_to 6896
  145.0020  139.4303  143.5287 H   0  0  0  0  0  0  0  0  0  0  0  0  # atno 7974 bound_to 7965
  156.0768  140.1384  156.9761 H   0  0  0  0  0  0  0  0  0  0  0  0  # atno 8008 bound_to 7997
  154.4562  140.0960  156.6815 H   0  0  0  0  0  0  0  0  0  0  0  0  # atno 8009 bound_to 7997
  155.5139  140.3454  155.4396 H   0  0  0  0  0  0  0  0  0  0  0  0  # atno 8010 bound_to 7997
  140.3420  143.2937  151.9824 H   0  0  0  0  0  0  0  0  0  0  0  0  # atno 10167 bound_to 10162
  157.5759  130.8943  149.9346 H   0  0  0  0  0  0  0  0  0  0  0  0  # atno 10718 bound_to 10713
  154.4533  135.2765  155.1765 H   0  0  0  0  0  0  0  0  0  0  0  0  # atno 10763 bound_to 10752
  154.3583  135.6135  153.5681 H   0  0  0  0  0  0  0  0  0  0  0  0  # atno 10764 bound_to 10752
  152.9849  135.5828  154.4882 H   0  0  0  0  0  0  0  0  0  0  0  0  # atno 10765 bound_to 10752
  140.5848  134.5104  157.5184 H   0  0  0  0  0  0  0  0  0  0  0  0  # atno 11005 bound_to 11000
  146.3454  139.9414  142.8740 LP  0  0  0  0  0  0  0  0  0  0  0  0  # atno 17320 bound_to 7965
  145.2140  140.9907  143.4084 LP  0  0  0  0  0  0  0  0  0  0  0  0  # atno 17321 bound_to 7965
  139.4839  144.6148  151.7366 LP  0  0  0  0  0  0  0  0  0  0  0  0  # atno 17342 bound_to 10162
  140.5299  144.0746  150.6050 LP  0  0  0  0  0  0  0  0  0  0  0  0  # atno 17343 bound_to 10162
  156.0803  130.3674  150.0593 LP  0  0  0  0  0  0  0  0  0  0  0  0  # atno 17370 bound_to 10713
  156.8740  130.9534  151.3606 LP  0  0  0  0  0  0  0  0  0  0  0  0  # atno 17371 bound_to 10713
  139.9300  134.7981  156.0957 LP  0  0  0  0  0  0  0  0  0  0  0  0  # atno 17394 bound_to 11000
  141.0973  133.6691  156.2673 LP  0  0  0  0  0  0  0  0  0  0  0  0  # atno 17395 bound_to 11000

$$$$
