AV-unprocessed.smi:342|AV-procd|sdf|2384|dock1
  -GOLD-   2262022313D 1   1.00000     0.00000
 Structure written by MMmdl.
 41 43  0  0  0  0  0  0  0  0  1 V2000
  150.8747  142.7981  155.4417 O   0  0  0  0  0  0  0  0  0  0  0  0
  150.2797  141.5202  155.3573 C   0  0  2  0  0  0  0  0  0  0  0  0
  149.0171  141.6260  154.4741 C   0  0  0  0  0  0  0  0  0  0  0  0
  148.5323  140.3629  153.9165 N   0  0  0  0  0  0  0  0  0  0  0  0
  148.1326  139.4073  154.9493 C   0  0  0  0  0  0  0  0  0  0  0  0
  147.5891  138.1009  154.3443 C   0  0  0  0  0  0  0  0  0  0  0  0
  146.5019  138.3908  153.4722 O   0  0  0  0  0  0  0  0  0  0  0  0
  146.8640  139.2825  152.4235 C   0  0  0  0  0  0  0  0  0  0  0  0
  147.3991  140.5926  153.0261 C   0  0  0  0  0  0  0  0  0  0  0  0
  149.9894  141.0418  156.7949 C   0  0  0  0  0  0  0  0  0  0  0  0
  151.2027  140.8015  157.5670 N   0  0  0  0  0  0  0  0  0  0  0  0
  152.0600  139.7484  157.4977 C   0  0  0  0  0  0  0  0  0  0  0  0
  151.8509  138.5957  156.5543 C   0  0  0  0  0  0  0  0  0  0  0  0
  151.9105  139.0017  155.2850 F   0  0  0  0  0  0  0  0  0  0  0  0
  152.7934  137.6693  156.7295 F   0  0  0  0  0  0  0  0  0  0  0  0
  150.6562  138.0363  156.7434 F   0  0  0  0  0  0  0  0  0  0  0  0
  153.0999  139.7989  158.3336 N   0  0  0  0  0  0  0  0  0  0  0  0
  152.8937  140.9822  159.0127 C   0  0  0  0  0  0  0  0  0  0  0  0
  153.6522  141.5981  160.0338 C   0  0  0  0  0  0  0  0  0  0  0  0
  153.2359  142.8247  160.5910 C   0  0  0  0  0  0  0  0  0  0  0  0
  152.0555  143.4492  160.1390 C   0  0  0  0  0  0  0  0  0  0  0  0
  151.2855  142.8517  159.1227 C   0  0  0  0  0  0  0  0  0  0  0  0
  151.7091  141.6304  158.5643 C   0  0  0  0  0  0  0  0  0  0  0  0
  150.1962  143.4292  155.6289 H   0  0  0  0  0  0  0  0  0  0  0  0
  151.0069  140.8447  154.9116 H   0  0  0  0  0  0  0  0  0  0  0  0
  148.2069  142.0848  155.0419 H   0  0  0  0  0  0  0  0  0  0  0  0
  149.2348  142.3203  153.6612 H   0  0  0  0  0  0  0  0  0  0  0  0
  148.9757  139.1619  155.5931 H   0  0  0  0  0  0  0  0  0  0  0  0
  147.3694  139.8518  155.5903 H   0  0  0  0  0  0  0  0  0  0  0  0
  148.3725  137.5741  153.7972 H   0  0  0  0  0  0  0  0  0  0  0  0
  147.2444  137.4323  155.1331 H   0  0  0  0  0  0  0  0  0  0  0  0
  147.6136  138.8172  151.7816 H   0  0  0  0  0  0  0  0  0  0  0  0
  145.9888  139.4793  151.8043 H   0  0  0  0  0  0  0  0  0  0  0  0
  146.5957  141.0921  153.5701 H   0  0  0  0  0  0  0  0  0  0  0  0
  147.6929  141.2643  152.2187 H   0  0  0  0  0  0  0  0  0  0  0  0
  149.3995  141.7911  157.3246 H   0  0  0  0  0  0  0  0  0  0  0  0
  149.3806  140.1393  156.7726 H   0  0  0  0  0  0  0  0  0  0  0  0
  154.5555  141.1252  160.3897 H   0  0  0  0  0  0  0  0  0  0  0  0
  153.8233  143.2872  161.3706 H   0  0  0  0  0  0  0  0  0  0  0  0
  151.7412  144.3870  160.5735 H   0  0  0  0  0  0  0  0  0  0  0  0
  150.3799  143.3283  158.7788 H   0  0  0  0  0  0  0  0  0  0  0  0
  1  2  1  0  0  0  0
  1 24  1  0  0  0  0
  2  3  1  0  0  0  0
  2 10  1  0  0  0  0
  2 25  1  0  0  0  0
  3  4  1  0  0  0  0
  3 26  1  0  0  0  0
  3 27  1  0  0  0  0
  4  9  1  0  0  0  0
  4  5  1  0  0  0  0
  5  6  1  0  0  0  0
  5 28  1  0  0  0  0
  5 29  1  0  0  0  0
  6  7  1  0  0  0  0
  6 30  1  0  0  0  0
  6 31  1  0  0  0  0
  7  8  1  0  0  0  0
  8  9  1  0  0  0  0
  8 32  1  0  0  0  0
  8 33  1  0  0  0  0
  9 34  1  0  0  0  0
  9 35  1  0  0  0  0
 10 11  1  0  0  0  0
 10 36  1  0  0  0  0
 10 37  1  0  0  0  0
 11 23  1  0  0  0  0
 11 12  1  0  0  0  0
 12 13  1  0  0  0  0
 12 17  2  0  0  0  0
 13 14  1  0  0  0  0
 13 15  1  0  0  0  0
 13 16  1  0  0  0  0
 17 18  1  0  0  0  0
 18 23  2  0  0  0  0
 18 19  1  0  0  0  0
 19 20  2  0  0  0  0
 19 38  1  0  0  0  0
 20 21  1  0  0  0  0
 20 39  1  0  0  0  0
 21 22  2  0  0  0  0
 21 40  1  0  0  0  0
 22 23  1  0  0  0  0
 22 41  1  0  0  0  0
M  END
> <s_m_source_file>
AV-unprocessed.smi

> <i_m_source_file_index>
342

> <i_lp_mmshare_version>
43012

> <i_f3d_flags>
0

> <s_epik_input>
W2NIXTFbY0hdW2NIXVtjSF1jKGMxMiluKGMobjIpQyhGKShGKUYpW0NIMl1bQ0BIXShbT0hdKVtDSDJdTjNbQ0gyXVtDSDJdT1tDSDJdW0NIMl0z

> <s_epik_cmdline>
J2VwaWtfcHl0aG9uJywgJy1waCcsICc3LjAnLCAnLXRuJywgJzgnLCAnLW1hJywgJzIwMCcsICctbWV0YWxfYmluZGluZycsICctaW1hZScsICc8aW5maWxlLm1hZT4nLCAnLW9tYWUnLCAnPG91dGZpbGUubWFlPic=

> <r_epik_Ionization_Penalty>
0.263195

> <r_epik_Ionization_Penalty_Charging>
0

> <r_epik_Ionization_Penalty_Neutral>
0.263195

> <r_epik_State_Penalty>
0.254683

> <r_epik_Charging_Adjusted_Penalty>
0.254683

> <i_epik_Tot_Q>
0

> <i_epik_Tot_abs_Q>
0

> <r_epik_Metal_State_Penalty>
0.254691

> <b_epik_Metal_Only>
0

> <s_lp_Force_Field>
OPLS_2005

> <r_lp_Energy>
34.5918

> <b_lp_Chiralities_Consistent>
1

> <s_lp_Variant>
AV-unprocessed.smi:342-1

> <Gold.Version>
5.8.1

> <Gold.Id.Protein>
6NUR|6NUR_protein|mol2

> <Gold.PLP.Fitness>
42.6834

> <Gold.PLP.PLP>
-37.4433

> <Gold.PLP.part.hbond>
-1.7954

> <Gold.PLP.part.metal>
0.0000

> <Gold.PLP.part.buried>
-1.2384

> <Gold.PLP.part.nonpolar>
-34.7614

> <Gold.PLP.part.repulsive>
0.3145

> <Gold.PLP.ligand.clash>
0.0000

> <Gold.PLP.ligand.torsion>
0.4479

> <Gold.PLP.Chemscore.Hbond>
2.0000

> <Gold.PLP.Chemscore.CHOScore>
0.0000

> <Gold.PLP.Chemscore.Metal>
0.0000

> <Gold.Chemscore.Hbonds>
donor molecule, donor type, donor heavy atom, donor atom, acceptor molecule, acceptor atom, score
      L1  H     1    24       P1  8028  1.00
      P1  H  7997  8008       L1    17  1.00

> <Gold.PLP.Chemscore.Internal.Correction>
0.1360

> <Gold.Rescore>
     Score         DG    S(hbond)    S(metal)    S(lipo)     H(rot)  DE(clash)    DE(int)     intcor
     14.70     -17.83       1.58        0.00     109.58       2.24       1.64       1.49       ----

> <Gold.Chemscore.Fitness>
14.7029

> <Gold.Chemscore.DG>
-17.8317

> <Gold.Chemscore.ZeroCoef>
-5.4800

> <Gold.Chemscore.Hbond>
1.5780

> <Gold.Chemscore.Metal>
0.0000

> <Gold.Chemscore.Lipo>
109.5827

> <Gold.Chemscore.Internal_Hbond>
0.0000

> <Gold.Chemscore.DEClash>
1.6388

> <Gold.Chemscore.DEInternal>
1.4900

> <Gold.Chemscore.Rot>
2.2421

> <Gold.Chemscore.Internal.Correction>
   9.000000E+99

> <Gold.Chemscore.Hbonds>
donor molecule, donor type, donor heavy atom, donor atom, acceptor molecule, acceptor atom, score
      L1  H     1    24       P1  8028  1.00
      P1  H  7997  8008       L1    17  0.25

> <Gold.Chemscore.Hbond.Weighted>
-5.2704

> <Gold.Chemscore.Metal.Weighted>
-0.0000

> <Gold.Chemscore.Lipo.Weighted>
-12.8212

> <Gold.Chemscore.Internal_Hbond.Weighted>
0.0000

> <Gold.Chemscore.DEClash.Weighted>
1.6388

> <Gold.Chemscore.DEInternal.Weighted>
1.4900

> <Gold.Chemscore.Rot.Weighted>
5.7399

> <Gold.Chemscore.Internal.Correction.Weighted>
   9.000000E+99

> <Gold.Protein.RotatedTorsions>
[ 6907 6896 6895 6894 ] final    7.42 input  -60.11 | X-H torsion
[ 7974 7965 7964 7962 ] final  156.83 input  175.53 | X-H torsion
[ 8008 7997 7996 7995 ] final  -92.23 input   59.86 | X-H torsion
[ 10167 10162 10161 10158 ] final  -61.45 input  -65.29 | X-H torsion
[ 10718 10713 10712 10709 ] final -177.83 input   66.30 | X-H torsion
[ 10763 10752 10751 10750 ] final   31.73 input  -60.55 | X-H torsion
[ 11005 11000 10999 10996 ] final   75.01 input  -57.11 | X-H torsion

> <Gold.Protein.ActiveResidues>
 VAL166  LYS551  ARG553  GLY616  TRP617  ASP618  TYR619  PRO620  LYS621  CYS622 
 ASP623  PHE694  ASN695  SER759  ASP760  ASP761  ALA762  ILE779  LEU786  VAL792 
 PHE793  MET794  SER795  GLU796  ALA797  LYS798  CYS799  TRP800  GLU811  SER814 

> <Gold.Protein.RotatedAtoms>
  151.6896  135.0948  160.0230 H   0  0  0  0  0  0  0  0  0  0  0  0  # atno 6907 bound_to 6896
  152.3786  133.6511  159.6152 H   0  0  0  0  0  0  0  0  0  0  0  0  # atno 6908 bound_to 6896
  150.7729  133.9068  159.3399 H   0  0  0  0  0  0  0  0  0  0  0  0  # atno 6909 bound_to 6896
  144.7939  139.7257  143.6210 H   0  0  0  0  0  0  0  0  0  0  0  0  # atno 7974 bound_to 7965
  154.7205  140.0511  157.0635 H   0  0  0  0  0  0  0  0  0  0  0  0  # atno 8008 bound_to 7997
  155.0434  140.3171  155.4697 H   0  0  0  0  0  0  0  0  0  0  0  0  # atno 8009 bound_to 7997
  156.2815  140.2129  156.5558 H   0  0  0  0  0  0  0  0  0  0  0  0  # atno 8010 bound_to 7997
  140.6005  143.2360  151.5940 H   0  0  0  0  0  0  0  0  0  0  0  0  # atno 10167 bound_to 10162
  156.8353  130.9667  151.3104 H   0  0  0  0  0  0  0  0  0  0  0  0  # atno 10718 bound_to 10713
  153.0300  135.6431  154.1244 H   0  0  0  0  0  0  0  0  0  0  0  0  # atno 10763 bound_to 10752
  154.0968  135.2862  155.3261 H   0  0  0  0  0  0  0  0  0  0  0  0  # atno 10764 bound_to 10752
  154.6427  135.5454  153.7871 H   0  0  0  0  0  0  0  0  0  0  0  0  # atno 10765 bound_to 10752
  139.9364  134.7481  156.1218 H   0  0  0  0  0  0  0  0  0  0  0  0  # atno 11005 bound_to 11000
  146.2201  139.5620  142.9624 LP  0  0  0  0  0  0  0  0  0  0  0  0  # atno 17320 bound_to 7965
  145.5723  141.0393  143.2167 LP  0  0  0  0  0  0  0  0  0  0  0  0  # atno 17321 bound_to 7965
  139.5288  144.2979  152.1098 LP  0  0  0  0  0  0  0  0  0  0  0  0  # atno 17342 bound_to 10162
  140.2159  144.4515  150.6364 LP  0  0  0  0  0  0  0  0  0  0  0  0  # atno 17343 bound_to 10162
  157.6385  130.8786  149.9403 LP  0  0  0  0  0  0  0  0  0  0  0  0  # atno 17370 bound_to 10713
  156.0911  130.3663  150.0393 LP  0  0  0  0  0  0  0  0  0  0  0  0  # atno 17371 bound_to 10713
  141.0979  133.6688  156.2687 LP  0  0  0  0  0  0  0  0  0  0  0  0  # atno 17394 bound_to 11000
  140.6066  134.5501  157.5526 LP  0  0  0  0  0  0  0  0  0  0  0  0  # atno 17395 bound_to 11000

$$$$
