AV-unprocessed.smi:2478|AV-procd|sdf|9764|dock10
  -GOLD-   2272013403D 1   1.00000     0.00000
 Structure written by MMmdl.
 42 43  0  0  0  0  0  0  0  0  1 V2000
  151.4863  138.3145  154.7284 C   0  0  0  0  0  0  0  0  0  0  0  0
  150.8588  139.6386  155.1912 C   0  0  1  0  0  0  0  0  0  0  0  0
  149.5805  139.9768  154.3973 C   0  0  0  0  0  0  0  0  0  0  0  0
  148.9788  141.3200  154.8412 C   0  0  0  0  0  0  0  0  0  0  0  0
  148.7127  141.3405  156.3538 C   0  0  0  0  0  0  0  0  0  0  0  0
  149.9865  141.0056  157.1469 C   0  0  0  0  0  0  0  0  0  0  0  0
  150.5889  139.6520  156.7126 C   0  0  1  0  0  0  0  0  0  0  0  0
  149.6943  138.5883  157.0200 O   0  0  0  0  0  0  0  0  0  0  0  0
  150.3253  137.3550  157.3344 C   0  0  0  0  0  0  0  0  0  0  0  0
  150.0314  136.9972  158.7911 C   0  0  0  0  0  0  0  0  0  0  0  0
  150.9398  137.0111  159.6230 O   0  0  0  0  0  0  0  0  0  0  0  0
  148.7519  136.6769  159.0576 N   0  0  0  0  0  0  0  0  0  0  0  0
  148.1740  136.2902  160.2981 C   0  0  0  0  0  0  0  0  0  0  0  0
  147.6732  137.1809  161.1903 N   0  0  0  0  0  0  0  0  0  0  0  0
  147.1410  136.7333  162.3454 C   0  0  0  0  0  0  0  0  0  0  0  0
  147.0728  135.3704  162.6807 C   0  0  0  0  0  0  0  0  0  0  0  0
  147.5874  134.4361  161.7657 C   0  0  0  0  0  0  0  0  0  0  0  0
  148.1584  134.8955  160.5541 C   0  0  0  0  0  0  0  0  0  0  0  0
  148.6665  134.0341  159.6051 O   0  0  0  0  0  0  0  0  0  0  0  0
  147.8544  133.0876  159.0634 C   0  0  0  0  0  0  0  0  0  0  0  0
  148.3995  132.5908  157.9257 F   0  0  0  0  0  0  0  0  0  0  0  0
  147.7096  132.0581  159.9322 F   0  0  0  0  0  0  0  0  0  0  0  0
  150.8031  137.4769  154.8718 H   0  0  0  0  0  0  0  0  0  0  0  0
  152.3997  138.0976  155.2827 H   0  0  0  0  0  0  0  0  0  0  0  0
  151.7449  138.3527  153.6700 H   0  0  0  0  0  0  0  0  0  0  0  0
  151.5885  140.4228  154.9836 H   0  0  0  0  0  0  0  0  0  0  0  0
  149.8026  140.0133  153.3304 H   0  0  0  0  0  0  0  0  0  0  0  0
  148.8414  139.1855  154.5298 H   0  0  0  0  0  0  0  0  0  0  0  0
  149.6612  142.1300  154.5800 H   0  0  0  0  0  0  0  0  0  0  0  0
  148.0521  141.5094  154.2987 H   0  0  0  0  0  0  0  0  0  0  0  0
  148.3365  142.3198  156.6510 H   0  0  0  0  0  0  0  0  0  0  0  0
  147.9289  140.6221  156.5979 H   0  0  0  0  0  0  0  0  0  0  0  0
  150.7243  141.7925  156.9858 H   0  0  0  0  0  0  0  0  0  0  0  0
  149.7714  141.0141  158.2148 H   0  0  0  0  0  0  0  0  0  0  0  0
  151.5370  139.4948  157.2305 H   0  0  0  0  0  0  0  0  0  0  0  0
  149.9525  136.5676  156.6768 H   0  0  0  0  0  0  0  0  0  0  0  0
  151.4055  137.4176  157.2045 H   0  0  0  0  0  0  0  0  0  0  0  0
  148.1119  136.7136  158.2776 H   0  0  0  0  0  0  0  0  0  0  0  0
  146.7556  137.4837  163.0195 H   0  0  0  0  0  0  0  0  0  0  0  0
  146.6336  135.0504  163.6139 H   0  0  0  0  0  0  0  0  0  0  0  0
  147.5341  133.3829  161.9980 H   0  0  0  0  0  0  0  0  0  0  0  0
  146.8616  133.4834  158.8471 H   0  0  0  0  0  0  0  0  0  0  0  0
  1  2  1  0  0  0  0
  1 23  1  0  0  0  0
  1 24  1  0  0  0  0
  1 25  1  0  0  0  0
  2  7  1  0  0  0  0
  2  3  1  0  0  0  0
  2 26  1  0  0  0  0
  3  4  1  0  0  0  0
  3 27  1  0  0  0  0
  3 28  1  0  0  0  0
  4  5  1  0  0  0  0
  4 29  1  0  0  0  0
  4 30  1  0  0  0  0
  5  6  1  0  0  0  0
  5 31  1  0  0  0  0
  5 32  1  0  0  0  0
  6  7  1  0  0  0  0
  6 33  1  0  0  0  0
  6 34  1  0  0  0  0
  7  8  1  0  0  0  0
  7 35  1  0  0  0  0
  8  9  1  0  0  0  0
  9 10  1  0  0  0  0
  9 36  1  0  0  0  0
  9 37  1  0  0  0  0
 10 11  2  0  0  0  0
 10 12  1  0  0  0  0
 12 13  1  0  0  0  0
 12 38  1  0  0  0  0
 13 18  1  0  0  0  0
 13 14  2  0  0  0  0
 14 15  1  0  0  0  0
 15 16  2  0  0  0  0
 15 39  1  0  0  0  0
 16 17  1  0  0  0  0
 16 40  1  0  0  0  0
 17 18  2  0  0  0  0
 17 41  1  0  0  0  0
 18 19  1  0  0  0  0
 19 20  1  0  0  0  0
 20 21  1  0  0  0  0
 20 22  1  0  0  0  0
 20 42  1  0  0  0  0
M  END
> <s_m_source_file>
AV-unprocessed.smi

> <i_m_source_file_index>
2478

> <i_lp_mmshare_version>
43012

> <i_f3d_flags>
0

> <s_epik_input>
W0NIM11bQ0BASF0xW0NIMl1bQ0gyXVtDSDJdW0NIMl1bQ0BIXTFPW0NIMl1DKD1PKVtOSF1jMm5bY0hdW2NIXVtjSF1jMk9bQ0hdKEYpRg==

> <s_epik_cmdline>
J2VwaWtfcHl0aG9uJywgJy1waCcsICc3LjAnLCAnLXRuJywgJzgnLCAnLW1hJywgJzIwMCcsICctbWV0YWxfYmluZGluZycsICctaW1hZScsICc8aW5maWxlLm1hZT4nLCAnLW9tYWUnLCAnPG91dGZpbGUubWFlPic=

> <r_lp_tautomer_probability>
1

> <r_epik_Ionization_Penalty>
6.06012e-05

> <r_epik_Ionization_Penalty_Charging>
0

> <r_epik_Ionization_Penalty_Neutral>
6.06012e-05

> <r_epik_State_Penalty>
-0

> <r_epik_Charging_Adjusted_Penalty>
0

> <i_epik_Tot_Q>
0

> <i_epik_Tot_abs_Q>
0

> <r_epik_Metal_State_Penalty>
-0

> <b_epik_Metal_Only>
0

> <s_lp_Force_Field>
OPLS_2005

> <r_lp_Energy>
14.9607

> <b_lp_Chiralities_Consistent>
1

> <s_lp_Variant>
AV-unprocessed.smi:2478-2

> <Gold.Version>
5.8.1

> <Gold.Id.Protein>
6NUR|6NUR_protein|mol2

> <Gold.PLP.Fitness>
42.6180

> <Gold.PLP.PLP>
-36.3733

> <Gold.PLP.part.hbond>
-4.0000

> <Gold.PLP.part.metal>
0.0000

> <Gold.PLP.part.buried>
-3.4022

> <Gold.PLP.part.nonpolar>
-29.7665

> <Gold.PLP.part.repulsive>
0.1671

> <Gold.PLP.ligand.clash>
0.0000

> <Gold.PLP.ligand.torsion>
1.7210

> <Gold.PLP.Chemscore.Hbond>
3.2096

> <Gold.PLP.Chemscore.CHOScore>
0.0000

> <Gold.PLP.Chemscore.Metal>
0.0000

> <Gold.Chemscore.Hbonds>
donor molecule, donor type, donor heavy atom, donor atom, acceptor molecule, acceptor atom, score
      P1  H  6896  6907       L1    11  0.96
      P1  H  6896  6909       L1    19  0.57
      P1  H  6931  6943       L1    14  0.90
      P1  H  6934  6947       L1    14  0.86

> <Gold.PLP.Chemscore.Internal.Correction>
0.0579

> <Gold.Rescore>
     Score         DG    S(hbond)    S(metal)    S(lipo)     H(rot)  DE(clash)    DE(int)     intcor
     15.60     -18.58       2.55        0.00      79.54       1.85       0.02       2.96       ----

> <Gold.Chemscore.Fitness>
15.6010

> <Gold.Chemscore.DG>
-18.5842

> <Gold.Chemscore.ZeroCoef>
-5.4800

> <Gold.Chemscore.Hbond>
2.5535

> <Gold.Chemscore.Metal>
0.0000

> <Gold.Chemscore.Lipo>
79.5425

> <Gold.Chemscore.Internal_Hbond>
0.0000

> <Gold.Chemscore.DEClash>
0.0197

> <Gold.Chemscore.DEInternal>
2.9634

> <Gold.Chemscore.Rot>
1.8481

> <Gold.Chemscore.Internal.Correction>
   9.000000E+99

> <Gold.Chemscore.Hbonds>
donor molecule, donor type, donor heavy atom, donor atom, acceptor molecule, acceptor atom, score
      P1  H  6896  6907       L1    11  0.72
      P1  H  6896  6909       L1    19  0.52
      P1  H  6931  6943       L1    14  0.15
      P1  H  6934  6947       L1    14  0.59

> <Gold.Chemscore.Hbond.Weighted>
-8.5288

> <Gold.Chemscore.Metal.Weighted>
-0.0000

> <Gold.Chemscore.Lipo.Weighted>
-9.3065

> <Gold.Chemscore.Internal_Hbond.Weighted>
0.0000

> <Gold.Chemscore.DEClash.Weighted>
0.0197

> <Gold.Chemscore.DEInternal.Weighted>
2.9634

> <Gold.Chemscore.Rot.Weighted>
4.7311

> <Gold.Chemscore.Internal.Correction.Weighted>
   9.000000E+99

> <Gold.Protein.RotatedTorsions>
[ 6907 6896 6895 6894 ] final    6.62 input  -60.11 | X-H torsion
[ 7974 7965 7964 7962 ] final  -83.91 input  175.53 | X-H torsion
[ 8008 7997 7996 7995 ] final  103.19 input   59.86 | X-H torsion
[ 10167 10162 10161 10158 ] final    3.87 input  -65.29 | X-H torsion
[ 10718 10713 10712 10709 ] final  -53.54 input   66.30 | X-H torsion
[ 10763 10752 10751 10750 ] final  -99.44 input  -60.55 | X-H torsion
[ 11005 11000 10999 10996 ] final  -41.45 input  -57.11 | X-H torsion

> <Gold.Protein.ActiveResidues>
 VAL166  LYS551  ARG553  GLY616  TRP617  ASP618  TYR619  PRO620  LYS621  CYS622 
 ASP623  PHE694  ASN695  SER759  ASP760  ASP761  ALA762  ILE779  LEU786  VAL792 
 PHE793  MET794  SER795  GLU796  ALA797  LYS798  CYS799  TRP800  GLU811  SER814 

> <Gold.Protein.RotatedAtoms>
  151.6766  135.0968  160.0207 H   0  0  0  0  0  0  0  0  0  0  0  0  # atno 6907 bound_to 6896
  152.3860  133.6607  159.6207 H   0  0  0  0  0  0  0  0  0  0  0  0  # atno 6908 bound_to 6896
  150.7786  133.8951  159.3366 H   0  0  0  0  0  0  0  0  0  0  0  0  # atno 6909 bound_to 6896
  145.5136  140.9538  143.1694 H   0  0  0  0  0  0  0  0  0  0  0  0  # atno 7974 bound_to 7965
  156.1462  140.3169  155.8573 H   0  0  0  0  0  0  0  0  0  0  0  0  # atno 8008 bound_to 7997
  155.4060  140.0503  157.3051 H   0  0  0  0  0  0  0  0  0  0  0  0  # atno 8009 bound_to 7997
  154.5018  140.2132  155.9343 H   0  0  0  0  0  0  0  0  0  0  0  0  # atno 8010 bound_to 7997
  140.6564  143.7417  150.7661 H   0  0  0  0  0  0  0  0  0  0  0  0  # atno 10167 bound_to 10162
  156.1526  130.4151  149.9920 H   0  0  0  0  0  0  0  0  0  0  0  0  # atno 10718 bound_to 10713
  154.7498  135.4972  153.9268 H   0  0  0  0  0  0  0  0  0  0  0  0  # atno 10763 bound_to 10752
  153.1131  135.6714  153.9474 H   0  0  0  0  0  0  0  0  0  0  0  0  # atno 10764 bound_to 10752
  153.9228  135.3086  155.3426 H   0  0  0  0  0  0  0  0  0  0  0  0  # atno 10765 bound_to 10752
  141.0247  133.6847  156.2460 H   0  0  0  0  0  0  0  0  0  0  0  0  # atno 11005 bound_to 11000
  144.7714  139.6727  143.7193 LP  0  0  0  0  0  0  0  0  0  0  0  0  # atno 17320 bound_to 7965
  146.2151  139.5534  142.9655 LP  0  0  0  0  0  0  0  0  0  0  0  0  # atno 17321 bound_to 7965
  140.1077  143.4728  152.2388 LP  0  0  0  0  0  0  0  0  0  0  0  0  # atno 17342 bound_to 10162
  139.5787  144.7500  151.3696 LP  0  0  0  0  0  0  0  0  0  0  0  0  # atno 17343 bound_to 10162
  156.7773  130.9208  151.3645 LP  0  0  0  0  0  0  0  0  0  0  0  0  # atno 17370 bound_to 10713
  157.6669  130.9016  149.9953 LP  0  0  0  0  0  0  0  0  0  0  0  0  # atno 17371 bound_to 10713
  140.6512  134.5065  157.5577 LP  0  0  0  0  0  0  0  0  0  0  0  0  # atno 17394 bound_to 11000
  139.9168  134.8229  156.1340 LP  0  0  0  0  0  0  0  0  0  0  0  0  # atno 17395 bound_to 11000

$$$$
