AV-unprocessed.smi:215|AV-procd|sdf|1652|dock5
  -GOLD-   2262020 33D 1   1.00000     0.00000
 Structure written by MMmdl.
 59 62  0  0  0  0  0  0  0  0  2 V2000
  146.8926  136.0649  154.4116 C   0  0  0  0  0  0  0  0  0  0  0  0
  146.3516  137.4403  153.9620 C   0  0  2  0  0  0  0  0  0  0  0  0
  145.9889  137.5174  152.4567 C   0  0  1  0  0  0  0  0  0  0  0  0
  144.5833  137.1444  152.1070 N   0  3  2  0  0  0  0  0  0  0  0  0
  143.5451  137.6861  153.0171 C   0  0  0  0  0  0  0  0  0  0  0  0
  144.4089  135.6809  151.8978 C   0  0  0  0  0  0  0  0  0  0  0  0
  145.3513  135.1409  150.8096 C   0  0  0  0  0  0  0  0  0  0  0  0
  145.2415  135.9264  149.6413 O   0  0  0  0  0  0  0  0  0  0  0  0
  146.2674  138.9944  152.1365 C   0  0  0  0  0  0  0  0  0  0  0  0
  147.4483  139.3652  153.0252 C   0  0  0  0  0  0  0  0  0  0  0  0
  147.3766  138.4657  154.1648 N   0  0  0  0  0  0  0  0  0  0  0  0
  147.6737  138.9604  155.3963 C   0  0  0  0  0  0  0  0  0  0  0  0
  147.0146  138.4848  156.4860 N   0  0  0  0  0  0  0  0  0  0  0  0
  147.2893  138.9570  157.7050 C   0  0  0  0  0  0  0  0  0  0  0  0
  148.1733  139.8912  158.0568 N   0  0  0  0  0  0  0  0  0  0  0  0
  148.8440  140.3723  156.9712 C   0  0  0  0  0  0  0  0  0  0  0  0
  148.6603  139.9651  155.6189 C   0  0  0  0  0  0  0  0  0  0  0  0
  149.5370  140.6632  154.7964 N   0  0  0  0  0  0  0  0  0  0  0  0
  150.1980  141.4369  155.6137 C   0  0  0  0  0  0  0  0  0  0  0  0
  149.8351  141.3387  156.9386 N   0  0  0  0  0  0  0  0  0  0  0  0
  150.4062  142.0433  158.0519 C   0  0  0  0  0  0  0  0  0  0  0  0
  151.5860  143.0072  157.8935 C   0  0  0  0  0  0  0  0  0  0  0  0
  152.0821  142.6084  159.3035 C   0  0  0  0  0  0  0  0  0  0  0  0
  153.6080  142.4470  159.4228 C   0  0  0  0  0  0  0  0  0  0  0  0
  153.9724  141.7277  160.5828 O   0  0  0  0  0  0  0  0  0  0  0  0
  151.5805  143.5392  160.4284 C   0  0  0  0  0  0  0  0  0  0  0  0
  151.5935  142.9078  161.6920 O   0  0  0  0  0  0  0  0  0  0  0  0
  151.2738  141.3097  159.0727 C   0  0  0  0  0  0  0  0  0  0  0  0
  145.4733  137.7096  154.5505 H   0  0  0  0  0  0  0  0  0  0  0  0
  146.6831  136.8923  151.8914 H   0  0  0  0  0  0  0  0  0  0  0  0
  146.1679  135.2633  154.2921 H   0  0  0  0  0  0  0  0  0  0  0  0
  147.1746  136.0729  155.4642 H   0  0  0  0  0  0  0  0  0  0  0  0
  147.7803  135.7888  153.8415 H   0  0  0  0  0  0  0  0  0  0  0  0
  143.7142  137.3565  154.0429 H   0  0  0  0  0  0  0  0  0  0  0  0
  142.5501  137.3538  152.7232 H   0  0  0  0  0  0  0  0  0  0  0  0
  143.5237  138.7751  152.9917 H   0  0  0  0  0  0  0  0  0  0  0  0
  144.5877  135.1189  152.8139 H   0  0  0  0  0  0  0  0  0  0  0  0
  143.3709  135.4749  151.6320 H   0  0  0  0  0  0  0  0  0  0  0  0
  146.3845  135.1855  151.1549 H   0  0  0  0  0  0  0  0  0  0  0  0
  145.1425  134.0986  150.5696 H   0  0  0  0  0  0  0  0  0  0  0  0
  145.7604  135.5291  148.9582 H   0  0  0  0  0  0  0  0  0  0  0  0
  146.4808  139.1827  151.0843 H   0  0  0  0  0  0  0  0  0  0  0  0
  145.4064  139.6041  152.4152 H   0  0  0  0  0  0  0  0  0  0  0  0
  148.3912  139.1939  152.5048 H   0  0  0  0  0  0  0  0  0  0  0  0
  147.4042  140.4163  153.3137 H   0  0  0  0  0  0  0  0  0  0  0  0
  146.7181  138.5260  158.5140 H   0  0  0  0  0  0  0  0  0  0  0  0
  150.9765  142.0992  155.2652 H   0  0  0  0  0  0  0  0  0  0  0  0
  149.5811  142.5523  158.5531 H   0  0  0  0  0  0  0  0  0  0  0  0
  152.2768  142.7158  157.1011 H   0  0  0  0  0  0  0  0  0  0  0  0
  151.2994  144.0542  157.7883 H   0  0  0  0  0  0  0  0  0  0  0  0
  154.0092  141.9044  158.5666 H   0  0  0  0  0  0  0  0  0  0  0  0
  154.1104  143.4147  159.4345 H   0  0  0  0  0  0  0  0  0  0  0  0
  154.3573  140.9060  160.3197 H   0  0  0  0  0  0  0  0  0  0  0  0
  152.1823  144.4465  160.4853 H   0  0  0  0  0  0  0  0  0  0  0  0
  150.5586  143.8692  160.2406 H   0  0  0  0  0  0  0  0  0  0  0  0
  151.5777  143.5742  162.3617 H   0  0  0  0  0  0  0  0  0  0  0  0
  150.7302  140.9402  159.9426 H   0  0  0  0  0  0  0  0  0  0  0  0
  151.8693  140.5146  158.6198 H   0  0  0  0  0  0  0  0  0  0  0  0
  144.4127  137.5719  151.2073 H   0  0  0  0  0  0  0  0  0  0  0  0
  1  2  1  0  0  0  0
  1 31  1  0  0  0  0
  1 32  1  0  0  0  0
  1 33  1  0  0  0  0
  2 29  1  0  0  0  0
  2 11  1  0  0  0  0
  2  3  1  0  0  0  0
  3 30  1  0  0  0  0
  3  4  1  0  0  0  0
  3  9  1  0  0  0  0
  4  5  1  0  0  0  0
  4  6  1  0  0  0  0
  4 59  1  0  0  0  0
  5 34  1  0  0  0  0
  5 35  1  0  0  0  0
  5 36  1  0  0  0  0
  6  7  1  0  0  0  0
  6 37  1  0  0  0  0
  6 38  1  0  0  0  0
  7  8  1  0  0  0  0
  7 39  1  0  0  0  0
  7 40  1  0  0  0  0
  8 41  1  0  0  0  0
  9 10  1  0  0  0  0
  9 42  1  0  0  0  0
  9 43  1  0  0  0  0
 10 11  1  0  0  0  0
 10 44  1  0  0  0  0
 10 45  1  0  0  0  0
 11 12  1  0  0  0  0
 12 17  1  0  0  0  0
 12 13  2  0  0  0  0
 13 14  1  0  0  0  0
 14 15  2  0  0  0  0
 14 46  1  0  0  0  0
 15 16  1  0  0  0  0
 16 20  1  0  0  0  0
 16 17  2  0  0  0  0
 17 18  1  0  0  0  0
 18 19  2  0  0  0  0
 19 20  1  0  0  0  0
 19 47  1  0  0  0  0
 20 21  1  0  0  0  0
 21 28  1  0  0  0  0
 21 22  1  0  0  0  0
 21 48  1  0  0  0  0
 22 23  1  0  0  0  0
 22 49  1  0  0  0  0
 22 50  1  0  0  0  0
 23 24  1  0  0  0  0
 23 26  1  0  0  0  0
 23 28  1  0  0  0  0
 24 25  1  0  0  0  0
 24 51  1  0  0  0  0
 24 52  1  0  0  0  0
 25 53  1  0  0  0  0
 26 27  1  0  0  0  0
 26 54  1  0  0  0  0
 26 55  1  0  0  0  0
 27 56  1  0  0  0  0
 28 57  1  0  0  0  0
 28 58  1  0  0  0  0
M  CHG  1   4   1
M  END
> <s_m_source_file>
AV-unprocessed.smi

> <i_m_source_file_index>
215

> <i_lp_mmshare_version>
43012

> <i_f3d_flags>
0

> <s_epik_input>
W09IXVtDSDJdW0NIMl1OKFtDSDNdKVtDQEBIXShbQ0BIXTFbQ0gzXSlbQ0gyXVtDSDJdTjFjKG5bY0hdbjIpYyhjMjMpbltjSF1uM1tDSF0oW0NIMl00KVtDSDJdQzQoW0NIMl1bT0hdKVtDSDJdW09IXQ==

> <s_epik_cmdline>
J2VwaWtfcHl0aG9uJywgJy1waCcsICc3LjAnLCAnLXRuJywgJzgnLCAnLW1hJywgJzIwMCcsICctbWV0YWxfYmluZGluZycsICctaW1hZScsICc8aW5maWxlLm1hZT4nLCAnLW9tYWUnLCAnPG91dGZpbGUubWFlPic=

> <r_lp_tautomer_probability>
1

> <r_epik_Ionization_Penalty>
0.0036237

> <r_epik_Ionization_Penalty_Charging>
0.0032725

> <r_epik_Ionization_Penalty_Neutral>
0.000351196

> <r_epik_State_Penalty>
-0

> <r_epik_Charging_Adjusted_Penalty>
0.0032725

> <i_epik_Tot_Q>
1

> <i_epik_Tot_abs_Q>
1

> <r_epik_Metal_State_Penalty>
-0

> <b_epik_Metal_Only>
0

> <s_lp_Force_Field>
OPLS_2005

> <r_lp_Energy>
64.69

> <b_lp_Chiralities_Consistent>
1

> <s_lp_Variant>
AV-unprocessed.smi:215-3

> <Gold.Version>
5.8.1

> <Gold.Id.Protein>
6NUR|6NUR_protein|mol2

> <Gold.PLP.Fitness>
46.3347

> <Gold.PLP.PLP>
-39.4879

> <Gold.PLP.part.hbond>
-5.8946

> <Gold.PLP.part.metal>
0.0000

> <Gold.PLP.part.buried>
-0.2500

> <Gold.PLP.part.nonpolar>
-34.0637

> <Gold.PLP.part.repulsive>
0.1346

> <Gold.PLP.ligand.clash>
0.0000

> <Gold.PLP.ligand.torsion>
1.0153

> <Gold.PLP.Chemscore.Hbond>
2.6597

> <Gold.PLP.Chemscore.CHOScore>
0.0000

> <Gold.PLP.Chemscore.Metal>
0.0000

> <Gold.Chemscore.Hbonds>
donor molecule, donor type, donor heavy atom, donor atom, acceptor molecule, acceptor atom, score
      L1  H     4    59       P1 10171  1.00
      L1  H     8    41       P1  7921  1.00
      P1  H  6933  6945       L1    27  0.64

> <Gold.PLP.Chemscore.Internal.Correction>
0.8984

> <Gold.Rescore>
     Score         DG    S(hbond)    S(metal)    S(lipo)     H(rot)  DE(clash)    DE(int)     intcor
     10.12     -12.68       2.21        0.00      96.48       4.48       0.89       1.67       ----

> <Gold.Chemscore.Fitness>
10.1194

> <Gold.Chemscore.DG>
-12.6787

> <Gold.Chemscore.ZeroCoef>
-5.4800

> <Gold.Chemscore.Hbond>
2.2083

> <Gold.Chemscore.Metal>
0.0000

> <Gold.Chemscore.Lipo>
96.4818

> <Gold.Chemscore.Internal_Hbond>
0.0000

> <Gold.Chemscore.DEClash>
0.8897

> <Gold.Chemscore.DEInternal>
1.6696

> <Gold.Chemscore.Rot>
4.4787

> <Gold.Chemscore.Internal.Correction>
   9.000000E+99

> <Gold.Chemscore.Hbonds>
donor molecule, donor type, donor heavy atom, donor atom, acceptor molecule, acceptor atom, score
      L1  H     4    59       P1 10171  1.00
      L1  H     8    41       P1  7921  0.93
      P1  H  6933  6945       L1    27  0.18

> <Gold.Chemscore.Hbond.Weighted>
-7.3758

> <Gold.Chemscore.Metal.Weighted>
-0.0000

> <Gold.Chemscore.Lipo.Weighted>
-11.2884

> <Gold.Chemscore.Internal_Hbond.Weighted>
0.0000

> <Gold.Chemscore.DEClash.Weighted>
0.8897

> <Gold.Chemscore.DEInternal.Weighted>
1.6696

> <Gold.Chemscore.Rot.Weighted>
11.4655

> <Gold.Chemscore.Internal.Correction.Weighted>
   9.000000E+99

> <Gold.Protein.RotatedTorsions>
[ 6907 6896 6895 6894 ] final  143.87 input  -60.11 | X-H torsion
[ 7974 7965 7964 7962 ] final  157.37 input  175.53 | X-H torsion
[ 8008 7997 7996 7995 ] final  -82.67 input   59.86 | X-H torsion
[ 10167 10162 10161 10158 ] final  146.12 input  -65.29 | X-H torsion
[ 10718 10713 10712 10709 ] final -171.07 input   66.30 | X-H torsion
[ 10763 10752 10751 10750 ] final   65.39 input  -60.55 | X-H torsion
[ 11005 11000 10999 10996 ] final  158.91 input  -57.11 | X-H torsion

> <Gold.Protein.ActiveResidues>
 VAL166  LYS551  ARG553  GLY616  TRP617  ASP618  TYR619  PRO620  LYS621  CYS622 
 ASP623  PHE694  ASN695  SER759  ASP760  ASP761  ALA762  ILE779  LEU786  VAL792 
 PHE793  MET794  SER795  GLU796  ALA797  LYS798  CYS799  TRP800  GLU811  SER814 

> <Gold.Protein.RotatedAtoms>
  152.2008  133.4840  159.5057 H   0  0  0  0  0  0  0  0  0  0  0  0  # atno 6907 bound_to 6896
  150.6969  134.1592  159.4179 H   0  0  0  0  0  0  0  0  0  0  0  0  # atno 6908 bound_to 6896
  151.9509  135.0169  160.0592 H   0  0  0  0  0  0  0  0  0  0  0  0  # atno 6909 bound_to 6896
  144.7907  139.7332  143.6222 H   0  0  0  0  0  0  0  0  0  0  0  0  # atno 7974 bound_to 7965
  154.6110  140.0630  156.9493 H   0  0  0  0  0  0  0  0  0  0  0  0  # atno 8008 bound_to 7997
  155.1973  140.3312  155.4330 H   0  0  0  0  0  0  0  0  0  0  0  0  # atno 8009 bound_to 7997
  156.2376  140.1870  156.7059 H   0  0  0  0  0  0  0  0  0  0  0  0  # atno 8010 bound_to 7997
  139.4913  144.5853  151.6791 H   0  0  0  0  0  0  0  0  0  0  0  0  # atno 10167 bound_to 10162
  156.7354  130.9322  151.3107 H   0  0  0  0  0  0  0  0  0  0  0  0  # atno 10718 bound_to 10713
  153.0094  135.5358  154.6659 H   0  0  0  0  0  0  0  0  0  0  0  0  # atno 10763 bound_to 10752
  154.5856  135.2854  155.0690 H   0  0  0  0  0  0  0  0  0  0  0  0  # atno 10764 bound_to 10752
  154.1803  135.6517  153.5085 H   0  0  0  0  0  0  0  0  0  0  0  0  # atno 10765 bound_to 10752
  140.1910  134.8407  157.2912 H   0  0  0  0  0  0  0  0  0  0  0  0  # atno 11005 bound_to 11000
  146.2158  139.5546  142.9651 LP  0  0  0  0  0  0  0  0  0  0  0  0  # atno 17320 bound_to 7965
  145.5802  141.0383  143.2126 LP  0  0  0  0  0  0  0  0  0  0  0  0  # atno 17321 bound_to 7965
  140.5467  144.0491  150.6110 LP  0  0  0  0  0  0  0  0  0  0  0  0  # atno 17342 bound_to 10162
  140.3532  143.2951  152.0465 LP  0  0  0  0  0  0  0  0  0  0  0  0  # atno 17343 bound_to 10162
  157.6841  130.9168  150.0341 LP  0  0  0  0  0  0  0  0  0  0  0  0  # atno 17370 bound_to 10713
  156.1500  130.3642  149.9452 LP  0  0  0  0  0  0  0  0  0  0  0  0  # atno 17371 bound_to 10713
  140.2159  134.4082  155.7589 LP  0  0  0  0  0  0  0  0  0  0  0  0  # atno 17394 bound_to 11000
  141.2226  133.7141  156.8413 LP  0  0  0  0  0  0  0  0  0  0  0  0  # atno 17395 bound_to 11000

$$$$
