AV-unprocessed.smi:138|AV-procd|sdf|1179|dock9
  -GOLD-   2262018333D 1   1.00000     0.00000
 Structure written by MMmdl.
 52 55  0  0  0  0  0  0  0  0  1 V2000
  158.0873  133.9845  161.0680 C   0  0  0  0  0  0  0  0  0  0  0  0
  156.9589  134.9495  161.2474 C   0  0  0  0  0  0  0  0  0  0  0  0
  156.2652  135.6533  160.3080 C   0  0  0  0  0  0  0  0  0  0  0  0
  155.2768  136.4364  160.9663 C   0  0  0  0  0  0  0  0  0  0  0  0
  154.2674  137.3450  160.3658 C   0  0  0  0  0  0  0  0  0  0  0  0
  153.0541  137.1383  160.4258 O   0  0  0  0  0  0  0  0  0  0  0  0
  154.8267  138.5846  159.6425 C   0  0  0  0  0  0  0  0  0  0  0  0
  154.4718  139.8364  160.3000 N   0  0  0  0  0  0  0  0  0  0  0  0
  155.0100  140.0844  161.5876 C   0  0  0  0  0  0  0  0  0  0  0  0
  155.7523  139.2799  162.1536 O   0  0  0  0  0  0  0  0  0  0  0  0
  154.6234  141.3652  162.1695 C   0  0  0  0  0  0  0  0  0  0  0  0
  155.0679  141.7004  163.3925 F   0  0  0  0  0  0  0  0  0  0  0  0
  153.8255  142.2244  161.4994 C   0  0  0  0  0  0  0  0  0  0  0  0
  153.3254  141.9611  160.2346 N   0  0  0  0  0  0  0  0  0  0  0  0
  152.4487  142.9485  159.4964 C   0  0  2  0  0  0  0  0  0  0  0  0
  153.2229  144.2474  159.2106 C   0  0  0  0  0  0  0  0  0  0  0  0
  152.2608  145.3168  159.6860 C   0  0  0  0  0  0  0  0  0  0  0  0
  151.5259  144.5996  160.8084 C   0  0  0  0  0  0  0  0  0  0  0  0
  151.3450  143.2889  160.2868 O   0  0  0  0  0  0  0  0  0  0  0  0
  153.6442  140.7433  159.5955 C   0  0  0  0  0  0  0  0  0  0  0  0
  153.2234  140.4971  158.4624 O   0  0  0  0  0  0  0  0  0  0  0  0
  155.4015  136.2035  162.3168 C   0  0  0  0  0  0  0  0  0  0  0  0
  154.6338  136.7723  163.4785 C   0  0  0  0  0  0  0  0  0  0  0  0
  156.4281  135.2724  162.4913 N   0  0  0  0  0  0  0  0  0  0  0  0
  156.8845  134.7236  163.7649 C   0  0  0  0  0  0  0  0  0  0  0  0
  156.1488  133.4824  164.1546 C   0  0  0  0  0  0  0  0  0  0  0  0
  154.8340  133.2104  164.4153 C   0  0  0  0  0  0  0  0  0  0  0  0
  154.7649  131.8258  164.7320 C   0  0  0  0  0  0  0  0  0  0  0  0
  156.0435  131.3549  164.6399 C   0  0  0  0  0  0  0  0  0  0  0  0
  156.8993  132.3519  164.2872 O   0  0  0  0  0  0  0  0  0  0  0  0
  158.4073  133.9519  160.0264 H   0  0  0  0  0  0  0  0  0  0  0  0
  157.7874  132.9763  161.3539 H   0  0  0  0  0  0  0  0  0  0  0  0
  158.9500  134.2697  161.6698 H   0  0  0  0  0  0  0  0  0  0  0  0
  156.4489  135.6016  159.2450 H   0  0  0  0  0  0  0  0  0  0  0  0
  155.9143  138.5364  159.5697 H   0  0  0  0  0  0  0  0  0  0  0  0
  154.4695  138.6318  158.6128 H   0  0  0  0  0  0  0  0  0  0  0  0
  153.5797  143.1536  161.9893 H   0  0  0  0  0  0  0  0  0  0  0  0
  152.0990  142.4300  158.6019 H   0  0  0  0  0  0  0  0  0  0  0  0
  154.1419  144.2756  159.7987 H   0  0  0  0  0  0  0  0  0  0  0  0
  153.4751  144.3295  158.1530 H   0  0  0  0  0  0  0  0  0  0  0  0
  152.7616  146.2272  160.0165 H   0  0  0  0  0  0  0  0  0  0  0  0
  151.5638  145.5771  158.8884 H   0  0  0  0  0  0  0  0  0  0  0  0
  152.1375  144.5643  161.7108 H   0  0  0  0  0  0  0  0  0  0  0  0
  150.5728  145.0674  161.0557 H   0  0  0  0  0  0  0  0  0  0  0  0
  154.5726  137.8580  163.4044 H   0  0  0  0  0  0  0  0  0  0  0  0
  155.0879  136.5550  164.4426 H   0  0  0  0  0  0  0  0  0  0  0  0
  153.6172  136.3794  163.4940 H   0  0  0  0  0  0  0  0  0  0  0  0
  157.9552  134.5291  163.7049 H   0  0  0  0  0  0  0  0  0  0  0  0
  156.7760  135.4744  164.5469 H   0  0  0  0  0  0  0  0  0  0  0  0
  154.0219  133.9214  164.3833 H   0  0  0  0  0  0  0  0  0  0  0  0
  153.8911  131.2477  164.9941 H   0  0  0  0  0  0  0  0  0  0  0  0
  156.4984  130.3861  164.7844 H   0  0  0  0  0  0  0  0  0  0  0  0
  1  2  1  0  0  0  0
  1 31  1  0  0  0  0
  1 32  1  0  0  0  0
  1 33  1  0  0  0  0
  2 24  1  0  0  0  0
  2  3  2  0  0  0  0
  3  4  1  0  0  0  0
  3 34  1  0  0  0  0
  4  5  1  0  0  0  0
  4 22  2  0  0  0  0
  5  6  2  0  0  0  0
  5  7  1  0  0  0  0
  7  8  1  0  0  0  0
  7 35  1  0  0  0  0
  7 36  1  0  0  0  0
  8 20  1  0  0  0  0
  8  9  1  0  0  0  0
  9 10  2  0  0  0  0
  9 11  1  0  0  0  0
 11 12  1  0  0  0  0
 11 13  2  0  0  0  0
 13 14  1  0  0  0  0
 13 37  1  0  0  0  0
 14 15  1  0  0  0  0
 14 20  1  0  0  0  0
 15 19  1  0  0  0  0
 15 16  1  0  0  0  0
 15 38  1  0  0  0  0
 16 17  1  0  0  0  0
 16 39  1  0  0  0  0
 16 40  1  0  0  0  0
 17 18  1  0  0  0  0
 17 41  1  0  0  0  0
 17 42  1  0  0  0  0
 18 19  1  0  0  0  0
 18 43  1  0  0  0  0
 18 44  1  0  0  0  0
 20 21  2  0  0  0  0
 22 23  1  0  0  0  0
 22 24  1  0  0  0  0
 23 45  1  0  0  0  0
 23 46  1  0  0  0  0
 23 47  1  0  0  0  0
 24 25  1  0  0  0  0
 25 26  1  0  0  0  0
 25 48  1  0  0  0  0
 25 49  1  0  0  0  0
 26 30  1  0  0  0  0
 26 27  2  0  0  0  0
 27 28  1  0  0  0  0
 27 50  1  0  0  0  0
 28 29  2  0  0  0  0
 28 51  1  0  0  0  0
 29 30  1  0  0  0  0
 29 52  1  0  0  0  0
M  END
> <s_m_source_file>
AV-unprocessed.smi

> <i_m_source_file_index>
138

> <i_lp_mmshare_version>
43012

> <i_f3d_flags>
0

> <s_epik_input>
bzFbY0hdW2NIXVtjSF1jMVtDSDJdbjJjKFtDSDNdKWMoW2NIXWMyW0NIM10pQyg9TylbQ0gyXW4zYyg9TyljKEYpW2NIXW4oYzM9TylbQ0BASF00W0NIMl1bQ0gyXVtDSDJdTzQ=

> <s_epik_cmdline>
J2VwaWtfcHl0aG9uJywgJy1waCcsICc3LjAnLCAnLXRuJywgJzgnLCAnLW1hJywgJzIwMCcsICctbWV0YWxfYmluZGluZycsICctaW1hZScsICc8aW5maWxlLm1hZT4nLCAnLW9tYWUnLCAnPG91dGZpbGUubWFlPic=

> <r_lp_tautomer_probability>
1

> <r_epik_Ionization_Penalty>
5.03107e-09

> <r_epik_Ionization_Penalty_Charging>
5.01743e-09

> <r_epik_Ionization_Penalty_Neutral>
1.36377e-11

> <r_epik_State_Penalty>
-0

> <r_epik_Charging_Adjusted_Penalty>
5.01743e-09

> <i_epik_Tot_Q>
0

> <i_epik_Tot_abs_Q>
0

> <r_epik_Metal_State_Penalty>
-0

> <b_epik_Metal_Only>
0

> <s_epik_Chemistry_Notes>
This compound contains an acetal/aminal-like group ( X-CH(R)-Y where X, Y are N, S, or O) that may be acid/base labile, releasing an aldehyde.

> <s_lp_Force_Field>
OPLS_2005

> <r_lp_Energy>
38.6842

> <b_lp_Chiralities_Consistent>
1

> <s_lp_Variant>
AV-unprocessed.smi:138-1

> <Gold.Version>
5.8.1

> <Gold.Id.Protein>
6NUR|6NUR_protein|mol2

> <Gold.PLP.Fitness>
58.3332

> <Gold.PLP.PLP>
-57.0547

> <Gold.PLP.part.hbond>
-1.8836

> <Gold.PLP.part.metal>
0.0000

> <Gold.PLP.part.buried>
-4.7820

> <Gold.PLP.part.nonpolar>
-50.6890

> <Gold.PLP.part.repulsive>
0.0754

> <Gold.PLP.ligand.clash>
0.0000

> <Gold.PLP.ligand.torsion>
1.7081

> <Gold.PLP.Chemscore.Hbond>
1.5480

> <Gold.PLP.Chemscore.CHOScore>
0.0000

> <Gold.PLP.Chemscore.Metal>
0.0000

> <Gold.Chemscore.Hbonds>
donor molecule, donor type, donor heavy atom, donor atom, acceptor molecule, acceptor atom, score
      P1  H  6896  6909       L1     6  0.16
      P1  H  7997  8008       L1    21  0.69

> <Gold.PLP.Chemscore.Internal.Correction>
0.0507

> <Gold.Rescore>
     Score         DG    S(hbond)    S(metal)    S(lipo)     H(rot)  DE(clash)    DE(int)     intcor
     15.41     -18.48       0.98        0.00     126.95       2.00       0.83       2.25       ----

> <Gold.Chemscore.Fitness>
15.4071

> <Gold.Chemscore.DG>
-18.4827

> <Gold.Chemscore.ZeroCoef>
-5.4800

> <Gold.Chemscore.Hbond>
0.9757

> <Gold.Chemscore.Metal>
0.0000

> <Gold.Chemscore.Lipo>
126.9492

> <Gold.Chemscore.Internal_Hbond>
0.0000

> <Gold.Chemscore.DEClash>
0.8285

> <Gold.Chemscore.DEInternal>
2.2471

> <Gold.Chemscore.Rot>
1.9958

> <Gold.Chemscore.Internal.Correction>
   9.000000E+99

> <Gold.Chemscore.Hbonds>
donor molecule, donor type, donor heavy atom, donor atom, acceptor molecule, acceptor atom, score
      P1  H  6896  6909       L1     6  0.18
      P1  H  7997  8008       L1    21  0.52

> <Gold.Chemscore.Hbond.Weighted>
-3.2588

> <Gold.Chemscore.Metal.Weighted>
-0.0000

> <Gold.Chemscore.Lipo.Weighted>
-14.8531

> <Gold.Chemscore.Internal_Hbond.Weighted>
0.0000

> <Gold.Chemscore.DEClash.Weighted>
0.8285

> <Gold.Chemscore.DEInternal.Weighted>
2.2471

> <Gold.Chemscore.Rot.Weighted>
5.1092

> <Gold.Chemscore.Internal.Correction.Weighted>
   9.000000E+99

> <Gold.Protein.RotatedTorsions>
[ 6907 6896 6895 6894 ] final  137.80 input  -60.11 | X-H torsion
[ 7974 7965 7964 7962 ] final  -10.39 input  175.53 | X-H torsion
[ 8008 7997 7996 7995 ] final  -99.85 input   59.86 | X-H torsion
[ 10167 10162 10161 10158 ] final -132.65 input  -65.29 | X-H torsion
[ 10718 10713 10712 10709 ] final  -40.68 input   66.30 | X-H torsion
[ 10763 10752 10751 10750 ] final  -77.30 input  -60.55 | X-H torsion
[ 11005 11000 10999 10996 ] final -137.58 input  -57.11 | X-H torsion

> <Gold.Protein.ActiveResidues>
 VAL166  LYS551  ARG553  GLY616  TRP617  ASP618  TYR619  PRO620  LYS621  CYS622 
 ASP623  PHE694  ASN695  SER759  ASP760  ASP761  ALA762  ILE779  LEU786  VAL792 
 PHE793  MET794  SER795  GLU796  ALA797  LYS798  CYS799  TRP800  GLU811  SER814 

> <Gold.Protein.RotatedAtoms>
  152.2740  133.5408  159.5456 H   0  0  0  0  0  0  0  0  0  0  0  0  # atno 6907 bound_to 6896
  150.7170  134.0658  159.3856 H   0  0  0  0  0  0  0  0  0  0  0  0  # atno 6908 bound_to 6896
  151.8572  135.0537  160.0516 H   0  0  0  0  0  0  0  0  0  0  0  0  # atno 6909 bound_to 6896
  146.2222  140.2757  142.8359 H   0  0  0  0  0  0  0  0  0  0  0  0  # atno 7974 bound_to 7965
  154.8205  140.0445  157.1407 H   0  0  0  0  0  0  0  0  0  0  0  0  # atno 8008 bound_to 7997
  154.9265  140.3034  155.5169 H   0  0  0  0  0  0  0  0  0  0  0  0  # atno 8009 bound_to 7997
  156.2980  140.2331  156.4320 H   0  0  0  0  0  0  0  0  0  0  0  0  # atno 8010 bound_to 7997
  139.9063  143.6547  152.2584 H   0  0  0  0  0  0  0  0  0  0  0  0  # atno 10167 bound_to 10162
  156.2787  130.4214  149.8360 H   0  0  0  0  0  0  0  0  0  0  0  0  # atno 10718 bound_to 10713
  154.5111  135.5769  153.6605 H   0  0  0  0  0  0  0  0  0  0  0  0  # atno 10763 bound_to 10752
  152.9897  135.6159  154.2878 H   0  0  0  0  0  0  0  0  0  0  0  0  # atno 10764 bound_to 10752
  154.2792  135.2851  155.2684 H   0  0  0  0  0  0  0  0  0  0  0  0  # atno 10765 bound_to 10752
  140.8697  134.2066  157.4658 H   0  0  0  0  0  0  0  0  0  0  0  0  # atno 11005 bound_to 11000
  144.9234  140.7894  143.5734 LP  0  0  0  0  0  0  0  0  0  0  0  0  # atno 17320 bound_to 7965
  145.2696  139.1960  143.4849 LP  0  0  0  0  0  0  0  0  0  0  0  0  # atno 17321 bound_to 7965
  139.6981  144.7639  151.1321 LP  0  0  0  0  0  0  0  0  0  0  0  0  # atno 17342 bound_to 10162
  140.7695  143.5496  150.9220 LP  0  0  0  0  0  0  0  0  0  0  0  0  # atno 17343 bound_to 10162
  156.5816  130.8468  151.3384 LP  0  0  0  0  0  0  0  0  0  0  0  0  # atno 17370 bound_to 10713
  157.7307  130.9690  150.1847 LP  0  0  0  0  0  0  0  0  0  0  0  0  # atno 17371 bound_to 10713
  139.8711  134.9768  156.4937 LP  0  0  0  0  0  0  0  0  0  0  0  0  # atno 17394 bound_to 11000
  140.8587  133.8076  155.9243 LP  0  0  0  0  0  0  0  0  0  0  0  0  # atno 17395 bound_to 11000

$$$$
