AV-unprocessed.smi:2984|AV-procd|sdf|11378|dock7
  -GOLD-   2272016293D 1   1.00000     0.00000
 Structure written by MMmdl.
 38 39  0  0  0  0  0  0  0  0  1 V2000
  150.7751  137.0480  159.8465 O   0  0  0  0  0  0  0  0  0  0  0  0
  150.1240  137.5132  158.9096 C   0  0  0  0  0  0  0  0  0  0  0  0
  148.8794  136.7605  158.4188 C   0  0  0  0  0  0  0  0  0  0  0  0
  148.5053  135.6516  159.3102 N   0  0  0  0  0  0  0  0  0  0  0  0
  148.7323  134.3956  158.7735 N   0  0  0  0  0  0  0  0  0  0  0  0
  148.4198  133.3480  159.4555 C   0  0  0  0  0  0  0  0  0  0  0  0
  147.8402  133.4342  160.7772 C   0  0  0  0  0  0  0  0  0  0  0  0
  147.4383  131.9930  161.6428 Cl  0  0  0  0  0  0  0  0  0  0  0  0
  147.6327  134.6693  161.2991 C   0  0  0  0  0  0  0  0  0  0  0  0
  146.9452  134.8522  162.8765 Cl  0  0  0  0  0  0  0  0  0  0  0  0
  147.9782  135.8863  160.5514 C   0  0  0  0  0  0  0  0  0  0  0  0
  147.8076  137.0238  160.9914 O   0  0  0  0  0  0  0  0  0  0  0  0
  150.4177  138.6543  158.2514 N   0  0  0  0  0  0  0  0  0  0  0  0
  151.4261  139.5111  158.4977 C   0  0  0  0  0  0  0  0  0  0  0  0
  152.4291  139.2672  159.1718 O   0  0  0  0  0  0  0  0  0  0  0  0
  151.1995  140.6970  157.9135 N   0  0  0  0  0  0  0  0  0  0  0  0
  151.9327  141.9287  158.1909 C   0  0  0  0  0  0  0  0  0  0  0  0
  152.0923  142.1330  159.7121 C   0  0  0  0  0  0  0  0  0  0  0  0
  152.7913  143.4647  160.0310 C   0  0  0  0  0  0  0  0  0  0  0  0
  152.0527  144.6501  159.3905 C   0  0  0  0  0  0  0  0  0  0  0  0
  151.8982  144.4528  157.8744 C   0  0  0  0  0  0  0  0  0  0  0  0
  151.1971  143.1228  157.5535 C   0  0  0  0  0  0  0  0  0  0  0  0
  148.0592  137.4755  158.3326 H   0  0  0  0  0  0  0  0  0  0  0  0
  149.0495  136.3902  157.4060 H   0  0  0  0  0  0  0  0  0  0  0  0
  148.5754  132.3398  159.0714 H   0  0  0  0  0  0  0  0  0  0  0  0
  149.7959  138.9013  157.4959 H   0  0  0  0  0  0  0  0  0  0  0  0
  150.4570  140.7570  157.2324 H   0  0  0  0  0  0  0  0  0  0  0  0
  152.9239  141.8624  157.7379 H   0  0  0  0  0  0  0  0  0  0  0  0
  151.1126  142.1160  160.1920 H   0  0  0  0  0  0  0  0  0  0  0  0
  152.6619  141.3103  160.1462 H   0  0  0  0  0  0  0  0  0  0  0  0
  152.8512  143.6037  161.1108 H   0  0  0  0  0  0  0  0  0  0  0  0
  153.8189  143.4344  159.6663 H   0  0  0  0  0  0  0  0  0  0  0  0
  151.0683  144.7575  159.8477 H   0  0  0  0  0  0  0  0  0  0  0  0
  152.5905  145.5768  159.5927 H   0  0  0  0  0  0  0  0  0  0  0  0
  151.3345  145.2827  157.4473 H   0  0  0  0  0  0  0  0  0  0  0  0
  152.8809  144.4708  157.4017 H   0  0  0  0  0  0  0  0  0  0  0  0
  151.1380  142.9917  156.4723 H   0  0  0  0  0  0  0  0  0  0  0  0
  150.1691  143.1614  157.9168 H   0  0  0  0  0  0  0  0  0  0  0  0
  1  2  2  0  0  0  0
  2  3  1  0  0  0  0
  2 13  1  0  0  0  0
  3  4  1  0  0  0  0
  3 23  1  0  0  0  0
  3 24  1  0  0  0  0
  4 11  1  0  0  0  0
  4  5  1  0  0  0  0
  5  6  2  0  0  0  0
  6  7  1  0  0  0  0
  6 25  1  0  0  0  0
  7  8  1  0  0  0  0
  7  9  2  0  0  0  0
  9 10  1  0  0  0  0
  9 11  1  0  0  0  0
 11 12  2  0  0  0  0
 13 14  1  0  0  0  0
 13 26  1  0  0  0  0
 14 15  2  0  0  0  0
 14 16  1  0  0  0  0
 16 17  1  0  0  0  0
 16 27  1  0  0  0  0
 17 22  1  0  0  0  0
 17 18  1  0  0  0  0
 17 28  1  0  0  0  0
 18 19  1  0  0  0  0
 18 29  1  0  0  0  0
 18 30  1  0  0  0  0
 19 20  1  0  0  0  0
 19 31  1  0  0  0  0
 19 32  1  0  0  0  0
 20 21  1  0  0  0  0
 20 33  1  0  0  0  0
 20 34  1  0  0  0  0
 21 22  1  0  0  0  0
 21 35  1  0  0  0  0
 21 36  1  0  0  0  0
 22 37  1  0  0  0  0
 22 38  1  0  0  0  0
M  END
> <s_m_source_file>
AV-unprocessed.smi

> <i_m_source_file_index>
2984

> <i_lp_mmshare_version>
43012

> <i_f3d_flags>
0

> <s_epik_input>
Tz1jMWMoQ2wpYyhDbClbY0hdbm4xW0NIMl1DKD1PKVtOSF1DKD1PKVtOSF1bQ0hdMltDSDJdW0NIMl1bQ0gyXVtDSDJdW0NIMl0y

> <s_epik_cmdline>
J2VwaWtfcHl0aG9uJywgJy1waCcsICc3LjAnLCAnLXRuJywgJzgnLCAnLW1hJywgJzIwMCcsICctbWV0YWxfYmluZGluZycsICctaW1hZScsICc8aW5maWxlLm1hZT4nLCAnLW9tYWUnLCAnPG91dGZpbGUubWFlPic=

> <r_lp_tautomer_probability>
1

> <r_epik_Ionization_Penalty>
3.27035e-05

> <r_epik_Ionization_Penalty_Charging>
2.24292e-11

> <r_epik_Ionization_Penalty_Neutral>
3.27035e-05

> <r_epik_State_Penalty>
-0

> <r_epik_Charging_Adjusted_Penalty>
2.24292e-11

> <i_epik_Tot_Q>
0

> <i_epik_Tot_abs_Q>
0

> <r_epik_Metal_State_Penalty>
-0

> <b_epik_Metal_Only>
0

> <s_lp_Force_Field>
OPLS_2005

> <r_lp_Energy>
25.082

> <b_lp_Chiralities_Consistent>
1

> <s_lp_Variant>
AV-unprocessed.smi:2984-1

> <Gold.Version>
5.8.1

> <Gold.Id.Protein>
6NUR|6NUR_protein|mol2

> <Gold.PLP.Fitness>
51.1048

> <Gold.PLP.PLP>
-43.5681

> <Gold.PLP.part.hbond>
-3.3438

> <Gold.PLP.part.metal>
0.0000

> <Gold.PLP.part.buried>
-6.1520

> <Gold.PLP.part.nonpolar>
-35.2535

> <Gold.PLP.part.repulsive>
0.1895

> <Gold.PLP.ligand.clash>
0.0000

> <Gold.PLP.ligand.torsion>
0.4368

> <Gold.PLP.Chemscore.Hbond>
2.7993

> <Gold.PLP.Chemscore.CHOScore>
0.0000

> <Gold.PLP.Chemscore.Metal>
0.0000

> <Gold.Chemscore.Hbonds>
donor molecule, donor type, donor heavy atom, donor atom, acceptor molecule, acceptor atom, score
      P1  H  6896  6908       L1     1  1.00
      P1  H  6931  6943       L1    12  0.99
      P1  H  6934  6947       L1    12  0.73

> <Gold.PLP.Chemscore.Internal.Correction>
0.0126

> <Gold.Rescore>
     Score         DG    S(hbond)    S(metal)    S(lipo)     H(rot)  DE(clash)    DE(int)     intcor
     20.94     -22.62       2.76        0.00     103.22       1.63       0.01       1.67       ----

> <Gold.Chemscore.Fitness>
20.9353

> <Gold.Chemscore.DG>
-22.6153

> <Gold.Chemscore.ZeroCoef>
-5.4800

> <Gold.Chemscore.Hbond>
2.7626

> <Gold.Chemscore.Metal>
0.0000

> <Gold.Chemscore.Lipo>
103.2200

> <Gold.Chemscore.Internal_Hbond>
0.0000

> <Gold.Chemscore.DEClash>
0.0082

> <Gold.Chemscore.DEInternal>
1.6717

> <Gold.Chemscore.Rot>
1.6283

> <Gold.Chemscore.Internal.Correction>
   9.000000E+99

> <Gold.Chemscore.Hbonds>
donor molecule, donor type, donor heavy atom, donor atom, acceptor molecule, acceptor atom, score
      P1  H  6896  6908       L1     1  0.94
      P1  H  6931  6943       L1    12  0.92
      P1  H  6934  6947       L1    12  0.70

> <Gold.Chemscore.Hbond.Weighted>
-9.2269

> <Gold.Chemscore.Metal.Weighted>
-0.0000

> <Gold.Chemscore.Lipo.Weighted>
-12.0767

> <Gold.Chemscore.Internal_Hbond.Weighted>
0.0000

> <Gold.Chemscore.DEClash.Weighted>
0.0082

> <Gold.Chemscore.DEInternal.Weighted>
1.6717

> <Gold.Chemscore.Rot.Weighted>
4.1684

> <Gold.Chemscore.Internal.Correction.Weighted>
   9.000000E+99

> <Gold.Protein.RotatedTorsions>
[ 6907 6896 6895 6894 ] final -145.48 input  -60.11 | X-H torsion
[ 7974 7965 7964 7962 ] final  128.77 input  175.53 | X-H torsion
[ 8008 7997 7996 7995 ] final  131.54 input   59.86 | X-H torsion
[ 10167 10162 10161 10158 ] final  129.87 input  -65.29 | X-H torsion
[ 10718 10713 10712 10709 ] final  107.83 input   66.30 | X-H torsion
[ 10763 10752 10751 10750 ] final   31.56 input  -60.55 | X-H torsion
[ 11005 11000 10999 10996 ] final  -38.84 input  -57.11 | X-H torsion

> <Gold.Protein.ActiveResidues>
 VAL166  LYS551  ARG553  GLY616  TRP617  ASP618  TYR619  PRO620  LYS621  CYS622 
 ASP623  PHE694  ASN695  SER759  ASP760  ASP761  ALA762  ILE779  LEU786  VAL792 
 PHE793  MET794  SER795  GLU796  ALA797  LYS798  CYS799  TRP800  GLU811  SER814 

> <Gold.Protein.RotatedAtoms>
  151.1283  133.5055  159.2599 H   0  0  0  0  0  0  0  0  0  0  0  0  # atno 6907 bound_to 6896
  151.1785  135.0350  159.8792 H   0  0  0  0  0  0  0  0  0  0  0  0  # atno 6908 bound_to 6896
  152.5459  134.1138  159.8423 H   0  0  0  0  0  0  0  0  0  0  0  0  # atno 6909 bound_to 6896
  145.0359  139.4005  143.5126 H   0  0  0  0  0  0  0  0  0  0  0  0  # atno 7974 bound_to 7965
  156.2971  140.2568  156.2943 H   0  0  0  0  0  0  0  0  0  0  0  0  # atno 8008 bound_to 7997
  154.9479  140.0395  157.2148 H   0  0  0  0  0  0  0  0  0  0  0  0  # atno 8009 bound_to 7997
  154.8063  140.2837  155.5889 H   0  0  0  0  0  0  0  0  0  0  0  0  # atno 8010 bound_to 7997
  139.5457  144.6771  151.4482 H   0  0  0  0  0  0  0  0  0  0  0  0  # atno 10167 bound_to 10162
  157.6612  131.0881  150.6214 H   0  0  0  0  0  0  0  0  0  0  0  0  # atno 10718 bound_to 10713
  153.0309  135.6436  154.1218 H   0  0  0  0  0  0  0  0  0  0  0  0  # atno 10763 bound_to 10752
  154.0940  135.2864  155.3267 H   0  0  0  0  0  0  0  0  0  0  0  0  # atno 10764 bound_to 10752
  154.6445  135.5448  153.7891 H   0  0  0  0  0  0  0  0  0  0  0  0  # atno 10765 bound_to 10752
  141.0057  133.6933  156.2107 H   0  0  0  0  0  0  0  0  0  0  0  0  # atno 11005 bound_to 11000
  146.3504  139.9934  142.8683 LP  0  0  0  0  0  0  0  0  0  0  0  0  # atno 17320 bound_to 7965
  145.1710  140.9721  143.4321 LP  0  0  0  0  0  0  0  0  0  0  0  0  # atno 17321 bound_to 7965
  140.6704  143.8307  150.6992 LP  0  0  0  0  0  0  0  0  0  0  0  0  # atno 17342 bound_to 10162
  140.1729  143.4179  152.1988 LP  0  0  0  0  0  0  0  0  0  0  0  0  # atno 17343 bound_to 10162
  156.6517  130.4487  149.5717 LP  0  0  0  0  0  0  0  0  0  0  0  0  # atno 17370 bound_to 10713
  156.2133  130.6692  151.1292 LP  0  0  0  0  0  0  0  0  0  0  0  0  # atno 17371 bound_to 10713
  140.6816  134.4761  157.5589 LP  0  0  0  0  0  0  0  0  0  0  0  0  # atno 17394 bound_to 11000
  139.9062  134.8443  156.1697 LP  0  0  0  0  0  0  0  0  0  0  0  0  # atno 17395 bound_to 11000

$$$$
