#       Name:                AV-unprocessed.smi:589
#       Creating user name   scv26
#       Creation time:       Thu Mar 26 23:51:22 2020


#       File generated by GOLD software.
#

@<TRIPOS>MOLECULE
AV-unprocessed.smi:589
    46    47     1
SMALL
NO_CHARGES


@<TRIPOS>ATOM
      1 ****        -3.5157   2.3694  -0.2308 C.3            1 S1                 0.0000
      2 ****        -2.7903   1.0425  -0.1526 C.ar           1 S1                 0.0000
      3 ****        -3.5003  -0.1688  -0.0775 C.ar           1 S1                 0.0000
      4 ****        -2.7791  -1.3784  -0.0129 C.ar           1 S1                 0.0000
      5 ****        -3.5626  -2.6825   0.0245 C.3            1 S1                 0.0000
      6 ****        -1.3556  -1.3297  -0.0101 C.ar           1 S1                 0.0000
      7 ****        -0.5239  -2.5871   0.0491 C.2            1 S1                 0.0000
      8 ****        -0.7482  -3.3891   1.0938 N.am           1 S1                 0.0000
      9 ****         0.3304  -2.8320  -0.8009 O.2            1 S1                 0.0000
     10 ****        -0.7368  -0.0490  -0.1025 C.ar           1 S1                 0.0000
     11 ****         0.6632   0.0820  -0.1064 N.3            1 S1                 0.0000
     12 ****         1.2063   0.6541   1.1177 C.3            1 S1                 0.0000
     13 ****         2.7454   0.5886   1.0888 C.3            1 S1                 0.0000
     14 ****         3.3748   1.2755   2.3052 C.3            1 S1                 0.0000
     15 ****         3.2198   1.2403  -0.0881 O.3            1 S1                 0.0000
     16 ****         2.7429   0.6298  -1.2859 C.3            1 S1                 0.0000
     17 ****         3.3701   1.3552  -2.4806 C.3            1 S1                 0.0000
     18 ****         1.2051   0.7030  -1.3075 C.3            1 S1                 0.0000
     19 ****        -1.4451   1.1038  -0.1666 N.ar           1 S1                 0.0000
     20 ****        -4.5969   2.2295  -0.2523 H              1 S1                 0.0000
     21 ****        -3.2252   2.9074  -1.1335 H              1 S1                 0.0000
     22 ****        -3.2692   2.9878   0.6327 H              1 S1                 0.0000
     23 ****        -4.5805  -0.1702  -0.0795 H              1 S1                 0.0000
     24 ****        -3.1559  -3.4052  -0.6835 H              1 S1                 0.0000
     25 ****        -4.6080  -2.5199  -0.2397 H              1 S1                 0.0000
     26 ****        -3.5357  -3.1162   1.0241 H              1 S1                 0.0000
     27 ****        -0.2280  -4.2488   1.1894 H              1 S1                 0.0000
     28 ****        -1.4420  -3.1333   1.7814 H              1 S1                 0.0000
     29 ****         0.8759   1.6893   1.2151 H              1 S1                 0.0000
     30 ****         0.8223   0.1087   1.9808 H              1 S1                 0.0000
     31 ****         3.0673  -0.4543   1.0732 H              1 S1                 0.0000
     32 ****         3.0486   0.8058   3.2333 H              1 S1                 0.0000
     33 ****         3.1005   2.3298   2.3483 H              1 S1                 0.0000
     34 ****         4.4627   1.2157   2.2667 H              1 S1                 0.0000
     35 ****         3.0609  -0.4144  -1.3065 H              1 S1                 0.0000
     36 ****         3.0390   0.9171  -3.4225 H              1 S1                 0.0000
     37 ****         4.4580   1.2913  -2.4484 H              1 S1                 0.0000
     38 ****         3.0978   2.4110  -2.4881 H              1 S1                 0.0000
     39 ****         0.8157   0.1945  -2.1904 H              1 S1                 0.0000
     40 ****         0.8820   1.7435  -1.3625 H              1 S1                 0.0000
     41 ****         0.4861  -2.1910  -1.5524 LP             1 S1                 0.0000
     42 ****         0.8694  -3.6721  -0.7405 LP             1 S1                 0.0000
     43 ****         0.9895  -0.8629  -0.1308 LP             1 S1                 0.0000
     44 ****         4.2194   1.2101  -0.0896 LP             1 S1                 0.0000
     45 ****         2.9152   2.1927  -0.0712 LP             1 S1                 0.0000
     46 ****        -0.9769   1.9856  -0.2233 LP             1 S1                 0.0000
@<TRIPOS>BOND
    1    1    2 1     
    2    1   20 1     
    3    1   21 1     
    4    1   22 1     
    5    2   19 ar    
    6    2    3 ar    
    7    3    4 ar    
    8    3   23 1     
    9    4    5 1     
   10    4    6 ar    
   11    5   24 1     
   12    5   25 1     
   13    5   26 1     
   14    6    7 1     
   15    6   10 ar    
   16    7    8 am    
   17    7    9 2     
   18    8   27 1     
   19    8   28 1     
   20   10   11 1     
   21   10   19 ar    
   22   11   18 1     
   23   11   12 1     
   24   12   13 1     
   25   12   29 1     
   26   12   30 1     
   27   13   14 1     
   28   13   15 1     
   29   13   31 1     
   30   14   32 1     
   31   14   33 1     
   32   14   34 1     
   33   15   16 1     
   34   16   17 1     
   35   16   18 1     
   36   16   35 1     
   37   17   36 1     
   38   17   37 1     
   39   17   38 1     
   40   18   39 1     
   41   18   40 1     
   42    9   41 1     
   43    9   42 1     
   44   11   43 1     
   45   15   44 1     
   46   15   45 1     
   47   19   46 1     
@<TRIPOS>SUBSTRUCTURE
      1 S1             1
@<TRIPOS>SET
LONE_PAIRS      STATIC     ATOMS    <user>   **** ""
6 41 42 43 44 45 46
DONOR_HYDROGENS      STATIC     ATOMS    <user>   **** ""
2 27 28
ATOM$BLUE        STATIC     ATOMS    COLORGROUP SYSTEM
6 41 42 43 44 45 46
ATOM$RED        STATIC     ATOMS    COLORGROUP SYSTEM
2 27 28
