AV-unprocessed.smi:2123|AV-procd|sdf|8649|dock5
  -GOLD-   2272011393D 1   1.00000     0.00000
 Structure written by MMmdl.
 47 48  0  0  0  0  0  0  0  0  1 V2000
  148.0429  131.6049  154.8333 C   0  0  0  0  0  0  0  0  0  0  0  0
  148.0156  133.3562  154.3713 S   0  0  0  0  0  0  0  0  0  0  0  0
  149.1562  134.0100  155.6191 C   0  0  0  0  0  0  0  0  0  0  0  0
  149.8700  135.2777  155.1200 C   0  0  0  0  0  0  0  0  0  0  0  0
  149.2167  136.5779  155.6001 C   0  0  0  0  0  0  0  0  0  0  0  0
  149.1398  136.8416  156.8006 O   0  0  0  0  0  0  0  0  0  0  0  0
  148.7463  137.3866  154.6382 N   0  0  0  0  0  0  0  0  0  0  0  0
  148.0866  138.6684  154.8614 C   0  0  0  0  0  0  0  0  0  0  0  0
  148.9409  139.6362  155.6603 C   0  0  0  0  0  0  0  0  0  0  0  0
  150.0598  140.2643  155.0800 C   0  0  0  0  0  0  0  0  0  0  0  0
  150.8239  141.1531  155.8602 C   0  0  0  0  0  0  0  0  0  0  0  0
  150.4452  141.3961  157.2025 C   0  0  0  0  0  0  0  0  0  0  0  0
  151.2000  142.2776  158.0068 N   0  0  0  0  0  0  0  0  0  0  0  0
  151.8455  143.4189  157.3613 C   0  0  0  0  0  0  0  0  0  0  0  0
  152.3268  144.4460  158.4044 C   0  0  1  0  0  0  0  0  0  0  0  0
  151.1874  145.2865  159.0082 C   0  0  0  0  0  0  0  0  0  0  0  0
  153.1120  143.7993  159.4084 O   0  0  0  0  0  0  0  0  0  0  0  0
  152.4578  142.7205  160.0754 C   0  0  2  0  0  0  0  0  0  0  0  0
  153.4301  142.1444  161.1101 C   0  0  0  0  0  0  0  0  0  0  0  0
  152.0216  141.6634  159.0448 C   0  0  0  0  0  0  0  0  0  0  0  0
  149.3672  140.7863  157.7555 N   0  0  0  0  0  0  0  0  0  0  0  0
  148.6390  139.9340  157.0042 C   0  0  0  0  0  0  0  0  0  0  0  0
  147.3914  131.0315  154.1739 H   0  0  0  0  0  0  0  0  0  0  0  0
  147.6978  131.4760  155.8592 H   0  0  0  0  0  0  0  0  0  0  0  0
  149.0544  131.2062  154.7538 H   0  0  0  0  0  0  0  0  0  0  0  0
  148.5897  134.2223  156.5268 H   0  0  0  0  0  0  0  0  0  0  0  0
  149.8828  133.2346  155.8646 H   0  0  0  0  0  0  0  0  0  0  0  0
  150.9081  135.2662  155.4553 H   0  0  0  0  0  0  0  0  0  0  0  0
  149.8914  135.2843  154.0296 H   0  0  0  0  0  0  0  0  0  0  0  0
  148.8539  137.0914  153.6786 H   0  0  0  0  0  0  0  0  0  0  0  0
  147.8039  139.1292  153.9132 H   0  0  0  0  0  0  0  0  0  0  0  0
  147.1548  138.4834  155.3965 H   0  0  0  0  0  0  0  0  0  0  0  0
  150.3352  140.0662  154.0547 H   0  0  0  0  0  0  0  0  0  0  0  0
  151.6955  141.6209  155.4274 H   0  0  0  0  0  0  0  0  0  0  0  0
  152.6966  143.0563  156.7832 H   0  0  0  0  0  0  0  0  0  0  0  0
  151.1638  143.9034  156.6609 H   0  0  0  0  0  0  0  0  0  0  0  0
  152.9957  145.1423  157.8979 H   0  0  0  0  0  0  0  0  0  0  0  0
  150.6909  145.8741  158.2357 H   0  0  0  0  0  0  0  0  0  0  0  0
  151.5711  145.9817  159.7551 H   0  0  0  0  0  0  0  0  0  0  0  0
  150.4246  144.6704  159.4836 H   0  0  0  0  0  0  0  0  0  0  0  0
  151.5832  143.0940  160.6085 H   0  0  0  0  0  0  0  0  0  0  0  0
  152.9747  141.3216  161.6618 H   0  0  0  0  0  0  0  0  0  0  0  0
  153.7248  142.9055  161.8331 H   0  0  0  0  0  0  0  0  0  0  0  0
  154.3358  141.7683  160.6336 H   0  0  0  0  0  0  0  0  0  0  0  0
  151.4943  140.8616  159.5592 H   0  0  0  0  0  0  0  0  0  0  0  0
  152.8970  141.2136  158.5744 H   0  0  0  0  0  0  0  0  0  0  0  0
  147.7928  139.4753  157.4937 H   0  0  0  0  0  0  0  0  0  0  0  0
  1  2  1  0  0  0  0
  1 23  1  0  0  0  0
  1 24  1  0  0  0  0
  1 25  1  0  0  0  0
  2  3  1  0  0  0  0
  3  4  1  0  0  0  0
  3 26  1  0  0  0  0
  3 27  1  0  0  0  0
  4  5  1  0  0  0  0
  4 28  1  0  0  0  0
  4 29  1  0  0  0  0
  5  6  2  0  0  0  0
  5  7  1  0  0  0  0
  7  8  1  0  0  0  0
  7 30  1  0  0  0  0
  8  9  1  0  0  0  0
  8 31  1  0  0  0  0
  8 32  1  0  0  0  0
  9 22  1  0  0  0  0
  9 10  2  0  0  0  0
 10 11  1  0  0  0  0
 10 33  1  0  0  0  0
 11 12  2  0  0  0  0
 11 34  1  0  0  0  0
 12 13  1  0  0  0  0
 12 21  1  0  0  0  0
 13 20  1  0  0  0  0
 13 14  1  0  0  0  0
 14 15  1  0  0  0  0
 14 35  1  0  0  0  0
 14 36  1  0  0  0  0
 15 16  1  0  0  0  0
 15 17  1  0  0  0  0
 15 37  1  0  0  0  0
 16 38  1  0  0  0  0
 16 39  1  0  0  0  0
 16 40  1  0  0  0  0
 17 18  1  0  0  0  0
 18 19  1  0  0  0  0
 18 20  1  0  0  0  0
 18 41  1  0  0  0  0
 19 42  1  0  0  0  0
 19 43  1  0  0  0  0
 19 44  1  0  0  0  0
 20 45  1  0  0  0  0
 20 46  1  0  0  0  0
 21 22  2  0  0  0  0
 22 47  1  0  0  0  0
M  END
> <s_m_source_file>
AV-unprocessed.smi

> <i_m_source_file_index>
2123

> <i_lp_mmshare_version>
43012

> <i_f3d_flags>
0

> <s_epik_input>
W0NIM11TW0NIMl1bQ0gyXUMoPU8pW05IXVtDSDJdYzFbY0hdW2NIXWMobltjSF0xKU4yW0NIMl1bQ0BASF0oW0NIM10pT1tDQEBIXShbQ0gzXSlbQ0gyXTI=

> <s_epik_cmdline>
J2VwaWtfcHl0aG9uJywgJy1waCcsICc3LjAnLCAnLXRuJywgJzgnLCAnLW1hJywgJzIwMCcsICctbWV0YWxfYmluZGluZycsICctaW1hZScsICc8aW5maWxlLm1hZT4nLCAnLW9tYWUnLCAnPG91dGZpbGUubWFlPic=

> <r_lp_tautomer_probability>
1

> <r_epik_Ionization_Penalty>
0.00642497

> <r_epik_Ionization_Penalty_Charging>
0

> <r_epik_Ionization_Penalty_Neutral>
0.00642497

> <r_epik_State_Penalty>
0.0047515

> <r_epik_Charging_Adjusted_Penalty>
0.0047515

> <i_epik_Tot_Q>
0

> <i_epik_Tot_abs_Q>
0

> <r_epik_Metal_State_Penalty>
-0

> <b_epik_Metal_Only>
0

> <s_lp_Force_Field>
OPLS_2005

> <r_lp_Energy>
17.9077

> <b_lp_Chiralities_Consistent>
1

> <s_lp_Variant>
AV-unprocessed.smi:2123-3

> <Gold.Version>
5.8.1

> <Gold.Id.Protein>
6NUR|6NUR_protein|mol2

> <Gold.PLP.Fitness>
43.7690

> <Gold.PLP.PLP>
-42.4893

> <Gold.PLP.part.hbond>
-1.0000

> <Gold.PLP.part.metal>
0.0000

> <Gold.PLP.part.buried>
-4.8433

> <Gold.PLP.part.nonpolar>
-37.1359

> <Gold.PLP.part.repulsive>
0.0777

> <Gold.PLP.ligand.clash>
0.0000

> <Gold.PLP.ligand.torsion>
1.0898

> <Gold.PLP.Chemscore.Hbond>
1.0000

> <Gold.PLP.Chemscore.CHOScore>
0.0000

> <Gold.PLP.Chemscore.Metal>
0.0000

> <Gold.Chemscore.Hbonds>
donor molecule, donor type, donor heavy atom, donor atom, acceptor molecule, acceptor atom, score
      L1  H     7    30       P1  7948  1.00

> <Gold.PLP.Chemscore.Internal.Correction>
0.4594

> <Gold.Rescore>
     Score         DG    S(hbond)    S(metal)    S(lipo)     H(rot)  DE(clash)    DE(int)     intcor
     16.82     -17.58       0.98        0.00     112.87       1.70       0.13       0.63       ----

> <Gold.Chemscore.Fitness>
16.8159

> <Gold.Chemscore.DG>
-17.5822

> <Gold.Chemscore.ZeroCoef>
-5.4800

> <Gold.Chemscore.Hbond>
0.9763

> <Gold.Chemscore.Metal>
0.0000

> <Gold.Chemscore.Lipo>
112.8727

> <Gold.Chemscore.Internal_Hbond>
0.0000

> <Gold.Chemscore.DEClash>
0.1347

> <Gold.Chemscore.DEInternal>
0.6316

> <Gold.Chemscore.Rot>
1.7049

> <Gold.Chemscore.Internal.Correction>
   9.000000E+99

> <Gold.Chemscore.Hbonds>
donor molecule, donor type, donor heavy atom, donor atom, acceptor molecule, acceptor atom, score
      L1  H     7    30       P1  7948  0.96

> <Gold.Chemscore.Hbond.Weighted>
-3.2608

> <Gold.Chemscore.Metal.Weighted>
-0.0000

> <Gold.Chemscore.Lipo.Weighted>
-13.2061

> <Gold.Chemscore.Internal_Hbond.Weighted>
0.0000

> <Gold.Chemscore.DEClash.Weighted>
0.1347

> <Gold.Chemscore.DEInternal.Weighted>
0.6316

> <Gold.Chemscore.Rot.Weighted>
4.3647

> <Gold.Chemscore.Internal.Correction.Weighted>
   9.000000E+99

> <Gold.Protein.RotatedTorsions>
[ 6907 6896 6895 6894 ] final -100.51 input  -60.11 | X-H torsion
[ 7974 7965 7964 7962 ] final   71.79 input  175.53 | X-H torsion
[ 8008 7997 7996 7995 ] final   47.52 input   59.86 | X-H torsion
[ 10167 10162 10161 10158 ] final -146.69 input  -65.29 | X-H torsion
[ 10718 10713 10712 10709 ] final -140.54 input   66.30 | X-H torsion
[ 10763 10752 10751 10750 ] final  -67.56 input  -60.55 | X-H torsion
[ 11005 11000 10999 10996 ] final  176.86 input  -57.11 | X-H torsion

> <Gold.Protein.ActiveResidues>
 VAL166  LYS551  ARG553  GLY616  TRP617  ASP618  TYR619  PRO620  LYS621  CYS622 
 ASP623  PHE694  ASN695  SER759  ASP760  ASP761  ALA762  ILE779  LEU786  VAL792 
 PHE793  MET794  SER795  GLU796  ALA797  LYS798  CYS799  TRP800  GLU811  SER814 

> <Gold.Protein.RotatedAtoms>
  150.7119  134.0876  159.3920 H   0  0  0  0  0  0  0  0  0  0  0  0  # atno 6907 bound_to 6896
  151.8861  135.0432  160.0503 H   0  0  0  0  0  0  0  0  0  0  0  0  # atno 6908 bound_to 6896
  152.2529  133.5195  159.5372 H   0  0  0  0  0  0  0  0  0  0  0  0  # atno 6909 bound_to 6896
  145.7614  139.2802  143.1374 H   0  0  0  0  0  0  0  0  0  0  0  0  # atno 7974 bound_to 7965
  155.3704  140.3423  155.4243 H   0  0  0  0  0  0  0  0  0  0  0  0  # atno 8008 bound_to 7997
  156.1666  140.1618  156.8555 H   0  0  0  0  0  0  0  0  0  0  0  0  # atno 8009 bound_to 7997
  154.5191  140.0771  156.8119 H   0  0  0  0  0  0  0  0  0  0  0  0  # atno 8010 bound_to 7997
  139.7690  143.8265  152.2621 H   0  0  0  0  0  0  0  0  0  0  0  0  # atno 10167 bound_to 10162
  156.3235  130.7547  151.1650 H   0  0  0  0  0  0  0  0  0  0  0  0  # atno 10718 bound_to 10713
  154.3763  135.6084  153.5767 H   0  0  0  0  0  0  0  0  0  0  0  0  # atno 10763 bound_to 10752
  152.9789  135.5850  154.4463 H   0  0  0  0  0  0  0  0  0  0  0  0  # atno 10764 bound_to 10752
  154.4225  135.2846  155.1944 H   0  0  0  0  0  0  0  0  0  0  0  0  # atno 10765 bound_to 10752
  140.3777  134.6974  157.4432 H   0  0  0  0  0  0  0  0  0  0  0  0  # atno 11005 bound_to 11000
  146.0260  140.8303  142.9900 LP  0  0  0  0  0  0  0  0  0  0  0  0  # atno 17320 bound_to 7965
  144.6829  140.2698  143.7307 LP  0  0  0  0  0  0  0  0  0  0  0  0  # atno 17321 bound_to 7965
  139.8294  144.7260  150.9470 LP  0  0  0  0  0  0  0  0  0  0  0  0  # atno 17342 bound_to 10162
  140.7813  143.4084  151.1033 LP  0  0  0  0  0  0  0  0  0  0  0  0  # atno 17343 bound_to 10162
  157.7416  131.0501  150.5081 LP  0  0  0  0  0  0  0  0  0  0  0  0  # atno 17370 bound_to 10713
  156.5237  130.4168  149.6237 LP  0  0  0  0  0  0  0  0  0  0  0  0  # atno 17371 bound_to 10713
  140.0502  134.6141  155.8871 LP  0  0  0  0  0  0  0  0  0  0  0  0  # atno 17394 bound_to 11000
  141.1934  133.6578  156.5545 LP  0  0  0  0  0  0  0  0  0  0  0  0  # atno 17395 bound_to 11000

$$$$
