#       Name:                AV-unprocessed.smi:2665
#       Creating user name   scv26
#       Creation time:       Fri Mar 27 14:34:57 2020


#       File generated by GOLD software.
#

@<TRIPOS>MOLECULE
AV-unprocessed.smi:2665
    37    38     1
SMALL
NO_CHARGES


@<TRIPOS>ATOM
      1 ****        -3.1457  -1.2485   2.0854 C.3            1 S1                 0.0000
      2 ****        -2.5232  -0.5576   0.8675 C.3            1 S1                 0.0000
      3 ****        -0.9846  -0.5206   0.9459 C.3            1 S1                 0.0000
      4 ****        -0.4437   0.2220  -0.1856 N.3            1 S1                 0.0000
      5 ****         0.9565   0.1977  -0.2535 C.ar           1 S1                 0.0000
      6 ****         1.5759  -0.4401  -1.3481 C.ar           1 S1                 0.0000
      7 ****         2.9875  -0.4679  -1.4200 C.ar           1 S1                 0.0000
      8 ****         3.6926  -1.1363  -2.5680 C.2            1 S1                 0.0000
      9 ****         4.9439  -1.1405  -2.5873 O.co2          1 S1                 0.0000
     10 ****         3.0077  -1.6687  -3.4699 O.co2          1 S1                -1.0000
     11 ****         3.7156   0.1519  -0.3796 C.ar           1 S1                 0.0000
     12 ****         3.0061   0.7635   0.6713 C.ar           1 S1                 0.0000
     13 ****         1.6589   0.7907   0.7409 N.ar           1 S1                 0.0000
     14 ****        -1.0080   1.5609  -0.2949 C.3            1 S1                 0.0000
     15 ****        -2.5432   1.4809  -0.3391 C.3            1 S1                 0.0000
     16 ****        -3.0189   0.7785   0.8062 O.3            1 S1                 0.0000
     17 ****        -2.8035  -2.2804   2.1680 H              1 S1                 0.0000
     18 ****        -4.2333  -1.2636   2.0112 H              1 S1                 0.0000
     19 ****        -2.8814  -0.7331   3.0092 H              1 S1                 0.0000
     20 ****        -2.8319  -1.0940  -0.0317 H              1 S1                 0.0000
     21 ****        -0.6697  -0.0508   1.8790 H              1 S1                 0.0000
     22 ****        -0.5832  -1.5347   0.9430 H              1 S1                 0.0000
     23 ****         0.9720  -0.8998  -2.1173 H              1 S1                 0.0000
     24 ****         4.7959   0.1639  -0.3791 H              1 S1                 0.0000
     25 ****         3.5359   1.2457   1.4793 H              1 S1                 0.0000
     26 ****        -0.6933   2.1658   0.5568 H              1 S1                 0.0000
     27 ****        -0.6315   2.0483  -1.1952 H              1 S1                 0.0000
     28 ****        -2.9721   2.4829  -0.3452 H              1 S1                 0.0000
     29 ****        -2.8811   0.9835  -1.2497 H              1 S1                 0.0000
     30 ****        -0.7446  -0.2690  -1.0032 LP             1 S1                 0.0000
     31 ****         5.4308  -1.5800  -3.3421 LP             1 S1                 0.0000
     32 ****         5.4568  -0.7043  -1.8479 LP             1 S1                 0.0000
     33 ****         3.4588  -2.1180  -4.2410 LP             1 S1                 0.0000
     34 ****         2.0092  -1.6448  -3.4195 LP             1 S1                 0.0000
     35 ****         1.1924   1.2361   1.5051 LP             1 S1                 0.0000
     36 ****        -2.7264   1.2679   1.6278 LP             1 S1                 0.0000
     37 ****        -4.0179   0.7495   0.7735 LP             1 S1                 0.0000
@<TRIPOS>BOND
    1    1    2 1     
    2    1   17 1     
    3    1   18 1     
    4    1   19 1     
    5    2   16 1     
    6    2    3 1     
    7    2   20 1     
    8    3    4 1     
    9    3   21 1     
   10    3   22 1     
   11    4    5 1     
   12    4   14 1     
   13    5   13 ar    
   14    5    6 ar    
   15    6    7 ar    
   16    6   23 1     
   17    7    8 1     
   18    7   11 ar    
   19    8    9 ar    
   20    8   10 ar    
   21   11   12 ar    
   22   11   24 1     
   23   12   13 ar    
   24   12   25 1     
   25   14   15 1     
   26   14   26 1     
   27   14   27 1     
   28   15   16 1     
   29   15   28 1     
   30   15   29 1     
   31    4   30 1     
   32    9   31 1     
   33    9   32 1     
   34   10   33 1     
   35   10   34 1     
   36   13   35 1     
   37   16   36 1     
   38   16   37 1     
@<TRIPOS>SUBSTRUCTURE
      1 S1             1
@<TRIPOS>SET
LONE_PAIRS      STATIC     ATOMS    <user>   **** ""
8 30 31 32 33 34 35 36 37
ATOM$BLUE        STATIC     ATOMS    COLORGROUP SYSTEM
8 30 31 32 33 34 35 36 37
